#------------------------------------------------------------------------------
#$Date: 2016-03-24 14:28:49 +0200 (Thu, 24 Mar 2016) $
#$Revision: 179665 $
#$URL: svn://www.crystallography.net/cod/cif/4/51/18/4511881.cif $
#------------------------------------------------------------------------------
#
# This file is available in the Crystallography Open Database (COD),
# http://www.crystallography.net/
#
# All data on this site have been placed in the public domain by the
# contributors.
#
data_4511881
loop_
_publ_author_name
'Harada, Jun'
'Ogawa, Keiichiro'
_publ_section_title
;
 What Molecules Are Likely or Unlikely To Undergo Pedal Motions in
 Crystals?
;
_journal_issue                   10
_journal_name_full               'Crystal Growth &amp; Design'
_journal_page_first              5182
_journal_paper_doi               10.1021/cg500962y
_journal_volume                  14
_journal_year                    2014
_chemical_formula_moiety         'C14 H10 Cl2'
_chemical_formula_sum            'C14 H10 Cl2'
_chemical_formula_weight         249.12
_chemical_name_systematic
;
 ?
;
_space_group_crystal_system      monoclinic
_space_group_IT_number           14
_space_group_name_Hall           '-P 2yn'
_space_group_name_H-M_alt        'P 1 21/n 1'
_symmetry_space_group_name_Hall  '-P 2yn'
_symmetry_space_group_name_H-M   'P 1 21/n 1'
_atom_sites_solution_hydrogens   geom
_atom_sites_solution_primary     direct
_audit_creation_date             2014-06-26
_audit_creation_method
;
Olex2 1.2
(compiled 2014.06.23 svn.r2946 for OlexSys, GUI svn.r4855)
;
_cell_angle_alpha                90
_cell_angle_beta                 111.047(1)
_cell_angle_gamma                90
_cell_formula_units_Z            2
_cell_length_a                   5.7210(3)
_cell_length_b                   17.3014(10)
_cell_length_c                   6.4223(4)
_cell_measurement_reflns_used    5279
_cell_measurement_temperature    300
_cell_measurement_theta_max      29.982
_cell_measurement_theta_min      2.354
_cell_volume                     593.28(6)
_computing_cell_refinement       'SAINT v6.28A (Bruker, 2002)'
_computing_data_collection       'SMART v5.054 (Bruker, 1998)'
_computing_data_reduction        'SAINT v6.28A (Bruker, 2002)'
_computing_molecular_graphics    'Ortep-3 for Windows (Farrugia, 2012)'
_computing_publication_material  'Olex2 (Dolomanov et al., 2009)'
_computing_structure_refinement  'ShelXL (Sheldrick, 2008)'
_computing_structure_solution    'ShelXS (Sheldrick, 2008)'
_diffrn_ambient_temperature      300
_diffrn_detector_area_resol_mean 8.192
_diffrn_measured_fraction_theta_full 1.000
_diffrn_measured_fraction_theta_max 0.999
_diffrn_measurement_device_type  'Bruker SMART 1000'
_diffrn_measurement_method       \w_scan
_diffrn_radiation_type           MoK\a
_diffrn_radiation_wavelength     0.71073
_diffrn_reflns_av_R_equivalents  0.0179
_diffrn_reflns_av_unetI/netI     0.0117
_diffrn_reflns_Laue_measured_fraction_full 1.000
_diffrn_reflns_Laue_measured_fraction_max 0.999
_diffrn_reflns_limit_h_max       8
_diffrn_reflns_limit_h_min       -8
_diffrn_reflns_limit_k_max       24
_diffrn_reflns_limit_k_min       -24
_diffrn_reflns_limit_l_max       9
_diffrn_reflns_limit_l_min       -9
_diffrn_reflns_number            9085
_diffrn_reflns_point_group_measured_fraction_full 1.000
_diffrn_reflns_point_group_measured_fraction_max 0.999
_diffrn_reflns_theta_full        25.242
_diffrn_reflns_theta_max         30.021
_diffrn_reflns_theta_min         2.354
_diffrn_source                   'sealed X-ray tube'
_exptl_absorpt_coefficient_mu    0.513
_exptl_absorpt_correction_T_max  1
_exptl_absorpt_correction_T_min  0.953917
_exptl_absorpt_correction_type   multi-scan
_exptl_absorpt_process_details
'SADABS v.2.03 (Bruker,200?) was used for absorption correction. R(int) was 0.0299 before and 0.0186 after correction. The Ratio of minimum to maximum transmission is 0.9539. The \l/2 correction factor is 0.0015.'
_exptl_crystal_colour            colourless
_exptl_crystal_colour_primary    colourless
_exptl_crystal_density_diffrn    1.395
_exptl_crystal_description       block
_exptl_crystal_F_000             256
_exptl_crystal_size_max          0.44
_exptl_crystal_size_mid          0.44
_exptl_crystal_size_min          0.2
_refine_diff_density_max         0.197
_refine_diff_density_min         -0.230
_refine_diff_density_rms         0.034
_refine_ls_extinction_method     none
_refine_ls_goodness_of_fit_ref   1.051
_refine_ls_hydrogen_treatment    constr
_refine_ls_matrix_type           full
_refine_ls_number_parameters     106
_refine_ls_number_reflns         1723
_refine_ls_number_restraints     251
_refine_ls_restrained_S_all      1.005
_refine_ls_R_factor_all          0.0320
_refine_ls_R_factor_gt           0.0280
_refine_ls_shift/su_max          0.000
_refine_ls_shift/su_mean         0.000
_refine_ls_structure_factor_coef Fsqd
_refine_ls_weighting_details
'w=1/[\s^2^(Fo^2^)+(0.0335P)^2^+0.0912P] where P=(Fo^2^+2Fc^2^)/3'
_refine_ls_weighting_scheme      calc
_refine_ls_wR_factor_gt          0.0703
_refine_ls_wR_factor_ref         0.0733
_reflns_Friedel_coverage         0.000
_reflns_number_gt                1541
_reflns_number_total             1723
_reflns_threshold_expression     'I > 2\s(I)'
_cod_data_source_file            cg500962y_si_001.cif
_cod_data_source_block           aaClESTrt
_cod_depositor_comments
'Adding full bibliography for 4511872--4511883.cif.'
_cod_database_code               4511881
#BEGIN Tags that were not found in dictionaries:
_shelxl_version_number           2013-4
_shelx_space_group_comment
;
The symmetry employed for this shelxl refinement is uniquely defined
by the following loop, which should always be used as a source of
symmetry information in preference to the above space-group names.
They are only intended as comments.
;
_shelx_estimated_absorpt_t_max   0.904
_shelx_estimated_absorpt_t_min   0.806
_olex2_refinement_description
;
1. Fixed Uiso
 At 1.2 times of:
  All C(H) groups
2. Restrained distances
 C7-C7_$1 \\sim C7'-C7'_$1
 with sigma of 0.02
3. Uiso/Uaniso restraints and constraints
All non-hydrogen atoms have similar U: within 1.7A with sigma of 0.04 and sigma
for terminal atoms of 0.08
4. Rigid body (RIGU) restrains
 All non-hydrogen atoms
 with sigma for 1-2 distances of 0.004 and sigma for 1-3 distances of 0.004
5. Same fragment restrains
{C1, C2, C3, C4, C5, C6, C7, Cl1}
as
{C1', C2', C3', C4', C5', C6', C7', Cl1'}
6. Others
 Sof(C1')=Sof(C2')=Sof(H2')=Sof(C3')=Sof(H3')=Sof(C4')=Sof(H4')=Sof(C5')=
 Sof(H5')=Sof(C6')=Sof(H6')=Sof(C7')=Sof(Cl1')=1-FVAR(1)
 Sof(C1)=Sof(C2)=Sof(H2)=Sof(C3)=Sof(H3)=Sof(C4)=Sof(H4)=Sof(C5)=Sof(H5)=
 Sof(C6)=Sof(H6)=Sof(C7)=Sof(Cl1)=FVAR(1)
7.a Aromatic/amide H refined with riding coordinates:
 C2(H2), C3(H3), C4(H4), C5(H5), C6(H6), C2'(H2'), C3'(H3'), C4'(H4'),
 C5'(H5'), C6'(H6')
;
_shelx_res_file
;
TITL (E)-alpha,alpha'-dichlorostilbene at r.t. in P2(1)/n
CELL 0.71073   5.7210  17.3014   6.4223  90.000 111.047  90.000
ZERR    2.00   0.0003   0.0010   0.0004   0.000   0.001   0.000
LATT 1
SYMM 0.5-X, 0.5+Y, 0.5-Z
SFAC C  H  Cl
UNIT 28 20 4
LIST 4
L.S. 6
BOND $H
CONF
FMAP 2
PLAN 20
ACTA
SIZE 0.2 0.44 0.44
TEMP 27
RIGU
SIMU
EQIV $1 1-x, 1-y, -z
SADI C7 C7_$1 C7' C7'_$1
WGHT    0.033500    0.091200
FVAR       1.20269   0.74910
PART 1
C1    1    0.544923    0.410408    0.196735    21.00000    0.03754    0.03772 =
         0.04366   -0.00186    0.01209   -0.00192
C2    1    0.439667    0.402538    0.358563    21.00000    0.04723    0.04724 =
         0.05325    0.00231    0.02299    0.00568
AFIX  43
H2    2    0.304745    0.433379    0.353921    21.00000   -1.20000
AFIX   0
C3    1    0.535547    0.348498    0.528312    21.00000    0.05911    0.05830 =
         0.04397    0.00776    0.02183    0.00110
AFIX  43
H3    2    0.471545    0.345878    0.642329    21.00000   -1.20000
AFIX   0
C4    1    0.723468    0.298995    0.529586    21.00000    0.05601    0.04824 =
         0.05019    0.01302    0.00759    0.00173
AFIX  43
H4    2    0.777583    0.260031    0.635930    21.00000   -1.20000
AFIX   0
C5    1    0.829049    0.308095    0.371986    21.00000    0.05152    0.05529 =
         0.07741    0.00158    0.01521    0.01567
AFIX  43
H5    2    0.963752    0.276840    0.378493    21.00000   -1.20000
AFIX   0
C6    1    0.743500    0.362100    0.202449    21.00000    0.04572    0.04941 =
         0.04931   -0.00272    0.01833    0.00197
AFIX  43
H6    2    0.816318    0.366216    0.094667    21.00000   -1.20000
AFIX   0
C7    1    0.444595    0.467944    0.014867    21.00000    0.03527    0.04285 =
         0.04025   -0.00331    0.01056   -0.00182
CL1   3    0.148642    0.444981   -0.179642    21.00000    0.03414    0.04794 =
         0.04877   -0.00073    0.00176   -0.01184
PART 2
SAME C1 > CL1
C1'   1    0.631096    0.420341    0.232422   -21.00000    0.03892
C2'   1    0.495216    0.413741    0.370409   -21.00000    0.05172
AFIX  43
H2'   2    0.388319    0.453520    0.376056   -21.00000   -1.20000
AFIX   0
C3'   1    0.515969    0.348899    0.500022   -21.00000    0.06362
AFIX  43
H3'   2    0.401922    0.338419    0.569282   -21.00000   -1.20000
AFIX   0
C4'   1    0.716051    0.299853    0.522183   -21.00000    0.06520
AFIX  43
H4'   2    0.763479    0.263880    0.637471   -21.00000   -1.20000
AFIX   0
C5'   1    0.849272    0.302911    0.375538   -21.00000    0.03437
AFIX  43
H5'   2    0.959955    0.264173    0.370805   -21.00000   -1.20000
AFIX   0
C6'   1    0.805320    0.366286    0.241266   -21.00000    0.04819
AFIX  43
H6'   2    0.899795    0.372749    0.151087   -21.00000   -1.20000
AFIX   0
C7'   1    0.596664    0.490609    0.089173   -21.00000    0.03893
CL1'  3    0.847899    0.555293    0.178884   -21.00000    0.08655
HKLF 4

REM  (E)-alpha,alpha'-dichlorostilbene at r.t. in P2(1)/n
REM R1 =  0.0280 for    1541 Fo > 4sig(Fo)  and  0.0320 for all    1723 data
REM    106 parameters refined using    251 restraints

END

WGHT      0.0335      0.0912

REM Highest difference peak  0.197,  deepest hole -0.230,  1-sigma level  0.034
Q1    1   0.5407  0.4865 -0.0352  11.00000  0.05    0.20
Q2    1   0.5075  0.4414  0.1181  11.00000  0.05    0.17
Q3    1   0.4604  0.3952  0.2474  11.00000  0.05    0.16
Q4    1   0.1532  0.4669 -0.0869  11.00000  0.05    0.16
Q5    1   0.6104  0.3826  0.1885  11.00000  0.05    0.12
Q6    1   0.5501  0.3888  0.4820  11.00000  0.05    0.12
Q7    1   0.6043  0.4530  0.1541  11.00000  0.05    0.11
Q8    1   0.7951  0.5413  0.2689  11.00000  0.05    0.11
Q9    1   0.6181  0.3249  0.5034  11.00000  0.05    0.11
Q10   1   0.5769  0.4244  0.3049  11.00000  0.05    0.11
Q11   1   0.8040  0.3429  0.3227  11.00000  0.05    0.10
Q12   1   0.7827  0.1628  0.6467  11.00000  0.05    0.09
Q13   1   0.7160  0.2178  0.7200  11.00000  0.05    0.08
Q14   1   1.0700  0.2858  0.4036  11.00000  0.05    0.08
Q15   1   0.7675  0.5863  0.1898  11.00000  0.05    0.08
Q16   1   0.8090  0.3155  0.4649  11.00000  0.05    0.08
Q17   1   0.8254  0.1718  0.5218  11.00000  0.05    0.08
Q18   1   0.2783  0.5460  0.2206  11.00000  0.05    0.07
Q19   1   0.0073  0.4854 -0.1459  11.00000  0.05    0.07
Q20   1   0.4395  0.3616  0.4015  11.00000  0.05    0.07
;
_shelx_res_checksum              84585
_shelx_hkl_file
;
  -1   0   0    0.00    0.08   2
  -1   0   0    0.10    0.08   1
  -2   0   0   38.70    0.97   4
  -2   0   0   39.70    0.90   3
  -2   0   0   36.46    0.97   2
  -2   0   0   38.80    0.92   1
  -3   0   0    0.75    0.31   1
  -3   0   0   -0.87    0.31   2
  -3   0   0    0.55    0.28   3
  -4   0   0   84.88    2.10   2
  -4   0   0   82.82    1.91   3
  -4   0   0   86.43    2.08   4
  -4   0   0   82.29    1.96   1
  -5   0   0    0.26    0.39   3
  -5   0   0    0.72    0.38   1
  -5   0   0   -0.46    0.35   4
  -5   0   0   -0.22    0.44   2
  -6   0   0   54.57    1.89   2
   6   0   0   54.48    1.78   1
  -6   0   0   56.77    1.76   3
   6   0   0   52.69    1.76   5
  -7   0   0    0.98    0.77   2
   0   1   0    0.08    0.03   4
   0   1   0    0.08    0.02   3
   0  -1   0    0.13    0.03   2
  -1  -1   0  851.06   14.41   3
  -1   1   0  859.35   14.52   1
  -1   1   0  855.00   15.58   4
  -1  -1   0  879.61   15.63   4
  -1   1   0  862.01   14.29   3
  -1   1   0  843.41   15.25   2
  -1  -1   0  848.96   15.23   2
  -1  -1   0  841.14   14.43   1
  -2  -1   0   53.21    1.28   2
  -2   1   0   56.16    1.20   3
  -2   1   0   55.59    1.27   2
  -2   1   0   56.02    1.29   4
  -2  -1   0   53.25    1.14   3
  -2   1   0   56.89    1.19   1
  -2  -1   0   57.14    1.27   4
  -2  -1   0   55.35    1.22   1
  -3   1   0 2562.95   45.04   2
  -3   1   0 2530.24   42.23   3
  -3   1   0 2590.68   42.68   1
  -3  -1   0 2573.93   42.72   1
  -3   1   0 2510.53   46.00   4
  -3  -1   0 2592.16   42.20   3
  -3  -1   0 2527.89   45.99   4
  -3  -1   0 2524.35   45.03   2
  -4  -1   0    4.41    0.48   1
  -4  -1   0    3.20    0.41   3
  -4  -1   0    2.50    0.48   2
  -4  -1   0    2.83    0.42   4
  -4   1   0    3.53    0.48   2
  -4   1   0    3.89    0.45   3
  -4   1   0    2.75    0.46   4
  -4   1   0    3.83    0.44   1
  -5  -1   0    0.49    0.40   1
   5   1   0    0.40    0.39   4
  -5   1   0    0.02    0.39   3
  -5   1   0    0.46    0.38   1
  -5   1   0   -0.51    0.41   4
  -5  -1   0    0.11    0.44   2
  -5   1   0    0.02    0.42   2
  -5  -1   0    0.36    0.39   3
   6  -1   0    0.32    0.46   1
  -6   1   0    0.86    0.53   3
  -6   1   0   -0.67    0.46   4
   6  -1   0    0.20    0.49   5
  -6  -1   0   -0.36    0.48   3
   6   1   0   -1.02    0.46   5
   6   1   0    0.57    0.52   1
  -6  -1   0   -0.47    0.54   2
  -6   1   0   -0.10    0.55   2
  -7   1   0   94.14    2.86   2
  -7  -1   0   90.83    2.80   2
   0   2   0 2033.57   34.67   1
   0   2   0 2037.16   35.14   5
   0  -2   0 1816.50   34.93   2
   0   2   0 1998.17   33.58   3
   0   2   0 1870.94   35.70   4
  -1   2   0  247.35    4.42   1
  -1   2   0  257.88    4.40   3
  -1  -2   0  262.71    4.45   1
  -1   2   0  256.00    4.77   4
  -1  -2   0  251.86    4.68   2
  -1  -2   0  248.89    4.40   3
   1   2   0  257.59    4.77   4
   1  -2   0  260.76    4.68   2
  -2   2   0  439.15    7.87   2
  -2  -2   0  426.09    7.30   3
  -2   2   0  427.84    8.02   4
  -2   2   0  429.73    7.40   3
  -2  -2   0  431.03    7.89   2
  -2  -2   0  441.22    7.50   1
   2   2   0  429.53    8.01   4
  -2   2   0  428.51    7.40   1
  -3  -2   0  289.51    5.14   1
  -3   2   0  281.98    5.46   4
   3   2   0  277.71    5.44   4
  -3  -2   0  272.13    4.93   3
  -3   2   0  274.24    5.37   2
  -3  -2   0  281.60    5.39   2
  -3   2   0  281.03    5.07   3
  -3   2   0  282.76    5.03   1
  -4   2   0  368.70    7.09   2
  -4  -2   0  370.63    6.55   3
  -4  -2   0  367.56    6.75   1
  -4   2   0  368.23    6.68   3
   4   2   0  366.76    7.18   4
  -4   2   0  366.20    6.64   1
  -4  -2   0  373.73    7.13   2
  -4   2   0  373.55    7.21   4
   5   2   0  170.91    3.82   4
  -5   2   0  172.90    3.86   4
  -5   2   0  169.54    3.54   1
  -5  -2   0  169.93    3.65   1
  -5  -2   0  174.82    3.87   2
  -5   2   0  174.32    3.62   3
  -5   2   0  176.80    3.84   2
  -5  -2   0  171.26    3.47   3
  -6  -2   0   16.68    1.21   2
  -6   2   0   17.42    1.14   3
   6   2   0   17.46    1.10   5
  -6   2   0   17.65    1.13   4
   6   2   0   18.02    1.13   1
  -6   2   0   20.40    1.24   2
   7   2   0    1.85    0.74   1
   7   2   0    1.38    0.75   5
  -7  -2   0    2.37    0.77   2
   0  -3   0    0.19    0.07   3
   0  -3   0    0.09    0.09   2
   0   3   0    0.11    0.09   4
   0   3   0   -0.04    0.05   1
   0   3   0   -0.08    0.06   5
  -1  -3   0  436.58    7.39   1
  -1  -3   0  431.67    7.81   2
  -1   3   0  426.64    7.32   3
   1   3   0  435.34    7.95   4
  -1   3   0  407.68    7.46   1
   1  -3   0  437.74    7.79   2
  -1   3   0  443.89    7.98   4
   2  -3   0 1728.53   30.94   2
  -2  -3   0 1751.53   29.37   1
  -2  -3   0 1690.92   30.96   2
   2   3   0 1765.57   31.64   4
  -2   3   0 1744.91   29.06   3
  -2   3   0 1796.05   31.64   4
  -2   3   0 1762.15   29.33   1
  -2  -3   0 1764.91   29.05   3
  -3  -3   0   18.27    0.78   1
  -3   3   0   17.47    0.77   4
   3   3   0   15.70    0.77   4
  -3  -3   0   17.10    0.61   3
  -3  -3   0   18.34    0.82   2
  -3   3   0   18.78    0.65   1
  -3   3   0   16.62    0.76   3
  -3   3   0   13.93    0.80   2
  -4   3   0  187.13    3.64   1
  -4  -3   0  191.40    3.59   3
  -4   3   0  190.74    3.97   2
  -4  -3   0  191.79    3.82   1
   4   3   0  187.29    3.99   4
  -4  -3   0  189.12    4.01   2
  -4   3   0  193.09    3.77   3
  -4   3   0  189.40    4.02   4
   5   3   0    2.20    0.54   4
  -5   3   0    4.22    0.53   1
  -5  -3   0    3.78    0.50   3
  -5   3   0    3.24    0.57   3
  -5   3   0    1.73    0.55   2
  -5  -3   0    2.34    0.58   2
  -5  -3   0    3.31    0.58   1
  -5   3   0    1.95    0.52   4
   6   3   0   54.85    1.84   5
   6   3   0   54.13    1.82   1
   6  -3   0   52.72    1.85   2
  -6   3   0   54.01    1.86   4
  -6   3   0   51.53    1.78   3
  -6  -3   0   52.89    1.93   2
   7   3   0   12.49    1.13   5
   7   3   0   13.01    1.12   1
  -7   3   0   10.15    1.06   3
  -7  -3   0   11.13    1.11   2
   0   4   0  698.39   12.07   5
   0  -4   0  700.03   12.53   2
   0  -4   0  704.26   11.75   3
   0   4   0  695.79   11.91   1
   0   4   0  704.93   12.80   4
   1   4   0 7576.28  141.79   4
  -1   4   0 8285.72  141.77   4
   1  -4   0 7793.69  138.75   2
  -1   4   0 7931.80  129.97   3
  -2   4   0   98.17    1.99   3
  -2   4   0   98.03    2.12   4
  -2  -4   0   96.61    1.99   1
  -2  -4   0   94.71    1.76   3
  -2  -4   0   94.75    2.10   2
   2   4   0   96.69    2.06   4
  -2   4   0   94.51    1.81   1
   2  -4   0   96.30    2.05   2
  -3  -4   0   26.90    0.94   1
   3  -4   0   27.74    0.93   2
   3   4   0   26.53    0.93   4
  -3   4   0   25.75    0.76   1
  -3  -4   0   26.67    0.99   2
  -3   4   0   26.80    0.94   4
  -3   4   0   25.11    0.93   3
  -3  -4   0   26.00    0.72   3
   4   4   0  135.84    3.05   4
  -4   4   0  134.22    3.10   4
  -4   4   0  139.09    2.95   3
  -4   4   0  136.85    2.76   1
   4  -4   0  139.05    3.06   2
  -4  -4   0  140.80    2.71   3
  -4  -4   0  140.86    2.98   1
  -4  -4   0  135.53    3.12   2
   5   4   0  168.84    3.79   4
  -5   4   0  172.06    3.47   1
  -5   4   0  175.09    3.88   4
   5  -4   0  170.18    3.80   2
  -5  -4   0  168.70    3.68   1
  -5  -4   0  170.64    3.86   2
  -5   4   0  169.94    3.65   3
   6   4   0    2.87    0.66   1
   6  -4   0    1.90    0.63   2
   6   4   0    2.63    0.68   5
  -6   4   0    2.21    0.64   3
  -6  -4   0    0.57    0.64   2
  -6   4   0    1.03    0.62   4
  -7  -4   0   10.88    1.14   2
  -7   4   0   12.02    1.14   3
   7   4   0   10.30    1.06   5
   7   4   0   10.55    1.07   1
  -1   5   0  454.35    8.49   4
  -1  -5   0  461.74    7.85   1
   1   5   0  452.73    8.44   4
  -1   5   0  453.34    7.79   3
   1  -5   0  462.09    8.28   2
  -1  -5   0  452.48    8.31   2
  -2   5   0 1558.12   28.12   4
  -2   5   0 1583.81   25.85   3
   2  -5   0 1573.79   27.49   2
  -2  -5   0 1570.99   27.54   2
  -2  -5   0 1555.08   26.10   1
   2   5   0 1531.54   28.07   4
  -2   5   0 1513.55   26.04   1
  -2  -5   0 1520.38   25.82   3
   3  -5   0   67.49    1.67   2
  -3  -5   0   65.78    1.64   1
  -3   5   0   64.71    1.71   4
  -3   5   0   67.35    1.65   3
  -3   5   0   68.21    1.42   1
  -3  -5   0   66.15    1.74   2
   3   5   0   67.55    1.65   4
  -3  -5   0   65.83    1.36   3
  -4  -5   0  380.40    6.59   3
  -4   5   0  379.47    6.71   1
  -4  -5   0  381.12    6.99   1
  -4  -5   0  375.18    7.33   2
   4   5   0  375.26    7.35   4
  -4   5   0  371.05    7.42   4
   4  -5   0  373.93    7.26   2
  -4   5   0  383.25    6.93   3
  -5  -5   0    2.03    0.56   2
   5  -5   0    1.40    0.52   2
   5   5   0    1.49    0.51   4
  -5   5   0    2.18    0.57   3
  -5   5   0    1.21    0.49   4
  -5   5   0    2.79    0.46   1
  -5  -5   0    2.20    0.57   1
  -6   5   0   98.87    2.66   3
   6   5   0   96.36    2.71   5
  -6  -5   0   97.66    2.82   2
  -6   5   0   99.22    2.76   4
   6   5   0   99.95    2.69   1
  -7   5   0    1.43    0.76   3
  -7  -5   0    0.73    0.78   2
   7   5   0    0.21    0.71   5
   7   5   0    1.52    0.77   1
   0   6   0  311.79    5.35   1
   0  -6   0  312.12    5.76   2
   0   6   0  305.77    5.87   4
   0  -6   0  310.67    5.32   3
  -1  -6   0  760.25   13.58   2
   1  -6   0  761.33   13.55   2
  -1  -6   0  734.42   12.67   3
   1   6   0  744.59   13.82   4
  -1   6   0  763.79   12.72   3
  -1  -6   0  767.08   12.84   1
  -2   6   0   17.38    0.76   4
  -2  -6   0   16.80    0.73   1
  -2   6   0   16.61    0.75   3
  -2  -6   0   17.73    0.84   2
   2  -6   0   15.87    0.78   2
   2   6   0   15.55    0.74   4
   3   6   0  178.49    3.68   4
  -3  -6   0  174.35    3.17   3
  -3   6   0  176.50    3.24   1
  -3   6   0  183.69    3.55   3
  -3   6   0  181.97    3.78   4
   3  -6   0  178.93    3.65   2
  -3  -6   0  178.53    3.55   1
  -3  -6   0  176.80    3.74   2
   4   6   0   60.41    1.72   4
  -4   6   0   63.13    1.48   1
  -4  -6   0   64.86    1.76   1
  -4   6   0   63.43    1.81   4
   4  -6   0   61.91    1.76   2
  -4  -6   0   62.50    1.85   2
  -4  -6   0   61.66    1.41   3
  -4   6   0   61.66    1.75   3
  -5   6   0   58.79    1.80   3
  -5  -6   0   56.06    1.78   1
   5  -6   0   58.61    1.80   2
  -5  -6   0   56.00    1.87   2
  -5   6   0   55.95    1.82   4
  -6   6   0   22.08    1.38   4
   6   6   0   21.47    1.34   5
  -6  -6   0   22.86    1.42   2
  -6   6   0   22.99    1.35   3
   6   6   0   22.77    1.33   1
   7   6   0    2.27    0.79   1
   7   6   0    2.83    0.82   5
  -7   6   0    2.21    0.83   3
  -7  -6   0    0.88    0.79   2
   0  -7   0   -0.15    0.18   2
   0   7   0   -0.13    0.19   4
   0  -7   0    0.05    0.14   3
   0   7   0   -0.10    0.13   1
  -1  -7   0  474.30    8.03   3
  -1   7   0  477.48    8.18   3
   1   7   0  478.16    8.34   5
  -1  -7   0  467.32    8.74   2
   1  -7   0  492.43    8.72   2
  -1   7   0  473.95    8.94   4
   1   7   0  478.85    8.23   1
   1   7   0  464.29    8.88   4
  -2   7   0  305.07    5.87   4
  -2  -7   0  302.66    5.43   1
   2   7   0  299.85    5.77   4
  -2  -7   0  292.84    5.75   2
  -2   7   0  296.60    5.40   3
   2  -7   0  298.00    5.67   2
  -3   7   0  320.67    6.46   4
  -3   7   0  326.71    5.69   1
   3   7   0  325.39    6.36   4
  -3  -7   0  330.18    6.05   1
   3  -7   0  331.08    6.28   2
  -3   7   0  334.81    6.03   3
  -3  -7   0  322.68    6.38   2
  -4   7   0   44.89    1.51   4
  -4   7   0   45.53    1.17   1
   4   7   0   44.54    1.43   4
  -4   7   0   45.45    1.47   3
  -4  -7   0   46.10    1.48   1
  -4  -7   0   43.81    1.56   2
   4  -7   0   44.52    1.45   2
   5   7   0    0.05    0.44   1
   5  -7   0   -0.22    0.43   2
  -5   7   0   -0.43    0.44   4
  -5   7   0   -0.04    0.49   3
  -5  -7   0    0.20    0.51   2
   5   7   0   -0.63    0.47   5
  -6  -7   0   32.54    1.62   2
   6   7   0   29.55    1.51   5
  -6   7   0   32.13    1.58   4
  -6   7   0   32.61    1.58   3
   6   7   0   33.98    1.58   1
   7   7   0   24.93    1.49   1
   7   7   0   22.19    1.44   5
   7  -7   0   21.90    1.48   3
  -7  -7   0   22.69    1.56   2
   0   8   0 2193.07   36.38   1
   0  -8   0 2193.93   35.99   3
   0  -8   0 2094.87   38.42   2
   0   8   0 2216.74   39.31   4
  -1  -8   0  268.73    5.23   2
   1   8   0  273.95    5.30   4
   1   8   0  273.49    4.88   1
  -1   8   0  275.02    5.36   4
  -1  -8   0  267.69    4.68   3
   1   8   0  275.85    4.95   5
   1  -8   0  275.42    5.20   2
  -1   8   0  266.50    4.87   3
  -2   8   0  214.42    4.05   3
  -2  -8   0  215.31    4.06   1
  -2   8   0  216.76    4.40   4
  -2  -8   0  212.85    4.32   2
   2  -8   0  216.71    4.25   2
   2   8   0  213.08    4.31   4
  -3   8   0   46.00    1.41   3
  -3  -8   0   46.44    1.39   1
   3   8   0   46.43    1.40   4
  -3  -8   0   44.66    1.52   2
  -3   8   0   46.46    1.50   4
   3  -8   0   45.70    1.41   2
   4   8   0  259.84    5.35   4
  -4   8   0  264.29    5.14   3
  -4  -8   0  261.64    5.43   2
   4  -8   0  267.14    5.32   2
  -4   8   0  256.36    5.45   4
  -4  -8   0  262.84    5.17   1
   5   8   0   22.41    1.22   5
  -5   8   0   22.29    1.19   4
  -5  -8   0   25.82    1.31   2
   5  -8   0   25.30    1.22   2
  -5   8   0   24.84    1.24   3
   5   8   0   22.79    1.19   1
   6   8   0  106.35    2.86   1
  -6   8   0   99.18    2.87   4
   6   8   0   97.62    2.80   5
  -6  -8   0  101.35    2.92   2
  -6   8   0  100.77    2.83   3
   7   8   0    0.48    0.77   5
  -7  -8   0    1.49    0.84   2
   7   8   0    1.96    0.82   1
   7  -8   0    1.03    0.75   3
   0   9   0   -0.10    0.17   1
   0  -9   0    0.07    0.19   3
   0  -9   0    0.35    0.24   2
  -1  -9   0  410.99    7.06   3
   1   9   0  422.72    7.28   1
   1   9   0  418.40    7.38   5
  -1   9   0  408.86    7.96   4
   1   9   0  404.23    7.89   4
  -1  -9   0  414.30    7.79   2
  -1   9   0  417.71    7.25   3
   1  -9   0  423.10    7.76   2
  -2  -9   0    0.88    0.33   2
   2   9   0    0.31    0.27   4
   2   9   0   -0.13    0.27   1
   2   9   0    0.04    0.29   5
  -2   9   0    0.62    0.30   3
   2  -9   0    0.79    0.31   2
  -3   9   0  567.93   10.07   3
   3   9   0  571.47   10.28   5
   3  -9   0  575.93   10.60   2
   3   9   0  561.38   10.77   4
  -3  -9   0  576.49   10.72   2
  -3   9   0  569.75   10.90   4
   3   9   0  569.46   10.13   1
   4   9   0    0.73    0.46   4
  -4   9   0    1.07    0.49   3
  -4  -9   0    1.48    0.51   2
   4   9   0    1.29    0.46   1
   4   9   0    1.07    0.48   5
  -4   9   0    1.17    0.45   4
   4  -9   0    0.39    0.45   2
  -5  -9   0    3.93    0.71   2
  -5   9   0    4.08    0.73   3
  -5   9   0    3.88    0.65   4
   5   9   0    5.03    0.74   5
   5   9   0    3.55    0.65   1
   5  -9   0    4.79    0.68   2
  -6   9   0   17.68    1.33   3
   6   9   0   19.59    1.29   1
  -6  -9   0   19.19    1.35   2
  -6   9   0   19.74    1.32   4
   6   9   0   19.23    1.25   5
   0 -10   0  311.72    5.94   2
   0 -10   0  303.46    5.43   3
   0  10   0  316.91    6.09   4
   0  10   0  300.56    5.40   1
  -1 -10   0  108.56    2.45   2
  -1 -10   0  107.34    2.03   3
   1  10   0  103.97    2.44   4
   1  10   0  104.19    2.22   5
   1 -10   0  107.04    2.23   3
   1  10   0  106.31    2.20   1
   1 -10   0  111.12    2.44   2
  -1  10   0  102.85    2.49   4
   2  10   0   16.10    0.88   4
   2  10   0   14.27    0.78   1
   2 -10   0   16.18    0.86   2
   2  10   0   16.71    0.80   5
  -2  10   0   16.17    0.89   4
  -2  10   0   16.29    0.82   3
  -2 -10   0   15.65    0.92   2
   3  10   0   82.39    2.11   5
  -3  10   0   83.46    2.24   4
   3 -10   0   83.79    2.14   2
   3  10   0   83.21    2.15   4
  -3  10   0   85.04    2.12   3
   3  10   0   82.69    2.07   1
  -3 -10   0   84.57    2.26   2
   4  10   0  108.56    2.68   4
   4 -10   0  107.96    2.68   2
  -4  10   0  109.59    2.80   4
   4  10   0  106.00    2.64   1
   4  10   0  109.99    2.71   5
  -4 -10   0  107.57    2.81   2
  -4  10   0  112.64    2.70   3
   5 -10   0   12.03    1.02   2
  -5 -10   0   13.55    1.10   2
   5  10   0   12.90    1.01   5
  -5  10   0   13.82    1.08   3
  -5  10   0   13.80    1.08   4
   5  10   0   13.96    1.05   1
  -6  10   0   30.37    1.55   3
  -6  10   0   28.14    1.51   4
  -6 -10   0   29.18    1.58   2
   6  10   0   28.49    1.49   5
   6  10   0   30.23    1.52   1
   0  11   0    0.04    0.21   1
   0  11   0    0.13    0.30   4
   0 -11   0    0.29    0.29   2
   0 -11   0    0.40    0.24   3
   1  11   0  394.72    7.13   5
   1 -11   0  396.70    7.03   3
   1 -11   0  400.77    7.56   2
  -1 -11   0  394.18    6.82   3
   1  11   0  396.57    7.70   4
   1  11   0  397.37    7.04   1
  -1  11   0  399.91    7.78   4
  -1 -11   0  395.10    7.59   2
  -2  11   0  437.54    7.71   3
   2  11   0  421.63    7.70   1
  -2  11   0  430.75    8.41   4
   2 -11   0  428.38    8.15   2
  -2 -11   0  427.54    8.24   2
   2  11   0  428.42    8.30   4
   2  11   0  427.25    7.82   5
  -3  11   0  108.34    2.57   3
   3  11   0  108.41    2.58   5
   3  11   0  108.93    2.65   4
  -3 -11   0  110.66    2.75   2
   3 -11   0  110.59    2.63   2
   3  11   0  107.53    2.54   1
  -3  11   0  109.60    2.75   4
   4 -11   0    8.44    0.75   2
  -4  11   0    9.81    0.85   3
  -4 -11   0    7.89    0.80   2
   4  11   0    8.12    0.72   4
   4  11   0    9.17    0.85   5
   4  11   0    8.98    0.80   1
  -4  11   0    9.04    0.81   4
  -5  11   0    6.32    0.79   4
  -5 -11   0    5.43    0.83   2
   5  11   0    5.22    0.77   1
  -5  11   0    6.25    0.82   3
   5  11   0    8.50    0.91   5
   6  11   0   -0.77    0.60   5
  -6 -11   0    0.49    0.68   2
   6 -11   0    0.52    0.64   3
  -6  11   0   -0.05    0.61   4
   6  11   0    0.36    0.62   1
   0 -12   0  232.31    4.24   3
   0 -12   0  233.56    4.69   2
   0  12   0  224.42    4.79   4
   0  12   0  231.07    4.19   1
   1  12   0  300.82    6.01   4
  -1 -12   0  297.07    5.92   2
  -1 -12   0  295.19    5.23   3
   1 -12   0  301.14    5.47   3
   1 -12   0  306.20    5.91   2
   1  12   0  296.30    5.44   1
  -1  12   0  289.63    6.05   4
   2  12   0  239.85    4.65   5
  -2  12   0  237.45    5.05   4
   2 -12   0  238.70    4.58   3
  -2 -12   0  234.59    4.95   2
   2 -12   0  237.50    4.86   2
   2  12   0  234.11    4.94   4
   2  12   0  239.10    4.58   1
   3 -12   0   -0.15    0.41   2
   3  12   0    0.39    0.43   5
   3  12   0    0.27    0.40   4
  -3  12   0    1.21    0.47   3
  -3 -12   0    0.19    0.45   2
   3  12   0   -0.67    0.38   1
  -3  12   0   -0.06    0.43   4
  -4  12   0   32.10    1.41   3
  -4 -12   0   34.07    1.51   2
   4  12   0   34.29    1.39   1
   4  12   0   32.75    1.40   5
   4 -12   0   33.82    1.41   2
   4  12   0   33.79    1.41   4
  -4  12   0   32.38    1.47   4
  -5  12   0  173.77    4.21   4
  -5 -12   0  175.26    4.22   2
   5  12   0  171.30    4.04   5
   5  12   0  170.38    3.99   1
  -6 -12   0    1.18    0.71   2
   6  12   0    0.68    0.69   5
  -6  12   0    1.99    0.72   4
   6  12   0    0.76    0.69   1
   6 -12   0    1.13    0.71   3
   0 -13   0    0.94    0.37   2
   0 -13   0    0.94    0.32   3
   0  13   0    0.60    0.38   4
   0  13   0    0.45    0.27   1
   1 -13   0  134.24    3.07   2
  -1 -13   0  135.21    3.11   2
   1  13   0  132.86    2.75   1
   1  13   0  133.89    3.14   4
  -1 -13   0  134.64    2.60   3
  -1  13   0  134.60    3.19   4
   1 -13   0  134.91    2.81   3
   2  13   0  339.15    6.26   1
   2 -13   0  341.72    6.67   2
  -2 -13   0  337.77    6.76   2
   2  13   0  339.07    6.35   5
   2  13   0  328.46    6.76   4
   2 -13   0  333.90    6.25   3
  -3 -13   0    9.88    0.93   2
   3  13   0    8.51    0.76   4
  -3  13   0   10.39    0.94   4
   3 -13   0    9.67    0.89   2
   3  13   0    8.63    0.75   1
   3  13   0    8.21    0.77   5
   4  13   0   34.78    1.43   1
   4 -13   0   36.15    1.48   2
  -4 -13   0   33.35    1.52   2
  -4  13   0   33.66    1.53   4
   4  13   0   33.36    1.44   5
  -4  13   0   35.32    1.47   3
   4  13   0   34.16    1.47   4
  -5 -13   0    2.60    0.75   2
  -5  13   0    2.98    0.73   4
   5 -13   0    3.08    0.78   3
   5  13   0    2.19    0.76   5
   5  13   0    2.29    0.72   1
   6  13   0    4.68    0.89   1
  -6  13   0    6.66    0.92   4
   6  13   0    7.31    1.00   5
  -6 -13   0    6.57    0.99   2
   6 -13   0    8.61    1.04   3
   0 -14   0   51.45    1.59   2
   0  14   0   44.45    1.23   1
   0 -14   0   45.05    1.32   3
   0  14   0   44.03    1.57   4
  -1  14   0   38.86    1.48   4
  -1 -14   0   37.02    1.42   2
   1 -14   0   37.51    1.40   2
  -1 -14   0   37.34    1.07   3
   1 -14   0   37.24    1.25   3
   1  14   0   37.37    1.43   4
   1  14   0   38.02    1.20   1
   2 -14   0   65.46    1.81   3
   2  14   0   62.50    1.94   4
   2  14   0   64.86    1.77   1
   2  14   0   63.30    1.78   5
  -2  14   0   63.44    2.01   4
   2 -14   0   66.09    1.95   2
  -2 -14   0   60.63    1.97   2
   3 -14   0  104.13    2.57   3
   3  14   0  102.08    2.58   5
  -3  14   0  101.16    2.77   4
   3 -14   0  103.79    2.66   2
  -3 -14   0   98.70    2.72   2
   3  14   0  104.91    2.70   4
   3  14   0  101.50    2.54   1
   4  14   0   12.13    1.03   1
   4 -14   0   13.24    1.05   3
   4  14   0   13.64    1.04   5
  -4  14   0   11.90    1.12   4
  -4 -14   0   10.98    1.08   2
   4  14   0   13.08    1.09   4
   4 -14   0   13.53    1.09   2
  -5 -14   0   53.84    2.09   2
   5  14   0   56.01    2.00   1
   5  14   0   51.47    1.97   5
  -5  14   0   51.80    2.01   4
   5 -14   0   54.72    2.00   3
  -6 -14   0    3.08    0.87   2
  -6  14   0    2.92    0.82   4
   6 -14   0    3.08    0.84   3
   6  14   0    1.57    0.83   1
   6  14   0    2.71    0.88   5
   0 -15   0    0.30    0.43   2
   0 -15   0    0.11    0.36   3
   0  15   0    0.03    0.44   4
   0  15   0   -0.15    0.34   1
  -1 -15   0  157.07    3.65   2
   1 -15   0  165.32    3.33   3
   1 -15   0  154.09    3.59   2
  -1  15   0  155.25    3.73   4
   1  15   0  153.46    3.22   1
   1  15   0  156.26    3.69   4
   2  15   0   52.60    1.76   4
   2  15   0   48.29    1.55   1
   2 -15   0   49.49    1.71   2
  -2 -15   0   47.11    1.77   2
   2 -15   0   47.09    1.58   3
  -2  15   0   46.33    1.76   4
   3 -15   0   13.25    0.98   3
  -3 -15   0   14.05    1.09   2
   3  15   0   12.86    0.98   5
   3  15   0   13.80    1.01   1
  -3  15   0   14.08    1.08   4
   3 -15   0   12.24    1.06   2
   3  15   0   12.55    1.07   4
  -4 -15   0   22.99    1.37   2
  -4  15   0   23.18    1.39   4
   4  15   0   23.49    1.29   5
   4 -15   0   23.37    1.28   3
   4  15   0   23.01    1.29   1
   5  15   0    4.49    0.84   1
  -5 -15   0    4.49    0.90   2
   5  15   0    3.29    0.82   5
  -5  15   0    3.49    0.82   4
   5 -15   0    3.98    0.84   3
   0 -16   0   16.62    0.89   3
   0  16   0   15.93    1.12   4
   0 -16   0   17.13    1.05   2
   1 -16   0  334.12    6.13   3
   1  16   0  319.06    6.03   1
  -1  16   0  325.63    6.84   4
   1 -16   0  327.30    6.62   2
   1  16   0  319.62    6.76   4
   2 -16   0  234.46    4.94   2
  -2 -16   0  221.99    5.00   2
   2 -16   0  224.17    4.59   3
   2  16   0  222.90    4.97   4
   2  16   0  228.54    4.54   1
  -2  16   0  222.18    5.08   4
   3  16   0    9.14    0.84   1
   3 -16   0    9.55    0.90   2
   3 -16   0    9.69    0.87   3
  -3 -16   0    8.53    0.87   2
  -3  16   0    8.61    0.92   4
   3  16   0   10.54    1.07   4
   4 -16   0   50.29    1.86   3
  -4 -16   0   50.15    1.98   2
   4  16   0   49.87    1.85   5
  -4  16   0   52.45    2.03   4
   4  16   0   50.34    1.85   1
  -5  16   0    3.66    0.87   4
   5  16   0    5.36    0.90   5
  -5 -16   0    5.36    0.96   2
   5  16   0    4.98    0.87   1
   5 -16   0    4.47    0.90   3
   0 -17   0   -0.51    0.45   2
   0 -17   0   -0.48    0.37   3
   0  17   0    0.35    0.53   4
   1  17   0  263.81    4.99   1
   1 -17   0  262.12    5.08   3
  -1  17   0  255.09    5.70   4
   1 -17   0  259.10    5.52   2
   1  17   0  254.02    5.64   4
   2 -17   0   23.12    1.19   3
  -2 -17   0   20.93    1.30   2
   2 -17   0   20.78    1.24   2
  -2  17   0   21.70    1.32   4
   2  17   0   20.46    1.14   1
   2  17   0   20.40    1.26   4
  -3 -17   0   18.17    1.23   2
   3 -17   0   19.00    1.24   2
   3  17   0   18.86    1.13   1
   3 -17   0   18.16    1.15   3
   3  17   0   18.91    1.26   4
  -3  17   0   18.37    1.26   4
  -4  17   0    7.94    0.99   4
   4  17   0    8.32    0.94   1
   4 -17   0    9.32    0.99   3
  -4 -17   0    8.38    0.98   2
  -5 -17   0    2.50    0.83   2
   5  17   0    2.10    0.79   1
  -5  17   0    2.30    0.81   4
   5 -17   0    2.32    0.80   3
   0  18   0    2.19    0.65   4
   0 -18   0    1.96    0.63   2
  -1 -18   0    0.90    0.57   2
   1 -18   0    1.79    0.60   2
   1  18   0   -0.12    0.55   4
   2 -18   0    3.28    0.67   3
   2 -18   0    2.36    0.65   2
  -2  18   0    2.14    0.68   4
   2  18   0    1.84    0.57   1
   2  18   0    2.68    0.68   4
  -2 -18   0    2.38    0.68   2
   3  18   0   18.99    1.19   1
  -3 -18   0   17.62    1.25   2
   3  18   0   18.28    1.29   4
  -3  18   0   16.55    1.26   4
   3 -18   0   18.46    1.24   2
   3 -18   0   17.75    1.18   3
   4  18   0   57.72    2.02   1
   4 -18   0   55.92    2.04   3
  -4  18   0   58.02    2.24   4
  -4 -18   0   56.77    2.19   2
  -5 -18   0    0.56    0.75   2
   5  18   0    0.90    0.76   1
  -5  18   0   -0.19    0.72   4
   5 -18   0    1.03    0.74   3
   0 -19   0   -0.49    0.51   2
   0  19   0   -0.10    0.57   4
   1 -19   0   21.77    1.18   3
  -1 -19   0   22.11    1.41   2
   1  19   0   21.97    1.34   4
   1 -19   0   22.00    1.29   2
  -1  19   0   21.25    1.37   4
  -2  19   0   11.90    1.13   4
   2  19   0   12.48    1.04   1
   2  19   0   11.70    1.14   4
  -2 -19   0   12.44    1.15   2
   2 -19   0   11.94    1.02   3
   2 -19   0   13.43    1.14   2
  -3 -19   0   22.14    1.42   2
   3 -19   0   20.69    1.30   3
   3 -19   0   24.57    1.40   2
   3  19   0   24.68    1.38   1
   3  19   0   24.27    1.44   4
  -3  19   0   22.78    1.45   4
   4 -19   0    5.19    0.92   3
   4  19   0    6.31    0.94   1
  -4  19   0    6.32    0.98   4
  -4 -19   0    5.25    0.91   2
   0 -20   0  130.44    3.44   2
   0  20   0  129.64    3.51   4
   1 -20   0   39.81    1.69   2
  -1 -20   0   45.32    1.89   2
   1  20   0   42.99    1.83   4
   1 -20   0   42.20    1.58   3
  -1  20   0   40.43    1.82   4
   2 -20   0    1.97    0.69   2
  -2  20   0    1.02    0.73   4
  -2 -20   0    2.18    0.74   2
   2  20   0    1.55    0.72   4
   2 -20   0    0.49    0.65   3
  -3  20   0    2.18    0.77   4
  -3 -20   0    2.26    0.76   2
   3  20   0    2.19    0.77   4
   3  20   0    2.23    0.76   1
   3 -20   0    1.74    0.74   3
   4  20   0    6.85    1.00   1
  -4 -20   0    5.62    0.94   2
  -4  20   0    5.99    0.99   4
   4 -20   0    5.98    0.98   3
   0  21   0    1.07    0.72   4
   0 -21   0    0.66    0.72   2
   1  21   0    0.65    0.69   4
  -1 -21   0    2.80    0.81   2
   1 -21   0    1.53    0.68   2
  -1  21   0    1.22    0.70   4
   2 -21   0   26.66    1.49   2
  -2 -21   0   27.37    1.59   2
  -2  21   0   27.25    1.58   4
   2  21   0   27.92    1.59   4
   2 -21   0   27.10    1.42   3
  -3  21   0   23.64    1.55   4
  -3 -21   0   23.75    1.52   2
   3 -21   0   25.20    1.40   3
   3  21   0   24.80    1.45   1
   0 -22   0   13.21    1.21   2
   0  22   0   11.64    1.18   4
   1 -22   0    3.96    0.83   2
  -1 -22   0    5.12    0.96   2
  -1  22   0    5.35    0.91   4
   1  22   0    5.18    0.90   4
   2 -22   0    2.76    0.81   2
   2  22   0    5.26    0.93   4
   2 -22   0    3.40    0.80   3
  -2  22   0    4.39    0.89   4
  -2 -22   0    4.43    0.90   2
   3 -22   0    1.41    0.76   3
  -3 -22   0    0.78    0.73   2
  -3  22   0    0.98    0.79   4
   0 -23   0    0.19    0.73   2
   0  23   0    0.22    0.71   4
  -1  23   0    1.32    0.78   4
   1  23   0    1.81    0.82   4
  -1 -23   0    1.94    0.83   2
   1 -23   0    1.70    0.78   2
  -2  23   0   17.18    1.41   4
  -2 -23   0   15.11    1.40   2
   2  23   0   17.30    1.44   4
   0 -24   0    2.59    0.91   2
   0  24   0    1.29    0.85   4
  -1 -24   0    9.35    1.19   2
  -1  24   0    7.71    1.09   4
   1  24   0    6.31    1.08   4
   1 -24   0    7.30    1.05   2
  -7   0   1    1.11    0.74   2
   6   0  -1   -0.09    0.48   1
  -6   0   1    0.05    0.49   3
   6   0  -1    0.48    0.51   5
  -6   0   1   -0.08    0.55   2
  -5   0   1  474.27    9.00   2
   5   0  -1  456.17    8.39   1
   5   0  -1  453.22    8.50   5
  -5   0   1  472.76    8.89   4
  -5   0   1  468.59    8.34   3
   4   0  -1   -0.59    0.26   1
  -4   0   1   -0.13    0.24   4
   4   0  -1   -0.10    0.25   5
  -4   0   1   -0.20    0.27   3
  -4   0   1   -0.12    0.33   2
  -3   0   1  239.12    4.24   3
   3   0  -1  231.80    4.26   1
  -3   0   1  232.06    4.57   2
  -3   0   1  234.44    4.48   4
   3   0  -1  233.48    4.32   5
  -2   0   1    0.98    0.18   3
  -2   0   1    0.79    0.13   4
   2   0  -1    0.43    0.16   1
   2   0  -1    0.17    0.15   5
  -2   0   1   -0.25    0.18   2
   1   0  -1 3404.25   57.09   1
   0   0  -1    0.07    0.07   1
   0   0   1    0.10    0.07   3
   0   0  -1    0.32    0.09   4
   0   0  -1    0.54    0.07   2
  -1   0  -1 8302.70  138.87   1
  -1   0  -1 8617.12  147.98   2
   1   0   1 8118.34  137.70   3
  -2   0  -1    0.26    0.20   2
  -2   0  -1   -0.79    0.22   4
  -2   0  -1    0.20    0.20   1
  -3   0  -1    0.68    0.27   3
  -3   0  -1    0.36    0.28   4
  -3   0  -1    1.02    0.29   1
  -3   0  -1    0.85    0.27   2
  -4   0  -1   -0.26    0.41   2
  -4   0  -1   -0.85    0.42   4
  -4   0  -1    1.39    0.45   1
  -4   0  -1    1.08    0.41   3
  -5   0  -1  135.42    3.11   1
  -5   0  -1  140.27    3.24   2
  -5   0  -1  139.45    3.33   4
  -6   0  -1   -0.38    0.58   2
   6   0   1   -0.04    0.60   4
  -6   0  -1    0.39    0.56   1
  -7   0  -1   23.21    1.36   1
  -7   1   1    9.62    0.92   3
  -7   1   1    8.31    1.01   2
  -7  -1   1    7.29    0.98   2
  -6   1   1   50.43    1.84   2
  -6  -1   1   50.24    1.64   3
   6   1  -1   51.60    1.71   5
  -6   1   1   48.76    1.66   3
   6  -1  -1   50.21    1.63   1
  -6  -1   1   50.86    1.85   2
   6   1  -1   52.07    1.71   1
   6  -1  -1   52.77    1.68   5
   5   1  -1   19.60    1.04   1
   5  -1  -1   19.97    0.97   5
  -5  -1   1   18.66    0.95   3
  -5   1   1   18.66    1.01   3
  -5   1   1   19.43    0.97   4
   5   1  -1   19.89    1.01   5
   5  -1  -1   19.92    1.00   1
  -5  -1   1   20.15    1.15   2
  -5   1   1   17.80    1.13   2
  -4  -1   1   16.78    0.75   3
   4   1  -1   16.49    0.77   5
   4  -1  -1   15.51    0.77   1
  -4   1   1   16.89    0.89   2
  -4  -1   1   15.99    0.71   4
  -4  -1   1   13.25    0.87   2
   4   1  -1   15.78    0.80   1
   4  -1  -1   15.49    0.72   5
  -4   1   1   16.14    0.77   3
  -4   1   1   14.20    0.82   4
  -3  -1   1   13.38    0.64   3
   3  -1  -1   16.14    0.63   1
  -3   1   1   13.14    0.69   2
   3   1  -1   16.16    0.65   1
   3   1  -1   15.08    0.64   5
  -3  -1   1   14.35    0.57   4
   3  -1  -1   15.22    0.60   5
  -3   1   1   15.09    0.66   3
  -3   1   1   13.37    0.59   4
  -3  -1   1   10.62    0.73   2
   2  -1  -1 2528.44   42.10   1
   2   1  -1 2383.64   42.04   1
   2   1  -1 2439.95   42.63   5
  -2   1   1 2527.16   45.52   4
  -2  -1   1 2462.24   44.37   2
  -2  -1   1 2579.17   41.62   3
  -2   1   1 2681.14   41.65   3
  -2   1   1 2546.22   44.39   2
   1  -1  -1 2740.51   47.26   1
  -1  -1   1 2925.42   49.65   2
   1  -1  -1 2705.79   49.54   2
  -1  -1   1 2795.95   46.50   3
  -1   1   1 2873.65   51.77   4
   0  -1  -1  380.21    6.55   1
   0  -1   1  388.45    6.49   3
   0   1  -1  381.41    6.54   1
   0   1   1  383.43    7.07   4
   0  -1  -1  379.30    6.95   2
   0   1   1  378.40    6.50   3
   0   1  -1  389.17    7.07   4
   1  -1   1  354.23    6.10   3
  -1   1  -1  362.59    6.68   4
   1   1   1  354.35    6.06   3
  -1  -1  -1  357.00    6.18   1
  -1  -1  -1  353.45    6.46   2
  -1  -1  -1  361.99    6.68   4
  -1   1  -1  357.87    6.16   1
  -1   1  -1  354.73    6.47   2
  -2  -1  -1 1226.71   21.79   4
  -2   1  -1 1181.71   20.16   1
  -2  -1  -1 1210.44   20.20   1
  -2   1  -1 1185.04   21.78   4
  -2   1  -1 1208.70   21.22   2
  -2  -1  -1 1177.73   21.23   2
  -2   1  -1 1180.64   19.94   3
  -3  -1  -1    1.46    0.32   1
  -3  -1  -1    0.49    0.27   2
  -3   1  -1    0.60    0.31   4
  -3  -1  -1    0.82    0.26   3
  -3   1  -1    1.12    0.28   2
  -3   1  -1    1.18    0.30   3
  -3  -1  -1    0.86    0.30   4
  -3   1  -1    0.74    0.27   1
  -4  -1  -1  521.21    9.09   3
  -4   1  -1  530.73   10.05   4
  -4  -1  -1  518.26   10.00   4
  -4   1  -1  522.02    9.29   1
  -4  -1  -1  512.47    9.73   2
  -4   1  -1  520.38    9.72   2
  -4  -1  -1  530.00    9.34   1
  -4   1  -1  513.14    9.16   3
  -5   1  -1    0.26    0.47   2
   5  -1   1   -0.09    0.41   3
  -5   1  -1   -0.30    0.47   4
  -5  -1  -1    0.23    0.48   1
  -5  -1  -1   -0.20    0.47   2
   5   1   1    0.77    0.49   4
  -5   1  -1    0.55    0.43   1
  -6  -1  -1   15.66    1.21   2
  -6  -1  -1   15.15    1.10   1
  -6   1  -1   15.61    1.10   1
   6  -1   1   15.80    1.22   4
   7   2  -1   20.36    1.28   1
   7  -2  -1   18.78    1.27   2
  -7   2   1   21.30    1.32   3
   7   2  -1   19.55    1.30   5
  -7  -2   1   17.35    1.32   2
  -6  -2   1   10.25    0.91   3
  -6   2   1   10.21    0.93   3
   6   2  -1   10.72    0.90   5
  -6   2   1   11.21    1.10   2
  -6  -2   1   10.24    0.95   2
   6   2  -1   10.44    0.96   1
  -5   2   1  117.14    2.85   2
  -5  -2   1  112.99    2.51   3
  -5  -2   1  115.82    2.85   2
   5   2  -1  111.29    2.64   1
   5  -2  -1  113.90    2.53   1
   5   2  -1  112.94    2.66   5
  -5   2   1  115.18    2.63   3
   5  -2  -1  116.01    2.57   5
  -5   2   1  118.68    2.69   4
   4  -2  -1  440.35    7.95   5
  -4   2   1  442.75    7.89   3
  -4   2   1  452.86    8.44   2
   4   2  -1  453.96    8.38   4
  -4  -2   1  445.06    8.46   2
   4   2  -1  442.97    8.07   5
   4   2  -1  436.43    7.95   1
   4  -2  -1  440.21    7.84   1
  -4  -2   1  441.66    7.78   3
  -4   2   1  452.01    8.43   4
   3  -2  -1  796.15   13.50   1
   3   2  -1  794.21   13.79   5
  -3   2   1  791.10   14.53   4
  -3  -2   1  788.36   14.37   2
  -3   2   1  806.53   13.47   3
   3   2  -1  800.03   14.51   4
   3  -2  -1  795.79   13.68   5
   3   2  -1  785.68   13.60   1
  -3  -2   1  776.42   13.37   3
  -3   2   1  809.00   14.38   2
  -2  -2   1   82.58    1.60   3
  -2   2   1   78.26    1.78   2
   2   2  -1   81.98    1.63   4
   2   2  -1   88.80    1.70   1
   2   2  -1   86.50    1.71   5
  -2   2   1   78.46    1.66   3
  -2  -2   1   81.22    1.78   2
   2  -2  -1   80.99    1.57   1
  -2   2   1   79.67    1.68   4
   1  -2  -1 1157.53   20.32   1
   1   2  -1 1199.09   20.13   1
  -1  -2   1 1161.90   19.90   3
  -1  -2   1 1208.06   21.25   2
  -1   2   1 1209.77   21.79   4
   1  -2  -1 1174.94   21.23   2
  -1   2   1 1270.14   19.93   3
   0   2  -1  754.79   13.28   4
   0  -2  -1  695.30   12.97   2
   0   2  -1  712.69   12.28   1
   0  -2   1  721.50   12.17   3
   0   2   1  750.67   13.27   4
   0   2   1  720.36   12.27   3
   0  -2  -1  731.84   12.30   1
  -1  -2  -1  623.87   11.05   2
   1   2   1  613.05   10.39   3
   1  -2   1  618.45   11.10   2
  -1   2  -1  611.88   10.46   1
   1  -2   1  615.44   10.39   3
   1   2   1  605.76   11.33   4
  -1   2  -1  627.74   11.33   4
  -1  -2  -1  615.18   10.50   1
  -2   2  -1  459.64    8.55   4
   2   2   1  456.66    7.69   3
  -2  -2  -1  450.14    8.28   2
  -2   2  -1  454.28    8.22   2
  -2  -2  -1  455.41    7.93   1
   2   2   1  454.86    8.55   4
  -2   2  -1  455.90    7.82   3
  -2   2  -1  443.31    7.85   1
   3   2   1   36.19    1.20   4
  -3   2  -1   37.27    1.08   2
  -3   2  -1   37.84    1.09   3
  -3  -2  -1   38.05    1.14   1
  -3   2  -1   35.91    1.10   1
  -3  -2  -1   33.95    1.14   2
  -3  -2  -1   36.55    0.96   3
  -3   2  -1   31.94    1.21   4
  -4   2  -1   68.26    1.75   1
  -4   2  -1   68.39    1.77   3
  -4  -2  -1   71.02    1.66   3
   4   2   1   68.65    1.97   4
  -4   2  -1   67.72    1.84   2
  -4  -2  -1   66.43    1.83   2
  -4   2  -1   69.72    1.95   4
  -4  -2  -1   68.38    1.84   1
   5   2   1  102.58    2.71   4
  -5  -2  -1  101.13    2.54   1
  -5  -2  -1  101.07    2.60   2
  -5   2  -1  102.62    2.71   4
  -5   2  -1  104.45    2.58   2
  -5   2  -1   97.87    2.43   1
   5  -2   1  102.75    2.48   3
  -6  -2  -1   77.08    2.30   1
  -6  -2  -1   77.98    2.39   2
  -6   2  -1   77.69    2.23   1
  -6   2  -1   76.25    2.41   4
   7  -3  -1   35.75    1.65   2
  -7  -3   1   34.75    1.71   2
  -7   3   1   38.48    1.67   3
   7   3  -1   35.88    1.61   1
   7   3  -1   35.88    1.66   5
  -6  -3   1   35.02    1.54   2
   6   3  -1   33.57    1.42   1
   6   3  -1   33.69    1.42   5
  -6  -3   1   32.24    1.30   3
   6  -3  -1   33.11    1.47   2
  -6   3   1   33.24    1.41   3
  -5   3   1   46.05    1.47   4
  -5  -3   1   44.99    1.34   3
   5   3  -1   46.17    1.52   1
  -5  -3   1   46.79    1.62   2
  -5   3   1   45.36    1.63   2
   5  -3  -1   46.99    1.38   5
  -5   3   1   46.24    1.50   3
   5  -3  -1   47.54    1.37   1
   5   3  -1   48.90    1.53   5
  -4   3   1    2.79    0.40   4
   4   3  -1    3.38    0.46   1
   4  -3  -1    2.63    0.39   5
   4   3  -1    1.32    0.38   4
  -4  -3   1    3.08    0.40   3
   4   3  -1    3.30    0.48   5
  -4  -3   1    2.60    0.49   2
  -4   3   1    2.37    0.43   3
   4  -3  -1    2.43    0.37   1
  -4   3   1    1.74    0.49   2
  -3  -3   1  186.92    3.41   3
  -3  -3   1  184.57    3.79   2
   3   3  -1  188.51    3.57   1
   3   3  -1  187.10    3.61   5
   3   3  -1  184.79    3.63   4
  -3   3   1  188.34    3.53   3
   3  -3  -1  187.46    3.40   1
  -3   3   1  182.00    3.70   4
  -3   3   1  185.75    3.77   2
   3  -3  -1  187.36    3.45   5
   2   3  -1    5.22    0.42   5
  -2   3   1    3.22    0.33   4
  -2  -3   1    3.17    0.30   2
   2   3  -1    4.08    0.31   4
  -2  -3   1    3.94    0.25   3
  -2   3   1    3.99    0.29   3
   2  -3  -1    4.18    0.31   1
   2   3  -1    5.21    0.42   1
   2  -3  -1    3.40    0.30   2
   1  -3  -1 3249.88   57.46   2
  -1   3   1 3256.13   58.84   4
   1   3  -1 3377.52   59.64   4
   1   3  -1 3423.61   54.52   1
   1  -3  -1 3104.86   55.66   1
  -1   3   1 3267.44   53.90   3
  -1  -3   1 3166.87   53.94   3
   0  -3   1 6116.10  103.56   3
   0   3   1 6609.26  105.52   3
   0   3   1 6055.63  112.86   4
   0  -3   1 6365.05  112.40   2
   0   3  -1 6198.82  104.91   1
   0   3  -1 6402.85  113.12   4
   0  -3  -1 6224.45  105.01   1
   1   3   1 3915.56   71.05   4
  -1  -3  -1 3925.59   65.87   1
  -1  -3  -1 3746.75   69.50   2
   1  -3   1 4000.44   65.19   3
  -1   3  -1 3808.92   65.93   1
   1  -3   1 4110.16   70.26   2
  -1   3  -1 4169.77   71.08   4
  -2  -3  -1  252.12    4.91   2
   2  -3   1  261.72    4.83   2
  -2   3  -1  261.39    5.10   4
  -2  -3  -1  259.15    4.72   1
   2   3   1  257.42    4.47   3
  -2   3  -1  255.53    4.62   1
   2   3   1  265.28    5.10   4
   3   3   1  721.57   13.48   4
  -3   3  -1  735.40   13.06   2
  -3   3  -1  727.96   13.50   4
  -3  -3  -1  716.47   13.13   2
  -3  -3  -1  731.34   12.54   1
  -3   3  -1  698.42   12.36   3
  -3   3  -1  720.40   12.41   1
  -4  -3  -1   16.49    0.90   1
  -4   3  -1   16.19    1.01   4
  -4  -3  -1   13.89    0.91   2
  -4   3  -1   16.51    0.85   1
  -4   3  -1   13.96    0.91   2
   4   3   1   13.39    0.96   4
  -4   3  -1   16.69    0.90   3
  -5  -3  -1   44.32    1.54   1
   5   3   1   42.30    1.63   4
   5  -3   1   45.67    1.54   3
  -5  -3  -1   43.49    1.59   2
  -5   3  -1   41.84    1.39   1
  -5   3  -1   44.20    1.65   4
  -6  -3  -1    4.37    0.77   1
  -6   3  -1    2.71    0.68   1
  -6   3  -1    1.79    0.73   4
  -6  -3  -1    3.99    0.81   2
   7   3   1   13.07    1.21   5
   7   3   1   15.42    1.28   1
  -7   4   1    2.96    0.80   3
  -7  -4   1    2.54    0.84   2
   7   4  -1    2.75    0.81   5
   7  -4  -1    3.03    0.78   2
   7   4  -1    2.73    0.75   1
   6  -4  -1   80.10    2.34   2
  -6   4   1   76.82    2.22   3
  -6   4   1   82.19    2.26   4
   6   4  -1   74.11    2.22   5
   6   4  -1   72.97    2.17   1
  -6  -4   1   77.89    2.37   2
  -5  -4   1   26.60    0.99   3
   5  -4  -1   26.70    1.21   2
  -5   4   1   26.42    1.17   3
   5   4  -1   25.54    1.14   1
  -5  -4   1   26.72    1.27   2
  -5   4   1   27.33    1.11   4
   5   4  -1   25.15    1.15   5
  -4  -4   1  590.94   11.04   2
  -4   4   1  584.29   11.08   4
  -4   4   1  593.90   10.35   3
   4   4  -1  609.18   11.00   4
  -4  -4   1  582.12   10.13   3
   4  -4  -1  598.34   10.21   1
   4   4  -1  589.35   10.44   1
   4  -4  -1  586.58   10.35   5
   4  -4  -1  587.15   11.01   2
   4   4  -1  589.26   10.59   5
   3  -4  -1  643.28   10.87   1
   3   4  -1  648.56   11.73   4
  -3   4   1  646.24   10.98   3
  -3  -4   1  631.09   10.79   3
  -3   4   1  634.08   11.81   4
   3   4  -1  629.36   11.07   1
  -3  -4   1  637.09   11.70   2
   3   4  -1  628.06   11.22   5
   3  -4  -1  640.03   11.02   5
   3  -4  -1  646.28   11.68   2
  -2   4   1  210.93    4.02   4
  -2   4   1  207.21    3.76   3
   2   4  -1  207.75    3.86   5
   2   4  -1  206.01    3.80   1
  -2  -4   1  206.80    4.01   2
   2   4  -1  207.43    3.92   4
   2  -4  -1  209.47    4.01   2
  -2  -4   1  199.22    3.63   3
   2  -4  -1  207.83    3.61   1
  -1  -4   1  464.23    8.33   2
  -1  -4   1  455.75    7.78   3
   1  -4  -1  464.40    8.35   2
  -1   4   1  462.02    7.80   3
   1   4  -1  461.03    8.47   4
  -1   4   1  453.94    8.50   4
   1   4  -1  458.68    7.90   1
   0   4   1 1471.34   26.33   4
   0   4  -1 1527.58   26.36   4
   0  -4  -1 1383.62   25.75   2
   0   4   1 1438.61   24.34   3
   0   4  -1 1452.92   24.42   1
   0  -4   1 1453.59   24.16   3
   0  -4  -1 1456.98   24.43   1
   0  -4   1 1455.96   25.84   2
  -1   4  -1 1333.27   24.36   4
  -1  -4  -1 1340.84   23.83   2
   1  -4   1 1352.12   22.37   3
   1  -4   1 1353.91   23.86   2
   1   4   1 1363.32   24.38   4
  -1  -4  -1 1344.50   22.59   1
  -1   4  -1 1317.50   22.55   1
   2   4   1 1793.92   32.77   4
  -2   4  -1 1876.31   32.80   4
   2  -4   1 1771.56   30.07   3
  -2  -4  -1 1806.16   30.40   1
  -2  -4  -1 1785.44   32.03   2
   2  -4   1 1861.87   31.98   2
  -2   4  -1 1768.37   30.29   1
   3  -4   1    0.50    0.30   2
   3   4   1    1.03    0.22   3
  -3  -4  -1    0.41    0.34   2
  -3   4  -1    0.67    0.29   1
  -3  -4  -1    1.06    0.37   1
   3   4   1   -0.30    0.35   4
  -3   4  -1   -0.10    0.34   4
  -3   4  -1    0.86    0.35   3
  -4  -4  -1  179.28    3.77   1
  -4   4  -1  179.61    3.69   3
  -4  -4  -1  180.80    3.88   2
   4  -4   1  179.95    3.77   2
  -4   4  -1  182.71    4.02   4
   4   4   1  183.07    4.00   4
  -4   4  -1  180.91    3.59   1
  -5   4  -1   21.92    1.20   4
  -5  -4  -1   20.26    1.13   1
  -5  -4  -1   20.72    1.17   2
   5  -4   1   19.45    1.11   3
  -5   4  -1   20.32    0.96   1
   5   4   1   20.94    1.18   4
   6  -4   1   86.40    2.47   3
  -6  -4  -1   89.16    2.62   2
  -6  -4  -1   89.77    2.54   1
  -6   4  -1   87.91    2.68   4
   7   4   1    1.48    0.76   5
   7   4   1    2.37    0.76   1
  -7  -5   1   46.37    2.02   2
   7  -5  -1   49.13    1.98   2
  -7   5   1   46.06    1.89   3
   7   5  -1   47.08    1.85   1
   7   5  -1   47.10    1.89   5
  -6  -5   1   11.15    0.99   2
   6  -5  -1   10.84    0.97   2
  -6   5   1   11.17    0.95   3
  -6   5   1   11.34    1.04   4
   6   5  -1   13.02    1.03   5
   6   5  -1   12.68    1.02   1
   5   5  -1   27.64    1.19   1
  -5  -5   1   27.80    0.99   3
  -5   5   1   26.65    1.21   3
  -5  -5   1   27.87    1.29   2
  -5   5   1   28.04    1.15   4
   5  -5  -1   29.33    1.28   2
   5   5  -1   28.57    1.22   5
   4   5  -1    1.36    0.40   4
   4  -5  -1    3.61    0.38   5
   4   5  -1    3.71    0.51   5
   4  -5  -1    1.62    0.50   2
  -4  -5   1    2.72    0.52   2
  -4  -5   1    3.02    0.38   3
  -4   5   1    3.74    0.51   3
   4   5  -1    3.66    0.48   1
  -4   5   1    3.26    0.44   4
   4  -5  -1    3.36    0.36   1
   3   5  -1  708.12   12.52   5
   3  -5  -1  721.44   12.11   1
   3   5  -1  713.19   13.09   4
  -3  -5   1  721.31   13.05   2
  -3  -5   1  703.99   12.02   3
   3  -5  -1  718.07   13.02   2
   3   5  -1  705.38   12.35   1
  -3   5   1  716.04   13.20   4
  -3   5   1  718.11   12.24   3
  -2   5   1  588.16   10.81   4
  -2   5   1  592.62    9.97   3
   2  -5  -1  578.99   10.61   2
   2   5  -1  591.78   10.08   1
   2   5  -1  571.57   10.69   4
   2   5  -1  589.40   10.21   5
  -2  -5   1  575.47    9.82   3
  -2  -5   1  580.94   10.63   2
   1   5  -1 4207.56   70.89   1
   1   5  -1 4347.34   76.61   4
  -1   5   1 4226.93   70.13   3
  -1  -5   1 4497.66   74.84   2
   1  -5  -1 4096.15   74.74   2
  -1  -5   1 4121.31   70.17   3
  -1   5   1 4291.46   76.46   4
   0   5  -1  434.44    7.62   1
   0   5  -1  463.05    8.29   4
   0   5   1  442.19    8.29   4
   0  -5   1  452.54    8.06   2
   0  -5  -1  455.92    7.63   1
   0  -5   1  433.26    7.60   3
   0  -5  -1  443.11    8.14   2
   0   5   1  445.63    7.54   3
  -1   5  -1  393.05    6.65   1
   1  -5   1  394.54    7.03   2
  -1  -5  -1  381.64    6.75   1
   1   5   1  383.53    7.29   4
   1  -5   1  388.43    6.72   3
  -1   5  -1  389.64    7.30   4
  -1  -5  -1  377.73    7.13   2
  -2   5  -1  501.07    8.80   1
  -2   5  -1  509.34    9.67   4
  -2  -5  -1  508.93    9.44   2
  -2  -5  -1  517.23    8.99   1
   2   5   1  526.95    9.66   4
   2  -5   1  517.68    9.30   2
   2  -5   1  511.22    8.90   3
  -3  -5  -1  713.99   12.36   1
   3   5   1  717.23   13.25   4
   3  -5   1  711.03   12.81   2
  -3   5  -1  716.62   12.14   1
  -3  -5  -1  697.65   12.95   2
  -3   5  -1  695.44   12.20   3
  -3   5  -1  698.26   13.28   4
  -4  -5  -1    0.07    0.40   2
  -4   5  -1    0.88    0.38   1
  -4   5  -1    0.48    0.43   4
   4   5   1   -0.92    0.38   4
   4  -5   1   -0.67    0.34   2
  -4   5  -1    0.32    0.41   3
  -4  -5  -1    0.60    0.44   1
  -5  -5  -1   22.78    1.18   1
  -5   5  -1   21.08    0.95   1
   5   5   1   20.96    1.20   4
   5  -5   1   20.37    1.14   3
  -5   5  -1   22.63    1.25   4
  -5  -5  -1   21.42    1.20   2
  -6  -5  -1    4.90    0.82   1
  -6  -5  -1    4.14    0.83   2
   6  -5   1    3.38    0.75   3
  -6   5  -1    4.21    0.82   4
   7   6  -1    3.80    0.84   1
  -7  -6   1    5.13    0.92   2
  -7   6   1    3.53    0.85   3
   7  -6  -1    2.78    0.84   2
   6  -6  -1    8.48    0.88   2
  -6  -6   1    7.73    0.91   2
  -6   6   1    7.24    0.78   4
   6   6  -1    8.67    0.88   1
   6   6  -1    8.91    0.91   5
  -6   6   1    9.19    0.91   3
   5   6  -1   16.58    1.02   5
  -5   6   1   17.37    0.98   4
   5   6  -1   18.67    1.02   1
   5  -6  -1   17.50    1.09   2
  -5   6   1   18.23    1.05   3
  -5  -6   1   18.04    1.14   2
  -4  -6   1  284.25    5.77   2
  -4   6   1  287.17    5.43   3
   4  -6  -1  285.70    5.72   2
   4   6  -1  288.03    5.54   5
   4   6  -1  286.76    5.46   1
  -4  -6   1  288.68    5.13   3
  -4   6   1  285.62    5.73   4
   4   6  -1  286.81    5.58   4
   3   6  -1  345.60    6.32   5
  -3   6   1  333.59    6.60   4
   3  -6  -1  341.41    6.55   2
  -3   6   1  346.65    6.19   3
   3   6  -1  341.12    6.47   4
  -3  -6   1  341.88    6.58   2
  -3  -6   1  343.12    5.93   3
   3   6  -1  341.97    6.23   1
  -2   6   1    2.37    0.31   3
  -2   6   1    1.90    0.30   4
   2   6  -1    2.58    0.31   1
   2  -6  -1    1.75    0.30   2
   2   6  -1    2.03    0.25   4
  -2  -6   1    2.00    0.22   3
  -2  -6   1    1.51    0.28   2
  -1  -6   1    7.33    0.51   2
  -1  -6   1    6.71    0.46   3
  -1   6   1    6.07    0.47   3
  -1   6   1    7.02    0.56   4
   1  -6  -1    6.14    0.58   2
   0   6   1 2433.02   39.60   3
   0  -6   1 2292.46   39.45   3
   0  -6   1 2357.00   42.08   2
   0   6  -1 2367.29   39.88   1
   0  -6  -1 2292.66   42.09   2
   0   6  -1 2418.08   43.03   4
   0  -6  -1 2458.56   39.92   1
   0   6   1 2473.83   43.04   4
  -1   6  -1  149.19    2.72   1
  -1  -6  -1  148.08    3.05   2
   1  -6   1  151.69    2.92   2
   1  -6   1  149.42    2.87   3
  -1  -6  -1  150.39    2.86   1
  -1   6  -1  150.19    3.11   4
   1   6   1  151.09    3.11   4
  -2   6  -1  590.92   10.10   1
  -2  -6  -1  585.20   10.84   2
   2  -6   1  590.09   10.22   3
  -2   6  -1  590.51   11.11   4
   2   6   1  591.27   11.08   4
  -2  -6  -1  585.33   10.30   1
   2  -6   1  607.28   10.71   2
  -3  -6  -1   16.00    0.86   1
  -3   6  -1   16.00    0.74   1
   3  -6   1   15.36    0.84   3
  -3  -6  -1   14.73    0.97   2
   3   6   1   13.85    0.87   4
  -3   6  -1   13.99    0.91   4
   3  -6   1   12.75    0.78   2
   4   6   1    3.49    0.56   4
   4  -6   1    3.42    0.51   2
   4  -6   1    4.64    0.58   3
  -4  -6  -1    2.71    0.57   2
  -4   6  -1    3.20    0.46   1
  -4   6  -1    2.64    0.58   4
  -4  -6  -1    4.35    0.61   1
  -5  -6  -1   40.45    1.56   1
  -5  -6  -1   43.19    1.63   2
   5  -6   1   40.46    1.53   3
   5   6   1   39.27    1.56   4
  -5   6  -1   44.08    1.68   4
  -6  -6  -1   67.63    2.27   2
   6  -6   1   67.66    2.18   3
  -6  -6  -1   63.70    2.15   1
  -6   6  -1   65.98    2.27   4
  -7   7   1   41.91    1.87   3
  -7  -7   1   42.97    1.92   2
   7   7  -1   43.36    1.83   1
   6   7  -1   62.51    2.09   5
   6  -7  -1   67.87    2.18   2
  -6   7   1   66.44    2.09   3
   6   7  -1   62.92    2.07   1
  -6   7   1   65.93    2.06   4
  -6  -7   1   64.58    2.20   2
  -5   7   1    3.91    0.58   4
   5   7  -1    4.52    0.68   5
   5   7  -1    3.92    0.63   1
  -5  -7   1    2.80    0.65   2
   5  -7  -1    3.21    0.61   2
  -5   7   1    3.58    0.64   3
  -4  -7   1   42.45    1.17   3
  -4   7   1   47.01    1.47   3
   4   7  -1   44.96    1.46   5
  -4   7   1   42.39    1.46   4
   4   7  -1   44.14    1.44   1
   4  -7  -1   42.86    1.47   2
  -4  -7   1   43.29    1.54   2
   4   7  -1   43.96    1.33   4
  -3   7   1   42.63    1.27   3
   3   7  -1   40.48    1.19   4
  -3  -7   1   39.19    1.01   3
   3   7  -1   41.95    1.29   1
   3   7  -1   40.89    1.28   5
  -3  -7   1   44.67    1.41   2
   3  -7  -1   39.51    1.30   2
  -3   7   1   40.90    1.28   4
   2  -7  -1   79.56    1.87   2
   2   7  -1   77.70    1.75   1
   2   7  -1   76.63    1.76   4
  -2   7   1   81.09    1.89   4
  -2   7   1   78.25    1.75   3
  -2  -7   1   79.51    1.88   2
  -2  -7   1   76.74    1.56   3
   1   7  -1  717.49   13.15   4
  -1  -7   1  699.79   12.03   3
   1   7  -1  711.38   12.21   1
  -1   7   1  712.97   13.22   4
   1  -7  -1  723.20   12.95   2
  -1  -7   1  724.57   12.91   2
  -1   7   1  718.45   12.07   3
   0  -7  -1    7.25    0.59   2
   0   7  -1    6.14    0.51   4
   0  -7  -1    4.94    0.31   1
   0   7   1    4.39    0.40   3
   0   7   1    6.28    0.44   4
   0   7  -1    5.28    0.46   1
   1  -7   1  676.29   11.58   3
  -1  -7  -1  677.59   11.64   1
  -1   7  -1  681.29   12.61   4
  -1  -7  -1  688.45   12.36   2
   1  -7   1  687.99   12.22   2
   1   7   1  676.20   12.59   4
  -1   7  -1  666.45   11.51   1
  -2  -7  -1  981.51   17.97   2
  -2  -7  -1  978.88   17.03   1
   2   7   1 1006.72   18.34   4
  -2   7  -1 1022.01   18.40   4
   2  -7   1 1012.25   17.82   2
   2  -7   1  993.89   16.89   3
  -2   7  -1  981.31   16.81   1
  -3   7  -1  467.31    9.21   4
  -3  -7  -1  474.22    9.00   2
   3  -7   1  483.06    8.83   2
  -3   7  -1  481.10    8.28   1
  -3  -7  -1  481.66    8.60   1
   3   7   1  468.74    9.15   4
   3  -7   1  474.82    8.50   3
  -4  -7  -1  230.53    4.56   1
  -4   7  -1  215.67    4.19   1
   4   7   1  221.02    4.76   4
   4  -7   1  218.76    4.52   2
  -4   7  -1  223.94    4.85   4
   4  -7   1  219.64    4.47   3
  -4  -7  -1  220.47    4.70   2
  -5   7  -1    6.59    0.80   4
  -5  -7  -1    8.42    0.84   1
   5  -7   1    7.02    0.79   3
   5   7   1    7.27    0.79   4
  -5  -7  -1    6.39    0.79   2
  -6  -7  -1    0.45    0.65   2
   6  -7   1    0.41    0.63   3
  -6   7  -1    1.51    0.69   4
  -6  -7  -1    0.44    0.65   1
  -7   8   1    4.99    0.95   3
  -7  -8   1    4.78    0.91   2
   7   8  -1    4.50    0.86   1
   6  -8  -1    8.65    0.93   2
   6   8  -1    9.43    0.95   1
  -6   8   1    9.45    0.95   3
   6   8  -1    9.03    1.00   5
  -6  -8   1    8.82    0.97   2
  -6   8   1   10.40    1.01   4
   5   8  -1  224.39    4.66   1
  -5   8   1  222.59    4.83   4
   5   8  -1  224.56    4.73   5
   5  -8  -1  223.40    4.84   2
   4   8  -1  304.56    5.96   5
   4   8  -1  305.55    6.02   4
  -4   8   1  312.52    5.86   3
  -4   8   1  309.48    6.21   4
   4   8  -1  302.77    5.87   1
   4  -8  -1  303.14    6.13   2
  -4  -8   1  307.69    5.44   3
  -4  -8   1  316.31    6.24   2
   3   8  -1  497.20    8.88   1
  -3   8   1  497.97    9.50   4
  -3  -8   1  499.49    8.48   3
   3  -8  -1  497.42    9.34   2
  -3  -8   1  494.84    9.38   2
   3   8  -1  499.84    9.00   5
   3   8  -1  493.87    9.33   4
  -3   8   1  500.17    8.81   3
   2   8  -1  110.51    2.33   1
  -2  -8   1  112.17    2.51   2
  -2   8   1  111.95    2.32   3
   2   8  -1  111.00    2.40   4
  -2  -8   1  110.61    2.13   3
   2  -8  -1  110.69    2.49   2
  -2   8   1  112.21    2.53   4
  -1  -8   1  339.06    5.92   3
  -1   8   1  337.96    5.96   3
   1  -8  -1  342.88    6.46   2
  -1  -8   1  344.46    6.41   2
  -1   8   1  336.41    6.58   4
   1   8  -1  343.16    6.50   4
   1   8  -1  341.82    6.03   1
   0   8  -1  851.64   14.54   1
   0  -8   1  859.09   15.41   2
   0   8   1  867.37   14.38   3
   0   8  -1  862.08   15.81   4
   0   8   1  841.80   15.82   4
   0  -8  -1  876.59   14.55   1
   0  -8  -1  857.31   15.52   2
   0  -8   1  862.58   14.49   3
  -1  -8  -1  736.82   12.62   1
  -1   8  -1  726.64   13.68   4
  -1  -8  -1  728.81   13.40   2
   1  -8   1  732.28   12.57   3
   1  -8   1  760.32   13.29   2
   1   8   1  735.49   13.66   4
  -1   8  -1  736.97   12.48   1
  -2   8  -1  273.40    5.49   4
   2  -8   1  270.65    5.06   3
  -2  -8  -1  272.23    5.37   2
  -2   8  -1  269.97    4.79   1
  -2  -8  -1  271.87    5.07   1
   2  -8   1  276.25    5.20   2
   2   8   1  265.03    5.43   4
  -3   8  -1    5.93    0.44   1
   3  -8   1    5.39    0.52   2
   3   8   1    5.09    0.59   4
  -3  -8  -1    5.65    0.61   2
  -3   8  -1    5.14    0.59   4
   3  -8   1    6.51    0.62   3
  -3  -8  -1    5.05    0.61   1
  -4  -8  -1    6.57    0.72   1
  -4   8  -1    7.38    0.76   4
   4   8   1    6.74    0.73   4
  -4  -8  -1    8.41    0.77   2
   4  -8   1    9.97    0.88   3
   5  -8   1  169.30    3.79   3
  -5   8  -1  160.79    4.01   4
  -5  -8  -1  166.47    3.96   2
  -5  -8  -1  169.30    3.86   1
   5   8   1  170.61    3.97   4
   6  -8   1   41.80    1.75   3
  -6   8  -1   45.18    1.92   4
  -6  -8  -1   41.45    1.75   1
  -6  -8  -1   41.74    1.81   2
  -7  -9   1    7.08    1.04   2
   7   9  -1    6.60    1.01   1
  -7   9   1    8.68    1.06   3
  -6   9   1   57.41    1.95   4
  -6   9   1   58.07    1.98   3
   6  -9  -1   54.69    1.99   2
   6   9  -1   51.77    1.93   1
  -6  -9   1   52.77    2.03   2
   6   9  -1   51.97    1.98   5
  -5  -9   1   12.12    1.05   2
   5  -9  -1   10.11    0.89   2
  -5   9   1    9.98    0.88   3
  -5   9   1    9.68    0.94   4
   5   9  -1   11.18    0.96   1
   5   9  -1   12.02    0.98   5
  -4   9   1   18.05    0.99   4
  -4   9   1   17.13    1.00   3
   4   9  -1   17.12    0.98   1
   4   9  -1   15.65    0.95   5
  -4  -9   1   16.77    1.02   2
   4  -9  -1   15.74    1.02   2
   3   9  -1   48.62    1.45   1
  -3   9   1   51.24    1.46   3
   3  -9  -1   47.79    1.51   2
   3   9  -1   47.88    1.47   5
  -3  -9   1   51.34    1.57   2
  -3  -9   1   48.70    1.14   3
  -3   9   1   47.48    1.49   4
   3   9  -1   47.33    1.42   4
  -2  -9   1 1077.63   19.26   2
   2   9  -1 1073.08   18.21   1
  -2   9   1 1084.00   18.04   3
   2  -9  -1 1059.53   19.25   2
  -2   9   1 1062.53   19.67   4
   2   9  -1 1064.16   19.53   4
  -2  -9   1 1055.29   17.82   3
   1   9  -1  452.60    8.00   1
   1  -9  -1  455.05    8.55   2
  -1   9   1  448.45    8.73   4
  -1   9   1  465.77    7.92   3
  -1  -9   1  469.85    8.52   2
  -1  -9   1  458.10    7.87   3
   1   9  -1  457.15    8.65   4
   0  -9   1  190.39    3.55   3
   0  -9  -1  194.41    3.88   2
   0   9  -1  192.21    3.90   4
   0  -9   1  188.81    3.75   2
   0   9   1  186.14    3.91   4
   0   9  -1  187.45    3.46   1
   0  -9  -1  189.06    3.44   1
   0   9   1  189.13    3.39   3
  -1  -9  -1    2.91    0.35   1
  -1  -9  -1    4.40    0.46   2
  -1   9  -1    2.77    0.26   1
   1   9   1    2.58    0.39   4
  -1   9  -1    2.83    0.40   4
   1  -9   1    3.04    0.36   2
   2  -9   1  262.81    5.05   2
   2  -9   1  258.71    4.91   3
  -2   9  -1  263.48    5.33   4
   2   9   1  257.44    5.27   4
  -2  -9  -1  257.07    4.90   1
  -2  -9  -1  260.95    5.22   2
  -2   9  -1  257.72    4.60   1
   3  -9   1  358.80    6.76   2
  -3  -9  -1  351.33    6.96   2
   3   9   1  352.35    7.04   4
   3  -9   1  349.42    6.56   3
  -3  -9  -1  354.38    6.60   1
  -3   9  -1  351.86    6.20   1
  -3   9  -1  350.10    7.10   4
  -4   9  -1  179.44    4.09   4
  -4  -9  -1  173.15    3.80   1
  -4  -9  -1  174.31    3.97   2
   4   9   1  171.57    3.96   4
  -5  -9  -1   36.13    1.57   1
   5  -9   1   36.65    1.54   3
  -5  -9  -1   34.75    1.62   2
   5   9   1   33.65    1.58   4
  -5   9  -1   38.16    1.63   4
   6   9   1    7.79    0.98   5
  -6   9  -1    6.33    0.91   4
  -6  -9  -1    6.23    0.90   2
   6   9   1    6.04    0.88   1
   6  -9   1    6.87    0.92   3
  -7 -10   1   23.66    1.59   2
  -7  10   1   25.72    1.56   3
   7  10  -1   24.61    1.54   1
   6  10  -1    7.95    0.93   1
  -6  10   1    9.01    0.92   4
   6 -10  -1    9.49    1.01   2
  -6 -10   1    9.03    1.02   2
  -6  10   1   10.97    1.03   3
  -5 -10   1   54.80    1.91   2
   5  10  -1   56.67    1.86   5
  -5  10   1   54.82    1.84   3
   5 -10  -1   54.07    1.87   2
  -5  10   1   52.52    1.82   4
   5  10  -1   54.30    1.81   1
   4 -10  -1   -0.14    0.41   2
   4  10  -1   -0.31    0.38   1
  -4  10   1   -0.18    0.38   4
  -4 -10   1    0.04    0.42   2
   4  10  -1   -0.33    0.41   5
  -3 -10   1   93.26    1.86   3
   3 -10  -1   95.61    2.35   2
   3  10  -1   91.73    2.23   4
  -3  10   1   91.04    2.21   3
  -3 -10   1   94.00    2.39   2
   3  10  -1   94.86    2.24   1
  -3  10   1   92.30    2.36   4
  -2 -10   1    6.14    0.53   3
   2  10  -1    5.54    0.51   1
  -2  10   1    6.70    0.54   3
  -2 -10   1    5.49    0.56   2
   2 -10  -1    5.19    0.55   2
   2  10  -1    5.48    0.50   4
  -2  10   1    5.49    0.56   4
   1  10  -1   76.20    1.90   4
  -1  10   1   82.35    2.03   4
  -1 -10   1   76.47    1.89   2
   1  10  -1   76.64    1.73   1
  -1  10   1   73.96    1.72   3
   1 -10  -1   78.63    1.96   2
  -1 -10   1   75.02    1.66   3
   0 -10  -1   35.33    1.22   2
   0  10  -1   34.03    0.97   1
   0 -10  -1   34.23    0.91   1
   0  10  -1   34.35    1.16   4
   0  10   1   35.40    1.21   4
   0 -10   1   36.09    1.09   2
   0  10   1   34.15    0.92   3
   0 -10   1   36.78    1.06   3
  -1  10  -1  991.01   16.67   1
   1 -10   1 1006.07   16.78   3
   1 -10   1 1013.32   17.78   2
  -1 -10  -1  957.97   17.89   2
   1  10   1  966.76   18.23   4
  -1 -10  -1  992.25   16.84   1
  -1  10  -1  989.10   18.29   4
  -2 -10  -1  300.03    5.61   1
  -2  10  -1  292.92    5.28   1
  -2 -10  -1  294.43    5.98   2
   2 -10   1  303.43    5.81   2
   2  10   1  304.82    6.07   4
  -2  10  -1  305.47    6.13   4
   2 -10   1  308.49    5.65   3
   3  10   1   21.46    1.18   4
   3 -10   1   22.10    1.10   3
   3 -10   1   20.18    1.05   2
  -3  10  -1   25.00    1.22   4
  -3 -10  -1   21.72    1.22   2
  -3 -10  -1   21.75    1.06   1
   4 -10   1   -0.23    0.46   3
  -4 -10  -1   -0.26    0.47   2
   4  10   1    0.06    0.45   4
  -4  10  -1   -0.05    0.45   4
  -4 -10  -1    0.94    0.50   1
   5  10   1   61.97    2.15   4
  -5 -10  -1   67.11    2.21   2
  -5  10  -1   63.71    2.19   4
  -5 -10  -1   61.32    2.09   1
   5 -10   1   60.75    2.05   3
   6  10   1    1.10    0.71   5
  -6 -10  -1    0.70    0.71   2
  -6  10  -1    0.57    0.67   4
   6 -10   1    0.69    0.66   3
   6  10   1    1.30    0.68   1
  -6 -11   1   22.92    1.47   2
   6  11  -1   22.84    1.37   1
  -6  11   1   25.40    1.44   4
  -6  11   1   23.24    1.39   3
   6 -11  -1   24.71    1.39   2
   5  11  -1    0.24    0.50   1
  -5 -11   1    0.03    0.54   2
   5 -11  -1    0.17    0.52   2
  -5  11   1   -0.58    0.48   3
  -5  11   1   -0.12    0.47   4
  -4 -11   1    3.57    0.61   2
   4  11  -1    2.67    0.57   5
  -4  11   1    3.76    0.58   4
   4  11  -1    3.15    0.58   1
   4 -11  -1    2.97    0.60   2
  -4  11   1    2.71    0.56   3
   3 -11  -1   95.23    2.40   2
   3  11  -1   93.66    2.26   1
  -3  11   1   96.29    2.45   4
   3  11  -1   93.90    2.29   4
  -3 -11   1   90.17    2.42   2
  -3  11   1   93.59    2.27   3
   2  11  -1  500.15    9.52   4
  -2  11   1  499.94    8.83   3
  -2 -11   1  496.33    8.57   3
   2 -11  -1  510.60    9.48   2
  -2  11   1  495.65    9.68   4
  -2 -11   1  502.12    9.46   2
   2  11  -1  503.12    8.92   1
  -1 -11   1   29.96    0.92   3
  -1  11   1   28.19    1.17   4
  -1  11   1   29.15    0.96   3
   1  11  -1   28.06    0.97   1
   1 -11  -1   29.21    1.15   2
   1  11  -1   27.31    1.08   4
  -1 -11   1   29.12    1.09   2
   0 -11   1  280.70    5.46   2
   0  11  -1  277.79    5.02   1
   0  11  -1  272.69    5.63   4
   0  11   1  281.18    5.67   4
   0 -11   1  284.17    5.12   3
   0 -11  -1  278.58    4.94   3
   0 -11  -1  288.97    5.59   2
   1 -11   1  120.92    2.54   3
   1 -11   1  113.58    2.58   2
  -1  11  -1  114.89    2.23   1
   1  11   1  115.81    2.75   4
  -1 -11  -1  117.34    2.72   2
  -1 -11  -1  113.43    2.41   1
  -1  11  -1  113.18    2.75   4
   2 -11   1  128.17    2.83   3
  -2 -11  -1  124.16    2.76   1
  -2  11  -1  129.84    2.44   1
  -2  11  -1  126.54    3.05   4
  -2 -11  -1  130.67    3.02   2
   2 -11   1  128.59    2.85   2
   2  11   1  129.77    3.03   4
  -3 -11  -1  304.17    6.28   2
   3 -11   1  311.66    5.94   3
   3 -11   1  313.01    6.08   2
  -3  11  -1  304.96    6.41   4
   3  11   1  308.18    6.33   4
  -3 -11  -1  306.58    5.93   1
  -4  11  -1   37.77    1.58   4
  -4 -11  -1   36.19    1.48   1
  -4 -11  -1   40.70    1.59   2
   4 -11   1   35.89    1.48   3
   4  11   1   40.54    1.58   4
   5 -11   1   37.73    1.64   3
  -5 -11  -1   37.80    1.76   2
  -5 -11  -1   41.37    1.72   1
  -5  11  -1   39.15    1.75   4
  -6 -11  -1    2.90    0.83   2
  -6  11  -1    4.14    0.84   4
   6  11   1    2.75    0.79   1
   6 -11   1    3.73    0.83   3
   6  11   1    2.50    0.83   5
  -6  12   1   21.66    1.37   3
   6  12  -1   22.09    1.35   1
  -6 -12   1   21.70    1.45   2
  -6  12   1   22.30    1.42   4
  -5 -12   1   15.70    1.18   2
  -5  12   1   17.45    1.19   4
  -5  12   1   16.50    1.11   3
   5  12  -1   15.48    1.12   1
   5 -12  -1   17.79    1.18   2
  -4 -12   1  219.97    4.82   2
  -4  12   1  215.30    4.51   3
  -4  12   1  213.64    4.78   4
   4 -12  -1  220.82    4.75   2
   4  12  -1  215.08    4.52   1
  -3 -12   1   53.70    1.77   2
   3 -12  -1   53.14    1.73   2
   3  12  -1   55.44    1.64   1
  -3  12   1   54.13    1.65   3
  -3  12   1   53.41    1.76   4
   3  12  -1   55.86    1.66   4
  -2 -12   1   22.48    1.07   2
  -2  12   1   21.72    0.96   3
  -2  12   1   22.98    1.10   4
   2  12  -1   22.05    1.03   4
   2 -12  -1   22.18    1.09   2
  -2 -12   1   22.39    0.79   3
   2  12  -1   21.04    0.98   1
  -1 -12   1  183.37    3.83   2
  -1 -12   1  179.77    3.43   3
   1  12  -1  180.99    3.52   1
   1 -12  -1  179.45    3.89   2
  -1  12   1  180.65    3.96   4
  -1  12   1  178.75    3.48   3
   1  12  -1  182.49    3.88   4
   0  12   1  567.90    9.86   5
   0 -12  -1  568.03   10.57   2
   0  12   1  571.01    9.72   1
   0  12  -1  556.58   10.75   4
   0 -12   1  567.32    9.79   3
   0  12  -1  559.00    9.73   1
   0 -12   1  551.42   10.45   2
   0  12   1  567.19   10.79   4
   0 -12  -1  562.00    9.61   3
  -1  12  -1   80.76    1.70   1
  -1 -12  -1   79.85    1.86   1
  -1  12  -1   80.46    2.18   4
  -1 -12  -1   80.31    2.15   2
   1 -12   1   81.46    2.02   2
   1 -12   1   81.23    1.98   3
   1  12   1   86.44    2.20   4
   2 -12   1    4.75    0.57   2
   2  12   1    4.52    0.63   4
   2 -12   1    4.88    0.60   3
  -2 -12  -1    4.05    0.57   1
  -2 -12  -1    5.20    0.64   2
  -2  12  -1    5.62    0.65   4
   3  12   1   40.80    1.59   4
   3 -12   1   38.87    1.49   3
  -3 -12  -1   39.17    1.44   1
   3 -12   1   38.20    1.43   2
  -3  12  -1   41.61    1.62   4
  -3 -12  -1   41.19    1.59   2
  -4 -12  -1   30.41    1.39   1
   4 -12   1   27.88    1.34   3
   4  12   1   30.93    1.45   4
  -4 -12  -1   31.76    1.46   2
  -4  12  -1   29.64    1.44   4
   5 -12   1   32.23    1.56   3
   5  12   1   34.90    1.55   1
  -5 -12  -1   36.74    1.74   2
  -5  12  -1   34.09    1.66   4
   5  12   1   34.02    1.58   5
   6  12   1   29.65    1.62   1
  -6 -12  -1   32.09    1.79   2
   6  12   1   30.59    1.64   5
  -6  12  -1   33.96    1.76   4
   6 -12   1   31.42    1.64   3
  -6 -13   1    3.68    0.85   2
  -6  13   1    4.31    0.91   3
  -6  13   1    3.40    0.83   4
   6  13  -1    3.95    0.81   1
  -5 -13   1    9.44    0.96   2
   5 -13  -1    9.10    0.94   2
  -5  13   1    9.31    0.94   3
  -5  13   1    9.23    0.92   4
   5  13  -1    8.50    0.93   1
   4 -13  -1    0.50    0.60   2
  -4 -13   1    2.25    0.59   2
   4  13  -1    1.15    0.57   1
  -4  13   1    1.40    0.57   3
  -4  13   1    1.15    0.57   4
  -3  13   1  157.60    3.46   3
   3 -13  -1  161.78    3.70   2
  -3 -13   1  158.44    3.72   2
  -3  13   1  162.20    3.79   4
   3  13  -1  165.92    3.49   1
   3  13  -1  160.48    3.60   4
   2  13  -1    1.08    0.46   4
  -2 -13   1    0.35    0.28   3
  -2  13   1    0.29    0.38   3
   2  13  -1   -0.24    0.38   1
   2 -13  -1    0.50    0.44   2
  -2 -13   1    0.52    0.42   2
  -2  13   1    0.52    0.45   4
  -1  13   1  141.24    3.32   4
  -1 -13   1  143.23    2.84   3
   1 -13  -1  141.33    3.26   2
   1  13  -1  140.05    2.90   1
  -1  13   1  142.32    2.89   3
   1  13  -1  142.97    3.25   4
  -1 -13   1  142.26    3.20   2
   0  13   1    4.20    0.59   4
   0 -13  -1    2.91    0.37   3
   0  13   1    2.67    0.40   5
   0  13  -1    3.96    0.54   4
   0  13   1    2.91    0.37   1
   1  13   1   55.61    1.47   1
   1 -13   1   56.42    1.61   2
   1 -13   1   53.33    1.56   3
   1  13   1   53.20    1.73   4
  -1 -13  -1   54.18    1.73   2
   1  13   1   56.33    1.49   5
  -1  13  -1   56.15    1.30   1
  -1  13  -1   54.22    1.74   4
   2 -13   1  376.96    6.95   3
  -2 -13  -1  365.92    7.40   2
  -2 -13  -1  363.82    6.87   1
   2  13   1  370.57    7.48   4
  -2  13  -1  373.10    7.55   4
   2 -13   1  379.02    7.23   2
   3  13   1  268.12    5.64   4
  -3 -13  -1  265.01    5.26   1
   3 -13   1  260.91    5.27   3
  -3  13  -1  257.33    5.69   4
  -4 -13  -1    0.89    0.56   2
   4 -13   1   -0.48    0.49   3
  -4  13  -1   -0.78    0.48   4
   4  13   1    0.23    0.55   4
  -5  13  -1    5.52    0.90   4
   5 -13   1    5.02    0.85   3
   5  13   1    6.20    0.94   5
   5  13   1    5.42    0.83   1
  -5 -13  -1    4.61    0.89   2
  -6  14   1   -1.05    0.67   3
   6  14  -1   -0.24    0.64   1
  -6  14   1   -0.65    0.68   4
  -6 -14   1    0.04    0.68   2
  -5  14   1    1.25    0.66   3
   5 -14  -1    0.86    0.66   2
  -5  14   1    1.30    0.64   4
  -5 -14   1    1.90    0.70   2
   5  14  -1    1.97    0.69   1
   4  14  -1  105.07    2.70   1
  -4  14   1  102.76    2.71   3
  -4  14   1  108.54    2.92   4
   4 -14  -1  108.45    2.86   2
  -4 -14   1  103.37    2.90   2
   3  14  -1    9.20    0.78   1
  -3 -14   1    8.61    0.82   2
   3 -14  -1    8.84    0.82   2
  -3  14   1    8.06    0.76   3
  -3  14   1    7.66    0.82   4
   3  14  -1    8.71    0.88   4
   2  14  -1  103.71    2.62   4
  -2  14   1  105.28    2.44   3
   2 -14  -1  105.52    2.70   2
  -2 -14   1  104.65    2.68   2
  -2  14   1  107.84    2.77   4
  -2 -14   1  101.23    2.15   3
   2  14  -1  100.04    2.42   1
   1  14  -1    3.38    0.53   4
   1 -14  -1    2.38    0.43   3
  -1 -14   1    2.73    0.43   3
   1  14  -1    2.70    0.45   1
   1 -14  -1    2.53    0.54   2
  -1 -14   1    3.04    0.53   2
  -1  14   1    3.43    0.57   4
   0 -14   1  372.35    7.25   2
   0  14   1  378.71    7.52   4
   0  14  -1  362.90    6.62   1
   0 -14  -1  381.21    6.58   3
   0  14  -1  373.16    7.48   4
   0  14   1  370.25    6.61   1
   0 -14  -1  375.26    7.36   2
   0 -14   1  365.65    6.74   3
   1 -14   1  138.27    2.98   3
   1  14   1  131.67    2.84   1
  -1  14  -1  137.03    3.31   4
   1 -14   1  136.36    3.09   2
   1  14   1  134.64    2.89   5
   1  14   1  137.00    3.28   4
  -1 -14  -1  134.88    3.26   2
  -2  14  -1   13.47    1.04   4
   2  14   1   13.07    1.04   4
   2  14   1   12.09    0.87   5
   2 -14   1   11.09    0.92   2
   2 -14   1   14.08    0.96   3
  -2 -14  -1   13.36    1.00   2
   2  14   1   12.03    0.87   1
   3  14   1    4.70    0.65   1
  -3 -14  -1    3.43    0.65   2
   3 -14   1    3.18    0.66   3
   3  14   1    3.73    0.68   5
   3  14   1    4.98    0.72   4
  -3  14  -1    5.07    0.75   4
  -4 -14  -1   14.44    1.19   2
   4 -14   1   14.39    1.09   3
   4  14   1   15.20    1.06   1
   4  14   1   14.83    1.08   5
   4  14   1   14.71    1.26   4
  -4  14  -1   14.65    1.16   4
   5 -14   1    8.64    0.98   3
   5  14   1    7.31    0.97   5
  -5 -14  -1    6.55    1.00   2
  -5  14  -1    7.74    1.00   4
   5  14   1    7.43    0.94   1
  -6  15   1   -0.51    0.67   4
  -6  15   1   -1.09    0.71   3
  -6 -15   1   -0.33    0.70   2
   6  15  -1   -0.03    0.70   1
  -5  15   1   24.60    1.40   3
  -5 -15   1   26.09    1.52   2
   5  15  -1   24.56    1.42   1
  -5  15   1   29.25    1.56   4
   5 -15  -1   25.80    1.47   2
   4 -15  -1   18.65    1.25   2
  -4  15   1   21.30    1.31   4
  -4  15   1   19.07    1.19   3
   4  15  -1   21.03    1.23   1
  -4 -15   1   19.15    1.28   2
  -3  15   1   41.86    1.52   3
   3 -15  -1   41.75    1.62   2
   3  15  -1   43.94    1.57   4
   3  15  -1   43.51    1.53   1
  -3  15   1   39.95    1.67   4
  -3 -15   1   40.10    1.63   2
   2 -15  -1   27.00    1.33   2
   2  15  -1   24.38    1.24   4
  -2 -15   1   24.23    1.28   2
  -2  15   1   27.13    1.17   3
   2  15  -1   24.99    1.13   1
  -2  15   1   26.26    1.32   4
   1  15  -1   76.01    1.91   1
   1 -15  -1   76.24    2.19   2
  -1 -15   1   75.64    2.15   2
  -1  15   1   76.44    2.25   4
   1  15  -1   74.88    2.16   4
   1 -15  -1   74.25    1.86   3
  -1 -15   1   75.74    1.83   3
   0  15   1    6.20    0.75   4
   0  15   1    5.21    0.49   1
   0  15  -1    5.22    0.68   4
   1 -15   1   12.35    0.92   2
   1  15   1    9.47    0.79   1
  -1 -15  -1   11.37    1.01   2
   1  15   1   14.08    1.05   4
  -1  15  -1   10.20    0.90   4
   1 -15   1   10.83    0.91   3
   1  15   1    9.93    0.80   5
   2 -15   1   47.83    1.62   2
  -2 -15  -1   46.47    1.75   2
   2  15   1   45.65    1.51   1
   2  15   1   49.24    1.75   4
   2  15   1   48.81    1.56   5
  -2  15  -1   46.13    1.77   4
   2 -15   1   49.06    1.63   3
  -3 -15  -1  102.59    2.90   2
  -3  15  -1  108.02    2.98   4
   3  15   1  105.07    2.72   5
   3 -15   1  108.72    2.80   3
   3  15   1  106.38    2.91   4
   3  15   1  107.63    2.70   1
  -4 -15  -1   49.49    1.97   2
   4  15   1   52.09    1.89   5
  -4  15  -1   51.16    2.02   4
   4  15   1   51.33    1.85   1
   4 -15   1   52.69    1.93   3
   4  15   1   51.42    1.99   4
   5 -15   1    3.84    0.82   3
   5  15   1    3.94    0.86   5
   5  15   1    3.37    0.82   1
  -5 -15  -1    4.43    0.93   2
  -5  15  -1    4.36    0.87   4
  -5 -16   1   21.32    1.48   2
   5  16  -1   24.13    1.45   1
  -5  16   1   24.46    1.52   4
  -5  16   1   25.11    1.43   3
   5 -16  -1   23.26    1.46   2
   4  16  -1   29.33    1.45   1
   4 -16  -1   27.83    1.44   2
  -4  16   1   31.20    1.55   4
  -4  16   1   27.25    1.40   3
  -4 -16   1   27.84    1.49   2
  -3  16   1   14.49    1.15   4
  -3  16   1   15.29    1.04   3
   3  16  -1   15.40    1.06   1
   3 -16  -1   14.71    1.16   2
   3  16  -1   14.97    1.09   4
  -3 -16   1   14.78    1.13   2
  -2 -16   1   -0.61    0.49   2
   2 -16  -1    0.12    0.54   2
  -2  16   1    0.17    0.52   4
   2  16  -1   -0.48    0.46   1
   2  16  -1   -0.34    0.46   4
   2 -16  -1   -0.80    0.44   3
  -1 -16   1  109.77    2.78   2
   1  16  -1  104.51    2.47   1
   1  16  -1  106.69    2.79   4
   1 -16  -1  107.25    2.81   2
  -1 -16   1  106.29    2.38   3
  -1  16   1  106.87    2.87   4
   1 -16  -1  105.14    2.42   3
   0 -16   1  217.48    4.36   3
   0  16  -1  219.72    4.89   4
   0 -16   1  224.33    4.76   2
   0  16   1  225.82    4.97   4
   0 -16  -1  218.26    4.83   2
   1 -16   1  103.53    2.56   3
  -1 -16  -1  106.76    2.85   2
   1  16   1  103.45    2.42   1
   1  16   1  105.86    2.46   5
  -1  16  -1  106.96    2.88   4
   1  16   1  106.11    2.87   4
   1 -16   1  106.39    2.68   2
  -2 -16  -1   41.86    1.70   2
   2  16   1   43.58    1.72   4
   2  16   1   43.38    1.51   1
   2  16   1   43.19    1.51   5
  -2  16  -1   43.69    1.76   4
   2 -16   1   43.16    1.58   3
   2 -16   1   43.98    1.59   2
   3  16   1    2.61    0.66   5
   3 -16   1    3.41    0.71   3
   3  16   1    3.09    0.72   4
   3  16   1    3.75    0.70   1
  -3  16  -1    2.64    0.70   4
  -3 -16  -1    3.18    0.68   2
   4  16   1   12.28    1.08   4
   4  16   1   11.48    1.08   5
   4  16   1   10.52    1.02   1
   4 -16   1   11.66    1.10   3
  -4  16  -1   10.84    1.06   4
  -4 -16  -1   11.83    1.16   2
  -5  16  -1   21.23    1.52   4
   5  16   1   19.99    1.41   5
   5 -16   1   20.76    1.41   3
   5  16   1   18.81    1.37   1
  -5 -16  -1   23.27    1.55   2
  -5 -17   1    1.45    0.77   2
   5 -17  -1    2.33    0.79   3
  -5  17   1    1.21    0.79   4
   5  17  -1    2.27    0.82   1
  -4 -17   1    6.62    0.90   2
  -4  17   1    6.72    0.91   4
   4 -17  -1    6.56    0.88   2
   4  17  -1    6.44    0.88   1
  -3 -17   1    3.24    0.69   2
   3  17  -1    2.88    0.67   4
   3 -17  -1    3.56    0.64   3
   3 -17  -1    2.41    0.72   2
  -3  17   1    3.24    0.75   4
   3  17  -1    2.95    0.67   1
   2 -17  -1  141.09    3.53   2
   2 -17  -1  141.95    3.18   3
  -2 -17   1  138.26    3.51   2
   2  17  -1  143.72    3.49   4
   2  17  -1  140.80    3.17   1
  -1 -17   1   25.79    1.08   3
   1 -17  -1   24.90    1.11   3
  -1 -17   1   25.14    1.32   2
   1  17  -1   19.96    1.20   1
   1  17  -1   21.86    1.28   4
   1 -17  -1   24.61    1.31   2
  -1  17   1   23.27    1.34   4
   0 -17  -1   67.89    2.13   2
   0 -17   1   66.05    1.85   3
   0  17  -1   64.42    2.12   4
   0 -17   1   67.94    2.07   2
   0  17   1   65.21    2.17   4
   1  17   1   32.60    1.24   1
   1 -17   1   31.88    1.33   3
  -1 -17  -1   33.94    1.54   2
   1  17   1   31.16    1.51   4
   1 -17   1   31.80    1.39   2
  -1  17  -1   31.07    1.49   4
   2  17   1   31.79    1.32   5
  -2  17  -1   28.56    1.48   4
   2 -17   1   28.15    1.34   3
   2  17   1   29.31    1.49   4
   2  17   1   30.64    1.32   1
  -2 -17  -1   29.16    1.47   2
   2 -17   1   30.23    1.38   2
   3 -17   1   26.44    1.36   3
   3  17   1   26.82    1.51   4
   3  17   1   28.57    1.36   5
  -3 -17  -1   26.61    1.44   2
  -3  17  -1   30.45    1.54   4
   3  17   1   28.83    1.36   1
  -4  17  -1   14.27    1.27   4
   4 -17   1   13.15    1.17   3
   4  17   1   16.47    1.38   4
  -4 -17  -1   13.80    1.24   2
   4  17   1   14.90    1.21   5
   4  17   1   14.92    1.21   1
   5  18  -1   20.62    1.46   1
  -5  18   1   20.72    1.53   4
   5 -18  -1   21.03    1.41   3
  -5 -18   1   17.65    1.44   2
   4 -18  -1    4.32    0.79   3
  -4  18   1    3.16    0.80   4
   4 -18  -1    3.93    0.84   2
   4  18  -1    2.38    0.76   1
  -4 -18   1    3.64    0.82   2
   3  18  -1   38.36    1.55   1
   3 -18  -1   40.13    1.54   3
   3 -18  -1   38.70    1.71   2
  -3  18   1   40.45    1.79   4
  -3 -18   1   36.37    1.69   2
   2  18  -1    9.07    0.89   4
  -2  18   1    7.55    0.92   4
   2  18  -1    8.02    0.79   1
   2 -18  -1    8.37    0.82   3
   2 -18  -1    8.03    0.90   2
  -2 -18   1    8.26    0.90   2
   1 -18  -1    3.67    0.60   3
  -1 -18   1    3.39    0.69   2
  -1  18   1    3.14    0.72   4
   1  18  -1    1.95    0.66   4
   1 -18  -1    3.47    0.71   2
   1  18  -1    2.90    0.60   1
   0 -18   1    1.40    0.60   2
   0 -18   1    0.79    0.50   3
   0  18  -1    1.12    0.57   4
   0  18   1    1.04    0.65   4
   0 -18  -1    2.46    0.67   2
   1  18   1   60.00    2.09   4
  -1  18  -1   58.22    2.07   4
   1 -18   1   59.76    1.85   3
   1 -18   1   58.80    1.92   2
  -1 -18  -1   58.49    2.09   2
   2  18   1    0.72    0.56   5
   2  18   1   -0.67    0.50   1
   2  18   1    0.39    0.59   4
   2 -18   1    0.11    0.55   3
  -2 -18  -1    0.94    0.64   2
  -2  18  -1    0.19    0.58   4
   3  18   1   -0.52    0.59   5
  -3 -18  -1    0.11    0.59   2
  -3  18  -1    0.91    0.67   4
   3  18   1    0.40    0.65   4
   3 -18   1    0.16    0.60   3
   3  18   1    0.72    0.62   1
  -4 -18  -1    6.84    1.00   2
  -4  18  -1    6.45    0.99   4
   4 -18   1    6.79    0.98   3
   4  18   1    8.85    1.02   1
   4  18   1    6.82    0.98   5
   4 -19  -1    5.85    0.89   3
  -4 -19   1    7.07    0.99   2
   4 -19  -1    6.58    1.01   2
  -4  19   1    5.87    0.95   4
   4  19  -1    5.68    0.92   1
   3  19  -1   26.95    1.37   1
  -3 -19   1   28.02    1.56   2
  -3  19   1   27.54    1.55   4
   3 -19  -1   27.75    1.53   2
   3 -19  -1   28.70    1.43   3
   2 -19  -1   93.25    2.43   3
   2 -19  -1   88.63    2.67   2
  -2 -19   1   84.46    2.66   2
   2  19  -1   86.12    2.62   4
   2  19  -1   91.56    2.37   1
  -2  19   1   89.35    2.77   4
  -1  19   1   12.04    1.13   4
  -1 -19   1   12.58    1.17   2
   1  19  -1   11.26    1.09   4
   1 -19  -1   12.09    1.07   2
   0 -19   1   -0.42    0.52   3
   0  19  -1   -0.24    0.55   4
   0 -19   1    0.29    0.61   2
   0 -19  -1    1.13    0.60   2
   0  19   1    0.87    0.62   4
  -1 -19  -1    0.84    0.63   2
   1 -19   1    0.65    0.55   3
   1 -19   1    2.13    0.62   2
  -1  19  -1    1.15    0.66   4
   1  19   1    1.43    0.68   4
  -2 -19  -1   23.69    1.46   2
   2 -19   1   24.49    1.29   3
   2  19   1   23.89    1.25   1
   2  19   1   24.98    1.47   4
  -2  19  -1   24.56    1.45   4
   3  19   1   16.71    1.39   4
  -3 -19  -1   17.01    1.28   2
   3 -19   1   17.63    1.25   3
   3  19   1   17.71    1.23   5
   3  19   1   16.31    1.21   1
  -3  19  -1   16.33    1.34   4
  -4  19  -1   16.54    1.43   4
   4 -19   1   18.90    1.36   3
   4  19   1   18.92    1.37   5
   4  19   1   19.98    1.41   1
  -4 -19  -1   18.08    1.40   2
   4 -20  -1   -0.11    0.68   3
  -4  20   1   -0.16    0.72   4
   4 -20  -1    0.14    0.76   2
  -4 -20   1    0.12    0.68   2
   4  20  -1   -0.23    0.65   1
  -3  20   1    3.39    0.83   4
   3  20  -1    3.86    0.81   1
   3 -20  -1    2.82    0.76   3
  -3 -20   1    4.68    0.88   2
   3 -20  -1    4.41    0.87   2
   2  20  -1    0.42    0.62   4
  -2  20   1    0.17    0.66   4
  -2 -20   1    0.29    0.63   2
   2 -20  -1    0.80    0.65   2
   2 -20  -1   -0.25    0.59   3
  -1 -20   1   -0.34    0.58   2
   1 -20  -1   -0.14    0.58   2
  -1  20   1    0.27    0.63   4
   1  20  -1    0.33    0.63   4
   0 -20  -1   87.82    2.72   2
   0  20  -1   86.11    2.70   4
   0 -20   1   94.80    2.75   2
   0  20   1   90.47    2.79   4
  -1 -20  -1   70.00    2.37   2
  -1  20  -1   63.60    2.29   4
   1 -20   1   67.48    2.18   2
   1  20   1   61.89    2.31   4
   1 -20   1   63.74    2.02   3
  -2 -20  -1    7.78    1.03   2
   2 -20   1    6.94    0.89   3
  -2  20  -1    8.46    1.00   4
   2  20   1    8.54    1.01   4
   3 -20   1    1.07    0.73   3
  -3 -20  -1    1.28    0.73   2
  -3  20  -1    0.28    0.73   4
   3  20   1    0.84    0.69   1
   3  20   1    1.02    0.81   4
  -4 -21   1    0.56    0.76   2
   4 -21  -1   -0.35    0.72   3
   4  21  -1   -0.24    0.70   1
  -4  21   1   -0.10    0.74   4
  -3  21   1   39.70    1.92   4
   3  21  -1   40.75    1.72   1
   3 -21  -1   41.73    1.91   2
  -3 -21   1   39.46    1.89   2
   3 -21  -1   41.43    1.76   3
  -2 -21   1   25.81    1.55   2
   2  21  -1   25.07    1.51   4
   2 -21  -1   24.60    1.48   2
   2 -21  -1   26.55    1.36   3
  -2  21   1   23.73    1.50   4
  -1 -21   1   20.31    1.44   2
   1 -21  -1   19.25    1.31   2
  -1  21   1   21.23    1.48   4
   1  21  -1   20.77    1.41   4
   0  21  -1    1.25    0.69   4
   0 -21   1    2.04    0.75   2
   0 -21  -1    2.25    0.75   2
   0  21   1    2.03    0.78   4
  -1  21  -1    5.46    0.90   4
   1 -21   1    6.19    0.88   2
   1 -21   1    6.74    0.84   3
   1  21   1    5.88    0.95   4
  -1 -21  -1    5.59    0.96   2
   2  21   1   10.57    1.12   4
   2 -21   1   10.35    1.05   3
  -2  21  -1   10.25    1.10   4
  -2 -21  -1   10.06    1.13   2
  -3 -21  -1    3.91    0.86   2
   3  21   1    5.26    1.00   4
   3 -21   1    5.10    0.91   3
  -3  21  -1    3.18    0.88   4
   3  21   1    5.51    0.88   1
   3 -22  -1    1.02    0.78   3
  -3  22   1    1.32    0.80   4
   3 -22  -1    1.65    0.79   2
  -3 -22   1    2.41    0.84   2
  -2 -22   1    9.93    1.07   2
   2 -22  -1    7.24    1.02   2
  -2  22   1    9.98    1.11   4
   2  22  -1    9.20    1.03   4
  -1 -22   1    5.70    0.98   2
  -1  22   1    5.61    0.98   4
   1 -22  -1    6.26    0.90   2
   1  22  -1    5.21    0.91   4
   0 -22  -1   14.94    1.32   2
   0 -22   1   20.24    1.51   2
   0  22  -1   17.34    1.32   4
   0  22   1   15.34    1.38   4
  -1 -22  -1    6.70    1.03   2
   1 -22   1    6.55    0.88   3
   1  22   1    4.85    0.97   4
  -1  22  -1    6.32    0.96   4
   2 -22   1   20.47    1.34   3
  -2  22  -1   20.92    1.51   4
  -2 -22  -1   18.07    1.45   2
   2  22   1   21.53    1.57   4
  -2 -23   1    2.83    0.86   2
   2  23  -1    2.68    0.84   4
   2 -23  -1    1.79    0.81   2
  -2  23   1    2.02    0.82   4
  -1  23   1    7.78    1.07   4
   1  23  -1    7.28    1.01   4
  -1 -23   1    8.06    1.07   2
   1 -23  -1    8.88    1.06   2
   0 -23  -1    6.63    1.04   2
   0  23  -1    5.59    0.93   4
   0 -23   1    6.43    1.04   2
   0  23   1    4.90    0.99   4
   1  23   1   12.33    1.24   4
  -1 -23  -1   12.17    1.25   2
  -1  23  -1   10.59    1.16   4
  -2  23  -1    2.29    0.89   4
  -2 -23  -1    1.41    0.82   2
   1  24  -1    0.35    0.76   4
  -1 -24   1    0.51    0.76   2
   1 -24  -1   -0.15    0.72   2
  -1  24   1    0.84    0.80   4
   0  24  -1    0.71    0.72   4
   0  24   1    1.72    0.84   4
   0 -24  -1    0.82    0.83   2
   0 -24   1    1.22    0.88   2
  -7   0   2   -0.79    0.62   2
  -7   0   2   -0.97    0.50   3
  -6   0   2   11.68    0.94   3
  -6   0   2   11.06    1.09   2
   6   0  -2   13.68    0.99   1
  -5   0   2   -0.56    0.37   3
  -5   0   2   -0.79    0.43   2
   5   0  -2   -0.12    0.37   1
  -4   0   2  924.28   16.75   2
  -4   0   2  915.87   15.63   3
   4   0  -2  894.90   15.75   1
  -4   0   2  942.08   16.75   4
  -3   0   2   -0.33    0.23   2
  -3   0   2   -0.10    0.20   3
   3   0  -2    0.00    0.20   1
  -2   0   2  305.40    5.30   3
   2   0  -2  295.55    5.32   1
  -2   0   2  306.61    5.66   2
   1   0  -2    0.04    0.17   1
  -1   0   2    0.10    0.16   3
  -1   0   2    0.09    0.13   4
   1   0  -2    0.34    0.16   2
   0   0  -2  442.74    7.64   1
   0   0  -2  433.10    8.02   2
   0   0  -2  454.34    8.23   4
   0   0   2  443.87    7.54   3
  -1   0  -2   -0.19    0.16   1
  -1   0  -2    0.19    0.11   2
  -1   0  -2   -0.43    0.17   4
   1   0   2    0.31    0.15   3
  -2   0  -2  508.63    9.28   2
  -2   0  -2  515.53    9.74   4
   2   0   2  519.78    8.83   3
  -2   0  -2  511.74    8.99   1
   3   0   2    0.55    0.31   3
  -3   0  -2    0.60    0.36   1
  -3   0  -2   -1.14    0.38   4
  -3   0  -2   -0.70    0.28   2
  -4   0  -2    7.15    0.66   1
   4   0   2    7.43    0.68   3
  -4   0  -2    6.74    0.59   2
  -4   0  -2    6.13    0.71   4
   5   0   2   -0.37    0.50   4
  -5   0  -2   -0.88    0.52   1
  -6   0  -2  116.75    3.10   1
   6   0   2  121.29    3.42   4
  -7  -1   2   18.05    1.17   3
  -7   1   2   18.10    1.37   2
  -7  -1   2   17.76    1.36   2
  -7   1   2   17.08    1.17   3
  -6  -1   2   84.00    2.22   3
  -6   1   2   84.84    2.50   2
  -6  -1   2   78.94    2.45   2
   6   1  -2   85.78    2.26   1
  -6   1   2   86.75    2.27   3
   6  -1  -2   84.63    2.20   1
   5   1  -2   25.81    1.11   1
  -5  -1   2   22.00    1.09   3
   5  -1  -2   24.77    1.06   1
  -5  -1   2   22.72    1.23   2
  -5   1   2   27.77    1.12   3
  -5   1   2   25.27    1.23   2
  -4  -1   2  130.02    3.00   2
  -4   1   2  129.52    3.00   2
   4  -1  -2  133.58    2.71   1
  -4   1   2  135.54    2.79   3
  -4  -1   2  130.20    2.72   3
   4   1  -2  130.63    2.75   1
  -4   1   2  130.94    2.69   4
   3  -1  -2    0.75    0.23   1
  -3   1   2    0.92    0.27   3
  -3  -1   2    0.68    0.26   3
  -3  -1   2    0.13    0.30   2
  -3   1   2    2.76    0.37   2
   3   1  -2    1.62    0.28   1
  -3   1   2    1.01    0.17   4
  -2   1   2    7.52    0.49   2
  -2  -1   2    5.48    0.44   3
   2  -1  -2    7.49    0.44   1
  -2   1   2    5.57    0.44   3
  -2  -1   2    5.69    0.50   2
  -2   1   2    6.99    0.35   4
   2   1  -2    7.34    0.51   1
  -1   1   2 5926.65  104.10   4
   1  -1  -2 5939.15  101.49   2
  -1  -1   2 6074.65  101.67   2
  -1  -1   2 5408.15   94.95   3
  -1   1   2 5500.54   94.97   3
   1  -1  -2 5784.21   96.11   1
   0  -1   2  254.84    4.48   3
   0   1  -2  256.60    4.52   1
   0  -1  -2  254.37    4.68   2
   0   1   2  251.07    4.43   3
   0   1   2  256.10    4.87   4
   0   1  -2  263.11    4.87   4
   0  -1  -2  252.77    4.52   1
   1   1   2  176.60    3.58   4
  -1   1  -2  175.91    3.28   1
  -1   1  -2  173.80    3.56   4
  -1  -1  -2  176.58    3.29   1
   1  -1   2  177.74    3.23   3
  -1  -1  -2  172.46    3.29   2
   1   1   2  175.94    3.16   3
   2  -1   2   15.06    0.70   3
  -2  -1  -2   10.38    0.63   2
   2   1   2   15.70    0.65   3
  -2  -1  -2   10.77    0.75   4
  -2   1  -2   11.75    0.55   2
  -2   1  -2    8.78    0.80   4
  -2   1  -2   13.60    0.75   1
  -2  -1  -2   14.10    0.76   1
  -3   1  -2  546.58    9.69   2
   3  -1   2  517.92    9.23   3
  -3   1  -2  523.10    9.37   1
  -3  -1  -2  533.56    9.72   2
  -3  -1  -2  529.25   10.15   4
  -3  -1  -2  523.51    9.41   1
   3   1   2  523.21    9.15   3
  -3   1  -2  536.94   10.18   4
  -4  -1  -2   71.90    1.89   2
   4  -1   2   72.07    1.85   3
  -4   1  -2   74.42    1.87   2
   4   1   2   70.32    2.14   4
  -4   1  -2   72.19    1.93   1
  -4   1  -2   71.72    2.14   4
  -4  -1  -2   73.82    1.96   1
  -5   1  -2   41.30    1.68   4
   5   1   2   41.56    1.74   4
  -5   1  -2   41.46    1.58   1
  -5  -1  -2   42.96    1.62   1
  -6  -1  -2    4.01    0.81   1
  -6   1  -2    3.21    0.78   1
   6   1   2    2.32    0.86   4
   6  -1   2    5.28    0.90   4
   7  -2  -2    8.04    0.94   2
   7   2  -2   10.02    0.96   1
  -7  -2   2    6.71    0.99   2
  -7   2   2    9.34    0.93   3
  -7  -2   2    8.95    0.89   3
  -6  -2   2    1.88    0.65   2
  -6  -2   2    1.39    0.50   3
   6   2  -2    1.56    0.57   1
  -6   2   2    1.59    0.59   3
  -6   2   2    0.96    0.67   2
  -5   2   2  109.20    2.56   3
   5  -2  -2  111.88    2.46   1
  -5   2   2  105.37    2.50   4
  -5   2   2  112.17    2.80   2
  -5  -2   2  110.52    2.50   3
   5   2  -2  108.87    2.55   1
  -5  -2   2  107.40    2.79   2
  -4  -2   2  450.57    8.64   2
  -4  -2   2  451.50    7.99   3
   4  -2  -2  463.09    8.03   1
  -4   2   2  454.86    8.65   2
  -4   2   2  455.76    8.49   4
  -4   2   2  463.50    8.08   3
   4   2  -2  445.08    8.13   1
  -3  -2   2  692.95   11.92   3
  -3   2   2  709.40   11.98   3
   3  -2  -2  709.25   11.99   1
  -3  -2   2  707.64   12.80   2
  -3   2   2  692.85   12.82   4
  -3   2   2  707.78   12.81   2
   3   2  -2  695.95   12.10   1
   2  -2  -2  197.84    3.75   2
   2   2  -2  193.42    3.54   1
  -2  -2   2  187.90    3.46   3
   2  -2  -2  189.10    3.42   1
  -2   2   2  193.91    3.64   4
  -2   2   2  188.00    3.48   3
  -2  -2   2  186.38    3.71   2
   1   2  -2  136.49    2.56   1
  -1   2   2  135.03    2.50   3
  -1  -2   2  138.25    2.62   2
   1  -2  -2  133.05    2.50   1
   1  -2  -2  138.22    2.68   2
  -1  -2   2  136.12    2.53   3
   1   2  -2  135.97    2.62   4
  -1   2   2  136.34    2.67   4
   0   2  -2 1239.24   21.48   1
   0  -2   2 1272.61   21.29   3
   0   2  -2 1302.96   23.19   4
   0  -2  -2 1265.76   22.67   2
   0   2   2 1281.92   21.25   3
   0   2   2 1300.29   23.20   4
   0  -2  -2 1287.55   21.50   1
   1   2   2  726.82   13.53   4
  -1  -2  -2  732.62   13.10   2
  -1   2  -2  731.58   12.51   1
   1  -2   2  745.00   12.40   3
   1   2   2  720.68   12.28   3
  -1  -2  -2  728.87   12.52   1
  -1   2  -2  743.71   13.53   4
  -2   2  -2 1113.51   19.35   2
  -2  -2  -2 1068.82   18.54   1
   2   2   2 1090.98   18.19   3
   2  -2   2 1072.43   18.31   3
  -2   2  -2 1105.24   20.03   4
  -2  -2  -2 1098.46   19.41   2
  -2   2  -2 1078.17   18.49   1
   2   2   2 1084.68   20.04   4
   3   2   2  169.33    3.77   4
   3  -2   2  167.39    3.36   3
  -3   2  -2  169.49    3.38   2
  -3  -2  -2  171.15    3.48   1
   3   2   2  167.19    3.22   3
  -3   2  -2  167.94    3.39   1
  -3  -2  -2  166.42    3.45   2
  -3   2  -2  170.98    3.76   4
  -4   2  -2   20.23    1.19   4
  -4  -2  -2   22.60    1.08   1
  -4  -2  -2   22.44    1.05   2
  -4   2  -2   22.67    0.98   2
  -4   2  -2   22.94    1.06   1
   4   2   2   19.96    1.18   4
   4  -2   2   22.56    1.02   3
  -5   2  -2   20.87    1.19   1
  -5   2  -2   21.10    1.29   4
   5   2   2   22.53    1.37   4
  -5  -2  -2   20.64    1.24   1
   6  -2   2   52.17    2.09   4
   6   2   2   54.42    2.16   4
  -6  -2  -2   51.53    1.94   1
  -6   2  -2   51.85    1.89   1
   7  -3  -2    6.24    0.89   2
  -7  -3   2    5.08    0.91   2
  -7   3   2    5.37    0.83   3
   7   3  -2    5.57    0.85   1
   6   3  -2   40.22    1.52   1
   6  -3  -2   38.65    1.61   2
  -6  -3   2   42.01    1.71   2
  -6  -3   2   39.46    1.40   3
  -6   3   2   40.39    1.55   3
   5   3  -2  381.27    7.12   1
  -5  -3   2  381.77    7.60   2
   5  -3  -2  393.26    6.96   1
  -5   3   2  393.21    7.11   3
  -5  -3   2  374.81    6.93   3
   5  -3  -2  378.22    7.59   2
  -5   3   2  377.54    7.36   4
  -4   3   2   34.43    1.03   4
   4  -3  -2   35.92    1.29   2
   4  -3  -2   36.29    1.12   1
  -4  -3   2   37.70    1.14   3
  -4  -3   2   35.86    1.31   2
   4   3  -2   34.40    1.18   1
  -4   3   2   34.06    1.19   3
  -3  -3   2    0.56    0.25   3
  -3   3   2    0.88    0.21   4
   3  -3  -2   -0.04    0.30   2
  -3  -3   2    0.27    0.27   2
  -3   3   2    0.52    0.28   3
   3   3  -2    0.96    0.29   1
   3  -3  -2    0.35    0.21   1
  -2  -3   2 1514.93   26.61   2
  -2   3   2 1486.98   24.95   3
   2   3  -2 1482.08   25.24   1
   2  -3  -2 1475.63   26.62   2
  -2   3   2 1521.18   27.16   4
  -2  -3   2 1510.93   24.94   3
   2  -3  -2 1511.55   25.16   1
  -1   3   2  451.10    8.39   4
   1   3  -2  458.56    8.35   4
  -1  -3   2  450.40    7.76   3
   1  -3  -2  452.42    8.25   2
  -1  -3   2  454.70    8.19   2
   1   3  -2  456.22    7.84   1
  -1   3   2  453.64    7.72   3
   1  -3  -2  453.42    7.76   1
   0  -3  -2  848.25   15.50   2
   0  -3   2  879.80   14.60   3
   0   3  -2  867.85   14.71   1
   0   3   2  863.37   14.50   3
   0   3   2  880.44   15.88   4
   0  -3  -2  869.73   14.70   1
   0   3  -2  873.55   15.86   4
   1   3   2   67.60    1.67   4
  -1   3  -2   67.06    1.49   1
  -1  -3  -2   67.26    1.49   2
   1  -3   2   67.51    1.52   3
  -1  -3  -2   65.24    1.51   1
   1   3   2   67.50    1.33   3
  -1   3  -2   66.42    1.65   4
  -2  -3  -2  358.09    6.54   1
   2  -3   2  353.92    6.60   2
   2   3   2  366.13    7.10   4
  -2   3  -2  369.89    7.09   4
   2   3   2  358.91    6.25   3
   2  -3   2  367.15    6.47   3
  -2   3  -2  363.35    6.47   1
  -2  -3  -2  364.23    6.75   2
   3   3   2  163.24    3.70   4
   3   3   2  166.44    3.12   3
   3  -3   2  162.99    3.33   3
  -3   3  -2  160.73    3.69   4
  -3  -3  -2  162.73    3.43   2
  -3   3  -2  165.44    3.32   1
  -3  -3  -2  168.79    3.42   1
  -4  -3  -2  183.52    3.87   2
  -4   3  -2  180.37    3.73   1
   4   3   2  184.26    4.16   4
  -4   3  -2  182.44    4.17   4
   4  -3   2  175.29    3.74   3
   5  -3   2   38.09    1.48   3
   5   3   2   37.22    1.66   4
  -5  -3  -2   36.13    1.54   1
  -5   3  -2   34.09    1.45   1
  -5  -3  -2   36.99    1.54   2
  -5   3  -2   38.50    1.68   4
   6   3   2    9.33    1.10   4
  -6   3  -2   10.18    0.97   1
  -6   3  -2    9.62    1.03   4
  -6  -3  -2   10.36    1.06   1
  -7   4   2   30.64    1.49   3
   7   4  -2   29.72    1.53   1
   7  -4  -2   30.73    1.61   2
  -7  -4   2   27.44    1.59   2
  -6  -4   2   31.56    1.50   2
  -6   4   2   30.49    1.39   3
   6   4  -2   31.19    1.36   1
  -6  -4   2   31.07    1.22   3
   6  -4  -2   29.85    1.45   2
  -5   4   2  149.83    3.32   3
   5  -4  -2  151.29    3.54   2
  -5  -4   2  149.22    3.55   2
  -5   4   2  152.91    3.28   4
  -5  -4   2  155.43    3.15   3
   5   4  -2  152.35    3.31   1
  -4  -4   2    0.33    0.30   3
  -4  -4   2   -0.17    0.35   2
  -4   4   2   -0.29    0.31   3
   4  -4  -2   -0.15    0.33   2
  -4   4   2    0.22    0.25   4
   4  -4  -2   -0.06    0.26   1
   4   4  -2   -0.14    0.33   1
  -3   4   2  215.34    4.06   3
  -3  -4   2  218.60    3.95   3
   3  -4  -2  215.37    3.87   1
   3  -4  -2  215.29    4.34   2
  -3   4   2  216.67    4.22   4
   3   4  -2  209.05    4.09   1
  -3  -4   2  220.37    4.34   2
   2  -4  -2  350.54    6.52   2
  -2   4   2  349.31    6.09   3
  -2   4   2  344.33    6.54   4
  -2  -4   2  351.83    6.49   2
   2   4  -2  348.34    6.18   1
   2  -4  -2  343.67    5.98   1
  -2  -4   2  344.40    6.05   3
   1  -4  -2    3.22    0.30   2
   1  -4  -2    3.56    0.24   1
  -1   4   2    3.50    0.26   3
   1   4  -2    3.39    0.29   1
   1   4  -2    3.18    0.30   4
  -1   4   2    3.54    0.28   4
  -1  -4   2    3.46    0.29   3
  -1  -4   2    3.00    0.24   2
   0  -4   2  330.62    5.78   3
   0   4  -2  334.28    6.23   4
   0   4  -2  316.87    5.76   1
   0   4   2  334.93    5.62   3
   0  -4  -2  327.39    6.10   2
   0  -4  -2  334.08    5.77   1
   0   4   2  327.88    6.26   4
   1   4   2  230.90    4.55   4
  -1  -4  -2  232.56    4.35   2
  -1   4  -2  226.29    4.13   1
   1   4   2  220.91    3.92   3
   1  -4   2  227.85    4.18   3
  -1   4  -2  223.88    4.53   4
  -1  -4  -2  226.92    4.18   1
  -2   4  -2    3.32    0.36   1
  -2  -4  -2    1.60    0.31   2
   2   4   2    0.53    0.36   4
   2  -4   2    1.97    0.34   3
  -2   4  -2    1.65    0.37   4
  -2  -4  -2    2.73    0.40   1
   2  -4   2    0.95    0.23   2
   2   4   2    2.14    0.23   3
  -3   4  -2  146.29    3.00   1
   3  -4   2  151.81    3.08   3
  -3  -4  -2  139.91    3.13   2
   3   4   2  145.87    3.37   4
  -3  -4  -2  144.86    3.12   1
  -3   4  -2  145.36    3.38   4
   4   4   2   53.72    1.81   4
   4  -4   2   50.72    1.62   3
  -4  -4  -2   51.58    1.67   2
  -4   4  -2   51.49    1.82   4
  -4   4  -2   54.76    1.60   1
  -4  -4  -2   56.01    1.72   1
  -5   4  -2  190.16    4.47   4
   5  -4   2  181.18    4.04   3
  -5  -4  -2  192.23    4.19   2
   5   4   2  185.98    4.43   4
  -5  -4  -2  186.20    4.17   1
  -5   4  -2  184.60    3.98   1
   6   4   2    4.30    0.93   4
  -6  -4  -2    4.52    0.86   1
  -6   4  -2    5.25    0.92   4
   7   5  -2   42.46    1.79   1
   7  -5  -2   38.98    1.84   2
  -7  -5   2   43.12    1.93   2
  -7   5   2   42.64    1.75   3
  -6   5   2   38.46    1.54   3
  -6  -5   2   40.84    1.38   3
   6  -5  -2   42.65    1.72   2
  -6  -5   2   39.75    1.68   2
   6   5  -2   42.37    1.59   1
   5   5  -2    0.08    0.41   1
  -5   5   2    0.05    0.35   4
   5  -5  -2   -1.21    0.43   2
  -5   5   2   -0.62    0.47   3
  -5  -5   2    0.58    0.46   2
  -5  -5   2    0.28    0.38   3
  -4   5   2   87.44    2.03   4
   4  -5  -2   85.85    2.21   2
   4   5  -2   81.96    2.07   1
  -4  -5   2   84.02    2.23   2
  -4   5   2   85.29    2.06   3
   4  -5  -2   85.00    1.82   1
  -4  -5   2   84.24    1.90   3
  -3   5   2   21.55    0.88   3
  -3  -5   2   20.84    0.76   3
  -3   5   2   21.07    0.77   4
  -3  -5   2   20.94    0.95   2
   3  -5  -2   21.41    0.66   1
   3  -5  -2   20.91    0.96   2
   3   5  -2   22.84    0.91   1
  -2   5   2 1896.70   31.39   3
  -2  -5   2 1872.88   31.33   3
  -2  -5   2 1828.43   33.44   2
   2   5  -2 1932.29   34.26   4
   2  -5  -2 1915.27   31.69   1
  -2   5   2 1881.54   34.17   4
   2   5  -2 1878.61   31.75   1
   2  -5  -2 1918.28   33.51   2
  -1   5   2    1.34    0.21   3
  -1  -5   2    1.32    0.23   3
  -1  -5   2    1.34    0.20   2
   1  -5  -2    1.62    0.27   2
   1  -5  -2    1.51    0.19   1
   1   5  -2    1.35    0.20   4
   1   5  -2    0.94    0.24   1
  -1   5   2    1.27    0.23   4
   0  -5   2 1863.15   32.24   2
   0   5  -2 1838.22   30.45   1
   0  -5  -2 1799.09   30.43   1
   0  -5  -2 1739.85   32.14   2
   0   5   2 1870.17   30.13   3
   0  -5   2 1832.43   30.19   3
   0   5   2 1804.33   32.87   4
   0   5  -2 1789.17   32.83   4
  -1   5  -2  973.33   16.35   1
  -1  -5  -2  965.55   16.42   1
  -1  -5  -2  954.86   17.29   2
   1  -5   2  953.88   16.29   3
  -1   5  -2  969.02   17.73   4
   1   5   2  973.33   17.74   4
  -2  -5  -2  338.17    6.40   2
   2   5   2  341.06    6.66   4
  -2   5  -2  336.78    6.03   1
  -2  -5  -2  342.79    6.18   1
  -2   5  -2  335.84    6.66   4
   2  -5   2  332.77    6.11   3
   2  -5   2  333.38    6.17   2
  -3   5  -2   68.33    2.10   4
  -3   5  -2   73.62    1.87   1
  -3  -5  -2   73.95    1.97   2
   3   5   2   72.91    2.08   4
   3  -5   2   76.43    1.92   3
  -3  -5  -2   74.94    1.94   1
  -4  -5  -2   95.79    2.44   1
   4   5   2   93.36    2.58   4
  -4   5  -2   94.19    2.26   1
  -4   5  -2   93.22    2.60   4
  -4  -5  -2   93.41    2.41   2
   4  -5   2   89.82    2.34   3
  -5   5  -2    1.55    0.57   1
   5  -5   2    1.82    0.63   3
  -5  -5  -2    0.71    0.58   2
  -5  -5  -2    0.24    0.62   1
   5   5   2   -0.38    0.61   4
  -5   5  -2    0.40    0.63   4
  -6  -5  -2   11.37    1.08   1
   6   5   2    9.76    1.11   4
  -6   5  -2   10.71    1.12   4
   7   6  -2   35.75    1.69   1
  -7   6   2   36.97    1.68   3
   7  -6  -2   37.87    1.84   2
  -7  -6   2   37.56    1.79   2
  -6  -6   2    2.81    0.70   2
   6  -6  -2    1.04    0.64   2
   6   6  -2    1.69    0.64   1
  -6   6   2    1.44    0.59   3
  -5  -6   2   67.98    2.04   2
   5  -6  -2   65.37    2.01   2
   5   6  -2   65.95    1.89   1
  -5   6   2   65.03    1.79   4
  -5   6   2   63.88    1.89   3
  -5  -6   2   64.33    1.67   3
  -4  -6   2  257.77    4.70   3
  -4   6   2  259.31    4.93   3
   4   6  -2  247.95    4.96   1
  -4  -6   2  261.84    5.28   2
  -4   6   2  254.68    5.11   4
  -3   6   2  151.10    3.18   4
   3  -6  -2  147.73    2.72   1
   3   6  -2  148.58    2.97   4
  -3  -6   2  152.58    2.91   3
   3   6  -2  153.61    3.10   1
   3  -6  -2  153.32    3.27   2
  -3   6   2  152.54    3.05   3
  -3  -6   2  153.63    3.26   2
   2   6  -2  592.61   10.70   4
   2  -6  -2  584.51   10.69   2
   2   6  -2  582.04   10.12   1
  -2  -6   2  579.21   10.63   2
  -2   6   2  571.01   10.83   4
  -2   6   2  582.00    9.98   3
  -2  -6   2  584.05    9.93   3
  -1  -6   2   43.89    1.13   3
   1   6  -2   44.62    1.11   4
  -1  -6   2   45.02    1.12   2
   1  -6  -2   46.17    1.25   2
   1  -6  -2   43.66    0.98   1
   1   6  -2   44.47    1.14   1
  -1   6   2   43.49    1.22   4
  -1   6   2   46.68    1.07   3
   0   6   2 1434.78   24.01   3
   0  -6  -2 1433.71   24.30   1
   0  -6   2 1459.03   24.15   3
   0   6  -2 1441.88   26.24   4
   0  -6   2 1453.61   25.62   2
   0  -6  -2 1429.05   25.72   2
   0   6   2 1463.66   26.30   4
   0   6  -2 1455.63   24.31   1
   1  -6   2 2521.71   42.35   3
   1  -6   2 2571.60   45.17   2
  -1   6  -2 2498.12   42.68   1
  -1  -6  -2 2431.51   45.07   2
   1   6   2 2590.47   46.15   4
  -1   6  -2 2617.25   46.14   4
  -1  -6  -2 2652.40   42.77   1
  -2  -6  -2    3.30    0.45   1
  -2   6  -2    3.26    0.46   4
   2  -6   2    3.98    0.45   3
   2   6   2    3.20    0.49   4
  -2   6  -2    5.68    0.43   1
   2  -6   2    3.49    0.32   2
  -2  -6  -2    4.71    0.46   2
  -3  -6  -2  616.98   11.36   2
   3   6   2  615.63   11.72   4
   3  -6   2  608.18   10.79   3
  -3   6  -2  612.01   10.67   1
  -3   6  -2  607.72   11.75   4
  -3  -6  -2  606.43   10.88   1
  -4  -6  -2   46.16    1.62   1
   4   6   2   43.57    1.67   4
   4  -6   2   43.00    1.55   3
  -4  -6  -2   46.68    1.63   2
  -4   6  -2   50.23    1.77   4
  -4   6  -2   45.95    1.46   1
  -5  -6  -2   46.16    1.78   1
   5   6   2   47.48    1.89   4
  -5  -6  -2   47.31    1.80   2
  -5   6  -2   48.20    1.90   4
   5  -6   2   49.60    1.76   3
   6  -6   2   23.23    1.43   3
  -6  -6  -2   20.83    1.34   1
  -6   6  -2   21.85    1.51   4
   7   7  -2   19.55    1.37   1
  -7   7   2   20.31    1.33   3
  -7  -7   2   18.92    1.36   2
   7  -7  -2   18.04    1.44   2
  -6  -7   2   83.11    2.52   2
   6  -7  -2   82.91    2.50   2
   6   7  -2   81.81    2.37   1
  -6   7   2   80.93    2.35   3
  -5   7   2   22.01    1.04   4
  -5  -7   2   21.58    1.19   2
   5   7  -2   21.62    1.13   1
  -5   7   2   20.74    1.11   3
   5  -7  -2   21.76    1.21   2
  -5  -7   2   22.17    0.95   3
   4   7  -2  109.58    2.56   1
  -4   7   2  108.21    2.52   4
  -4  -7   2  108.07    2.69   2
   4  -7  -2  107.72    2.67   2
  -4   7   2  110.99    2.54   3
  -4  -7   2  108.16    2.29   3
   3   7  -2  168.66    3.32   4
  -3  -7   2  168.92    3.19   3
   3  -7  -2  167.02    3.59   2
  -3   7   2  166.45    3.35   3
  -3   7   2  167.35    3.54   4
  -3  -7   2  166.70    3.58   2
   3   7  -2  173.93    3.42   1
  -2  -7   2  710.42   12.84   2
  -2   7   2  707.19   12.03   3
   2   7  -2  693.51   12.19   1
   2   7  -2  716.71   12.95   4
  -2  -7   2  706.90   11.97   3
   2  -7  -2  710.55   12.90   2
  -2   7   2  697.89   13.10   4
   1   7  -2   15.14    0.63   4
  -1  -7   2   14.56    0.66   3
  -1  -7   2   14.42    0.68   2
   1  -7  -2   14.86    0.75   2
   1   7  -2   14.21    0.69   1
  -1   7   2   14.55    0.60   3
   1  -7  -2   13.84    0.51   1
  -1   7   2   14.49    0.72   4
   0  -7  -2  359.16    6.63   2
   0   7   2  347.03    5.98   3
   0  -7   2  352.10    6.22   3
   0   7  -2  345.15    6.70   4
   0  -7  -2  352.13    6.16   1
   0   7  -2  351.11    6.17   1
   0  -7   2  343.36    6.41   2
   0   7   2  352.00    6.76   4
  -1  -7  -2  250.10    4.66   1
   1  -7   2  256.41    4.70   3
   1   7   2  253.25    5.09   4
  -1   7  -2  250.92    4.55   1
  -1  -7  -2  251.23    4.93   2
  -1   7  -2  250.25    5.06   4
   1  -7   2  249.81    4.68   2
  -2   7  -2    2.21    0.45   4
   2  -7   2    1.94    0.42   3
  -2   7  -2    2.78    0.34   1
   2   7   2    1.63    0.43   4
   2  -7   2    2.02    0.29   2
  -2  -7  -2    2.64    0.41   2
  -2  -7  -2    1.97    0.40   1
   3   7   2  389.26    7.78   4
  -3   7  -2  398.52    7.84   4
   3  -7   2  380.41    7.19   3
  -3   7  -2  389.53    6.99   1
  -3  -7  -2  389.08    7.25   1
  -3  -7  -2  389.88    7.53   2
  -4   7  -2  104.33    2.42   1
  -4  -7  -2  108.53    2.71   2
   4   7   2  105.88    2.81   4
   4  -7   2  101.82    2.61   3
  -4  -7  -2  102.42    2.66   1
  -4   7  -2  106.98    2.86   4
  -5   7  -2   37.78    1.76   4
   5  -7   2   37.55    1.59   3
  -5  -7  -2   39.69    1.68   2
  -5  -7  -2   40.02    1.64   1
   5   7   2   36.52    1.70   4
   6  -7   2    4.94    0.90   3
  -6   7  -2    4.11    0.92   4
  -6  -7  -2    4.91    0.89   1
  -7  -8   2    0.39    0.70   2
   7  -8  -2   -0.04    0.72   2
   7   8  -2   -0.43    0.70   1
  -7   8   2   -0.37    0.68   3
   6  -8  -2    3.33    0.76   2
   6   8  -2    5.28    0.82   1
  -6   8   2    4.90    0.77   3
  -6  -8   2    4.79    0.80   2
  -5   8   2    4.10    0.56   4
  -5  -8   2    4.10    0.68   2
   5   8  -2    3.92    0.67   1
   5  -8  -2    4.00    0.66   2
  -5  -8   2    4.55    0.52   3
  -5   8   2    4.92    0.67   3
  -4   8   2  227.13    4.71   4
  -4  -8   2  229.86    4.81   2
   4  -8  -2  222.99    4.78   2
  -4  -8   2  223.54    4.22   3
   4   8  -2  230.45    4.58   1
  -4   8   2  231.87    4.54   3
  -3  -8   2  130.29    2.56   3
  -3  -8   2  125.87    2.91   2
   3  -8  -2  128.62    2.94   2
   3   8  -2  130.63    2.79   1
  -3   8   2  130.95    2.76   3
  -3   8   2  131.13    2.90   4
   3   8  -2  128.85    2.68   4
   2  -8  -2  424.01    7.96   2
  -2   8   2  411.13    8.06   4
   2   8  -2  431.87    7.89   4
   2   8  -2  421.88    7.51   1
  -2  -8   2  421.61    7.31   3
  -2  -8   2  417.05    7.88   2
  -2   8   2  417.79    7.39   3
   1   8  -2  222.62    4.16   1
  -1  -8   2  226.85    4.13   3
  -1   8   2  222.84    4.53   4
   1  -8  -2  223.54    3.96   1
  -1   8   2  222.83    4.04   3
  -1  -8   2  224.67    4.35   2
   1  -8  -2  223.64    4.49   2
   1   8  -2  225.88    4.43   4
   0   8  -2  133.74    2.61   1
   0  -8   2  133.11    2.70   3
   0  -8  -2  135.21    2.89   2
   0   8  -2  132.84    2.88   4
   0  -8  -2  132.67    2.58   1
   0  -8   2  131.17    2.67   2
   0   8   2  133.59    2.94   4
   0   8   2  137.02    2.44   3
   1   8   2  102.50    2.44   4
   1  -8   2  102.61    2.25   3
  -1  -8  -2   99.00    2.33   2
  -1   8  -2   99.94    2.40   4
  -1  -8  -2  101.54    2.19   1
   1  -8   2  100.78    2.10   2
  -1   8  -2  100.24    2.06   1
  -2   8  -2   66.39    1.59   1
  -2  -8  -2   68.90    1.82   2
   2   8   2   67.85    1.89   4
  -2   8  -2   63.59    1.90   4
   2  -8   2   67.41    1.78   3
  -2  -8  -2   66.47    1.74   1
  -3   8  -2   34.77    1.45   4
   3  -8   2   32.42    1.33   3
  -3  -8  -2   36.27    1.37   2
   3   8   2   32.88    1.41   4
  -3  -8  -2   33.86    1.32   1
  -3   8  -2   35.90    1.16   1
   4   8   2   54.60    1.87   4
   4  -8   2   50.68    1.73   3
  -4   8  -2   56.76    1.93   4
  -4  -8  -2   53.48    1.80   1
  -4  -8  -2   54.22    1.83   2
  -5  -8  -2   42.26    1.69   1
  -5  -8  -2   39.56    1.74   2
   5  -8   2   37.18    1.63   3
   5   8   2   40.44    1.76   4
  -5   8  -2   39.58    1.81   4
   6  -8   2   54.43    2.08   3
  -6   8  -2   54.99    2.21   4
  -6  -8  -2   50.22    2.03   1
   7   9  -2   21.73    1.43   1
  -7   9   2   21.06    1.38   3
  -7  -9   2   20.83    1.46   2
   7  -9  -2   17.53    1.35   2
   6  -9  -2    1.72    0.68   2
  -6  -9   2    0.84    0.62   2
  -6   9   2    2.58    0.69   3
   6   9  -2    2.35    0.70   1
   5  -9  -2  127.40    3.25   2
  -5   9   2  133.55    3.15   4
   5   9  -2  129.02    3.13   1
  -5  -9   2  134.74    3.33   2
  -4  -9   2    0.72    0.34   3
   4  -9  -2    0.18    0.44   2
   4   9  -2    0.40    0.43   1
  -4   9   2    0.51    0.40   4
  -4  -9   2    0.53    0.46   2
  -4   9   2    1.01    0.47   3
   3   9  -2   38.07    1.27   1
   3   9  -2   37.46    1.13   4
  -3  -9   2   40.30    1.37   2
   3  -9  -2   42.72    1.39   2
  -3   9   2   38.12    1.30   4
  -3  -9   2   38.82    1.10   3
  -3   9   2   40.09    1.27   3
   2  -9  -2    7.61    0.61   2
  -2  -9   2    6.67    0.59   3
  -2   9   2    6.95    0.69   4
   2   9  -2    8.32    0.67   1
  -2   9   2    7.82    0.63   3
  -2  -9   2    6.53    0.53   2
   2   9  -2    7.04    0.58   4
   1  -9  -2 1053.24   17.84   1
  -1   9   2 1068.91   17.77   3
  -1  -9   2 1067.93   18.99   2
   1  -9  -2 1068.38   19.13   2
  -1   9   2 1043.10   19.49   4
   1   9  -2 1036.22   18.01   1
   1   9  -2 1073.45   19.40   4
  -1  -9   2 1066.32   17.85   3
   0   9  -2  258.74    5.23   4
   0  -9   2  257.10    4.84   3
   0  -9  -2  265.78    5.20   2
   0   9  -2  264.46    4.76   1
   0  -9   2  262.32    4.98   2
   0  -9  -2  267.80    4.74   1
   0   9   2  262.65    4.57   3
   0   9   2  258.78    5.27   4
  -1  -9  -2    6.94    0.65   2
   1  -9   2    6.71    0.55   3
  -1  -9  -2    6.61    0.50   1
   1  -9   2    5.87    0.53   2
  -1   9  -2    6.77    0.57   4
   1   9   2    6.21    0.57   4
  -1   9  -2    6.92    0.53   1
  -2  -9  -2    6.52    0.66   2
   2  -9   2   10.53    0.89   3
  -2   9  -2    6.56    0.52   1
   2   9   2    9.21    0.93   4
  -2   9  -2    5.81    0.66   4
  -2  -9  -2    7.20    0.64   1
  -3  -9  -2   64.88    1.88   1
   3  -9   2   62.70    1.88   3
   3   9   2   63.69    1.98   4
  -3   9  -2   64.64    2.03   4
  -3  -9  -2   64.92    1.93   2
  -3   9  -2   64.90    1.62   1
  -4  -9  -2    0.35    0.54   1
   4   9   2   -0.06    0.52   4
   4  -9   2    1.30    0.53   3
  -4   9  -2    0.73    0.55   4
  -4  -9  -2    0.33    0.52   2
  -5  -9  -2   74.85    2.34   1
  -5  -9  -2   75.12    2.39   2
  -5   9  -2   72.75    2.47   4
   5  -9   2   74.42    2.32   3
   5   9   2   72.01    2.40   4
  -6  -9  -2    1.38    0.78   1
   6  -9   2    1.86    0.82   3
  -6   9  -2    2.35    0.81   4
   7  10  -2   -1.04    0.66   1
   7 -10  -2   -0.22    0.69   2
  -7  10   2    0.11    0.71   3
  -7 -10   2   -0.33    0.69   2
   6  10  -2   -0.06    0.62   1
  -6  10   2    0.52    0.59   3
   6 -10  -2   -0.61    0.55   2
  -6 -10   2   -0.72    0.57   2
  -5  10   2    2.54    0.62   3
  -5  10   2    2.62    0.56   4
  -5 -10   2    3.07    0.66   2
   5 -10  -2    1.27    0.60   2
   5  10  -2    1.27    0.61   1
   4 -10  -2  137.46    3.27   2
  -4 -10   2  139.16    3.29   2
  -4 -10   2  135.56    2.76   3
   4  10  -2  138.39    3.11   1
  -4  10   2  135.15    3.08   3
  -4  10   2  134.59    3.20   4
   3 -10  -2   40.95    1.44   2
   3  10  -2   40.13    1.32   1
  -3 -10   2   41.00    1.42   2
  -3 -10   2   39.49    1.16   3
  -3  10   2   40.23    1.39   4
   3  10  -2   41.03    1.22   4
  -3  10   2   39.15    1.30   3
   2  10  -2   24.88    1.01   1
  -2  10   2   24.91    1.08   4
   2 -10  -2   25.63    1.10   2
   2  10  -2   25.65    0.94   4
  -2 -10   2   25.94    1.08   2
  -2 -10   2   25.04    0.89   3
  -2  10   2   24.47    0.94   3
  -1  10   2   25.04    0.91   3
  -1 -10   2   28.55    1.03   3
   1 -10  -2   26.68    1.13   2
   1 -10  -2   25.86    0.79   1
  -1 -10   2   26.53    1.09   2
   1  10  -2   28.51    1.04   1
   1  10  -2   26.34    1.05   4
  -1  10   2   26.75    1.18   4
   0  10   2  172.26    3.15   3
   0  10   2  171.30    3.76   4
   0 -10  -2  176.14    3.71   2
   0 -10   2  174.97    3.44   3
   0  10  -2  173.59    3.32   1
   0 -10  -2  173.08    3.30   1
   0  10  -2  176.23    3.71   4
   0 -10   2  174.84    3.49   2
  -1 -10  -2  108.81    2.61   2
   1 -10   2  110.71    2.37   2
  -1 -10  -2  110.81    2.39   1
   1  10   2  110.00    2.69   4
  -1  10  -2  115.50    2.27   1
   1 -10   2  107.97    2.47   3
  -1  10  -2  112.38    2.68   4
  -2  10  -2 1634.92   29.82   4
   2  10   2 1624.88   29.81   4
   2 -10   2 1635.45   27.42   3
  -2 -10  -2 1621.46   29.15   2
  -2  10  -2 1612.20   27.34   1
  -2 -10  -2 1621.12   27.61   1
  -3 -10  -2   58.31    1.78   1
   3 -10   2   56.65    1.80   3
  -3  10  -2   57.06    1.92   4
   3  10   2   61.63    1.93   4
  -3 -10  -2   58.01    1.85   2
   4  10   2    3.42    0.70   4
  -4 -10  -2    4.45    0.71   1
   4 -10   2    2.91    0.67   3
  -4  10  -2    3.52    0.71   4
  -4 -10  -2    2.54    0.64   2
   5 -10   2    4.62    0.82   3
  -5  10  -2    3.03    0.76   4
   5  10   2    3.45    0.80   4
  -5 -10  -2    4.04    0.81   1
  -5 -10  -2    2.84    0.76   2
  -6 -10  -2   13.78    1.28   1
   6 -10   2   16.14    1.39   3
  -6 -10  -2   19.17    1.49   2
  -6  10  -2   16.89    1.48   4
   7  11  -2    0.68    0.76   1
  -7 -11   2    2.15    0.82   2
   7 -11  -2    1.56    0.79   2
  -7  11   2    1.74    0.81   3
  -6 -11   2   16.87    1.29   2
   6  11  -2   16.81    1.24   1
   6 -11  -2   16.82    1.20   2
  -6  11   2   19.70    1.22   4
  -6  11   2   17.81    1.23   3
   5  11  -2  117.71    2.96   1
   5 -11  -2  111.62    3.04   2
  -5 -11   2  117.03    3.12   2
  -5  11   2  115.97    2.93   3
  -5  11   2  121.63    3.02   4
   4  11  -2   33.11    1.32   1
  -4  11   2   32.26    1.31   3
  -4 -11   2   30.54    1.36   2
   4 -11  -2   31.18    1.38   2
  -4  11   2   30.09    1.30   4
   3  11  -2   35.83    1.30   1
   3 -11  -2   37.33    1.42   2
  -3  11   2   35.61    1.29   3
  -3 -11   2   37.68    1.16   3
   3  11  -2   38.48    1.23   4
  -3 -11   2   37.72    1.39   2
  -3  11   2   36.32    1.38   4
  -2 -11   2  166.87    3.26   3
  -2 -11   2  166.66    3.61   2
   2  11  -2  168.28    3.55   4
  -2  11   2  169.96    3.74   4
  -2  11   2  169.83    3.36   3
   2  11  -2  167.11    3.42   1
   2 -11  -2  169.80    3.70   2
   1 -11  -2 1042.21   18.82   2
   1  11  -2 1034.53   19.06   4
  -1  11   2 1047.99   19.19   4
  -1  11   2 1028.51   17.41   3
   1 -11  -2 1028.37   17.45   1
  -1 -11   2 1032.86   17.50   3
   1  11  -2 1036.35   17.66   1
  -1 -11   2 1025.22   18.64   2
   0  11  -2   40.40    1.18   1
   0 -11   2   42.64    1.28   3
   0  11   2   40.86    1.02   3
   0  11  -2   40.57    1.35   4
   0 -11   2   42.91    1.24   2
   0 -11  -2   43.63    1.44   2
   0 -11  -2   42.57    1.13   1
   0  11   2   43.47    1.46   4
   1 -11   2    9.08    0.66   2
  -1 -11  -2   11.96    0.83   2
   1 -11   2   11.18    0.82   3
  -1  11  -2   11.48    0.86   4
  -1  11  -2   11.70    0.65   1
   1  11   2    9.70    0.75   4
  -1 -11  -2   11.19    0.72   1
  -2 -11  -2    9.71    0.85   1
   2  11   2    9.04    0.81   4
   3 -11   2   11.45    0.95   3
   3  11   2   10.27    1.00   4
  -3 -11  -2   10.51    0.97   2
  -3  11  -2   10.75    1.01   4
  -3 -11  -2   10.60    0.91   1
  -4 -11  -2  104.91    2.77   1
  -4  11  -2  105.51    3.01   4
   4  11   2  109.18    2.97   4
  -4 -11  -2  105.46    2.89   2
   4 -11   2  103.14    2.78   3
   5 -11   2   50.99    1.97   3
  -5  11  -2   51.09    2.08   4
   5  11   2   54.41    2.10   4
  -5 -11  -2   54.30    2.08   2
  -5 -11  -2   50.09    1.93   1
  -6  12   2    0.17    0.63   3
   6  12  -2    0.19    0.66   1
  -6 -12   2   -0.23    0.64   2
  -6  12   2    0.38    0.57   4
   6 -12  -2    0.40    0.67   2
  -5  12   2   14.63    1.15   4
   5  12  -2   14.45    1.12   1
  -5 -12   2   16.10    1.19   2
  -5  12   2   13.51    1.08   3
   5 -12  -2   12.79    1.14   2
  -4 -12   2    1.93    0.57   2
  -4  12   2    2.27    0.59   3
   4 -12  -2    1.83    0.59   2
   4  12  -2    1.52    0.58   1
  -4  12   2    2.00    0.55   4
  -3  12   2  181.36    4.11   4
   3  12  -2  181.74    3.82   1
   3 -12  -2  184.40    4.10   2
  -3 -12   2  182.65    4.04   2
  -3  12   2  183.74    3.80   3
  -3 -12   2  185.36    3.53   3
   2  12  -2   47.42    1.44   4
  -2  12   2   48.42    1.42   3
   2 -12  -2   48.03    1.64   2
   2  12  -2   48.62    1.47   1
  -2 -12   2   48.20    1.55   2
  -2  12   2   48.84    1.63   4
  -2 -12   2   48.08    1.30   3
  -1 -12   2   14.45    0.84   2
   1 -12  -2   15.31    0.96   2
  -1  12   2   15.54    1.05   4
  -1  12   2   11.69    0.73   3
   1  12  -2   15.19    0.86   4
   1  12  -2   17.00    0.88   1
  -1 -12   2   17.00    0.87   3
   0 -12   2    0.01    0.34   3
   0 -12  -2    0.14    0.26   1
   0  12  -2    0.20    0.35   4
   0 -12   2    0.32    0.30   2
   0 -12  -2   -0.08    0.36   2
   0  12  -2    0.10    0.29   1
   0  12   2   -0.34    0.36   4
  -1  12  -2  153.37    3.50   4
  -1 -12  -2  156.68    3.48   2
   1 -12   2  151.30    3.18   2
   1 -12   2  150.11    3.23   3
   1  12   2  154.07    3.54   4
  -1  12  -2  147.72    2.94   1
  -1 -12  -2  145.35    3.10   1
  -2 -12  -2  120.68    2.97   2
  -2  12  -2  120.42    3.03   4
   2 -12   2  119.93    2.83   3
  -2 -12  -2  116.42    2.73   1
   2  12   2  120.52    3.03   4
  -3 -12  -2    5.98    0.73   2
  -3 -12  -2    4.63    0.69   1
  -3  12  -2    5.32    0.73   4
   3  12   2    5.32    0.74   4
   3 -12   2    5.86    0.73   3
   4  12   2   44.37    1.87   4
   4 -12   2   44.37    1.77   3
  -4  12  -2   46.74    1.90   4
  -4 -12  -2   45.64    1.85   2
  -4 -12  -2   41.36    1.66   1
  -5 -12  -2    8.40    0.98   1
   5 -12   2    7.90    0.97   3
  -5  12  -2    7.84    0.97   4
  -5 -12  -2    8.44    1.00   2
   5  12   2    6.77    1.00   4
  -6  13   2   81.86    2.57   4
   6  13  -2   84.82    2.58   1
  -6  13   2   81.58    2.56   3
  -6 -13   2   81.09    2.70   2
   6 -13  -2   83.54    2.68   2
  -5 -13   2    6.27    0.86   2
  -5  13   2    7.16    0.82   4
   5 -13  -2    7.02    0.87   2
  -5  13   2    4.51    0.78   3
   5  13  -2    6.57    0.84   1
  -4 -13   2   12.79    1.07   2
  -4  13   2   11.32    1.02   4
   4 -13  -2   13.78    1.06   2
  -4  13   2   13.00    1.02   3
   4  13  -2   11.42    1.00   1
  -3 -13   2   16.86    1.08   2
   3  13  -2   13.38    0.99   1
   3 -13  -2   14.36    1.08   2
  -3  13   2   15.45    1.09   4
  -3 -13   2   14.98    0.88   3
  -3  13   2   15.02    0.99   3
   2 -13  -2   97.02    2.59   2
  -2  13   2  103.94    2.65   4
   2  13  -2  100.29    2.45   4
  -2 -13   2  101.28    2.53   2
  -2 -13   2   98.66    2.19   3
  -2  13   2  100.15    2.32   3
   2  13  -2  101.78    2.37   1
   1  13  -2    2.71    0.46   1
  -1 -13   2    2.94    0.48   2
  -1  13   2    2.51    0.54   4
   1  13  -2    2.62    0.47   4
   1 -13  -2    2.40    0.56   2
  -1  13   2    2.30    0.39   3
  -1 -13   2    2.09    0.44   3
   0 -13   2  110.30    2.54   2
   0 -13   2  113.18    2.51   3
   0  13  -2  110.46    2.72   4
   0  13   2  108.35    2.77   4
   0 -13  -2  104.52    2.27   1
   0 -13  -2  109.58    2.74   2
   0  13  -2  110.97    2.35   1
  -1  13  -2   33.68    1.05   1
   1 -13   2   33.74    1.18   2
   1  13   2   34.45    1.44   4
  -1 -13  -2   32.58    1.15   1
  -1  13  -2   35.14    1.40   4
   1 -13   2   34.56    1.31   3
   2 -13   2    7.42    0.74   3
  -2 -13  -2    6.85    0.76   2
  -2 -13  -2    7.61    0.70   1
  -2  13  -2    6.23    0.72   4
   2  13   2    7.47    0.78   4
   3  13   2    7.79    0.85   4
  -3  13  -2    8.00    0.83   4
   3 -13   2    6.77    0.80   3
  -3 -13  -2    8.89    0.81   1
  -3 -13  -2    6.97    0.81   2
  -4 -13  -2  130.60    3.43   2
   4 -13   2  128.50    3.28   3
   4  13   2  126.81    3.45   4
  -4  13  -2  128.28    3.51   4
  -4 -13  -2  122.87    3.20   1
  -5 -13  -2    0.46    0.67   1
   5 -13   2   -0.68    0.64   3
  -5  13  -2    0.53    0.67   4
  -5 -13  -2    0.07    0.68   2
   5  13   2   -0.14    0.69   4
   6  14  -2    1.38    0.75   1
  -6 -14   2    0.80    0.74   2
  -6  14   2    1.43    0.76   3
   6 -14  -2    1.48    0.80   2
  -6  14   2    1.03    0.71   4
  -5  14   2   20.43    1.26   3
  -5  14   2   21.07    1.34   4
  -5 -14   2   22.37    1.38   2
   5  14  -2   20.74    1.27   1
   5 -14  -2   22.04    1.33   2
   4  14  -2    3.00    0.68   1
  -4  14   2    3.85    0.69   4
   4 -14  -2    2.57    0.71   2
  -4  14   2    3.34    0.70   3
  -4 -14   2    3.73    0.70   2
   3 -14  -2  224.32    5.00   2
  -3  14   2  226.10    4.63   3
   3  14  -2  229.26    4.68   1
  -3 -14   2  230.32    4.96   2
  -3  14   2  234.59    5.09   4
  -2 -14   2    2.26    0.52   2
  -2  14   2    1.20    0.45   3
   2  14  -2    1.23    0.48   1
   2 -14  -2    1.63    0.58   2
  -2  14   2    1.91    0.55   4
  -2 -14   2    2.14    0.43   3
   2  14  -2    1.96    0.48   4
  -1 -14   2    3.50    0.51   3
  -1  14   2    3.34    0.45   3
  -1 -14   2    3.54    0.54   2
   1 -14  -2    3.56    0.61   2
   1  14  -2    3.09    0.53   4
  -1  14   2    3.37    0.61   4
   1  14  -2    3.59    0.52   1
   0  14  -2   11.78    0.95   4
   0 -14  -2   13.16    1.00   2
   0  14  -2   11.93    0.82   1
   0  14   2   12.93    1.03   4
   0 -14   2   12.02    0.87   3
   0 -14   2   13.90    0.90   2
   1 -14   2  346.17    6.45   3
  -1 -14  -2  353.57    6.95   2
  -1 -14  -2  322.69    6.27   1
   1 -14   2  341.32    6.60   2
   1  14   2  334.84    7.01   4
   2  14   2   14.86    1.12   4
  -2 -14  -2   15.42    1.07   2
  -2 -14  -2   13.08    0.87   1
   2 -14   2   13.46    0.99   3
  -2  14  -2   12.74    1.08   4
  -3 -14  -2   54.21    1.79   1
  -3  14  -2   53.79    1.99   4
   3 -14   2   56.61    1.90   3
   3  14   2   55.09    2.00   4
  -3 -14  -2   52.79    1.92   2
  -4 -14  -2    4.43    0.86   1
  -4 -14  -2    5.74    0.92   2
   4 -14   2    5.19    0.88   3
   4  14   2    5.05    0.90   4
  -4  14  -2    5.52    0.87   4
  -5 -14  -2    5.22    0.92   1
   5 -14   2    4.87    0.92   3
  -5  14  -2    5.93    0.99   4
  -5 -14  -2    5.83    0.95   2
  -6  15   2   18.20    1.37   3
   6 -15  -2   16.52    1.41   2
  -6  15   2   19.01    1.42   4
  -6 -15   2   17.59    1.40   2
   6  15  -2   18.97    1.36   1
  -5  15   2    0.60    0.64   4
   5  15  -2    0.49    0.63   1
  -5 -15   2    0.63    0.65   2
   5 -15  -2    0.31    0.64   2
  -5  15   2   -0.49    0.62   3
   4  15  -2   18.21    1.17   1
  -4 -15   2   21.87    1.31   2
  -4  15   2   17.03    1.15   3
  -4  15   2   18.24    1.22   4
   4 -15  -2   17.64    1.23   2
  -3 -15   2   82.14    2.40   2
  -3  15   2   84.97    2.49   4
   3 -15  -2   81.17    2.44   2
  -3  15   2   81.57    2.24   3
   3  15  -2   78.72    2.22   1
  -2  15   2   72.90    1.96   3
   2  15  -2   74.50    2.02   1
  -2 -15   2   72.77    1.82   3
  -2 -15   2   78.15    2.20   2
   2 -15  -2   75.14    2.28   2
   2  15  -2   75.64    2.12   4
  -1  15   2   31.76    1.44   4
   1  15  -2   33.02    1.23   1
  -1 -15   2   32.33    1.30   2
  -1 -15   2   32.64    1.21   3
   1 -15  -2   33.70    1.44   2
   1  15  -2   31.29    1.30   4
   0  15   2  192.71    4.43   4
   0 -15   2  195.35    4.15   2
   0 -15   2  189.83    3.98   3
   0  15  -2  191.69    4.37   4
   0  15  -2  200.35    3.81   1
   0 -15  -2  195.53    4.36   2
   1  15   2    7.22    0.81   4
  -1 -15  -2    8.10    0.83   2
  -1  15  -2    8.97    0.84   4
  -1 -15  -2    7.34    0.64   1
   1 -15   2    7.17    0.74   3
   2 -15   2   17.03    1.09   3
  -2 -15  -2   18.80    1.18   2
  -2  15  -2   15.59    1.16   4
  -2 -15  -2   17.94    1.02   1
   2  15   2   17.14    1.20   4
  -3  15  -2    3.88    0.76   4
  -3 -15  -2    4.76    0.74   1
   3 -15   2    4.30    0.76   3
  -3 -15  -2    5.30    0.78   2
   3  15   2    3.41    0.77   4
  -4  15  -2   65.31    2.39   4
  -4 -15  -2   66.88    2.29   1
  -4 -15  -2   68.07    2.39   2
   4 -15   2   65.45    2.27   3
   4  15   2   68.79    2.45   4
   5  15   2   13.18    1.18   1
  -5 -15  -2   11.48    1.23   2
   5  15   2   12.98    1.23   5
   5 -15   2   11.74    1.20   3
  -5  15  -2   11.41    1.24   4
   6 -16  -2    8.42    1.09   2
  -6  16   2    9.48    1.10   4
  -6  16   2    7.31    1.07   3
   6  16  -2    6.81    1.03   1
  -6 -16   2   10.04    1.14   2
  -5  16   2    1.94    0.74   4
  -5 -16   2    3.03    0.80   2
   5 -16  -2    2.56    0.80   2
   5  16  -2    2.72    0.78   1
  -5  16   2    2.33    0.74   3
   4 -16  -2    2.17    0.71   2
  -4 -16   2    3.13    0.75   2
   4  16  -2    2.21    0.69   1
  -4  16   2    2.86    0.69   3
  -4  16   2    2.70    0.70   4
  -3  16   2   30.75    1.34   3
  -3  16   2   30.13    1.53   4
   3 -16  -2   30.00    1.49   2
   3  16  -2   32.03    1.36   1
  -3 -16   2   31.14    1.48   2
  -2 -16   2   22.15    1.24   2
  -2  16   2   21.68    1.07   3
  -2 -16   2   20.91    0.96   3
  -2  16   2   20.29    1.26   4
   2  16  -2   21.56    1.18   4
   2 -16  -2   21.28    1.29   2
   2  16  -2   21.36    1.18   1
   1  16  -2    9.58    0.93   4
  -1 -16   2    9.10    0.89   2
   1  16  -2    9.37    0.72   1
  -1 -16   2    9.57    0.85   3
   1 -16  -2    9.13    0.87   2
  -1  16   2   10.85    0.94   4
   0  16  -2   74.17    1.86   1
   0  16   2   74.37    2.33   4
   0 -16  -2   72.75    2.25   2
   0 -16   2   75.95    2.03   3
   0  16  -2   68.39    2.19   4
   0 -16   2   75.43    2.10   2
  -1 -16  -2   28.03    1.43   2
   1  16   2   31.46    1.50   4
   1 -16   2   31.01    1.33   3
  -1  16  -2   31.23    1.47   4
  -2 -16  -2   36.51    1.61   2
   2 -16   2   36.94    1.50   3
   2  16   2   37.64    1.66   4
  -2  16  -2   33.86    1.60   4
  -2 -16  -2   34.83    1.37   1
  -3 -16  -2    0.23    0.56   2
   3  16   2   -0.31    0.62   4
   3 -16   2   -0.13    0.60   3
  -3  16  -2   -0.16    0.55   4
  -3 -16  -2    0.07    0.56   1
  -4 -16  -2    0.78    0.74   2
   4  16   2    1.40    0.77   4
   4 -16   2    1.44    0.74   3
  -4  16  -2    0.85    0.69   4
   4  16   2    1.73    0.69   1
   5  17  -2   40.63    1.76   1
   5 -17  -2   37.48    1.84   2
  -5 -17   2   40.58    1.89   2
  -5  17   2   41.36    1.93   4
  -5  17   2   39.40    1.74   3
   4 -17  -2    1.08    0.68   2
  -4  17   2    0.22    0.59   3
  -4  17   2    0.67    0.66   4
   4  17  -2    1.47    0.67   1
  -4 -17   2    0.68    0.70   2
  -3 -17   2   22.49    1.33   2
   3 -17  -2   22.68    1.35   2
   3  17  -2   23.51    1.24   1
  -3  17   2   22.75    1.19   3
  -3  17   2   22.95    1.39   4
  -2  17   2    8.74    0.90   4
   2 -17  -2    7.60    0.89   2
   2  17  -2    7.59    0.80   4
  -2  17   2    7.42    0.75   3
  -2 -17   2    7.19    0.80   2
   2  17  -2    7.66    0.80   1
  -1  17   2   49.50    1.91   4
  -1 -17   2   50.90    1.75   2
   1  17  -2   50.95    1.59   1
   1 -17  -2   49.65    1.85   2
  -1 -17   2   51.44    1.61   3
   1  17  -2   49.90    1.77   4
   0 -17  -2   20.27    1.23   2
   0  17  -2   19.49    1.22   4
   0  17   2   19.92    1.30   4
   0 -17   2   19.96    1.11   3
   0 -17   2   20.51    1.20   2
   1  17   2    9.75    0.96   4
   1 -17   2   10.28    0.87   3
  -1 -17  -2    9.69    0.94   2
   1  17   2    9.91    0.87   5
  -1  17  -2    9.84    0.93   4
   1  17   2    9.32    0.85   1
   2 -17   2    7.78    0.89   3
   2  17   2    8.87    0.94   4
  -2 -17  -2    8.81    0.94   2
   2  17   2    8.94    0.84   5
  -2  17  -2    9.16    0.95   4
   2  17   2    9.60    0.90   1
   3  17   2   25.96    1.55   4
   3  17   2   27.67    1.35   5
   3 -17   2   24.30    1.37   3
   3  17   2   24.87    1.29   1
  -3 -17  -2   23.30    1.41   2
  -3  17  -2   25.39    1.48   4
   4  17   2    2.60    0.76   1
  -4 -17  -2    2.51    0.84   2
   4  17   2    3.00    0.85   4
   4 -17   2    2.57    0.84   3
   4  17   2    2.30    0.80   5
  -4  17  -2    2.39    0.80   4
  -5  18   2    0.65    0.78   4
   5 -18  -2    0.64    0.77   2
  -5  18   2   -0.22    0.74   3
  -5 -18   2    0.32    0.72   2
   5  18  -2    0.17    0.71   1
   4 -18  -2   50.91    2.05   2
  -4  18   2   50.04    2.05   4
   4  18  -2   50.91    1.89   1
  -4  18   2   49.11    1.88   3
  -4 -18   2   52.39    2.12   2
  -3  18   2    0.48    0.61   3
   3  18  -2   -0.19    0.57   1
  -3  18   2    0.39    0.66   4
  -3 -18   2    0.75    0.61   2
   3 -18  -2    0.95    0.69   2
   2 -18  -2   57.77    2.11   2
   2  18  -2   61.96    2.05   4
  -2  18   2   62.40    2.19   4
  -2 -18   2   60.98    2.09   2
   2  18  -2   64.97    1.97   1
   1  18  -2    4.13    0.71   4
   1  18  -2    3.96    0.64   1
   1 -18  -2    5.17    0.79   2
  -1 -18   2    3.74    0.71   2
  -1 -18   2    4.90    0.68   3
  -1  18   2    3.85    0.77   4
   0  18   2   29.20    1.51   4
   0 -18   2   31.02    1.43   2
   0 -18  -2   28.21    1.44   2
   0 -18   2   29.32    1.30   3
   0  18  -2   27.91    1.40   4
   1 -18   2    2.95    0.65   3
  -1 -18  -2    2.52    0.70   2
   1  18   2    1.62    0.70   4
  -1  18  -2    1.87    0.69   4
   2  18   2   70.41    2.14   5
  -2 -18  -2   72.33    2.41   2
   2  18   2   75.44    2.15   1
   2  18   2   74.70    2.47   4
  -2  18  -2   71.90    2.44   4
   2 -18   2   69.66    2.20   3
  -3 -18  -2    0.33    0.64   2
  -3  18  -2    0.11    0.68   4
   3  18   2    0.44    0.59   1
   3  18   2    0.22    0.64   5
   3  18   2   -0.10    0.72   4
   3 -18   2    0.59    0.69   3
   4  18   2    0.22    0.70   1
  -4  18  -2   -0.46    0.70   4
  -4 -18  -2    0.12    0.73   2
   4  18   2    0.32    0.72   5
   4  18   2    0.17    0.72   4
   4 -18   2    0.35    0.75   3
  -5  19   2   12.38    1.26   4
   5 -19  -2   12.16    1.25   2
  -5 -19   2   11.95    1.24   2
  -5  19   2   11.31    1.18   3
   5  19  -2   10.36    1.14   1
   4 -19  -2   21.11    1.51   2
  -4  19   2   21.65    1.41   3
   4  19  -2   26.00    1.43   1
  -4 -19   2   22.62    1.56   2
  -4  19   2   22.91    1.51   4
  -3  19   2    0.63    0.63   3
  -3  19   2   -0.11    0.67   4
   3  19  -2   -0.51    0.63   1
  -3 -19   2    0.27    0.59   2
   3 -19  -2   -0.28    0.67   2
   2 -19  -2    2.19    0.71   2
  -2 -19   2    3.30    0.73   2
  -2  19   2    3.86    0.79   4
   2  19  -2    2.23    0.67   1
   2 -19  -2    2.04    0.63   3
   2  19  -2    2.49    0.68   4
   1  19  -2   73.30    2.32   4
  -1  19   2   72.71    2.46   4
  -1 -19   2   75.02    2.31   2
   1 -19  -2   71.16    2.38   2
  -1 -19   2   76.72    2.09   3
   0  19   2    1.33    0.68   4
   0  19  -2    1.72    0.65   4
   0 -19  -2    1.90    0.70   2
   0 -19   2    1.51    0.61   3
   1  19   2    2.00    0.75   4
  -1 -19  -2    1.77    0.69   2
  -1  19  -2    1.88    0.72   4
   1 -19   2    1.94    0.63   3
  -2 -19  -2    1.04    0.71   2
   2 -19   2    2.02    0.69   3
  -2  19  -2    1.75    0.72   4
   2  19   2    1.98    0.63   1
   2  19   2    1.70    0.79   4
   2  19   2    0.76    0.62   5
   3 -19   2   41.05    1.82   3
  -3 -19  -2   41.17    1.90   2
   3  19   2   43.63    2.03   4
  -3  19  -2   39.82    1.93   4
   3  19   2   41.89    1.77   1
   3  19   2   40.77    1.75   5
   4 -20  -2   19.54    1.51   2
   4  20  -2   21.72    1.42   1
   4 -20  -2   22.22    1.36   3
  -4 -20   2   19.30    1.54   2
  -4  20   2   20.51    1.48   4
   3 -20  -2    6.09    1.00   2
   3 -20  -2    9.40    0.94   3
  -3 -20   2    9.73    1.02   2
  -3  20   2    9.21    1.07   4
   3  20  -2    8.01    0.97   1
   2 -20  -2    4.47    0.84   2
   2  20  -2    4.93    0.81   1
  -2 -20   2    4.84    0.82   2
  -2  20   2    3.91    0.85   4
  -1  20   2   21.58    1.44   4
   1 -20  -2   20.72    1.35   2
   1  20  -2   22.85    1.33   4
  -1 -20   2   22.26    1.40   2
   0 -20  -2    2.57    0.79   2
   0  20  -2    2.67    0.74   4
   0 -20   2    3.82    0.78   3
   0  20   2    2.97    0.83   4
  -1 -20  -2   32.86    1.68   2
   1 -20   2   31.86    1.51   3
   1  20   2   34.92    1.75   4
  -1  20  -2   34.18    1.73   4
   2  20   2   -1.06    0.71   4
   2 -20   2    0.37    0.65   3
  -2 -20  -2    0.26    0.70   2
  -2  20  -2   -0.18    0.65   4
   3 -20   2    0.12    0.72   3
  -3 -20  -2    0.72    0.72   2
   3  20   2    1.42    0.86   4
   3  20   2    0.72    0.75   1
  -3  20  -2    1.00    0.77   4
   3  20   2    1.31    0.79   5
   4  21  -2    2.86    0.88   1
  -4 -21   2    2.72    0.90   2
   4 -21  -2    3.69    0.86   3
  -4  21   2    3.16    0.91   4
   4 -21  -2    2.78    0.94   2
   3 -21  -2    0.38    0.69   3
  -3 -21   2    0.12    0.64   2
   3 -21  -2   -0.09    0.73   2
  -3  21   2    0.81    0.74   4
   3  21  -2   -0.20    0.71   1
   2 -21  -2    3.71    0.86   2
  -2  21   2    2.50    0.82   4
  -2 -21   2    3.43    0.83   2
  -1  21   2    6.04    0.97   4
  -1 -21   2    7.40    0.96   2
   1 -21  -2    6.57    0.94   2
   1  21  -2    7.79    0.92   4
   0 -21   2   21.87    1.31   3
   0  21  -2   20.37    1.42   4
   0  21   2   22.29    1.53   4
   0 -21  -2   22.65    1.50   2
  -1 -21  -2    3.65    0.87   2
   1 -21   2    4.07    0.83   3
   1  21   2    3.13    0.88   4
  -1  21  -2    3.99    0.87   4
   2 -21   2    1.41    0.75   3
   2  21   2    1.43    0.84   4
  -2  21  -2    1.21    0.76   4
  -2 -21  -2    1.23    0.79   2
  -3  22   2   44.03    2.07   4
  -3 -22   2   46.92    2.06   2
   3 -22  -2   45.76    2.10   2
  -2  22   2   -0.65    0.70   4
  -2 -22   2   -0.16    0.67   2
   2 -22  -2    0.15    0.68   2
  -1  22   2    1.05    0.80   4
  -1 -22   2    1.99    0.78   2
   1  22  -2    1.47    0.73   4
   1 -22  -2    2.39    0.81   2
   0 -22  -2   26.55    1.63   2
   0  22   2   25.23    1.64   4
   0  22  -2   24.80    1.56   4
   1 -22   2   39.44    1.74   3
  -1 -22  -2   38.01    1.90   2
   1  22   2   40.51    2.01   4
  -1  22  -2   39.51    1.94   4
  -2 -22  -2   -0.07    0.73   2
  -2  22  -2   -0.13    0.73   4
   2  22   2   -0.07    0.79   4
   2 -22   2    0.22    0.68   3
   2 -23  -2    2.35    0.85   2
  -2 -23   2    2.18    0.83   2
  -2  23   2    2.82    0.91   4
   1 -23  -2    1.10    0.77   2
   1  23  -2    2.09    0.77   4
  -1  23   2    0.51    0.78   4
   0  23  -2   10.63    1.14   4
   0  23   2   10.89    1.25   4
   0 -23  -2   12.26    1.27   2
  -1  23  -2    3.87    0.96   4
   1  23   2    4.03    1.01   4
  -1 -23  -2    3.93    0.95   2
   1 -23   2    4.77    0.91   3
  -8   0   3    1.24    0.74   3
   8   0  -3    1.15    0.72   2
  -7   0   3   12.06    1.20   2
  -7   0   3   15.93    1.16   3
  -6   0   3    1.05    0.58   3
  -6   0   3    0.00    0.63   2
   6   0  -3    0.51    0.52   1
  -5   0   3  155.42    3.30   3
   5   0  -3  155.31    3.26   1
  -5   0   3  150.99    3.60   2
  -4   0   3   -0.01    0.32   3
  -4   0   3   -0.17    0.35   2
   4   0  -3   -0.24    0.31   1
   3   0  -3  411.95    7.25   1
  -3   0   3  412.78    7.24   3
  -3   0   3  403.84    7.71   2
   2   0  -3    0.08    0.23   1
  -2   0   3   -0.12    0.14   4
  -2   0   3   -0.79    0.24   2
  -2   0   3    0.15    0.23   3
  -1   0   3   18.84    0.66   4
  -1   0   3   19.09    0.72   3
   1   0  -3   20.38    0.74   1
   1   0  -3   20.52    0.66   2
   0   0  -3    0.57    0.25   1
   0   0   3    0.21    0.22   4
   0   0   3    0.33    0.21   3
   1   0   3  924.79   15.29   3
  -1   0  -3  901.02   16.73   4
  -1   0  -3  891.36   15.50   1
  -2   0  -3   -0.47    0.31   1
  -2   0  -3   -0.27    0.20   2
   2   0   3    0.01    0.26   3
  -3   0  -3  194.35    4.35   4
   3   0   3  196.19    3.85   3
  -3   0  -3  196.74    4.01   1
   4   0   3   -0.49    0.53   4
  -4   0  -3    0.70    0.52   1
  -5   0  -3    2.28    0.73   1
   5   0   3    1.68    0.78   4
   6   0   3    0.85    0.84   4
  -6   0  -3   -1.00    0.64   1
  -8  -1   3   13.81    1.34   2
   8  -1  -3   14.02    1.28   2
  -8   1   3   15.97    1.31   3
  -7   1   3    1.27    0.62   3
  -7  -1   3    2.11    0.64   3
   7  -1  -3    1.55    0.71   2
  -7  -1   3    2.13    0.75   2
   6  -1  -3  141.84    3.16   1
   6   1  -3  142.41    3.22   1
  -6   1   3  138.37    3.23   3
  -6  -1   3  140.81    3.55   2
  -6  -1   3  139.36    3.20   3
  -5  -1   3  197.79    3.99   3
   5   1  -3  195.41    4.02   1
  -5   1   3  195.87    4.38   2
   5  -1  -3  198.53    3.97   1
  -5   1   3  201.98    4.05   3
  -5  -1   3  195.88    4.37   2
  -4   1   3   27.98    1.06   3
  -4  -1   3   28.05    1.15   2
  -4   1   3   24.83    1.11   2
   4  -1  -3   27.70    1.04   1
  -4  -1   3   26.39    1.03   3
   4   1  -3   25.37    1.07   1
  -3   1   3   32.21    1.06   3
  -3   1   3   32.82    1.15   2
   3  -1  -3   35.92    1.04   1
   3   1  -3   35.62    1.09   1
  -3  -1   3   30.78    1.14   2
  -3  -1   3   33.17    1.08   3
  -2  -1   3  223.57    4.12   3
   2  -1  -3  221.63    4.09   1
  -2   1   3  222.58    4.10   3
   2   1  -3  227.30    4.15   1
   2  -1  -3  225.35    4.35   2
  -2   1   3  223.06    4.24   4
  -2  -1   3  224.16    4.34   2
   1  -1  -3   71.62    1.56   1
   1   1  -3   70.59    1.52   2
  -1  -1   3   72.70    1.58   3
  -1  -1   3   70.16    1.57   4
   1  -1  -3   71.62    1.57   2
  -1   1   3   71.34    1.59   4
  -1   1   3   68.49    1.52   3
   1   1  -3   70.93    1.59   1
   0  -1   3 1242.01   21.11   3
   0   1  -3 1289.04   23.00   4
   0   1  -3 1265.53   21.35   1
   0   1   3 1266.45   21.07   3
   0  -1  -3 1253.86   22.41   2
   0  -1  -3 1247.08   21.34   1
   0   1   3 1279.28   23.02   4
   1   1   3   87.62    1.85   3
   1   1   3   89.96    2.19   4
  -1   1  -3   88.65    1.98   1
  -1  -1  -3   88.80    1.80   2
   1  -1   3   89.24    1.93   3
  -1  -1  -3   88.16    1.99   1
  -1   1  -3   82.58    2.13   4
   2   1   3  126.11    2.52   3
   2  -1   3  124.77    2.60   3
  -2  -1  -3  122.58    2.69   1
  -2  -1  -3  117.45    2.51   2
  -2   1  -3  125.37    2.68   1
   2   1   3  123.79    2.95   4
  -2   1  -3  122.73    2.94   4
  -3   1  -3   36.16    1.31   1
   3   1   3   35.70    1.45   4
  -3  -1  -3   34.79    1.28   1
   3   1   3   35.05    1.21   3
  -3   1  -3   34.07    1.42   4
  -3  -1  -3   34.80    1.10   2
   3  -1   3   37.58    1.25   3
  -4  -1  -3  168.21    3.71   1
   4   1   3  167.25    4.08   4
  -4   1  -3  166.83    3.68   1
  -5  -1  -3   99.58    2.75   1
  -5   1  -3   97.11    2.68   1
   5   1   3  100.84    3.03   4
   5  -1   3   98.48    3.00   4
   6  -1   3    9.28    1.15   4
   6   1   3    9.09    1.13   4
  -6   1  -3    8.89    1.03   1
  -6  -1  -3    8.98    1.06   1
  -8   2   3   12.27    1.15   3
   8  -2  -3   12.31    1.24   2
  -8  -2   3   10.90    1.24   2
  -7  -2   3    2.30    0.77   2
  -7   2   3    2.51    0.67   3
   7  -2  -3    1.94    0.70   2
   7   2  -3    2.08    0.67   1
  -7  -2   3    1.48    0.61   3
  -6  -2   3   35.16    1.39   3
   6  -2  -3   36.77    1.58   2
   6   2  -3   32.93    1.42   1
  -6  -2   3   35.12    1.58   2
  -6   2   3   33.75    1.45   3
  -5  -2   3   41.76    1.43   3
  -5  -2   3   38.14    1.59   2
   5   2  -3   40.35    1.46   1
   5  -2  -3   41.87    1.44   1
  -5   2   3   43.63    1.48   3
   4  -2  -3   61.57    1.55   1
  -4  -2   3   58.25    1.57   3
   4   2  -3   59.17    1.63   1
   4  -2  -3   61.54    1.80   2
  -4  -2   3   63.45    1.79   2
  -4   2   3   61.16    1.63   3
  -3   2   3  852.80   14.29   3
  -3  -2   3  848.90   14.27   3
  -3   2   3  845.99   15.30   4
   3   2  -3  820.95   14.42   1
  -3  -2   3  816.97   15.22   2
   3  -2  -3  846.02   15.26   2
   3  -2  -3  845.88   14.32   1
   2   2  -3 2145.90   34.74   1
  -2   2   3 2040.40   34.34   3
   2  -2  -3 2040.93   36.60   2
   2  -2  -3 2030.77   34.65   1
  -2  -2   3 2132.11   36.61   2
  -2  -2   3 2070.99   34.35   3
  -2   2   3 2030.87   37.34   4
  -1   2   3  761.20   14.01   4
  -1  -2   3  766.54   12.95   3
   1  -2  -3  737.27   13.02   1
   1   2  -3  773.30   13.98   4
  -1   2   3  768.76   12.89   3
   1  -2  -3  768.94   13.71   2
   1   2  -3  756.60   13.07   1
  -1  -2   3  783.97   13.66   2
   0   2   3   15.74    0.65   3
   0   2   3   15.71    0.76   4
   0   2  -3   17.65    0.73   4
   0  -2   3   17.65    0.73   3
   0  -2  -3   19.98    0.67   2
   0   2  -3   17.97    0.73   1
   0  -2  -3   17.53    0.74   1
  -1  -2  -3  991.42   17.05   1
  -1   2  -3  999.48   18.41   4
   1   2   3 1010.04   16.75   3
  -1  -2  -3  984.63   17.77   2
  -1   2  -3 1003.04   17.05   1
   1  -2   3 1003.17   16.86   3
   1   2   3  997.94   18.43   4
   2   2   3  696.86   11.65   3
  -2   2  -3  671.31   11.91   1
  -2   2  -3  686.34   12.94   4
   2   2   3  682.10   12.95   4
  -2  -2  -3  681.75   12.32   2
   2  -2   3  673.86   11.79   3
  -2  -2  -3  689.56   11.97   1
  -3  -2  -3  126.21    2.69   2
   3   2   3  124.87    3.11   4
   3  -2   3  123.76    2.74   3
  -3  -2  -3  119.12    2.79   1
  -3   2  -3  126.00    3.10   4
  -3   2  -3  124.38    2.79   1
   4   2   3    7.47    0.92   4
   4  -2   3   11.64    1.01   3
  -4   2  -3    6.84    0.88   4
  -4   2  -3    7.98    0.80   1
  -4  -2  -3    7.56    0.81   1
  -5  -2  -3    4.19    0.84   1
  -5   2  -3    3.86    0.83   4
  -5   2  -3    3.95    0.77   1
   5   2   3    3.96    0.90   4
  -6  -2  -3    2.84    0.84   1
  -6   2  -3    1.51    0.76   1
   6  -2   3    2.19    0.89   4
   6   2   3    1.48    0.81   4
  -7  -3   3    0.94    0.58   3
  -7  -3   3    0.32    0.67   2
   7  -3  -3    0.99    0.67   2
   7   3  -3   -0.08    0.59   1
  -7   3   3    0.42    0.61   3
   6   3  -3   49.25    1.71   1
   6  -3  -3   52.83    1.88   2
  -6   3   3   50.67    1.75   3
  -6  -3   3   51.46    1.65   3
  -6  -3   3   50.84    1.90   2
   5   3  -3  442.94    8.11   1
   5  -3  -3  435.03    8.62   2
  -5   3   3  439.22    8.04   3
  -5  -3   3  441.20    8.64   2
   5  -3  -3  440.51    7.90   1
  -5  -3   3  440.36    7.94   3
  -4   3   3  276.49    5.34   4
  -4  -3   3  285.64    5.21   3
  -4   3   3  284.01    5.28   3
  -4  -3   3  285.06    5.66   2
   4  -3  -3  281.99    5.14   1
   4   3  -3  278.21    5.31   1
   4  -3  -3  275.93    5.66   2
   3  -3  -3  110.69    2.57   2
  -3  -3   3  112.37    2.35   3
  -3   3   3  111.55    2.31   4
  -3  -3   3  115.90    2.55   2
   3  -3  -3  113.77    2.25   1
  -3   3   3  108.14    2.37   3
   3   3  -3  111.71    2.43   1
   2  -3  -3  395.90    7.34   2
   2  -3  -3  393.57    6.85   1
  -2  -3   3  397.59    7.28   2
  -2  -3   3  383.66    6.87   3
  -2   3   3  385.61    7.33   4
  -2   3   3  393.26    6.88   3
   2   3  -3  396.02    6.97   1
   1  -3  -3  226.64    4.15   1
  -1  -3   3  228.91    4.19   3
  -1   3   3  224.32    4.10   3
  -1   3   3  226.47    4.45   4
   1   3  -3  229.70    4.21   1
   1   3  -3  230.18    4.39   4
  -1  -3   3  230.00    4.26   2
   1  -3  -3  228.42    4.37   2
   0   3  -3    3.24    0.35   4
   0   3  -3    3.37    0.34   1
   0  -3   3    3.13    0.35   3
   0  -3  -3    3.09    0.33   1
   0   3   3    3.40    0.36   4
   0  -3  -3    3.02    0.30   2
   0   3   3    3.09    0.28   3
  -1  -3  -3  126.80    2.56   2
   1   3   3  125.31    2.89   4
   1   3   3  123.89    2.42   3
  -1   3  -3  124.80    2.86   4
   1  -3   3  128.40    2.62   3
  -1  -3  -3  125.31    2.63   1
  -1   3  -3  128.98    2.62   1
   2   3   3   13.28    0.67   3
   2   3   3   11.46    1.02   4
  -2  -3  -3   14.79    0.92   1
  -2  -3  -3   14.48    0.77   2
  -2   3  -3    9.77    0.92   4
   2  -3   3   16.18    0.86   3
  -2   3  -3   16.02    0.87   1
  -3   3  -3   -0.59    0.44   4
   3   3   3   -0.54    0.41   4
  -3   3  -3    0.21    0.40   1
  -3  -3  -3    1.00    0.36   2
   3  -3   3    0.51    0.39   3
  -3  -3  -3   -0.45    0.38   1
  -4   3  -3  185.96    3.99   1
   4   3   3  188.52    4.47   4
  -4   3  -3  186.61    4.45   4
   4  -3   3  191.42    4.02   3
   5   3   3  121.39    3.41   4
  -5   3  -3  120.66    3.36   4
  -5  -3  -3  121.04    3.15   1
  -5   3  -3  117.00    3.01   1
  -6  -3  -3   15.28    1.32   1
   6  -3   3   13.51    1.35   4
   6   3   3   13.61    1.28   4
  -7  -4   3    0.73    0.71   2
   7   4  -3    0.38    0.62   1
   7  -4  -3    1.86    0.72   2
  -7   4   3    1.29    0.68   3
  -7  -4   3    1.88    0.63   3
  -6  -4   3   25.67    1.19   3
  -6   4   3   26.31    1.28   3
   6  -4  -3   25.96    1.40   2
   6   4  -3   25.55    1.27   1
  -6  -4   3   23.97    1.37   2
   5  -4  -3   10.93    1.10   2
  -5   4   3   15.06    1.02   3
  -5  -4   3   14.63    1.09   2
  -5  -4   3   14.06    0.97   3
   5   4  -3   14.82    1.01   1
   4   4  -3    7.80    0.72   1
  -4  -4   3    5.25    0.59   2
  -4   4   3    5.22    0.52   4
  -4   4   3    6.12    0.60   3
  -4  -4   3    4.85    0.51   3
   4  -4  -3    4.64    0.60   2
   4  -4  -3    5.32    0.45   1
   3  -4  -3   23.55    1.05   2
  -3  -4   3   22.70    0.90   3
  -3   4   3   24.88    0.95   3
   3  -4  -3   24.18    0.81   1
  -3  -4   3   23.56    1.01   2
   3   4  -3   24.70    1.01   1
  -3   4   3   25.04    0.83   4
  -2  -4   3  712.95   12.15   3
  -2   4   3  700.66   13.10   4
  -2   4   3  716.63   12.14   3
  -2  -4   3  727.52   12.89   2
   2   4  -3  708.95   12.30   1
   2  -4  -3  711.56   12.96   2
   2  -4  -3  712.94   12.14   1
  -1  -4   3  412.53    7.48   2
   1  -4  -3  410.27    7.61   2
   1   4  -3  410.26    7.69   4
  -1   4   3  412.85    7.11   3
   1   4  -3  413.34    7.26   1
  -1   4   3  411.14    7.76   4
  -1  -4   3  410.13    7.21   3
   1  -4  -3  410.56    7.18   1
   0   4  -3  124.76    2.51   1
   0  -4  -3  123.76    2.58   2
   0   4  -3  126.81    2.69   4
   0  -4   3  124.28    2.55   3
   0   4   3  122.64    2.71   4
   0   4   3  124.39    2.36   3
   0  -4  -3  124.68    2.50   1
   1   4   3   10.38    0.83   4
   1   4   3   12.45    0.57   3
  -1  -4  -3   12.39    0.76   1
  -1  -4  -3   12.24    0.65   2
  -1   4  -3   11.10    0.75   1
   1  -4   3   12.36    0.80   3
  -1   4  -3    7.92    0.77   4
   2  -4   3  561.18   10.09   3
  -2   4  -3  576.74   10.12   1
  -2  -4  -3  564.44   10.52   2
  -2  -4  -3  571.81   10.21   1
   2   4   3  584.89   11.07   4
  -2   4  -3  590.78   11.05   4
  -3  -4  -3    0.00    0.34   2
  -3   4  -3   -0.31    0.42   4
   3   4   3   -0.01    0.42   4
  -3  -4  -3    0.36    0.40   1
  -3   4  -3    0.24    0.41   1
   3  -4   3   -0.11    0.38   3
  -4  -4  -3    7.28    0.81   1
  -4   4  -3    5.40    0.81   4
   4   4   3    4.15    0.81   4
   4  -4   3    6.37    0.73   3
  -4   4  -3    6.83    0.75   1
   5   4   3    7.02    1.02   4
  -5   4  -3    6.95    0.88   1
  -5   4  -3    6.53    0.94   4
  -5  -4  -3    8.30    0.98   1
  -6  -4  -3    8.04    1.05   1
   6   4   3    6.99    1.05   4
  -6   4  -3    7.48    1.05   4
   7  -5  -3    2.21    0.77   2
  -7  -5   3    1.96    0.76   2
  -7   5   3    2.34    0.74   3
   7   5  -3    1.70    0.70   1
  -6  -5   3   10.96    1.01   2
  -6  -5   3   12.72    0.95   3
  -6   5   3   10.68    1.00   3
   6  -5  -3   11.45    1.11   2
   6   5  -3   13.60    1.04   1
  -5  -5   3  151.08    3.16   3
  -5   5   3  152.81    3.32   3
   5  -5  -3  147.90    3.57   2
   5   5  -3  150.12    3.33   1
  -5  -5   3  145.79    3.54   2
   4  -5  -3   20.12    1.12   2
  -4   5   3   21.11    1.05   3
  -4   5   3   20.12    0.84   4
   4   5  -3   22.97    1.01   1
  -4  -5   3   21.10    1.10   2
  -4  -5   3   20.64    0.93   3
   4  -5  -3   20.04    0.78   1
   3  -5  -3   34.78    0.95   1
  -3   5   3   34.52    1.07   4
  -3  -5   3   31.41    1.07   3
  -3   5   3   33.92    1.12   3
   3  -5  -3   34.31    1.21   2
   3   5  -3   34.79    1.20   1
  -3  -5   3   32.74    1.21   2
   2   5  -3    1.33    0.33   1
  -2   5   3    0.70    0.29   4
  -2  -5   3    0.54    0.27   2
   2  -5  -3    0.76    0.32   2
  -2  -5   3    0.77    0.30   3
  -2   5   3    0.87    0.30   3
   2  -5  -3    1.12    0.25   1
   2   5  -3    0.73    0.18   4
   1   5  -3  767.96   13.10   1
   1   5  -3  775.06   13.99   4
   1  -5  -3  759.96   13.80   2
  -1  -5   3  758.71   12.98   3
   1  -5  -3  756.44   13.00   1
  -1  -5   3  755.56   13.63   2
  -1   5   3  764.02   14.07   4
  -1   5   3  763.04   12.87   3
   0  -5  -3   72.27    1.70   2
   0   5  -3   71.37    1.64   1
   0  -5   3   69.62    1.70   3
   0   5   3   69.84    1.46   3
   0   5  -3   70.95    1.74   4
   0  -5  -3   70.68    1.63   1
  -1   5  -3  610.60   11.41   4
  -1  -5  -3  604.34   10.55   1
   1   5   3  595.61   10.16   3
   1   5   3  612.30   11.42   4
  -1  -5  -3  595.86   11.01   2
  -1   5  -3  594.34   10.50   1
   1  -5   3  608.41   10.50   3
   2  -5   3    0.78    0.42   3
  -2   5  -3   -0.04    0.44   4
  -2   5  -3    0.71    0.38   1
  -2  -5  -3    1.01    0.36   2
  -2  -5  -3    0.84    0.41   1
   2   5   3    0.09    0.48   4
   3  -5   3   63.50    1.84   3
  -3   5  -3   62.47    2.02   4
  -3  -5  -3   64.36    1.77   2
   3   5   3   64.67    2.03   4
  -3   5  -3   64.41    1.77   1
  -3  -5  -3   62.15    1.83   1
  -4   5  -3   55.42    1.72   1
   4   5   3   55.70    2.05   4
  -4  -5  -3   57.90    1.88   1
  -4   5  -3   54.28    2.01   4
   4  -5   3   56.24    1.83   3
   5   5   3   82.90    2.69   4
   5  -5   3   81.95    2.44   3
  -5   5  -3   77.70    2.62   4
  -5   5  -3   81.70    2.33   1
  -5  -5  -3   80.44    2.51   1
   7  -6  -3    3.94    0.87   2
  -7  -6   3    3.42    0.86   2
   7   6  -3    3.86    0.82   1
  -7   6   3    3.61    0.80   3
  -6  -6   3    7.77    0.75   3
  -6  -6   3    8.07    0.90   2
   6  -6  -3    5.58    0.83   2
  -6   6   3    7.97    0.83   3
   6   6  -3    6.83    0.82   1
   5  -6  -3   35.96    1.55   2
  -5   6   3   37.83    1.43   3
  -5  -6   3   40.02    1.56   2
  -5  -6   3   38.17    1.31   3
   5   6  -3   39.12    1.45   1
   4   6  -3  232.70    4.65   1
  -4   6   3  237.68    4.62   3
  -4   6   3  232.23    4.71   4
  -4  -6   3  235.96    4.91   2
  -4  -6   3  239.05    4.47   3
  -3   6   3  376.62    6.78   3
  -3  -6   3  376.86    7.21   2
  -3  -6   3  375.53    6.70   3
   3   6  -3  376.15    6.88   1
   3  -6  -3  375.60    6.55   1
   3  -6  -3  378.53    7.26   2
  -3   6   3  377.29    7.21   4
  -2   6   3  769.34   14.32   4
   2  -6  -3  768.69   14.12   2
  -2  -6   3  765.04   13.20   3
   2   6  -3  784.13   13.40   1
   2  -6  -3  786.84   13.17   1
  -2  -6   3  784.04   14.02   2
   2   6  -3  782.53   14.16   4
  -2   6   3  763.53   13.18   3
  -1   6   3   59.98    1.58   4
   1  -6  -3   61.50    1.58   2
  -1  -6   3   63.75    1.52   3
  -1   6   3   59.52    1.38   3
  -1  -6   3   59.60    1.40   2
   1  -6  -3   61.37    1.39   1
   1   6  -3   59.05    1.51   1
   1   6  -3   62.64    1.49   4
   0  -6  -3  278.58    5.28   2
   0   6  -3  271.40    4.99   1
   0   6   3  275.07    5.45   4
   0   6   3  267.59    4.76   3
   0   6  -3  276.71    5.39   4
   0  -6   3  268.09    5.04   3
   0  -6  -3  273.10    4.98   1
   1  -6   3  256.42    4.92   3
  -1  -6  -3  265.49    4.91   1
   1   6   3  254.39    4.52   3
   1   6   3  263.18    5.34   4
  -1   6  -3  257.00    5.30   4
  -1   6  -3  263.85    4.84   1
  -1  -6  -3  265.17    5.10   2
  -2   6  -3  560.31    9.80   1
  -2   6  -3  561.07   10.76   4
   2  -6   3  550.03    9.86   3
  -2  -6  -3  553.20    9.93   1
   2   6   3  565.29   10.75   4
  -2  -6  -3  544.50   10.29   2
  -3  -6  -3   16.15    1.05   2
  -3   6  -3   17.54    0.97   1
  -3  -6  -3   16.71    0.99   1
   3   6   3   15.73    1.07   4
   3  -6   3   14.52    1.00   3
  -3   6  -3   15.00    1.09   4
  -4  -6  -3   33.14    1.47   1
   4  -6   3   33.38    1.46   3
  -4  -6  -3   34.57    1.42   2
  -4   6  -3   33.34    1.57   4
  -4   6  -3   33.19    1.32   1
   4   6   3   32.25    1.60   4
  -5   6  -3    0.55    0.69   4
  -5  -6  -3   -0.15    0.70   1
   5  -6   3    0.14    0.64   3
   5   6   3   -0.88    0.65   4
   7  -7  -3    3.32    0.85   2
   7   7  -3    3.82    0.80   1
  -7  -7   3    3.16    0.86   2
  -7   7   3    3.54    0.80   3
   6   7  -3   29.16    1.40   1
  -6   7   3   32.19    1.44   3
  -6  -7   3   31.97    1.31   3
  -6  -7   3   32.88    1.56   2
   6  -7  -3   31.51    1.55   2
  -5  -7   3   61.70    1.97   2
  -5   7   3   60.86    1.85   3
   5   7  -3   60.21    1.85   1
  -5   7   3   61.55    1.73   4
   5  -7  -3   60.87    1.99   2
  -5  -7   3   61.09    1.68   3
  -4  -7   3  125.36    2.63   3
  -4  -7   3  120.21    2.94   2
  -4   7   3  125.17    2.78   3
   4  -7  -3  122.29    2.98   2
  -4   7   3  121.19    2.76   4
   4   7  -3  122.43    2.81   1
  -3   7   3    1.69    0.41   3
  -3  -7   3    1.86    0.37   3
   3  -7  -3    1.59    0.44   2
   3   7  -3    2.07    0.42   1
  -3   7   3    2.17    0.39   4
  -3  -7   3    1.43    0.39   2
  -2  -7   3   27.53    0.97   3
  -2   7   3   28.30    0.95   3
   2   7  -3   25.97    0.82   4
   2  -7  -3   26.87    1.08   2
   2  -7  -3   25.48    0.80   1
  -2  -7   3   27.60    0.98   2
   2   7  -3   28.23    1.06   1
  -2   7   3   26.05    1.04   4
   1  -7  -3  380.10    7.18   2
   1   7  -3  378.81    7.16   4
   1  -7  -3  382.04    6.63   1
  -1  -7   3  374.98    6.73   3
   1   7  -3  375.81    6.76   1
  -1  -7   3  376.81    6.95   2
  -1   7   3  371.10    7.28   4
  -1   7   3  378.74    6.57   3
   0   7   3  168.01    3.08   3
   0  -7  -3  170.22    3.28   1
   0  -7   3  168.87    3.38   3
   0   7  -3  167.48    3.30   1
   0   7  -3  171.97    3.57   4
   0  -7  -3  168.37    3.52   2
   0   7   3  170.81    3.64   4
  -1  -7  -3  100.11    2.30   2
  -1   7  -3   99.80    2.43   4
   1  -7   3   96.28    2.26   3
  -1  -7  -3   98.48    2.22   1
  -1   7  -3   96.04    2.14   1
   1   7   3   98.39    2.45   4
  -2   7  -3   78.83    1.91   1
  -2   7  -3   78.02    2.22   4
   2   7   3   76.71    2.20   4
  -2  -7  -3   74.65    1.99   2
   2  -7   3   79.89    2.06   3
  -2  -7  -3   78.57    2.02   1
  -3  -7  -3  112.38    2.74   1
   3  -7   3  113.75    2.75   3
  -3   7  -3  109.83    2.97   4
  -3   7  -3  112.38    2.57   1
  -3  -7  -3  114.35    2.76   2
   3   7   3  114.09    2.96   4
   4   7   3   65.08    2.21   4
   4  -7   3   62.39    2.05   3
  -4  -7  -3   68.18    2.07   2
  -4   7  -3   69.54    1.91   1
  -4   7  -3   68.14    2.28   4
  -4  -7  -3   65.76    2.09   1
   5  -7   3   61.66    2.14   3
  -5  -7  -3   59.12    2.13   1
  -5   7  -3   58.96    2.25   4
   5   7   3   59.57    2.25   4
   7  -8  -3   23.90    1.51   2
  -7   8   3   26.37    1.45   3
   7   8  -3   27.14    1.47   1
  -7  -8   3   26.16    1.57   2
  -6  -8   3   15.03    1.21   2
   6  -8  -3   13.48    1.16   2
   6   8  -3   15.02    1.09   1
  -6   8   3   14.90    1.12   3
  -5   8   3    1.76    0.47   4
  -5  -8   3    1.22    0.55   2
   5   8  -3    1.85    0.57   1
  -5   8   3    2.07    0.59   3
   5  -8  -3    0.74    0.57   2
  -5  -8   3    1.33    0.45   3
  -4  -8   3   14.13    0.82   3
   4   8  -3   15.77    0.97   1
  -4  -8   3   14.56    0.99   2
  -4   8   3   13.30    0.83   4
  -4   8   3   14.32    0.96   3
   4  -8  -3   14.52    1.03   2
  -3  -8   3  258.06    4.73   3
  -3  -8   3  252.19    5.11   2
   3   8  -3  251.70    4.90   1
   3  -8  -3  253.36    5.19   2
  -3   8   3  254.15    4.82   3
  -3   8   3  251.66    5.14   4
  -2   8   3   30.23    1.01   3
   2  -8  -3   28.53    0.80   1
  -2   8   3   28.97    1.12   4
   2  -8  -3   32.12    1.17   2
   2   8  -3   28.78    1.11   1
   2   8  -3   28.61    0.91   4
  -2  -8   3   28.84    1.02   3
  -2  -8   3   28.71    1.02   2
   1   8  -3   80.95    1.88   1
   1  -8  -3   79.00    2.00   2
  -1   8   3   79.07    1.72   3
   1  -8  -3   80.25    1.71   1
  -1   8   3   79.54    2.01   4
  -1  -8   3   79.70    1.80   2
   1   8  -3   78.37    1.89   4
  -1  -8   3   82.37    1.90   3
   0  -8  -3    0.18    0.28   1
   0  -8   3    1.95    0.40   3
   0   8   3    0.01    0.34   4
   0  -8  -3    0.33    0.32   2
   0  -8   3    0.25    0.20   2
   0   8   3    0.22    0.21   3
   0   8  -3    0.01    0.29   1
   0   8  -3    0.14    0.30   4
  -1   8  -3  133.01    3.14   4
   1  -8   3  135.38    2.96   3
   1   8   3  137.41    3.19   4
  -1  -8  -3  136.70    3.03   2
  -1   8  -3  140.32    2.82   1
  -1  -8  -3  142.70    2.90   1
   2   8   3   25.45    1.22   4
  -2  -8  -3   24.43    1.12   1
  -2   8  -3   22.34    1.21   4
  -2  -8  -3   25.08    1.08   2
  -2   8  -3   26.48    1.05   1
   2  -8   3   25.38    1.15   3
  -3  -8  -3   65.12    1.93   1
   3  -8   3   63.90    1.93   3
   3   8   3   62.36    2.07   4
  -3   8  -3   64.61    1.79   1
  -3  -8  -3   65.55    1.93   2
  -3   8  -3   62.33    2.08   4
  -4  -8  -3    5.85    0.76   2
  -4  -8  -3    7.00    0.86   1
   4  -8   3    6.73    0.84   3
  -4   8  -3    7.67    0.92   4
   4   8   3    5.79    0.84   4
  -5   8  -3    2.77    0.75   4
   5  -8   3    2.32    0.78   3
   5   8   3    1.88    0.78   4
  -5  -8  -3    1.91    0.77   1
   7  -9  -3    0.44    0.73   2
  -7  -9   3    0.87    0.76   2
   7   9  -3    0.16    0.70   1
  -7   9   3    1.00    0.69   3
   6  -9  -3   37.22    1.66   2
   6   9  -3   37.80    1.57   1
  -6   9   3   37.47    1.60   3
  -6  -9   3   38.25    1.69   2
  -5   9   3   -0.08    0.40   4
   5  -9  -3    0.11    0.51   2
  -5  -9   3   -0.35    0.47   2
   5   9  -3    0.48    0.54   1
  -5  -9   3   -0.16    0.39   3
  -5   9   3   -0.31    0.50   3
  -4  -9   3   89.56    2.08   3
  -4   9   3   90.22    2.28   3
  -4   9   3   85.30    2.25   4
  -4  -9   3   90.39    2.41   2
   4   9  -3   93.48    2.33   1
   4  -9  -3   88.69    2.44   2
   3  -9  -3   70.63    2.02   2
   3   9  -3   73.25    1.94   1
  -3  -9   3   73.16    1.79   3
  -3   9   3   67.01    1.83   3
  -3  -9   3   69.89    1.95   2
  -3   9   3   69.06    1.94   4
   2  -9  -3   20.74    0.69   1
   2   9  -3   22.35    0.84   4
  -2   9   3   21.82    0.88   3
  -2  -9   3   21.52    0.92   3
  -2   9   3   21.86    1.07   4
   2  -9  -3   22.14    1.06   2
   2   9  -3   21.68    1.03   1
  -2  -9   3   23.02    0.96   2
   1   9  -3   30.98    1.10   4
  -1  -9   3   34.19    1.14   3
   1   9  -3   31.90    1.13   1
  -1  -9   3   33.48    1.04   2
  -1   9   3   35.37    1.24   4
   1  -9  -3   32.30    0.96   1
  -1   9   3   34.41    1.01   3
   1  -9  -3   33.30    1.22   2
   0   9  -3  568.89   10.84   4
   0  -9  -3  563.23    9.98   1
   0   9  -3  578.02   10.02   1
   0  -9   3  577.32   10.35   2
   0   9   3  579.10    9.70   3
   0   9   3  574.44   10.92   4
   0  -9   3  572.34   10.06   3
   0  -9  -3  565.71   10.67   2
  -1   9  -3    0.87    0.41   4
   1  -9   3    0.59    0.44   3
  -1  -9  -3    0.61    0.37   1
   1   9   3    0.68    0.43   4
  -1  -9  -3    1.77    0.43   2
  -1   9  -3    1.08    0.38   1
  -2   9  -3    2.57    0.45   1
   2   9   3    3.12    0.57   4
   2  -9   3    2.25    0.53   3
  -2  -9  -3    1.78    0.47   2
  -2   9  -3    1.07    0.53   4
  -2  -9  -3    2.70    0.54   1
  -3   9  -3    7.48    0.88   4
   3  -9   3   11.63    1.01   3
   3   9   3    8.48    0.87   4
  -3   9  -3   10.04    0.94   1
  -3  -9  -3    8.99    0.81   2
  -3  -9  -3    9.34    0.85   1
  -4   9  -3   98.26    2.98   4
  -4  -9  -3  107.05    2.83   2
  -4  -9  -3  105.12    2.82   1
   4   9   3  103.39    2.97   4
   4  -9   3  103.30    2.82   3
  -5   9  -3   -0.07    0.65   4
   5  -9   3   -0.31    0.66   3
   5   9   3   -0.71    0.66   4
  -5  -9  -3    0.32    0.65   1
   7 -10  -3   15.14    1.31   2
  -7  10   3   15.24    1.24   3
  -7 -10   3   13.83    1.32   2
   7  10  -3   15.70    1.26   1
  -6 -10   3    1.48    0.66   2
  -6  10   3    0.37    0.63   3
   6 -10  -3    0.22    0.61   2
   6  10  -3    1.50    0.65   1
   5  10  -3   14.37    1.06   1
  -5  10   3   14.77    1.01   4
  -5 -10   3   14.90    1.12   2
   5 -10  -3   15.20    1.11   2
  -5  10   3   14.12    1.06   3
  -5 -10   3   13.90    0.90   3
  -4 -10   3   14.37    1.05   2
  -4  10   3   15.44    0.94   4
  -4 -10   3   15.21    0.85   3
  -4  10   3   13.68    1.00   3
   4 -10  -3   12.52    1.04   2
   4  10  -3   15.79    1.00   1
  -3  10   3  490.12    9.47   4
  -3 -10   3  487.61    8.60   3
  -3 -10   3  485.31    9.28   2
  -3  10   3  491.68    8.75   3
   3  10  -3  493.98    8.87   1
   3 -10  -3  481.64    9.39   2
  -2 -10   3    2.40    0.44   3
   2  10  -3    1.93    0.36   4
   2 -10  -3    2.06    0.51   2
  -2 -10   3    2.07    0.42   2
  -2  10   3    1.56    0.47   4
   2  10  -3    1.88    0.46   1
  -2  10   3    1.99    0.40   3
  -1  10   3   14.53    0.92   4
   1  10  -3   14.69    0.86   1
  -1 -10   3   14.53    0.80   2
   1 -10  -3   13.66    0.92   2
   1  10  -3   12.71    0.83   4
  -1 -10   3   14.63    0.84   3
  -1  10   3   14.43    0.68   3
   1 -10  -3   14.23    0.64   1
   0  10  -3    0.99    0.39   4
   0 -10  -3    1.75    0.37   1
   0  10  -3    2.10    0.40   1
   0 -10  -3    1.39    0.43   2
   0 -10   3    2.37    0.44   3
   0  10   3    1.24    0.44   4
  -1 -10  -3  250.95    5.23   2
  -1 -10  -3  255.48    4.92   1
   1 -10   3  254.72    5.02   3
   1  10   3  261.62    5.43   4
  -1  10  -3  258.52    5.37   4
  -1  10  -3  254.35    4.80   1
  -2 -10  -3   68.69    1.96   2
  -2  10  -3   66.35    1.69   1
  -2 -10  -3   66.01    1.88   1
   2 -10   3   65.33    1.93   3
   2  10   3   66.41    2.07   4
  -2  10  -3   62.32    2.02   4
   3  10   3  202.76    4.72   4
   3 -10   3  201.57    4.40   3
  -3 -10  -3  202.38    4.38   1
  -3  10  -3  203.98    4.10   1
  -3  10  -3  208.81    4.78   4
  -3 -10  -3  210.83    4.54   2
  -4 -10  -3   21.26    1.37   2
   4  10   3   19.31    1.39   4
  -4 -10  -3   18.87    1.24   1
   4 -10   3   21.54    1.37   3
  -4  10  -3   19.21    1.34   4
  -5  10  -3    7.41    1.01   4
   5  10   3    6.16    0.96   4
   5 -10   3    7.87    1.00   3
  -5 -10  -3    6.37    0.91   1
   7 -11  -3    1.07    0.78   2
  -7 -11   3    1.08    0.82   2
   7  11  -3    1.08    0.77   1
  -7  11   3    1.76    0.79   3
   6  11  -3   14.67    1.14   1
  -6 -11   3   12.00    1.17   2
  -6  11   3   13.52    1.12   3
   6 -11  -3   13.33    1.13   2
   5  11  -3   16.66    1.13   1
  -5  11   3   17.85    1.11   4
   5 -11  -3   17.92    1.18   2
  -5 -11   3   16.95    1.20   2
  -5  11   3   17.35    1.15   3
  -4 -11   3   27.52    1.09   3
  -4  11   3   26.31    1.21   4
  -4  11   3   24.37    1.21   3
  -4 -11   3   25.61    1.32   2
   4 -11  -3   26.33    1.32   2
   4  11  -3   28.35    1.26   1
  -3 -11   3    3.66    0.57   2
  -3 -11   3    4.39    0.51   3
   3 -11  -3    3.12    0.63   2
   3  11  -3    3.30    0.57   1
  -3  11   3    2.48    0.54   3
  -3  11   3    3.24    0.56   4
   2  11  -3  174.39    3.59   1
  -2  11   3  174.84    3.89   4
  -2 -11   3  174.65    3.48   3
  -2  11   3  168.72    3.47   3
  -2 -11   3  170.26    3.67   2
   2  11  -3  176.11    3.65   4
   2 -11  -3  174.63    3.88   2
   1 -11  -3  269.41    4.94   1
  -1 -11   3  270.07    5.33   2
  -1  11   3  272.23    5.66   4
   1  11  -3  275.09    5.51   4
   1  11  -3  270.85    5.16   1
   1 -11  -3  282.52    5.63   2
  -1  11   3  271.43    4.97   3
  -1 -11   3  277.84    5.19   3
   0  11  -3  335.93    6.63   4
   0  11  -3  330.75    6.04   1
   0 -11  -3  335.31    6.58   2
   0 -11  -3  319.59    6.01   1
   0 -11   3  329.31    6.17   3
   0  11   3  331.04    6.71   4
  -1 -11  -3   58.38    1.68   1
  -1  11  -3   63.11    1.91   4
  -1 -11  -3   63.60    1.85   2
  -1  11  -3   59.27    1.57   1
   1  11   3   60.14    1.93   4
   1 -11   3   59.78    1.79   3
   2 -11   3    0.78    0.50   3
  -2 -11  -3   -0.61    0.45   1
  -2  11  -3    0.09    0.37   1
  -2  11  -3    0.51    0.48   4
   2  11   3    0.24    0.51   4
  -2 -11  -3    0.36    0.46   2
  -3  11  -3    1.89    0.60   4
  -3 -11  -3    1.43    0.55   2
   3 -11   3    0.32    0.56   3
   3  11   3    1.04    0.62   4
  -3 -11  -3    0.80    0.57   1
   4  11   3   61.84    2.26   4
   4 -11   3   62.13    2.14   3
  -4 -11  -3   62.19    2.16   2
  -4  11  -3   58.87    2.24   4
  -4 -11  -3   59.41    2.07   1
  -5 -11  -3    0.75    0.70   1
  -5  11  -3    1.34    0.74   4
   5 -11   3    1.71    0.81   3
   5  11   3    1.03    0.79   4
  -7 -12   3    9.67    1.18   2
  -7  12   3   12.19    1.19   3
   7 -12  -3   10.87    1.20   2
   7  12  -3   13.02    1.22   1
  -6  12   3    6.45    0.87   3
   6  12  -3    4.91    0.86   1
  -6 -12   3    5.31    0.90   2
   6 -12  -3    6.37    0.91   2
  -5 -12   3   11.12    1.00   2
   5  12  -3    9.38    0.94   1
   5 -12  -3    8.67    0.94   2
  -5  12   3    9.79    0.96   4
  -5  12   3   11.02    0.96   3
   4  12  -3   74.24    2.15   1
   4 -12  -3   73.00    2.28   2
  -4 -12   3   77.62    2.29   2
  -4  12   3   74.55    2.20   4
  -4  12   3   73.36    2.12   3
  -4 -12   3   73.68    1.89   3
   3 -12  -3   -0.23    0.46   2
  -3 -12   3    0.83    0.46   2
   3  12  -3    0.01    0.48   1
  -3 -12   3    0.53    0.39   3
  -3  12   3    0.37    0.45   4
  -3  12   3    0.08    0.42   3
   2  12  -3   30.46    1.13   4
   2  12  -3   30.90    1.26   1
  -2  12   3   30.60    1.34   4
  -2  12   3   27.11    1.13   3
   2 -12  -3   31.72    1.38   2
  -2 -12   3   30.57    1.12   3
  -2 -12   3   31.34    1.20   2
   1 -12  -3   45.57    1.62   2
  -1 -12   3   46.55    1.44   3
  -1  12   3   43.25    1.60   4
   1  12  -3   45.25    1.42   1
  -1 -12   3   46.99    1.43   2
   1  12  -3   44.76    1.47   4
  -1  12   3   43.98    1.26   3
   0 -12  -3    7.87    0.71   1
   0  12   3    9.53    0.91   4
   0  12  -3    9.74    0.79   1
   0 -12  -3    9.08    0.88   2
   0  12  -3    8.74    0.84   4
   0 -12   3   10.46    0.83   3
  -1  12  -3  121.96    2.63   1
   1  12   3  124.72    3.13   4
  -1 -12  -3  124.94    3.03   2
  -1  12  -3  125.21    3.08   4
   1 -12   3  124.13    2.90   3
  -1 -12  -3  120.76    2.77   1
  -2  12  -3   61.22    1.61   1
   2 -12   3   60.45    1.91   3
  -2 -12  -3   60.36    1.83   1
   2  12   3   59.72    2.03   4
  -2  12  -3   59.68    2.00   4
  -2 -12  -3   61.77    1.94   2
  -3  12  -3    9.07    0.93   4
   3  12   3    8.55    0.94   4
  -3 -12  -3    9.07    0.87   2
   3 -12   3   10.58    0.97   3
  -3 -12  -3    7.72    0.85   1
   4 -12   3   27.35    1.50   3
  -4 -12  -3   26.05    1.55   2
  -4 -12  -3   25.10    1.41   1
   4  12   3   29.97    1.62   4
  -4  12  -3   23.71    1.53   4
  -5  12  -3    5.35    0.99   4
  -5 -12  -3    7.52    1.03   1
   5  12   3    6.50    1.06   4
   5 -12   3    7.54    1.09   3
  -6 -13   3   -0.65    0.65   2
  -6  13   3    0.06    0.64   3
   6 -13  -3    0.60    0.70   2
   6  13  -3   -1.12    0.65   1
  -5  13   3   33.09    1.51   3
  -5 -13   3   34.32    1.62   2
  -5  13   3   34.87    1.51   4
   5  13  -3   32.68    1.51   1
   5 -13  -3   31.00    1.56   2
  -4  13   3   24.70    1.31   4
   4 -13  -3   23.35    1.35   2
   4  13  -3   22.13    1.28   1
  -4  13   3   22.74    1.29   3
  -4 -13   3   23.83    1.38   2
  -3 -13   3   87.02    2.08   3
   3  13  -3   86.37    2.31   1
  -3 -13   3   85.06    2.34   2
  -3  13   3   85.87    2.41   4
   3 -13  -3   83.10    2.44   2
  -3  13   3   83.87    2.20   3
  -2 -13   3   20.34    0.96   3
  -2  13   3   18.32    1.15   4
   2 -13  -3   20.15    1.18   2
  -2 -13   3   21.27    1.07   2
   2  13  -3   19.65    0.98   4
  -2  13   3   18.92    0.96   3
   2  13  -3   21.50    1.12   1
   1 -13  -3  166.30    3.86   2
  -1 -13   3  167.86    3.52   3
  -1 -13   3  170.15    3.61   2
   1  13  -3  164.09    3.72   4
  -1  13   3  166.56    3.89   4
   1  13  -3  173.57    3.49   1
   0  13  -3   17.30    0.95   1
   0  13   3   19.24    1.17   4
   0 -13  -3   19.41    0.89   1
   0  13  -3   16.83    1.09   4
   0 -13   3   18.22    1.01   3
   0 -13  -3   19.49    1.12   2
  -1  13  -3   35.95    1.50   4
   1  13   3   36.12    1.55   4
  -1 -13  -3   36.88    1.31   1
   1 -13   3   39.73    1.45   3
  -1  13  -3   37.20    1.20   1
  -1 -13  -3   37.10    1.49   2
   2 -13   3   19.95    1.17   3
   2  13   3   19.04    1.27   4
  -2 -13  -3   19.67    1.08   1
  -2 -13  -3   20.52    1.18   2
  -2  13  -3   19.13    1.21   4
  -3 -13  -3  106.43    2.82   1
  -3  13  -3  105.50    3.08   4
  -3 -13  -3  107.22    2.94   2
   3 -13   3  109.98    2.93   3
   3  13   3  109.98    3.09   4
  -4 -13  -3    0.98    0.72   2
   4  13   3   -0.05    0.69   4
   4 -13   3    1.53    0.75   3
  -4  13  -3    0.71    0.75   4
  -4 -13  -3    1.56    0.69   1
  -6 -14   3    7.14    1.03   2
   6  14  -3    6.98    1.01   1
  -6  14   3    6.84    0.96   3
   6 -14  -3    8.67    1.08   2
   5  14  -3    4.12    0.80   1
  -5  14   3    5.40    0.75   4
   5 -14  -3    4.12    0.82   2
  -5  14   3    5.12    0.83   3
  -5 -14   3    5.18    0.86   2
  -4  14   3  218.69    4.63   3
   4 -14  -3  215.09    4.96   2
  -4  14   3  213.75    4.91   4
  -4 -14   3  220.73    4.91   2
   4  14  -3  221.52    4.67   1
   3 -14  -3    2.85    0.72   2
  -3 -14   3    3.68    0.63   2
  -3  14   3    3.31    0.65   4
   3  14  -3    2.48    0.66   1
  -3  14   3    3.65    0.62   3
  -3 -14   3    3.42    0.55   3
   2  14  -3  122.53    2.92   4
   2  14  -3  125.51    2.87   1
  -2 -14   3  120.02    2.73   3
  -2  14   3  117.20    2.71   3
  -2  14   3  126.12    3.17   4
   2 -14  -3  125.12    3.15   2
  -2 -14   3  122.74    2.94   2
  -1 -14   3   65.88    1.90   2
   1  14  -3   66.88    1.82   1
   1  14  -3   65.09    1.95   4
  -1  14   3   63.04    2.07   4
   1 -14  -3   64.25    2.07   2
  -1 -14   3   64.24    1.84   3
   0  14  -3   12.96    1.02   4
   0  14  -3   14.51    0.94   1
   0 -14   3   13.42    0.96   3
   0  14   3   14.71    1.12   4
   0 -14  -3   12.99    1.05   2
  -1  14  -3    4.37    0.70   4
  -1 -14  -3    4.67    0.59   1
  -1 -14  -3    4.78    0.74   2
  -1  14  -3    5.21    0.55   1
   1 -14   3    6.48    0.74   3
   1  14   3    5.61    0.76   4
  -2 -14  -3   63.51    1.93   1
   2 -14   3   65.24    2.07   3
  -2 -14  -3   65.34    2.11   2
   2  14   3   66.24    2.21   4
  -2  14  -3   64.99    2.16   4
  -3  14  -3   24.10    1.42   4
  -3 -14  -3   22.98    1.39   2
   3 -14   3   22.13    1.38   3
  -3 -14  -3   22.44    1.30   1
   3  14   3   22.37    1.54   4
   4  14   3   27.17    1.66   4
   4 -14   3   25.59    1.52   3
  -4 -14  -3   27.82    1.64   2
  -4 -14  -3   24.25    1.41   1
  -4  14  -3   24.92    1.65   4
  -6 -15   3    0.62    0.78   2
  -6  15   3    2.31    0.77   3
   6  15  -3    1.92    0.83   1
   6 -15  -3    1.28    0.80   2
  -5  15   3   13.65    1.13   3
  -5  15   3   14.81    1.20   4
   5 -15  -3   12.57    1.17   2
   5  15  -3   12.19    1.10   1
  -5 -15   3   14.12    1.26   2
   4 -15  -3    3.06    0.75   2
  -4 -15   3    4.27    0.75   2
  -4  15   3    4.33    0.76   4
  -4  15   3    3.93    0.73   3
   4  15  -3    3.19    0.75   1
  -3  15   3    7.09    0.83   4
  -3 -15   3    6.79    0.77   2
   3  15  -3    6.09    0.79   1
  -3  15   3    3.98    0.69   3
   3 -15  -3    4.29    0.80   2
  -3 -15   3    6.58    0.65   3
   2  15  -3   29.90    1.31   1
  -2 -15   3   26.73    1.14   3
   2  15  -3   27.92    1.24   4
  -2 -15   3   26.67    1.27   2
   2 -15  -3   29.18    1.46   2
  -2  15   3   28.72    1.42   4
  -2  15   3   26.81    1.17   3
  -1 -15   3  149.46    3.32   3
   1  15  -3  152.45    3.26   1
   1 -15  -3  147.84    3.66   2
  -1  15   3  150.60    3.73   4
   1  15  -3  155.73    3.58   4
  -1 -15   3  151.82    3.45   2
   0  15  -3  126.00    3.18   4
   0 -15   3  123.88    2.96   3
   0  15  -3  129.79    2.78   1
   0  15   3  122.69    3.26   4
   1 -15   3   94.63    2.53   3
  -1 -15  -3   93.60    2.68   2
  -1 -15  -3   93.39    2.35   1
  -1  15  -3   95.50    2.71   4
   1  15   3  100.32    2.80   4
   2 -15   3    3.85    0.73   3
  -2 -15  -3    3.88    0.68   1
   2  15   3    3.89    0.77   4
  -2  15  -3    4.21    0.74   4
  -2 -15  -3    5.08    0.78   2
  -3 -15  -3   52.11    1.89   1
   3 -15   3   51.44    1.99   3
  -3  15  -3   53.24    2.10   4
   3  15   3   54.51    2.18   4
  -3 -15  -3   50.35    2.01   2
  -4  15  -3    2.68    0.84   4
  -4 -15  -3    1.58    0.83   2
   4  15   3    2.60    0.82   4
   4 -15   3    1.81    0.77   3
  -4 -15  -3    1.90    0.75   1
  -6 -16   3   18.46    1.47   2
   6 -16  -3   17.12    1.44   2
   6  16  -3   17.82    1.34   1
  -6  16   3   16.76    1.34   3
  -5  16   3   15.43    1.19   3
   5 -16  -3   15.82    1.31   2
  -5 -16   3   13.96    1.34   2
  -5  16   3   17.19    1.32   4
   5  16  -3   16.41    1.25   1
   4 -16  -3    0.62    0.66   2
  -4  16   3    0.66    0.61   4
  -4  16   3   -0.08    0.56   3
   4  16  -3    0.38    0.63   1
  -4 -16   3    0.40    0.62   2
  -3  16   3    0.36    0.58   4
  -3  16   3    0.35    0.53   3
   3  16  -3    0.76    0.60   1
   3 -16  -3    0.07    0.60   2
  -3 -16   3    0.62    0.53   2
  -2 -16   3    9.89    0.84   3
  -2  16   3    7.57    0.88   4
   2 -16  -3    9.09    0.94   2
   2  16  -3   10.05    0.83   1
  -2 -16   3   10.54    0.99   2
  -1 -16   3    8.00    0.77   3
   1 -16  -3    8.57    0.88   2
  -1  16   3    6.81    0.88   4
   1  16  -3    6.59    0.75   4
   1  16  -3    7.72    0.72   1
   0 -16   3   24.60    1.24   3
   0  16   3   24.71    1.42   4
   0 -16  -3   27.71    1.38   2
   0  16  -3   23.79    1.32   4
   0  16  -3   26.37    1.17   1
  -1  16  -3   10.80    1.07   4
   1  16   3   11.48    1.16   4
   1 -16   3   10.39    0.98   3
  -1 -16  -3   10.15    0.97   2
  -2 -16  -3   25.82    1.27   1
  -2  16  -3   24.53    1.44   4
   2  16   3   31.21    1.60   4
  -2 -16  -3   26.99    1.46   2
   2 -16   3   28.11    1.41   3
  -3  16  -3   41.46    1.91   4
   3 -16   3   44.71    1.86   3
  -3 -16  -3   42.33    1.73   1
   3  16   3   47.48    2.08   4
  -3 -16  -3   44.95    1.93   2
  -4  16  -3    0.97    0.81   4
   4 -16   3   -0.10    0.74   3
  -4 -16  -3    0.67    0.74   1
  -4 -16  -3    1.08    0.81   2
   4  16   3    0.18    0.77   4
  -5  17   3    6.99    0.99   3
  -5  17   3    5.38    0.94   4
  -5 -17   3    4.06    0.93   2
   5  17  -3    6.10    0.97   1
   5 -17  -3    6.48    1.01   2
  -4  17   3   43.16    1.73   3
   4  17  -3   49.88    1.88   1
  -4  17   3   48.09    1.93   4
   4 -17  -3   47.10    1.97   2
  -4 -17   3   50.40    2.00   2
  -3  17   3    1.45    0.65   4
   3  17  -3    1.75    0.65   1
   3 -17  -3    0.98    0.68   2
  -3 -17   3    0.95    0.60   2
  -3  17   3    1.04    0.60   3
  -2 -17   3   32.12    1.30   3
   2 -17  -3   34.01    1.60   2
  -2 -17   3   33.41    1.49   2
  -2  17   3   33.59    1.60   4
   2  17  -3   35.94    1.51   1
   1  17  -3    4.51    0.70   4
   1  17  -3    5.98    0.71   1
  -1  17   3    5.25    0.83   4
  -1 -17   3    5.69    0.72   3
   1 -17  -3    5.19    0.82   2
   0  17   3   35.19    1.68   4
   0  17  -3   35.46    1.58   4
   0 -17  -3   35.45    1.62   2
   0 -17   3   38.50    1.51   3
  -1 -17  -3    4.71    0.79   2
  -1  17  -3    4.86    0.78   4
   1 -17   3    4.84    0.76   3
   1  17   3    4.99    0.83   4
  -2  17  -3    8.29    0.97   4
   2 -17   3    8.61    0.95   3
  -2 -17  -3    8.58    0.87   1
  -2 -17  -3    9.73    1.00   2
   2  17   3    8.27    1.04   4
  -3  17  -3    1.62    0.80   4
   3  17   3    1.60    0.82   4
  -3 -17  -3    2.30    0.82   2
   3 -17   3    0.98    0.74   3
  -3 -17  -3    1.90    0.77   1
   5 -18  -3   15.99    1.38   2
  -5 -18   3   14.29    1.39   2
  -5  18   3   15.23    1.28   3
   5  18  -3   14.83    1.39   1
  -5  18   3   16.49    1.39   4
  -4 -18   3   11.36    1.14   2
   4 -18  -3   10.61    1.15   2
   4  18  -3    9.50    1.10   1
  -4  18   3    9.81    1.05   4
  -4  18   3   11.10    1.04   3
  -3 -18   3   72.17    2.38   2
   3  18  -3   78.40    2.32   1
  -3  18   3   71.29    2.47   4
   3 -18  -3   74.36    2.52   2
   2  18  -3   11.61    0.95   1
  -2 -18   3   11.17    0.96   3
   2 -18  -3   12.31    1.14   2
  -2  18   3   10.59    1.04   4
  -2 -18   3    8.89    0.91   2
  -1 -18   3   31.44    1.38   3
   1  18  -3   34.20    1.44   1
   1 -18  -3   30.28    1.57   2
  -1  18   3   33.38    1.64   4
   1  18  -3   31.89    1.53   4
   0  18   3    0.06    0.64   4
   0 -18  -3    0.81    0.61   2
   0  18  -3    0.28    0.57   4
   0 -18   3    1.42    0.61   3
   1 -18   3   14.59    1.12   3
  -1 -18  -3   15.76    1.21   2
   1  18   3   17.80    1.36   4
  -1  18  -3   15.54    1.26   4
   2  18   3    7.95    1.09   4
  -2  18  -3   10.13    1.08   4
   2 -18   3   10.87    1.06   3
  -2 -18  -3   10.16    1.06   2
  -3  18  -3   36.04    1.85   4
  -3 -18  -3   34.02    1.78   2
   3  18   3   34.88    1.88   4
  -3 -18  -3   37.23    1.78   1
   3 -18   3   35.78    1.75   3
  -4  19   3   13.65    1.17   3
   4 -19  -3   13.45    1.34   2
  -4 -19   3   13.09    1.22   2
   4  19  -3   13.81    1.23   1
  -4  19   3   12.45    1.23   4
  -3 -19   3    3.00    0.78   2
   3 -19  -3    3.67    0.88   2
  -3  19   3    3.12    0.83   4
   3  19  -3    2.46    0.78   1
  -2  19   3    6.50    0.95   4
   2  19  -3    6.36    0.81   1
  -2 -19   3    5.91    0.82   2
   2 -19  -3    7.95    0.97   2
   1  19  -3    7.81    0.89   4
  -1 -19   3    7.98    0.86   3
   1 -19  -3    8.16    0.97   2
  -1  19   3    5.92    0.94   4
   0 -19   3   61.16    2.03   3
   0 -19  -3   60.27    2.21   2
   0  19   3   63.13    2.33   4
   0  19  -3   59.67    2.19   4
   1  19   3   24.07    1.54   4
  -1 -19  -3   22.88    1.43   2
  -1  19  -3   23.36    1.50   4
   1 -19   3   22.73    1.34   3
   2 -19   3    4.71    0.89   3
  -2  19  -3    3.32    0.86   4
  -2 -19  -3    4.02    0.87   2
   2  19   3    3.30    0.94   4
   3  19   3    2.02    0.71   1
   3  19   3    0.39    0.79   4
  -3  19  -3    0.51    0.73   4
   3  19   3    0.64    0.74   5
   3 -19   3   -0.17    0.72   3
  -3 -19  -3    0.08    0.71   2
  -4 -20   3   15.64    1.47   2
   4  20  -3   15.20    1.29   1
   4 -20  -3   14.84    1.43   2
  -4  20   3   13.50    1.31   4
  -3 -20   3   12.47    1.14   2
   3 -20  -3   12.79    1.22   2
  -3  20   3   12.49    1.22   4
   3  20  -3   11.71    1.11   1
   2  20  -3   -1.10    0.61   1
   2 -20  -3   -0.01    0.65   2
  -2  20   3   -0.60    0.66   4
   1  20  -3   -0.14    0.58   4
   1 -20  -3    0.19    0.65   2
  -1  20   3    0.45    0.70   4
  -1 -20   3   -0.18    0.61   3
   0 -20   3    4.74    0.85   3
   0  20  -3    4.93    0.88   4
   0 -20  -3    5.40    0.90   2
   0  20   3    4.82    0.94   4
  -1  20  -3    3.64    0.89   4
   1 -20   3    3.98    0.83   3
   1  20   3    3.95    0.95   4
  -1 -20  -3    3.53    0.84   2
   2 -20   3    3.28    0.86   3
   2  20   3    2.97    0.94   4
  -2  20  -3    2.61    0.83   4
  -2 -20  -3    2.16    0.86   2
   3 -21  -3    1.03    0.79   2
   3  21  -3    0.01    0.78   1
  -3 -21   3    1.27    0.74   2
  -3  21   3    0.40    0.77   4
   2 -21  -3    0.17    0.69   2
  -2  21   3    0.21    0.72   4
   1 -21  -3   19.89    1.41   2
   1  21  -3   20.86    1.42   4
  -1  21   3   20.20    1.51   4
   0 -21   3    9.32    1.06   3
   0 -21  -3    9.74    1.15   2
   0  21  -3    8.64    1.05   4
   0  21   3   11.53    1.20   4
   1  21   3    8.34    1.16   4
   1 -21   3   10.35    1.06   3
  -1 -21  -3    7.92    1.05   2
  -1  21  -3    8.07    1.07   4
  -3 -22   3    2.38    0.85   2
  -2  22   3   11.24    1.21   4
   2 -22  -3   11.03    1.19   2
  -1  22   3    0.47    0.80   4
   1 -22  -3   -0.22    0.71   2
   0 -22   3    1.57    0.82   3
   0  22   3    0.86    0.86   4
   0  22  -3    2.58    0.84   4
   0 -22  -3    2.65    0.91   2
   1 -22   3    2.68    0.87   3
  -1 -22  -3    3.04    0.92   2
  -1  22  -3    2.59    0.89   4
   1  22   3    1.83    0.97   4
  -8   0   4    3.80    0.88   3
   8   0  -4    3.13    0.89   2
  -7   0   4   -0.73    0.59   3
  -6   0   4  124.94    2.98   3
  -6   0   4  118.04    3.23   2
   6   0  -4  126.80    2.96   1
  -5   0   4   -0.17    0.42   3
  -5   0   4   -0.06    0.49   2
   5   0  -4   -0.62    0.44   1
   4   0  -4   14.63    0.85   1
  -4   0   4   12.26    0.90   2
  -4   0   4   14.21    0.83   3
  -3   0   4   -0.13    0.31   3
   3   0  -4   -0.10    0.30   1
   3   0  -4    0.26    0.33   2
  -2   0   4  457.42    8.50   4
  -2   0   4  456.16    8.04   3
   2   0  -4  454.38    8.46   2
   2   0  -4  462.61    8.10   1
   1   0  -4   -0.24    0.21   2
   1   0  -4   -0.03    0.28   1
  -1   0   4   -0.61    0.23   4
  -1   0   4    0.16    0.27   3
   0   0  -4    1.49    0.36   1
   0   0   4    0.76    0.32   3
   0   0   4    0.46    0.31   4
   1   0   4    0.21    0.34   3
  -1   0  -4    0.34    0.38   1
   1   0   4   -0.13    0.42   4
   2   0   4  240.46    5.20   4
  -2   0  -4  238.42    4.72   1
   2   0   4  234.62    4.54   3
  -3   0  -4   -0.39    0.43   1
   3   0   4   -0.10    0.48   4
   4   0   4  211.74    5.02   4
  -4   0  -4  204.03    4.52   1
  -5   0  -4    0.58    0.68   1
   5   0   4   -0.46    0.73   4
   8  -1  -4    0.68    0.79   2
   8   1  -4    0.77    0.77   2
  -8  -1   4    0.62    0.75   3
  -8   1   4   -0.37    0.69   3
  -7  -1   4    0.81    0.64   3
  -7   1   4    0.61    0.61   3
   7  -1  -4    1.08    0.71   2
  -7  -1   4    0.93    0.71   2
  -6  -1   4    1.48    0.64   2
   6   1  -4    0.37    0.53   1
  -6  -1   4    0.90    0.55   3
   6  -1  -4    0.92    0.62   2
  -6   1   4    1.19    0.56   3
   6  -1  -4    0.07    0.52   1
  -5   1   4   60.59    1.79   3
   5   1  -4   59.20    1.75   1
   5  -1  -4   57.99    1.68   1
  -5  -1   4   57.42    1.89   2
  -5  -1   4   59.76    1.73   3
   5  -1  -4   58.53    1.94   2
   4   1  -4   27.48    1.11   1
   4  -1  -4   28.99    1.05   1
  -4  -1   4   27.18    1.09   3
  -4   1   4   29.54    1.11   3
   4  -1  -4   24.18    1.23   2
  -4  -1   4   25.39    1.20   2
  -3  -1   4  152.72    3.25   2
   3  -1  -4  146.70    3.03   1
   3  -1  -4  151.95    3.27   2
  -3   1   4  153.44    3.09   3
   3   1  -4  151.31    3.09   1
  -3  -1   4  151.33    3.09   3
   2   1  -4  143.82    2.96   1
   2   1  -4  143.03    3.00   2
  -2   1   4  145.44    2.93   3
   2  -1  -4  147.99    3.05   2
   2  -1  -4  152.37    2.95   1
  -2   1   4  144.60    2.96   4
  -2  -1   4  146.14    2.96   3
  -2  -1   4  144.85    2.91   4
  -1  -1   4  267.28    4.93   3
   1   1  -4  265.46    4.97   1
   1   1  -4  266.06    5.00   2
  -1   1   4  268.00    4.88   3
   1  -1  -4  270.97    5.05   2
   1  -1  -4  266.66    4.95   1
  -1  -1   4  270.95    5.25   4
  -1   1   4  266.72    5.25   4
   0   1   4  114.09    2.35   3
   0   1  -4  110.53    2.41   1
   0   1  -4  110.76    2.54   4
   0  -1   4  114.25    2.40   3
   0   1   4  108.18    2.58   4
   0  -1  -4  108.33    2.24   2
   0  -1  -4  114.03    2.43   1
  -1   1  -4  760.44   13.19   1
   1  -1   4  749.02   13.00   3
   1   1   4  754.89   14.27   4
  -1   1  -4  769.79   14.24   4
  -1  -1  -4  753.91   13.20   1
   1   1   4  750.23   12.92   3
  -2   1  -4   16.22    0.96   1
  -2   1  -4   11.92    0.98   4
   2   1   4   11.96    1.04   4
   2   1   4   13.38    0.79   3
   2  -1   4   14.10    0.86   3
  -2  -1  -4   11.90    0.95   1
   3  -1   4   13.35    0.94   3
  -3   1  -4   12.41    0.99   1
  -3  -1  -4   13.79    0.99   1
   3   1   4   11.88    1.08   4
  -4   1  -4   15.01    1.13   1
  -4  -1  -4   12.06    1.05   1
   4  -1   4   13.05    1.23   4
   4   1   4   13.02    1.31   4
  -5   1  -4   25.75    1.44   1
  -5  -1  -4   27.21    1.49   1
   5  -1   4   27.12    1.73   4
   5   1   4   23.54    1.62   4
   7   2  -4   19.54    1.27   1
  -7  -2   4   18.82    1.27   3
   7  -2  -4   18.50    1.33   2
  -7  -2   4   17.97    1.33   2
  -7   2   4   18.52    1.29   3
  -6  -2   4   48.22    1.65   3
  -6   2   4   48.17    1.70   3
  -6  -2   4   46.89    1.83   2
   6  -2  -4   48.93    1.87   2
   6   2  -4   47.11    1.68   1
   5   2  -4   21.41    1.15   1
   5  -2  -4   24.07    1.25   2
  -5   2   4   23.93    1.14   3
   5  -2  -4   22.23    1.07   1
  -5  -2   4   23.96    1.24   2
  -5  -2   4   23.94    1.10   3
   4  -2  -4  109.84    2.77   2
  -4  -2   4  113.77    2.58   3
  -4   2   4  117.12    2.59   3
   4   2  -4  114.51    2.59   1
  -4  -2   4  111.44    2.76   2
   4  -2  -4  112.57    2.46   1
  -3  -2   4  114.02    2.46   3
  -3  -2   4  112.21    2.56   2
   3  -2  -4  113.02    2.39   1
   3   2  -4  111.24    2.46   1
  -3   2   4  112.90    2.46   3
   3  -2  -4  115.30    2.62   2
  -3   2   4  108.50    2.32   4
  -2  -2   4  312.03    5.90   4
   2  -2  -4  310.35    5.98   2
  -2  -2   4  324.08    5.94   2
  -2  -2   4  314.22    5.70   3
  -2   2   4  309.86    5.67   3
   2  -2  -4  314.90    5.68   1
   2   2  -4  309.93    5.75   1
  -2   2   4  312.01    5.98   4
   1   2  -4  341.35    6.17   1
   1  -2  -4  335.36    6.14   1
   1  -2  -4  344.04    6.35   2
   1   2  -4  340.71    6.49   4
  -1  -2   4  347.30    6.14   3
  -1   2   4  337.11    6.05   3
  -1   2   4  334.28    6.54   4
   1   2  -4  335.94    6.23   2
   0  -2  -4    6.22    0.49   2
   0   2   4    5.51    0.46   3
   0   2  -4    5.11    0.51   1
   0   2  -4    4.22    0.50   4
   0  -2  -4    5.73    0.52   1
   0  -2   4    6.64    0.53   3
   0   2   4    5.38    0.52   4
   1   2   4   -1.15    0.38   4
  -1   2  -4    0.52    0.35   1
   1   2   4    0.01    0.31   3
  -1   2  -4   -0.67    0.34   4
  -1  -2  -4    0.10    0.23   2
  -1  -2  -4   -0.32    0.36   1
   1  -2   4    0.24    0.32   3
  -2   2  -4   84.70    2.35   4
   2  -2   4   80.39    2.05   3
   2   2   4   86.43    2.41   4
  -2   2  -4   83.60    2.12   1
  -2  -2  -4   81.10    2.14   1
   2   2   4   82.46    1.94   3
   3   2   4   98.44    2.80   4
  -3   2  -4   94.90    2.74   4
   3  -2   4   96.77    2.42   3
  -3  -2  -4   95.77    2.51   1
  -3   2  -4  102.75    2.52   1
   4   2   4   26.02    1.56   4
  -4  -2  -4   27.25    1.41   1
  -4   2  -4   26.99    1.35   1
   5  -2   4    0.84    0.76   4
  -5   2  -4    0.41    0.68   1
  -5  -2  -4    1.96    0.76   1
   5   2   4   -0.03    0.73   4
  -7  -3   4   11.96    1.02   3
  -7  -3   4   10.34    1.10   2
   7  -3  -4   11.19    1.13   2
  -7   3   4   13.05    1.11   3
   7   3  -4   11.93    1.04   1
   6  -3  -4   31.14    1.55   2
  -6  -3   4   31.67    1.49   2
  -6   3   4   30.51    1.40   3
  -6  -3   4   33.68    1.37   3
   6   3  -4   31.56    1.40   1
   5  -3  -4    6.82    0.61   1
  -5   3   4    6.66    0.71   3
   5  -3  -4    5.72    0.73   2
  -5  -3   4    6.02    0.64   3
   5   3  -4    5.87    0.71   1
  -5  -3   4    6.05    0.74   2
   4  -3  -4  457.23    8.74   2
   4   3  -4  461.66    8.24   1
   4  -3  -4  451.07    8.03   1
  -4   3   4  446.45    8.14   3
  -4  -3   4  448.15    8.69   2
  -4  -3   4  449.39    8.12   3
  -3   3   4   12.72    0.75   3
   3   3  -4   14.42    0.83   1
  -3  -3   4   12.84    0.81   2
   3  -3  -4   14.89    0.78   1
   3  -3  -4   12.63    0.84   2
  -3  -3   4   14.54    0.84   3
  -3   3   4   14.06    0.68   4
   2   3  -4    0.97    0.35   1
  -2  -3   4    0.12    0.21   4
  -2   3   4    0.25    0.26   4
  -2   3   4    0.43    0.30   3
  -2  -3   4    0.27    0.28   2
   2  -3  -4    1.89    0.35   1
   2  -3  -4    0.03    0.31   2
  -1   3   4  171.02    3.55   4
   1  -3  -4  171.35    3.34   1
  -1   3   4  175.40    3.28   3
  -1  -3   4  172.11    3.39   3
   1  -3  -4  168.56    3.42   2
   1   3  -4  170.66    3.39   1
   1   3  -4  163.47    3.25   2
   1   3  -4  168.75    3.50   4
   0   3   4  234.73    4.27   3
   0  -3  -4  234.47    4.47   2
   0  -3   4  224.10    4.41   3
   0  -3  -4  235.13    4.44   1
   0   3  -4  231.77    4.74   4
   0   3  -4  233.77    4.45   1
   0   3   4  233.56    4.78   4
   1   3   4   44.47    1.24   3
  -1   3  -4   45.00    1.38   1
   1   3   4   44.79    1.54   4
   1  -3   4   45.08    1.37   3
  -1  -3  -4   42.38    1.17   2
  -1  -3  -4   43.69    1.39   1
  -1   3  -4   45.84    1.49   4
  -2   3  -4   35.41    1.46   4
  -2  -3  -4   36.17    1.36   1
  -2   3  -4   36.03    1.31   1
   2   3   4   35.85    1.49   4
   2  -3   4   37.43    1.29   3
   3  -3   4   21.67    1.20   3
  -3   3  -4   24.14    1.24   1
  -3  -3  -4   23.38    1.19   1
   3   3   4   22.36    1.37   4
  -3   3  -4   22.51    1.33   4
  -4   3  -4   32.34    1.43   1
  -4  -3  -4   28.73    1.45   1
   4   3   4   31.09    1.64   4
  -4   3  -4   28.63    1.54   4
  -5  -3  -4   22.39    1.46   1
   5   3   4   24.47    1.65   4
   5  -3   4   22.62    1.57   4
  -5   3  -4   22.33    1.42   1
  -7  -4   4   36.85    1.59   3
   7  -4  -4   35.94    1.77   2
   7   4  -4   35.86    1.63   1
  -7   4   4   37.76    1.67   3
  -7  -4   4   35.70    1.75   2
   6  -4  -4   10.53    1.01   2
  -6   4   4    8.47    0.85   3
  -6  -4   4    7.90    0.90   2
   6   4  -4    8.49    0.86   1
  -6  -4   4    7.55    0.78   3
  -5   4   4   40.64    1.47   3
  -5  -4   4   40.39    1.40   3
   5   4  -4   40.53    1.50   1
  -5  -4   4   40.41    1.59   2
   5  -4  -4   40.80    1.61   2
  -4  -4   4    0.50    0.46   3
  -4   4   4    0.61    0.47   3
   4  -4  -4    1.76    0.43   1
   4  -4  -4    0.03    0.49   2
  -4  -4   4    1.04    0.52   2
   4   4  -4    1.30    0.48   1
   3  -4  -4  173.93    3.34   1
  -3  -4   4  169.51    3.64   2
  -3   4   4  171.17    3.51   4
  -3  -4   4  179.35    3.48   3
   3  -4  -4  172.22    3.69   2
   3   4  -4  171.77    3.52   1
  -3   4   4  171.79    3.46   3
   2   4  -4  121.59    2.64   1
   2  -4  -4  122.81    2.51   1
  -2   4   4  125.57    2.56   3
   2  -4  -4  123.37    2.72   2
   2   4  -4  123.25    2.51   4
  -2  -4   4  123.81    2.61   2
  -2  -4   4  123.37    2.63   3
  -2   4   4  122.44    2.65   4
   1   4  -4  522.50    9.13   1
   1   4  -4  513.56    9.68   4
   1  -4  -4  506.02    9.50   2
  -1   4   4  507.47    8.92   3
   1  -4  -4  514.58    9.06   1
  -1  -4   4  521.20    9.07   3
  -1   4   4  525.41    9.76   4
   0  -4   4    6.18    0.56   3
   0   4   4    6.45    0.45   3
   0   4  -4    3.88    0.52   4
   0  -4  -4    8.29    0.61   2
   0   4  -4    5.68    0.53   1
   0  -4  -4    5.66    0.52   1
   0   4   4    6.21    0.56   4
   1   4   4  136.35    2.71   3
  -1   4  -4  138.03    2.95   1
  -1  -4  -4  133.47    2.84   2
   1   4   4  138.27    3.24   4
  -1   4  -4  134.90    3.19   4
   1  -4   4  140.19    2.97   3
  -1  -4  -4  141.44    2.99   1
   2  -4   4   10.81    0.84   3
  -2  -4  -4    9.11    0.75   2
   2   4   4    9.16    0.83   4
  -2  -4  -4    9.72    0.88   1
  -2   4  -4    7.87    0.82   4
  -2   4  -4    9.89    0.76   1
  -3   4  -4  245.78    5.45   4
  -3   4  -4  244.62    4.91   1
   3  -4   4  242.75    4.93   3
   3   4   4  238.56    5.45   4
   4   4   4   -0.67    0.66   4
  -4   4  -4    0.77    0.60   1
   4  -4   4   -0.21    0.59   3
  -4   4  -4   -0.03    0.64   4
  -4  -4  -4   -0.16    0.59   1
   5   4   4   23.64    1.63   4
  -5   4  -4   21.70    1.47   4
  -5   4  -4   22.72    1.44   1
  -5  -4  -4   24.39    1.51   1
  -7   5   4   -0.42    0.63   3
  -7  -5   4    0.04    0.66   2
   7   5  -4    0.42    0.66   1
   7  -5  -4   -0.07    0.71   2
  -7  -5   4   -0.24    0.59   3
  -6  -5   4   20.21    1.31   2
  -6   5   4   21.88    1.21   3
   6   5  -4   20.95    1.22   1
  -6  -5   4   22.09    1.18   3
   6  -5  -4   18.84    1.32   2
  -5  -5   4   32.95    1.46   2
  -5   5   4   34.90    1.38   3
  -5  -5   4   34.70    1.29   3
   5   5  -4   33.18    1.39   1
   5  -5  -4   32.76    1.48   2
   4   5  -4   49.16    1.58   1
   4  -5  -4   49.36    1.35   1
  -4   5   4   47.50    1.52   3
  -4  -5   4   46.92    1.50   3
  -4  -5   4   46.12    1.62   2
   4  -5  -4   47.23    1.66   2
  -4   5   4   47.61    1.35   4
  -3   5   4    0.47    0.37   3
  -3   5   4    1.19    0.34   4
  -3  -5   4   -0.55    0.36   2
  -3  -5   4    0.35    0.37   3
   3  -5  -4    0.38    0.39   2
   3  -5  -4    0.14    0.30   1
   3   5  -4   -0.54    0.38   1
  -2  -5   4   23.84    1.02   3
  -2  -5   4   25.51    0.92   2
   2   5  -4   24.38    0.79   4
  -2   5   4   22.70    0.93   4
   2  -5  -4   24.15    0.89   1
   2  -5  -4   23.58    1.00   2
   2   5  -4   25.30    1.03   1
  -2   5   4   22.94    0.90   3
  -1  -5   4  468.90    8.55   2
   1  -5  -4  467.41    8.34   1
  -1  -5   4  485.73    8.39   3
   1   5  -4  470.73    8.41   1
  -1   5   4  463.53    8.19   3
   1  -5  -4  468.53    8.79   2
   1   5  -4  481.41    8.93   4
  -1   5   4  469.35    9.00   4
   0   5  -4  529.74    9.45   1
   0   5   4  536.99    9.17   3
   0   5   4  541.33   10.24   4
   0  -5  -4  527.98    9.85   2
   0   5  -4  538.89   10.18   4
   0  -5   4  532.86    9.44   3
   0  -5  -4  533.00    9.45   1
  -1  -5  -4   10.63    0.81   1
  -1   5  -4    8.40    0.84   4
  -1  -5  -4    8.74    0.66   2
  -1   5  -4    9.27    0.77   1
   1  -5   4    9.19    0.81   3
   1   5   4    9.00    0.83   4
  -2  -5  -4  193.39    4.04   1
  -2   5  -4  194.73    3.96   1
   2  -5   4  189.62    3.98   3
   2   5   4  193.96    4.39   4
  -2   5  -4  194.65    4.38   4
  -2  -5  -4  188.72    3.95   2
  -3   5  -4    1.56    0.61   4
   3   5   4    0.17    0.60   4
  -3  -5  -4    1.57    0.56   1
  -3   5  -4    2.09    0.56   1
   3  -5   4    1.15    0.55   3
  -4   5  -4   80.47    2.29   1
  -4   5  -4   78.85    2.62   4
  -4  -5  -4   75.84    2.37   1
   4  -5   4   84.11    2.44   3
   4   5   4   78.76    2.63   4
   5   5   4    0.34    0.77   4
  -5   5  -4    0.37    0.71   4
  -5   5  -4   -0.10    0.67   1
  -5  -5  -4   -0.15    0.74   1
  -7   6   4   10.60    1.04   3
  -7  -6   4   10.18    1.11   2
  -7  -6   4   11.40    0.98   3
   7   6  -4   10.32    1.04   1
   7  -6  -4   12.38    1.17   2
  -6  -6   4   11.02    1.04   2
  -6  -6   4   11.43    1.00   3
   6  -6  -4   11.02    1.02   2
  -6   6   4   11.78    1.03   3
   6   6  -4   11.60    1.06   1
  -5   6   4   40.65    1.49   3
   5   6  -4   39.29    1.52   1
  -5  -6   4   38.89    1.38   3
  -5  -6   4   38.79    1.58   2
   5  -6  -4   37.54    1.58   2
  -4  -6   4  249.26    5.28   2
   4  -6  -4  254.04    5.34   2
  -4  -6   4  260.57    4.92   3
  -4   6   4  253.98    5.08   4
  -4   6   4  255.82    4.98   3
   4   6  -4  256.91    5.06   1
  -3  -6   4  370.82    7.05   2
   3   6  -4  370.65    6.78   1
   3  -6  -4  364.50    7.12   2
  -3   6   4  354.49    7.02   4
  -3   6   4  364.66    6.65   3
  -3  -6   4  362.66    6.64   3
   3  -6  -4  360.84    6.47   1
  -2   6   4    7.33    0.54   3
  -2   6   4    6.07    0.52   4
  -2  -6   4    7.06    0.51   2
  -2  -6   4    7.26    0.59   3
   2  -6  -4    6.93    0.60   2
   2   6  -4    6.75    0.59   1
   2  -6  -4    6.95    0.61   1
   2   6  -4    6.23    0.51   4
  -1  -6   4   69.76    1.77   3
  -1   6   4   68.57    1.59   3
   1  -6  -4   69.26    1.80   2
  -1  -6   4   65.95    1.54   2
   1  -6  -4   66.56    1.65   1
   1   6  -4   70.08    1.74   4
   1   6  -4   70.19    1.76   1
  -1   6   4   67.89    1.83   4
   0   6   4   84.51    2.21   4
   0   6   4   83.30    1.79   3
   0  -6  -4   83.15    2.03   2
   0   6  -4   85.20    2.17   4
   0   6  -4   84.93    2.02   1
   0  -6   4   86.98    2.08   3
   0  -6  -4   83.25    2.01   1
  -1  -6  -4  107.15    2.47   2
  -1   6  -4  107.84    2.73   4
  -1   6  -4  110.92    2.48   1
   1   6   4  107.91    2.74   4
   1  -6   4  111.18    2.56   3
  -1  -6  -4  105.42    2.50   1
   2   6   4   43.01    1.62   4
   2  -6   4   43.22    1.52   3
  -2  -6  -4   44.35    1.42   2
  -2   6  -4   44.22    1.44   1
  -2   6  -4   43.13    1.66   4
  -2  -6  -4   43.16    1.51   1
  -3  -6  -4   42.16    1.60   1
  -3   6  -4   45.61    1.58   1
   3   6   4   40.31    1.73   4
   3  -6   4   41.53    1.61   3
  -3   6  -4   43.22    1.73   4
  -4   6  -4   12.18    1.07   1
  -4   6  -4   10.52    1.08   4
   4  -6   4   12.83    1.20   3
  -4  -6  -4   13.66    1.15   1
   4   6   4   11.95    1.16   4
  -5   6  -4   -0.44    0.74   4
   5   6   4    0.97    0.76   4
  -5  -6  -4    0.55    0.76   1
   7  -7  -4   10.32    1.11   2
  -7  -7   4    8.88    1.07   2
  -7   7   4   10.76    1.06   3
   7   7  -4   10.69    1.07   1
   6   7  -4   12.56    1.12   1
   6  -7  -4   12.60    1.15   2
  -6  -7   4   11.77    1.08   2
  -6  -7   4   14.33    1.08   3
  -6   7   4   12.93    1.09   3
  -5  -7   4   54.56    1.67   3
   5  -7  -4   54.78    1.93   2
  -5   7   4   55.86    1.79   3
   5   7  -4   54.97    1.82   1
  -5  -7   4   53.78    1.90   2
  -4   7   4    5.77    0.67   3
  -4   7   4    5.04    0.56   4
  -4  -7   4    5.78    0.68   2
   4  -7  -4    4.98    0.69   2
  -4  -7   4    5.14    0.61   3
   4   7  -4    5.15    0.67   1
  -3   7   4  641.72   11.21   3
   3  -7  -4  646.08   12.03   2
  -3   7   4  636.79   12.06   4
  -3  -7   4  642.55   11.90   2
   3   7  -4  638.18   11.40   1
   3  -7  -4  639.30   11.06   1
  -3  -7   4  651.23   11.21   3
   2   7  -4    1.59    0.44   1
   2   7  -4    1.38    0.31   4
  -2   7   4    2.48    0.44   4
   2  -7  -4    1.93    0.44   2
  -2  -7   4    1.35    0.38   2
  -2  -7   4    1.94    0.43   3
   2  -7  -4    1.65    0.35   1
  -2   7   4    1.51    0.38   3
   1   7  -4   97.21    2.24   1
   1  -7  -4   96.27    2.12   1
   1   7  -4   98.24    2.26   4
  -1  -7   4   94.58    2.24   3
  -1   7   4   97.28    2.38   4
  -1   7   4   96.15    2.05   3
   1  -7  -4   98.83    2.34   2
   0   7   4  431.42    7.55   3
   0   7   4  445.98    8.56   4
   0  -7   4  432.20    7.91   3
   0  -7  -4  432.64    7.85   1
   0   7  -4  438.45    7.88   1
   0   7  -4  444.94    8.50   4
   0  -7  -4  432.95    8.26   2
  -1  -7  -4   71.31    1.93   1
  -1   7  -4   73.71    1.89   1
   1   7   4   74.84    2.15   4
   1  -7   4   73.70    1.99   3
  -1   7  -4   72.10    2.10   4
  -1  -7  -4   74.84    1.92   2
  -2  -7  -4   21.73    1.02   2
  -2   7  -4   22.47    1.06   1
   2  -7   4   22.34    1.17   3
  -2   7  -4   20.57    1.22   4
  -2  -7  -4   21.97    1.09   1
   2   7   4   21.49    1.20   4
   3  -7   4    0.73    0.54   3
  -3   7  -4   -0.18    0.53   4
  -3   7  -4    0.67    0.50   1
   3   7   4   -0.48    0.53   4
  -3  -7  -4   -0.14    0.50   1
  -4  -7  -4   59.26    2.07   1
  -4   7  -4   54.33    2.17   4
   4   7   4   53.60    2.17   4
  -4   7  -4   61.10    1.94   1
   4  -7   4   58.41    2.08   3
  -5   7  -4   17.07    1.46   4
  -5  -7  -4   20.25    1.47   1
   5   7   4   18.70    1.47   4
   7   8  -4    0.98    0.74   1
  -7  -8   4    2.36    0.82   2
  -7   8   4    1.67    0.74   3
   7  -8  -4    1.47    0.78   2
   6   8  -4   46.98    1.80   1
  -6  -8   4   50.36    1.70   3
  -6   8   4   48.60    1.80   3
  -6  -8   4   45.17    1.88   2
   6  -8  -4   46.76    1.89   2
  -5  -8   4   29.20    1.26   3
   5  -8  -4   29.56    1.48   2
  -5   8   4   29.78    1.34   3
  -5  -8   4   29.92    1.46   2
   5   8  -4   30.34    1.40   1
   4  -8  -4   57.44    1.87   2
  -4  -8   4   57.99    1.64   3
   4   8  -4   54.42    1.75   1
  -4  -8   4   57.78    1.82   2
  -4   8   4   53.07    1.69   3
  -4   8   4   54.74    1.67   4
   3   8  -4  185.30    3.87   1
  -3  -8   4  186.65    3.95   2
  -3  -8   4  185.83    3.74   3
   3  -8  -4  180.31    4.05   2
  -3   8   4  184.77    3.98   4
  -3   8   4  180.97    3.75   3
  -2   8   4  267.65    5.52   4
   2  -8  -4  270.90    4.96   1
   2  -8  -4  271.95    5.51   2
   2   8  -4  274.39    5.23   1
  -2  -8   4  268.53    5.31   2
   2   8  -4  268.24    5.30   4
  -2   8   4  275.27    5.07   3
  -2  -8   4  277.21    5.18   3
  -1   8   4   13.62    0.88   4
   1  -8  -4   14.52    0.80   1
   1   8  -4   12.75    0.78   4
  -1  -8   4   13.90    0.84   3
  -1   8   4   13.75    0.69   3
   1  -8  -4   12.91    0.87   2
   1   8  -4   13.05    0.91   1
   0   8  -4   30.70    1.22   4
   0  -8  -4   32.28    1.20   2
   0   8   4   30.57    1.30   4
   0  -8   4   34.70    1.26   3
   0   8  -4   32.08    1.17   1
   0  -8  -4   31.43    1.16   1
  -1  -8  -4    1.71    0.48   2
  -1   8  -4   -0.44    0.45   4
  -1  -8  -4    0.47    0.43   1
   1  -8   4    0.90    0.45   3
   1   8   4    0.47    0.47   4
  -1   8  -4    0.40    0.42   1
  -2   8  -4  113.38    2.63   1
   2   8   4  113.10    2.99   4
  -2   8  -4  111.13    2.98   4
  -2  -8  -4  107.62    2.70   1
   2  -8   4  113.67    2.80   3
  -2  -8  -4  115.41    2.73   2
  -3   8  -4   11.33    1.08   4
   3   8   4   10.87    1.05   4
   3  -8   4   12.72    1.07   3
  -3  -8  -4   10.87    1.01   1
  -3   8  -4   13.76    1.06   1
   4   8   4   55.75    2.20   4
  -4   8  -4   56.51    2.20   4
  -4  -8  -4   56.88    2.08   1
   4  -8   4   62.55    2.14   3
  -7   9   4    0.33    0.66   3
  -7  -9   4    0.17    0.72   2
   7   9  -4    0.30    0.73   1
   7  -9  -4    0.33    0.72   2
   6  -9  -4    6.26    0.90   2
  -6  -9   4    6.13    0.76   3
  -6   9   4    5.72    0.85   3
   6   9  -4    5.31    0.85   1
  -6  -9   4    7.22    0.93   2
  -5  -9   4   86.85    2.54   2
  -5  -9   4   89.72    2.26   3
  -5   9   4   91.54    2.44   3
   5  -9  -4   86.85    2.59   2
   5   9  -4   85.22    2.43   1
   4  -9  -4   12.35    1.03   2
   4   9  -4   14.22    1.03   1
  -4  -9   4   14.70    0.90   3
  -4   9   4   13.43    0.95   4
  -4  -9   4   13.83    1.04   2
  -4   9   4   12.60    0.99   3
   3  -9  -4    9.91    0.99   2
  -3   9   4    9.47    0.77   4
  -3  -9   4   11.01    0.93   2
  -3  -9   4   10.97    0.89   3
  -3   9   4    9.60    0.78   3
   3   9  -4   10.97    0.99   1
   2  -9  -4  472.60    8.31   1
  -2   9   4  460.06    8.37   3
  -2  -9   4  474.79    8.87   2
   2  -9  -4  475.44    9.11   2
  -2  -9   4  489.01    8.53   3
  -2   9   4  472.16    9.20   4
   2   9  -4  475.02    8.62   1
   1  -9  -4   43.42    1.28   1
  -1  -9   4   46.94    1.47   3
  -1   9   4   45.07    1.24   3
   1   9  -4   43.43    1.45   1
  -1   9   4   43.58    1.49   4
   1  -9  -4   45.32    1.52   2
   1   9  -4   45.51    1.39   4
   0   9  -4    0.06    0.35   4
   0   9  -4    1.08    0.41   1
   0  -9   4    0.13    0.41   3
   0  -9  -4   -0.11    0.34   1
   0  -9  -4    0.39    0.39   2
   0   9   4    1.05    0.48   4
   1   9   4  335.25    6.81   4
   1  -9   4  328.03    6.29   3
  -1   9  -4  332.06    6.77   4
  -1  -9  -4  326.05    6.22   1
  -1  -9  -4  315.17    6.49   2
  -1   9  -4  330.14    6.15   1
   2   9   4    3.27    0.67   4
  -2  -9  -4    2.74    0.59   1
  -2  -9  -4    2.44    0.54   2
   2  -9   4    3.17    0.66   3
  -2   9  -4    2.63    0.55   1
  -2   9  -4    2.76    0.65   4
  -3   9  -4    4.57    0.69   1
   3  -9   4    4.31    0.79   3
  -3  -9  -4    4.99    0.76   1
  -3  -9  -4    4.80    0.71   2
  -3   9  -4    2.29    0.72   4
   3   9   4    4.71    0.79   4
  -4  -9  -4    6.03    0.93   1
   4   9   4    5.46    0.94   4
   4  -9   4    7.97    0.97   3
  -4   9  -4    6.07    0.94   4
  -7 -10   4    0.81    0.77   2
   7  10  -4    0.89    0.75   1
  -7  10   4    0.78    0.71   3
   7 -10  -4    1.45    0.79   2
  -6  10   4    6.41    0.90   3
  -6 -10   4    6.27    0.92   2
   6  10  -4    7.24    0.93   1
   6 -10  -4    6.68    0.94   2
  -5 -10   4    7.92    0.89   2
  -5 -10   4    8.38    0.75   3
   5  10  -4    8.01    0.85   1
   5 -10  -4    7.90    0.91   2
  -5  10   4    8.69    0.87   3
  -4 -10   4    0.37    0.53   2
  -4 -10   4    2.15    0.48   3
  -4  10   4    0.93    0.48   4
   4 -10  -4    0.84    0.57   2
   4  10  -4    1.31    0.57   1
  -4  10   4    0.82    0.52   3
  -3  10   4    4.45    0.65   4
  -3  10   4    4.11    0.63   3
  -3 -10   4    6.01    0.64   2
  -3 -10   4    4.85    0.60   3
   3  10  -4    4.83    0.66   1
   3 -10  -4    4.87    0.70   2
  -2 -10   4  494.59    9.33   2
  -2 -10   4  506.06    8.95   3
   2 -10  -4  491.95    9.60   2
  -2  10   4  506.13    9.72   4
  -2  10   4  493.01    8.83   3
   2  10  -4  504.58    9.07   1
   1 -10  -4   44.18    1.32   1
   1  10  -4   48.37    1.52   1
  -1 -10   4   48.15    1.51   3
  -1  10   4   47.07    1.60   4
   1 -10  -4   44.82    1.60   2
   1  10  -4   45.82    1.46   4
  -1  10   4   46.98    1.30   3
   0  10  -4   25.07    1.13   4
   0 -10  -4   26.32    1.04   1
   0 -10  -4   27.46    1.18   2
   0  10   4   25.88    1.25   4
   0 -10   4   26.60    1.20   3
   0  10  -4   27.37    1.10   1
  -1  10  -4   22.37    1.07   1
  -1 -10  -4   19.15    1.06   1
  -1 -10  -4   20.27    1.08   2
   1  10   4   22.37    1.26   4
   1 -10   4   22.22    1.20   3
  -1  10  -4   21.03    1.17   4
  -2  10  -4   59.48    2.05   4
  -2 -10  -4   60.05    1.88   2
   2  10   4   61.26    2.07   4
  -2 -10  -4   62.17    1.90   1
  -2  10  -4   62.44    1.78   1
   2 -10   4   59.87    1.97   3
  -3 -10  -4   32.89    1.49   1
   3 -10   4   31.29    1.54   3
  -3 -10  -4   34.78    1.56   2
  -3  10  -4   31.11    1.61   4
  -3  10  -4   33.65    1.47   1
   3  10   4   34.90    1.65   4
  -4  10  -4    6.59    0.97   4
  -4 -10  -4    6.31    0.97   1
   4  10   4    5.14    0.95   4
   4 -10   4    6.42    0.92   3
   7  11  -4    2.48    0.86   1
   7 -11  -4    2.50    0.84   2
  -7  11   4    2.60    0.83   3
  -7 -11   4    2.38    0.89   2
  -6 -11   4   14.65    1.31   2
   6 -11  -4   14.32    1.22   2
   6  11  -4   14.86    1.21   1
  -6  11   4   14.40    1.16   3
   5  11  -4   33.36    1.50   1
   5 -11  -4   29.67    1.51   2
  -5 -11   4   29.57    1.51   2
  -5  11   4   34.12    1.48   3
  -5 -11   4   32.39    1.30   3
   4  11  -4   98.21    2.60   1
   4 -11  -4   98.44    2.74   2
  -4 -11   4   98.89    2.38   3
  -4  11   4   95.76    2.52   3
  -4 -11   4   98.18    2.65   2
  -4  11   4   98.45    2.61   4
  -3  11   4   41.72    1.53   4
   3  11  -4   39.54    1.52   1
   3 -11  -4   41.66    1.60   2
  -3  11   4   40.04    1.40   3
  -3 -11   4   42.03    1.51   2
  -3 -11   4   40.64    1.40   3
  -2 -11   4    0.86    0.45   3
   2 -11  -4   -0.53    0.51   2
  -2  11   4    0.33    0.48   4
   2  11  -4    0.51    0.49   1
  -2  11   4   -0.34    0.38   3
  -2 -11   4    0.87    0.41   2
  -1  11   4   45.59    1.61   4
   1  11  -4   43.39    1.47   1
   1  11  -4   43.66    1.46   4
   1 -11  -4   42.95    1.27   1
  -1 -11   4   45.34    1.49   3
   1 -11  -4   42.56    1.58   2
   0 -11  -4   38.23    1.26   1
   0  11  -4   38.92    1.42   4
   0  11   4   36.38    1.50   4
   0  11  -4   38.78    1.32   1
   0 -11   4   39.45    1.46   3
   0 -11  -4   38.65    1.43   2
  -1 -11  -4  204.34    4.23   1
  -1 -11  -4  199.45    4.45   2
   1  11   4  211.52    4.70   4
  -1  11  -4  204.16    4.61   4
   1 -11   4  203.73    4.33   3
  -1  11  -4  204.77    4.13   1
   2 -11   4    8.36    0.86   3
  -2  11  -4    8.15    0.85   4
  -2 -11  -4    7.73    0.78   2
   2  11   4    6.36    0.85   4
  -2 -11  -4    9.71    0.86   1
  -2  11  -4    7.48    0.70   1
  -3 -11  -4    4.25    0.75   2
  -3  11  -4    3.70    0.82   4
  -3 -11  -4    5.01    0.83   1
   3  11   4    2.74    0.81   4
   3 -11   4    3.40    0.81   3
   4  11   4    0.16    0.71   4
   4 -11   4    0.66    0.69   3
  -4  11  -4    0.22    0.67   4
  -4 -11  -4   -0.57    0.69   1
   6  12  -4   10.64    1.08   1
   6 -12  -4   11.00    1.12   2
  -6 -12   4   11.18    1.11   2
  -6  12   4   10.08    1.03   3
  -5 -12   4    3.76    0.77   2
  -5  12   4    4.88    0.79   3
   5 -12  -4    4.95    0.83   2
  -5 -12   4    5.40    0.65   3
   5  12  -4    3.73    0.78   1
  -4 -12   4    7.81    0.82   2
   4  12  -4    6.02    0.82   1
  -4  12   4    7.00    0.82   3
  -4 -12   4    7.96    0.71   3
   4 -12  -4    5.89    0.85   2
  -4  12   4    6.28    0.79   4
  -3 -12   4   99.93    2.56   2
  -3  12   4   96.68    2.64   4
  -3 -12   4   97.27    2.40   3
   3 -12  -4   96.15    2.70   2
  -3  12   4   97.97    2.42   3
   3  12  -4  101.62    2.55   1
  -2  12   4   58.27    1.95   4
  -2 -12   4   58.13    1.70   2
  -2  12   4   56.41    1.60   3
  -2 -12   4   59.26    1.74   3
   2 -12  -4   61.47    1.97   2
   2  12  -4   57.69    1.80   1
   1  12  -4  112.01    2.64   1
  -1  12   4  110.78    2.90   4
   1 -12  -4  114.20    2.90   2
  -1 -12   4  113.05    2.69   3
   1  12  -4  108.49    2.73   4
   0  12   4    6.50    0.77   4
   0 -12  -4    7.09    0.64   1
   0 -12  -4    6.10    0.71   2
   0  12  -4    6.61    0.69   4
   0 -12   4    6.13    0.73   3
   0  12  -4    6.28    0.64   1
  -1  12  -4    0.97    0.50   4
  -1 -12  -4    0.50    0.49   2
   1  12   4    1.23    0.56   4
  -1 -12  -4    1.16    0.50   1
  -1  12  -4    1.33    0.49   1
   1 -12   4    0.89    0.53   3
   2  12   4   39.78    1.75   4
   2 -12   4   37.31    1.60   3
  -2 -12  -4   39.04    1.56   1
  -2  12  -4   39.13    1.69   4
  -2 -12  -4   40.44    1.59   2
  -2  12  -4   42.62    1.46   1
  -3 -12  -4   89.32    2.60   1
   3  12   4   94.05    2.89   4
   3 -12   4   90.10    2.70   3
  -3 -12  -4   98.37    2.73   2
  -3  12  -4   83.27    2.80   4
  -4 -12  -4    8.33    1.06   1
   4  12   4    6.51    1.04   4
  -4  12  -4    7.02    1.03   4
   4 -12   4    9.73    1.10   3
  -6 -13   4   21.67    1.51   2
   6 -13  -4   19.64    1.41   2
  -6  13   4   19.82    1.36   3
   6  13  -4   19.05    1.35   1
  -5  13   4    2.28    0.70   3
   5 -13  -4    2.25    0.75   2
  -5  13   4    2.55    0.64   4
   5  13  -4    2.73    0.75   1
  -5 -13   4    2.89    0.76   2
  -4 -13   4   34.14    1.54   2
   4  13  -4   30.96    1.49   1
  -4 -13   4   33.91    1.34   3
  -4  13   4   33.82    1.45   3
   4 -13  -4   32.64    1.57   2
  -4  13   4   34.91    1.52   4
  -3 -13   4   62.26    1.83   3
   3  13  -4   62.62    1.97   1
   3 -13  -4   60.04    2.07   2
  -3  13   4   61.42    2.03   4
  -3  13   4   60.59    1.86   3
  -3 -13   4   60.13    1.93   2
  -2 -13   4    3.27    0.60   3
  -2  13   4    2.69    0.68   4
   2 -13  -4    2.44    0.65   2
   2  13  -4    2.40    0.62   1
  -2  13   4    2.63    0.53   3
   1 -13  -4    4.56    0.71   2
  -1 -13   4    5.78    0.70   3
   1  13  -4    4.75    0.64   1
   1  13  -4    3.69    0.61   4
  -1  13   4    4.76    0.73   4
   0 -13   4  122.06    3.00   3
   0  13  -4  121.32    3.11   4
   0  13  -4  128.12    2.84   1
   0 -13  -4  125.02    2.82   1
   0 -13  -4  127.15    3.16   2
   0  13   4  127.94    3.26   4
  -1  13  -4    1.53    0.49   1
  -1 -13  -4    1.44    0.55   1
   1 -13   4    0.98    0.56   3
  -1 -13  -4    0.86    0.59   2
   1  13   4    1.68    0.63   4
  -1  13  -4    1.57    0.56   4
  -2  13  -4    6.96    0.87   4
  -2 -13  -4    7.22    0.83   1
   2  13   4    6.09    0.88   4
   2 -13   4    7.34    0.90   3
  -2 -13  -4    8.20    0.86   2
   3 -13   4    3.53    0.86   3
  -3  13  -4    3.50    0.88   4
   3  13   4    4.51    0.91   4
  -3 -13  -4    4.58    0.86   1
  -3 -13  -4    5.59    0.88   2
   4 -13   4   17.30    1.43   3
  -4  13  -4   17.43    1.41   4
   4  13   4   20.98    1.62   4
  -4 -13  -4   16.13    1.32   1
  -6  14   4    3.00    0.86   3
   6  14  -4    2.87    0.85   1
   6 -14  -4    3.29    0.88   2
  -6 -14   4    2.55    0.80   2
  -5  14   4    4.91    0.84   3
  -5  14   4    4.97    0.77   4
  -5 -14   4    3.54    0.82   2
   5 -14  -4    4.30    0.87   2
   5  14  -4    3.90    0.85   1
  -4  14   4    1.10    0.62   4
  -4 -14   4    0.79    0.59   2
  -4  14   4    0.95    0.59   3
   4  14  -4    1.70    0.69   1
  -4 -14   4    0.97    0.52   3
   4 -14  -4    0.90    0.66   2
   3 -14  -4  121.36    3.28   2
  -3 -14   4  123.72    2.88   3
  -3 -14   4  126.84    3.10   2
  -3  14   4  125.25    3.24   4
   3  14  -4  121.04    3.03   1
  -3  14   4  126.68    2.94   3
   2 -14  -4    0.70    0.63   2
   2  14  -4    0.53    0.57   1
  -2 -14   4    1.05    0.52   3
  -2  14   4    0.98    0.62   4
   1 -14  -4   42.68    1.70   2
  -1  14   4   41.11    1.72   4
   1  14  -4   41.29    1.55   4
   1  14  -4   43.25    1.55   1
  -1 -14   4   42.65    1.55   3
   0 -14   4    4.63    0.74   3
   0  14  -4    5.62    0.65   1
   0 -14  -4    4.72    0.75   2
   0  14   4    5.12    0.77   4
   0  14  -4    5.16    0.72   4
  -1  14  -4   13.23    1.04   4
  -1  14  -4   16.37    0.99   1
   1  14   4   13.66    1.17   4
  -1 -14  -4   14.04    1.08   2
   1 -14   4   15.28    1.08   3
  -1 -14  -4   13.83    1.02   1
  -2 -14  -4   13.36    1.11   2
   2  14   4   12.57    1.21   4
  -2  14  -4   12.86    1.14   4
  -2 -14  -4   12.69    1.08   1
   2 -14   4   12.20    1.14   3
   3 -14   4   24.97    1.49   3
  -3  14  -4   21.72    1.55   4
  -3 -14  -4   21.11    1.35   1
  -3 -14  -4   24.81    1.55   2
   3  14   4   24.64    1.59   4
  -6  15   4    8.04    1.05   3
   6 -15  -4    6.32    1.03   2
  -6 -15   4    5.19    1.01   2
   6  15  -4    7.25    1.06   1
  -5  15   4   20.47    1.33   3
  -5 -15   4   20.97    1.47   2
   5 -15  -4   22.05    1.45   2
   5  15  -4   21.02    1.41   1
  -5  15   4   23.13    1.34   4
  -4  15   4   11.09    1.11   4
   4 -15  -4   11.19    1.12   2
   4  15  -4   11.49    1.04   1
  -4  15   4   11.86    1.05   3
  -4 -15   4   11.43    1.14   2
  -3  15   4    0.68    0.61   4
  -3  15   4   -0.81    0.51   3
   3 -15  -4    0.07    0.61   2
   3  15  -4    0.20    0.58   1
  -3 -15   4    0.53    0.51   3
  -3 -15   4    0.87    0.55   2
   2  15  -4    0.25    0.54   1
  -2 -15   4    1.09    0.53   3
   2 -15  -4    0.60    0.62   2
  -2  15   4    0.44    0.60   4
   1 -15  -4    7.06    0.84   2
  -1  15   4    6.55    0.87   4
   1  15  -4    6.82    0.74   4
  -1 -15   4    7.90    0.83   3
   1  15  -4    8.11    0.78   1
   0 -15   4   88.04    2.45   3
   0  15  -4   88.09    2.25   1
   0  15   4   89.14    2.67   4
   0 -15  -4   85.35    2.56   2
   0  15  -4   84.81    2.53   4
  -1  15  -4    7.32    0.84   4
   1 -15   4    7.97    0.89   3
  -1 -15  -4    7.44    0.78   1
   1  15   4    9.22    0.98   4
  -1 -15  -4    7.20    0.87   2
   2 -15   4   10.63    1.06   3
  -2 -15  -4   10.76    0.99   1
  -2 -15  -4   12.33    1.12   2
   2  15   4    8.85    1.04   4
  -2  15  -4    9.76    1.02   4
  -3 -15  -4   17.12    1.44   2
   3  15   4   18.17    1.46   4
   3 -15   4   16.60    1.34   3
  -3 -15  -4   17.80    1.31   1
  -3  15  -4   17.46    1.47   4
  -5 -16   4    8.24    1.05   2
  -5  16   4    8.48    0.97   4
   5  16  -4    7.23    1.04   1
  -5  16   4    9.40    1.05   3
   5 -16  -4    7.92    1.07   2
   4 -16  -4    0.65    0.69   2
  -4  16   4    0.14    0.64   4
   4  16  -4   -0.60    0.63   1
  -4  16   4    0.28    0.60   3
  -4 -16   4   -0.38    0.59   2
  -3  16   4    4.85    0.82   4
   3  16  -4    7.61    0.90   1
   3 -16  -4    5.53    0.87   2
  -3 -16   4    5.92    0.78   2
  -3 -16   4    5.44    0.71   3
   2 -16  -4   42.68    1.82   2
  -2  16   4   44.09    1.81   4
  -2 -16   4   40.92    1.53   3
   2  16  -4   43.22    1.64   1
   1 -16  -4    4.74    0.78   2
  -1  16   4    4.95    0.85   4
   1  16  -4    6.34    0.76   1
  -1 -16   4    5.29    0.76   3
   1  16  -4    4.84    0.71   4
   0  16   4   21.84    1.41   4
   0  16  -4   18.66    1.27   4
   0 -16  -4   21.81    1.30   2
   0 -16   4   21.99    1.27   3
   0  16  -4   22.11    1.16   1
  -1  16  -4   15.64    1.16   4
  -1 -16  -4   14.35    1.15   2
   1  16   4   15.06    1.31   4
   1 -16   4   14.18    1.13   3
  -2  16  -4   43.21    1.93   4
   2  16   4   49.13    2.10   4
   2 -16   4   42.68    1.85   3
  -2 -16  -4   42.03    1.71   1
  -2 -16  -4   46.12    1.91   2
   3  16   4   23.10    1.62   4
   3 -16   4   20.25    1.45   3
  -3 -16  -4   21.05    1.37   1
  -3  16  -4   21.72    1.63   4
  -3 -16  -4   21.81    1.56   2
  -5  17   4   21.68    1.45   3
   5  17  -4   23.96    1.58   1
   5 -17  -4   23.05    1.57   2
  -5  17   4   23.41    1.48   4
  -5 -17   4   24.44    1.61   2
  -4  17   4   12.81    1.26   4
  -4 -17   4   11.41    1.10   2
   4  17  -4   12.57    1.15   1
   4 -17  -4   11.21    1.14   2
  -4  17   4   11.70    1.05   3
   3  17  -4   -0.30    0.62   1
   3 -17  -4   -0.31    0.67   2
  -3 -17   4   -0.55    0.50   3
  -3  17   4    0.27    0.65   4
  -2 -17   4    1.24    0.59   3
   2 -17  -4    1.20    0.70   2
   2  17  -4    0.31    0.59   1
  -2  17   4    1.16    0.71   4
   1 -17  -4   46.25    1.89   2
   1  17  -4   49.27    1.72   1
   1  17  -4   47.02    1.81   4
  -1  17   4   45.59    1.97   4
  -1 -17   4   46.41    1.72   3
   0  17  -4   10.92    1.01   4
   0 -17   4   14.15    1.10   3
   0 -17  -4   12.00    1.14   2
   0  17   4   12.32    1.25   4
   1 -17   4    7.75    0.95   3
  -1 -17  -4    7.09    0.92   2
  -1  17  -4    7.74    0.93   4
   1  17   4    8.90    1.06   4
  -2 -17  -4    0.40    0.69   2
   2 -17   4    0.28    0.74   3
   2  17   4    1.45    0.87   4
   5  18  -4    0.53    0.82   1
   5 -18  -4   -0.27    0.78   2
  -5  18   4    0.54    0.76   4
  -5  18   4    0.67    0.74   3
  -5 -18   4    1.04    0.80   2
  -4  18   4    0.91    0.76   4
   4 -18  -4    1.24    0.76   2
  -4  18   4    0.45    0.66   3
  -4 -18   4    1.67    0.76   2
   4  18  -4    0.40    0.79   1
   3  18  -4   -0.03    0.66   1
   3 -18  -4    0.01    0.68   2
  -3  18   4    1.10    0.72   4
  -2  18   4   47.01    2.00   4
   2 -18  -4   46.15    1.95   2
  -2 -18   4   44.53    1.66   3
   2  18  -4   49.92    1.82   1
   1 -18  -4    2.67    0.76   2
  -1 -18   4    1.63    0.70   3
   1  18  -4    1.76    0.67   1
  -1  18   4    2.89    0.86   4
   0 -18  -4    8.11    0.99   2
   0 -18   4    8.88    0.98   3
   0  18  -4    6.38    0.89   4
   0  18   4    8.43    1.06   4
   1 -18   4    0.67    0.68   3
  -1 -18  -4    0.20    0.66   2
   1  18   4    0.18    0.76   4
  -1  18  -4    0.88    0.67   4
   2 -18   4   26.52    1.57   3
  -2  18  -4   26.64    1.61   4
   2  18   4   30.65    1.83   4
  -2 -18  -4   28.48    1.65   2
  -4  19   4    0.10    0.80   4
  -4 -19   4    1.28    0.77   2
   4 -19  -4    0.87    0.82   2
   4  19  -4    0.44    0.79   1
   3  19  -4    4.29    0.87   1
   3 -19  -4    5.61    0.99   2
  -3  19   4    4.40    0.89   4
  -2  19   4    2.77    0.85   4
  -2 -19   4    1.47    0.66   3
   2 -19  -4    3.21    0.81   2
   2  19  -4    2.55    0.75   1
  -1 -19   4    8.78    0.97   3
  -1  19   4    8.66    1.10   4
   1 -19  -4   10.12    1.08   2
   0 -19  -4    2.92    0.82   2
   0  19   4    2.21    0.84   4
   0 -19   4    4.40    0.85   3
   0  19  -4    2.24    0.76   4
  -1  19  -4    3.11    0.81   4
   1 -19   4    3.49    0.85   3
  -1 -19  -4    2.80    0.82   2
   1  19   4    2.87    0.93   4
  -2 -19  -4    5.43    0.99   2
   2 -19   4    4.47    0.93   3
  -2  19  -4    5.55    0.95   4
   2  19   4    5.85    1.13   4
   3  20  -4    5.50    0.95   1
  -3  20   4    6.00    1.00   4
   3 -20  -4    5.03    0.99   2
  -2  20   4    9.46    1.13   4
   2  20  -4   11.17    1.04   1
   2 -20  -4   12.06    1.20   2
  -2 -20   4   10.40    0.99   3
  -1 -20   4    1.41    0.76   3
  -1  20   4    0.72    0.81   4
   1 -20  -4    0.48    0.69   2
   0  20   4    3.15    0.92   4
   0 -20  -4    2.65    0.90   2
   0  20  -4    3.39    0.84   4
   0 -20   4    3.03    0.85   3
  -1 -20  -4    0.47    0.75   2
   1  20   4   -1.21    0.76   4
   1 -20   4    0.74    0.76   3
  -1  20  -4   -0.39    0.66   4
  -3  21   4    5.91    1.03   4
   3 -21  -4    5.23    1.03   2
   3  21  -4    6.12    1.02   1
   2 -21  -4    4.52    0.96   2
  -2  21   4    4.89    1.02   4
  -1  21   4    5.15    1.09   4
   1 -21  -4    6.67    1.07   2
  -1 -21   4    5.89    0.95   3
   0  21  -4   35.87    1.86   4
   0 -21  -4   34.50    1.93   2
   0  21   4   36.42    2.00   4
   0 -21   4   37.46    1.76   3
   7   0  -5   57.94    2.20   2
  -7   0   5   55.01    2.01   3
  -6   0   5    0.57    0.57   3
   6   0  -5    0.10    0.60   2
   6   0  -5   -0.61    0.49   1
   5   0  -5   13.60    1.07   2
  -5   0   5   14.54    1.00   3
   5   0  -5   13.39    0.93   1
   4   0  -5   -0.18    0.41   1
   4   0  -5   -0.19    0.44   2
  -4   0   5    0.16    0.42   3
   3   0  -5  223.82    4.65   2
  -3   0   5  228.40    4.47   3
   3   0  -5  231.12    4.47   1
  -2   0   5   -0.13    0.28   4
   2   0  -5   -0.29    0.32   2
   2   0  -5   -0.08    0.36   1
  -2   0   5    0.20    0.36   3
   1   0  -5  317.11    6.00   1
   1   0  -5  319.27    5.99   2
  -1   0   5  325.48    5.92   3
  -1   0   5  321.40    6.35   4
   0   0  -5    1.19    0.46   1
   0   0   5   -1.03    0.46   4
   0   0   5    0.26    0.44   3
  -1   0  -5   29.51    1.26   1
   1   0   5   29.94    1.38   4
   1   0   5   29.77    1.21   3
   2   0   5    0.00    0.53   4
  -2   0  -5    0.00    0.50   1
   2   0   5    0.15    0.45   3
   3   0   5  151.45    4.01   4
  -3   0  -5  159.18    3.67   1
   4   0   5   -1.72    0.70   4
  -4   0  -5   -0.85    0.60   1
  -7   1   5    3.75    0.83   3
   7  -1  -5    5.39    0.92   2
   7   1  -5    4.34    0.86   2
  -7  -1   5    3.91    0.82   3
   6   1  -5    2.51    0.66   1
  -6   1   5    2.33    0.65   3
  -6  -1   5    2.90    0.66   3
   6  -1  -5    2.50    0.71   2
  -6  -1   5    3.07    0.74   2
   5  -1  -5    9.97    0.99   2
   5   1  -5   10.59    0.91   1
  -5  -1   5   10.24    0.97   2
   5  -1  -5   10.75    0.84   1
  -5  -1   5   10.55    0.92   3
  -5   1   5    9.86    0.89   3
  -4   1   5   89.51    2.25   3
  -4  -1   5   88.68    2.24   3
   4  -1  -5   89.84    2.18   1
   4   1  -5   89.66    2.22   1
   4   1  -5   87.63    2.37   2
   4  -1  -5   91.62    2.41   2
  -3  -1   5    9.41    0.71   3
   3  -1  -5    9.14    0.78   1
   3  -1  -5    8.01    0.68   2
  -3   1   5    8.59    0.69   3
   3   1  -5    8.66    0.79   1
   3   1  -5    8.33    0.78   2
  -2  -1   5   88.32    2.07   4
   2   1  -5   87.38    2.07   2
  -2   1   5   92.48    2.13   3
   2  -1  -5   90.06    2.12   2
   2   1  -5   89.02    2.16   1
   2  -1  -5   90.98    2.13   1
  -2   1   5   88.75    2.08   4
  -2  -1   5   89.73    2.13   3
  -1  -1   5   13.76    0.83   4
  -1  -1   5   14.59    0.88   3
  -1   1   5   13.93    0.82   3
   1   1  -5   14.30    0.65   2
   1  -1  -5   13.43    0.83   1
  -1   1   5   12.71    0.83   4
   1   1  -5   14.78    0.86   1
   1  -1  -5   12.40    0.73   2
   0  -1   5  462.94    8.26   3
   0   1  -5  462.09    8.39   1
   0   1   5  464.47    9.04   4
   0   1   5  454.76    8.19   3
   0  -1  -5  460.44    8.40   1
   0  -1   5  460.19    9.02   4
  -1   1  -5   42.33    1.47   1
   1  -1   5   42.77    1.42   3
  -1  -1  -5   36.54    1.45   1
   1  -1   5   41.99    1.58   4
   1   1   5   40.57    1.35   3
   1   1   5   39.68    1.59   4
   2   1   5   91.07    2.62   4
  -2   1  -5   85.69    2.31   1
   2  -1   5   87.47    2.23   3
   2  -1   5   83.80    2.56   4
  -2  -1  -5   83.35    2.29   1
  -3   1  -5    1.51    0.66   1
   3  -1   5    0.53    0.70   4
   3   1   5    1.13    0.74   4
  -3  -1  -5    0.30    0.62   1
   4   1   5    1.59    0.81   4
  -4   1  -5    0.45    0.69   1
   4  -1   5    1.76    0.83   4
  -4  -1  -5    0.76    0.66   1
  -7   2   5   15.28    1.25   3
  -7  -2   5   13.28    1.24   2
   7   2  -5   14.50    1.24   1
   7  -2  -5   14.89    1.32   2
  -7  -2   5   13.86    1.17   3
  -6   2   5   23.37    1.25   3
  -6  -2   5   21.43    1.30   2
   6  -2  -5   21.76    1.38   2
  -6  -2   5   22.82    1.25   3
   6   2  -5   22.38    1.27   1
   5   2  -5   40.89    1.48   1
  -5  -2   5   35.10    1.51   2
   5  -2  -5   38.17    1.60   2
  -5   2   5   39.29    1.46   3
   5  -2  -5   41.95    1.40   1
  -5  -2   5   37.66    1.44   3
   4   2  -5    4.45    0.60   1
   4  -2  -5    4.89    0.57   1
   4  -2  -5    3.76    0.62   2
  -4   2   5    4.11    0.61   3
  -4  -2   5    4.14    0.60   3
  -4  -2   5    4.89    0.64   2
  -3   2   5   49.90    1.50   3
   3   2  -5   50.66    1.54   1
   3  -2  -5   49.44    1.46   1
  -3  -2   5   50.92    1.54   3
   3  -2  -5   51.65    1.56   2
  -3   2   5   49.58    1.32   4
   3   2  -5   48.95    1.52   2
  -2  -2   5  150.60    3.17   4
   2   2  -5  150.05    3.13   2
  -2   2   5  148.27    3.20   4
   2  -2  -5  151.38    3.14   1
   2   2  -5  152.12    3.20   1
   2  -2  -5  152.85    3.22   2
  -2   2   5  149.41    3.12   3
  -2  -2   5  153.47    3.18   3
   1  -2  -5    0.37    0.36   1
   1  -2  -5    0.68    0.32   2
   1   2  -5    0.01    0.38   1
  -1  -2   5    0.55    0.38   3
  -1  -2   5    0.31    0.33   4
  -1   2   5   -0.16    0.32   4
  -1   2   5    0.86    0.36   3
   0   2   5   -1.49    0.45   4
   0   2   5    0.82    0.45   3
   0   2  -5    1.38    0.45   1
   0  -2   5    0.17    0.43   4
   0  -2  -5    1.12    0.45   1
   0  -2   5    1.14    0.46   3
  -1  -2  -5    2.04    0.59   1
  -1   2  -5    2.11    0.53   1
   1   2   5    3.10    0.50   3
  -1   2  -5    1.07    0.57   4
   1  -2   5    3.68    0.57   3
   1   2   5    3.40    0.64   4
  -2   2  -5    4.12    0.66   1
  -2  -2  -5    2.43    0.61   1
   2  -2   5    3.08    0.67   4
   2  -2   5    3.72    0.61   3
   2   2   5    2.40    0.65   4
   3   2   5   85.44    2.76   4
  -3  -2  -5   86.96    2.49   1
  -3   2  -5   89.03    2.49   1
   3  -2   5   83.83    2.73   4
   4  -2   5   28.62    1.73   4
   4   2   5   27.57    1.68   4
  -4  -2  -5   27.40    1.49   1
  -4   2  -5   29.83    1.53   1
  -7   3   5    0.35    0.66   3
   7  -3  -5   -0.27    0.70   2
  -7  -3   5   -0.25    0.62   3
   7   3  -5    0.26    0.66   1
  -7  -3   5    0.55    0.69   2
  -6   3   5    5.90    0.81   3
  -6  -3   5    5.85    0.79   3
   6  -3  -5    6.00    0.89   2
  -6  -3   5    6.44    0.86   2
   6   3  -5    6.39    0.80   1
  -5  -3   5   83.05    2.22   3
  -5   3   5   82.25    2.25   3
   5  -3  -5   82.29    2.43   2
   5   3  -5   83.29    2.25   1
   5  -3  -5   81.15    2.10   1
  -5  -3   5   83.10    2.39   2
  -4   3   5   19.93    1.03   3
  -4  -3   5   20.32    1.05   3
   4  -3  -5   19.55    1.00   1
   4   3  -5   18.13    1.03   1
  -4  -3   5   18.05    1.06   2
   4  -3  -5   20.12    1.12   2
  -3   3   5  129.44    2.78   4
  -3  -3   5  128.73    2.93   2
   3   3  -5  133.12    2.91   1
   3  -3  -5  130.12    2.78   1
  -3  -3   5  127.30    2.86   3
  -3   3   5  131.71    2.86   3
   3  -3  -5  129.35    2.98   2
   2   3  -5   86.60    2.14   1
   2  -3  -5   84.87    2.02   1
  -2   3   5   82.66    2.01   3
  -2  -3   5   76.65    1.99   4
  -2   3   5   83.55    2.04   4
  -2  -3   5   88.43    2.10   3
   2  -3  -5   84.54    2.08   2
   2   3  -5   83.02    1.98   2
   1   3  -5    6.29    0.62   1
   1  -3  -5    7.37    0.62   1
  -1   3   5    6.57    0.56   3
   1  -3  -5    6.11    0.52   2
  -1  -3   5    5.21    0.53   4
  -1   3   5    6.33    0.57   4
  -1  -3   5    6.38    0.62   3
   0  -3  -5   61.24    1.73   1
   0  -3  -5   63.34    1.55   2
   0  -3   5   63.06    1.75   3
   0   3   5   59.72    1.87   4
   0   3   5   61.56    1.62   3
   0   3  -5   61.90    1.76   1
   0   3  -5   59.10    1.82   4
  -1   3  -5  195.52    4.46   4
  -1  -3  -5  200.51    4.16   1
   1   3   5  202.90    4.53   4
  -1   3  -5  199.31    4.14   1
   1  -3   5  200.56    4.10   3
  -2   3  -5    1.41    0.55   1
   2  -3   5    0.79    0.52   3
   2   3   5    0.32    0.53   4
  -2  -3  -5    0.88    0.54   1
  -2   3  -5    0.74    0.54   4
   3   3   5   -0.11    0.69   4
  -3  -3  -5    0.60    0.60   1
  -3   3  -5    0.22    0.59   4
  -3   3  -5    1.10    0.63   1
   3  -3   5    0.13    0.56   3
   4   3   5    0.58    0.79   4
  -4   3  -5    0.23    0.68   1
  -4  -3  -5   -0.47    0.65   1
   4  -3   5    0.28    0.72   4
  -7  -4   5   -0.15    0.69   2
   7  -4  -5    0.22    0.75   2
  -7  -4   5   -0.33    0.63   3
   7   4  -5    0.22    0.66   1
  -7   4   5    0.57    0.67   3
   6  -4  -5   40.53    1.77   2
  -6   4   5   38.98    1.60   3
  -6  -4   5   37.83    1.67   2
  -6  -4   5   38.41    1.55   3
   6   4  -5   39.52    1.63   1
  -5   4   5    1.40    0.57   3
  -5  -4   5    0.99    0.57   2
   5  -4  -5    0.49    0.58   2
   5   4  -5    1.23    0.56   1
  -5  -4   5    1.31    0.53   3
  -4  -4   5    0.40    0.48   3
  -4   4   5    0.49    0.46   3
   4  -4  -5    0.90    0.40   1
   4  -4  -5    0.35    0.47   2
   4   4  -5    0.21    0.47   1
  -4  -4   5    0.66    0.49   2
   3   4  -5   11.88    0.91   1
  -3   4   5   10.71    0.76   4
  -3  -4   5    9.02    0.84   2
  -3   4   5   10.25    0.81   3
   3  -4  -5   11.39    0.83   1
   3  -4  -5   11.15    0.90   2
  -3  -4   5    9.81    0.88   3
   2   4  -5  515.84    9.34   1
  -2  -4   5  520.57    9.27   3
   2  -4  -5  524.08    9.25   1
  -2   4   5  519.27    9.87   4
  -2  -4   5  520.54    9.77   4
   2   4  -5  539.45    9.59   2
  -2   4   5  515.75    9.18   3
   2  -4  -5  508.58    9.72   2
   1   4  -5   46.21    1.46   1
   1  -4  -5   44.15    1.33   2
   1   4  -5   41.33    1.36   4
  -1  -4   5   44.39    1.47   3
  -1   4   5   45.36    1.43   4
   1  -4  -5   43.92    1.38   1
  -1   4   5   43.86    1.30   3
   0   4  -5  236.76    5.06   4
   0  -4  -5  242.56    4.73   1
   0  -4   5  243.02    4.73   3
   0   4   5  241.37    5.11   4
   0  -4  -5  236.37    4.71   2
   0   4   5  238.99    4.50   3
   0   4  -5  242.31    4.76   1
   1   4   5    3.50    0.66   4
  -1   4  -5    3.15    0.67   4
   1  -4   5    3.14    0.59   3
  -1  -4  -5    3.51    0.60   1
  -1   4  -5    4.15    0.62   1
  -2  -4  -5   49.63    1.71   1
  -2   4  -5   48.74    1.84   4
   2   4   5   53.86    1.93   4
  -2   4  -5   51.54    1.68   1
   2  -4   5   48.41    1.67   3
   3   4   5    8.83    1.06   4
   3  -4   5   10.18    0.93   3
  -3  -4  -5    9.65    0.95   1
  -3   4  -5    8.94    0.93   1
  -3   4  -5    8.15    0.94   4
  -4  -4  -5   64.19    2.24   1
  -4   4  -5   63.27    2.16   1
   4   4   5   66.11    2.51   4
   7  -5  -5   13.82    1.31   2
   7   5  -5   14.04    1.17   1
  -7  -5   5   16.35    1.31   2
  -7   5   5   13.70    1.18   3
  -7  -5   5   14.17    1.19   3
  -6  -5   5    1.06    0.61   3
   6  -5  -5    1.22    0.69   2
  -6  -5   5    1.02    0.66   2
  -6   5   5    0.74    0.62   3
   6   5  -5    0.58    0.61   1
  -5  -5   5   19.39    1.12   3
   5  -5  -5   19.05    1.24   2
   5   5  -5   20.38    1.19   1
  -5   5   5   19.93    1.14   3
  -5  -5   5   18.61    1.17   2
   4   5  -5   25.82    1.21   1
   4  -5  -5   25.51    1.24   2
   4  -5  -5   26.18    1.05   1
  -4  -5   5   24.90    1.16   3
  -4  -5   5   23.92    1.20   2
  -4   5   5   24.18    1.15   3
  -3   5   5   94.44    2.27   4
   3   5  -5   94.68    2.37   1
   3  -5  -5   95.61    2.17   1
  -3  -5   5   95.11    2.33   3
  -3  -5   5   89.82    2.32   2
   3  -5  -5   98.05    2.45   2
  -3   5   5   94.35    2.29   3
   2   5  -5    6.37    0.66   1
  -2   5   5    7.26    0.63   4
  -2  -5   5    9.16    0.81   3
  -2   5   5    7.41    0.61   3
   2  -5  -5    7.20    0.62   1
   2  -5  -5    7.30    0.67   2
   1  -5  -5  138.85    3.00   1
  -1   5   5  137.48    2.88   3
  -1  -5   5  144.81    3.10   3
   1   5  -5  139.35    3.06   1
   1   5  -5  139.81    3.13   4
  -1   5   5  140.89    3.21   4
   1  -5  -5  141.02    3.07   2
   0   5  -5   63.48    1.83   1
   0   5   5   65.75    1.64   3
   0  -5   5   66.81    1.85   3
   0   5   5   63.94    1.96   4
   0   5  -5   65.41    1.92   4
   0  -5  -5   63.19    1.70   2
   0  -5  -5   63.21    1.82   1
  -1   5  -5  209.37    4.26   1
   1  -5   5  199.07    4.21   3
   1   5   5  208.44    4.62   4
  -1   5  -5  199.27    4.56   4
  -2  -5  -5    6.80    0.78   1
  -2   5  -5    7.27    0.77   1
   2   5   5    6.07    0.82   4
   2  -5   5    6.82    0.78   3
  -2   5  -5    4.83    0.74   4
  -3   5  -5   20.81    1.28   1
   3   5   5   17.05    1.40   4
   3  -5   5   17.86    1.19   3
  -3   5  -5   16.71    1.25   4
  -3  -5  -5   18.11    1.23   1
  -4   5  -5    2.87    0.81   4
  -4   5  -5    1.56    0.73   1
  -4  -5  -5    1.95    0.78   1
   4   5   5    0.56    0.80   4
  -7   6   5    0.37    0.64   3
  -7  -6   5    0.25    0.69   2
   7   6  -5   -0.06    0.68   1
  -7  -6   5    0.01    0.63   3
   7  -6  -5    0.37    0.72   2
  -6  -6   5   29.36    1.37   3
   6   6  -5   28.13    1.44   1
   6  -6  -5   27.43    1.51   2
  -6   6   5   28.88    1.42   3
  -6  -6   5   28.12    1.50   2
  -5  -6   5   20.30    1.14   3
  -5   6   5   19.66    1.15   3
  -5  -6   5   17.47    1.19   2
   5  -6  -5   18.81    1.23   2
   5   6  -5   18.17    1.18   1
  -4  -6   5    1.54    0.57   2
  -4   6   5    1.84    0.54   3
   4   6  -5    2.30    0.61   1
  -4  -6   5    2.03    0.54   3
   4  -6  -5    2.06    0.56   2
  -3  -6   5  109.36    2.67   2
  -3   6   5  116.33    2.68   4
   3   6  -5  112.01    2.70   1
   3  -6  -5  113.62    2.79   2
   3  -6  -5  113.75    2.47   1
  -3  -6   5  111.84    2.64   3
  -3   6   5  110.26    2.59   3
   2  -6  -5    0.56    0.39   1
  -2   6   5    1.06    0.42   3
   2  -6  -5    0.48    0.44   2
   2   6  -5   -1.36    0.46   1
  -2   6   5    0.93    0.42   4
  -2  -6   5    1.65    0.48   3
  -1   6   5   17.46    0.88   3
   1   6  -5   19.71    0.99   4
   1  -6  -5   20.95    0.99   1
   1  -6  -5   20.29    1.00   2
  -1   6   5   17.90    1.05   4
  -1  -6   5   21.09    1.10   3
   1   6  -5   19.38    1.04   1
   0   6   5   40.29    1.52   4
   0  -6  -5   41.42    1.33   2
   0  -6   5   42.39    1.46   3
   0  -6  -5   39.86    1.40   1
   0   6  -5   40.44    1.43   1
   0   6  -5   38.02    1.46   4
  -1  -6  -5   10.14    0.92   1
  -1   6  -5   10.28    0.93   1
   1  -6   5   10.60    0.88   3
   1   6   5    9.57    0.98   4
  -1   6  -5    9.55    0.94   4
   2  -6   5   67.50    2.06   3
  -2  -6  -5   69.30    2.07   1
  -2   6  -5   65.01    2.19   4
   2   6   5   71.32    2.30   4
  -2   6  -5   69.95    2.03   1
   3  -6   5   12.27    1.03   3
  -3   6  -5   17.63    1.28   1
   3   6   5   12.13    1.20   4
  -3  -6  -5   13.25    1.09   1
  -3   6  -5   11.94    1.16   4
  -4   6  -5   35.74    1.83   4
   4   6   5   34.55    1.83   4
  -4   6  -5   38.10    1.69   1
  -4  -6  -5   34.81    1.70   1
   7  -7  -5    2.74    0.86   2
  -7   7   5    3.64    0.83   3
  -7  -7   5    2.63    0.75   3
  -7  -7   5    1.69    0.80   2
   7   7  -5    3.36    0.83   1
   6   7  -5   24.49    1.40   1
  -6   7   5   25.21    1.36   3
   6  -7  -5   21.46    1.39   2
  -6  -7   5   24.43    1.45   2
  -6  -7   5   24.96    1.28   3
  -5   7   5    0.74    0.56   3
   5  -7  -5    0.59    0.58   2
   5   7  -5    0.52    0.57   1
  -5  -7   5    0.37    0.51   3
  -5  -7   5    0.60    0.59   2
  -4  -7   5   79.85    2.11   3
   4   7  -5   73.39    2.16   1
   4  -7  -5   79.36    2.29   2
  -4  -7   5   79.17    2.23   2
  -4   7   5   74.86    2.10   3
   3   7  -5  113.84    2.77   1
   3  -7  -5  115.70    2.52   1
  -3   7   5  109.87    2.64   3
   3  -7  -5  117.93    2.89   2
  -3  -7   5  115.64    2.76   2
  -3   7   5  120.79    2.83   4
  -3  -7   5  119.19    2.73   3
  -2   7   5  264.01    5.41   4
  -2   7   5  264.35    4.99   3
  -2  -7   5  265.65    5.13   3
   2  -7  -5  257.54    5.37   2
   2  -7  -5  262.84    4.98   1
   2   7  -5  264.07    5.19   1
   1  -7  -5   88.03    2.14   1
   1   7  -5   90.38    2.26   1
  -1   7   5   85.52    2.03   3
   1  -7  -5   90.41    2.29   2
   1   7  -5   89.21    2.29   4
  -1   7   5   89.13    2.38   4
  -1  -7   5   94.16    2.31   3
   0   7  -5  128.57    2.90   1
   0   7   5  126.83    3.13   4
   0  -7  -5  125.96    2.86   1
   0  -7  -5  122.08    2.88   2
   0  -7   5  129.58    2.97   3
   0   7  -5  126.60    3.09   4
   1   7   5   53.00    1.85   4
   1  -7   5   50.14    1.70   3
  -1  -7  -5   51.77    1.56   2
  -1   7  -5   51.71    1.67   1
  -1   7  -5   50.20    1.79   4
  -1  -7  -5   53.45    1.72   1
   2   7   5   13.37    1.15   4
  -2  -7  -5   15.38    1.02   1
  -2   7  -5   12.86    1.09   4
  -2   7  -5   15.38    1.05   1
   2  -7   5   14.36    1.06   3
   3  -7   5   -0.52    0.59   3
   3   7   5   -0.56    0.62   4
  -3   7  -5   -0.81    0.62   4
  -3  -7  -5   -0.18    0.62   1
  -3   7  -5    0.85    0.63   1
   4   7   5    7.91    1.09   4
  -4   7  -5    7.90    0.98   1
  -4  -7  -5    5.11    0.94   1
  -4   7  -5    6.46    1.01   4
   4  -7   5    6.02    0.94   3
  -7  -8   5   12.99    1.29   2
  -7   8   5   13.59    1.21   3
   7   8  -5   13.34    1.19   1
   7  -8  -5   13.73    1.28   2
  -6   8   5   10.26    0.97   3
   6  -8  -5    7.84    0.97   2
   6   8  -5    6.38    0.93   1
  -6  -8   5    9.16    1.04   2
  -6  -8   5   10.24    0.90   3
   5   8  -5    8.03    0.90   1
   5  -8  -5    9.84    0.97   2
  -5  -8   5    8.89    0.92   2
  -5  -8   5   11.34    0.95   3
  -5   8   5    9.34    0.89   3
   4   8  -5   39.88    1.59   1
  -4   8   5   43.35    1.56   3
  -4  -8   5   40.78    1.52   3
  -4  -8   5   44.43    1.64   2
   4  -8  -5   42.03    1.68   2
   3  -8  -5  128.90    3.16   2
  -3  -8   5  126.33    3.01   2
  -3  -8   5  134.11    2.97   3
   3   8  -5  127.96    3.01   1
  -3   8   5  123.44    2.89   3
  -3   8   5  134.03    3.12   4
  -2  -8   5    0.38    0.45   3
   2  -8  -5   -0.03    0.40   1
  -2   8   5    0.21    0.39   3
  -2   8   5    0.47    0.42   4
   2   8  -5   -0.07    0.48   1
   2  -8  -5   -0.61    0.47   2
  -1  -8   5  267.34    5.23   3
  -1   8   5  256.46    4.92   3
   1  -8  -5  269.88    5.45   2
   1   8  -5  268.26    5.47   4
  -1   8   5  267.37    5.59   4
   1   8  -5  264.27    5.22   1
   1  -8  -5  264.71    5.09   1
   0  -8   5   49.70    1.69   3
   0  -8  -5   49.58    1.59   2
   0  -8  -5   49.76    1.57   1
   0   8   5   50.05    1.76   4
   0   8  -5   49.55    1.73   4
   0   8  -5   50.84    1.62   1
  -1   8  -5   20.80    1.12   1
   1  -8   5   20.72    1.14   3
   1   8   5   19.30    1.21   4
  -1  -8  -5   20.30    1.13   1
  -1  -8  -5   19.10    1.02   2
  -1   8  -5   21.02    1.22   4
  -2  -8  -5   -0.05    0.51   1
   2   8   5   -0.32    0.57   4
   2  -8   5    0.89    0.56   3
  -2   8  -5    0.15    0.49   1
  -2   8  -5   -1.08    0.54   4
  -3   8  -5   61.27    2.01   1
   3  -8   5   51.90    1.95   3
  -3  -8  -5   56.47    2.01   1
   3   8   5   52.13    2.12   4
  -3   8  -5   51.82    2.13   4
  -4  -8  -5   18.43    1.40   1
  -4   8  -5   18.02    1.47   4
   4   8   5   18.74    1.49   4
   4  -8   5   19.05    1.38   3
  -7   9   5    0.35    0.69   3
   7   9  -5    0.00    0.73   1
  -7  -9   5   -0.24    0.78   2
   7  -9  -5    0.25    0.76   2
  -6   9   5    0.29    0.61   3
  -6  -9   5    0.72    0.58   3
  -6  -9   5    0.66    0.68   2
   6  -9  -5   -0.95    0.61   2
   6   9  -5    0.00    0.62   1
  -5  -9   5   -0.39    0.56   2
  -5  -9   5    0.03    0.49   3
   5  -9  -5   -0.52    0.54   2
  -5   9   5    0.57    0.60   3
   5   9  -5   -0.37    0.57   1
   4   9  -5  195.16    4.27   1
  -4  -9   5  205.79    4.43   2
  -4  -9   5  204.44    4.16   3
  -4   9   5  194.36    4.18   3
  -4   9   5  189.66    4.28   4
   4  -9  -5  196.53    4.51   2
  -3   9   5  156.32    3.46   3
  -3   9   5  169.44    3.77   4
   3   9  -5  162.46    3.62   1
  -3  -9   5  166.58    3.53   3
   3  -9  -5  161.86    3.80   2
  -3  -9   5  163.33    3.62   2
   2  -9  -5    0.10    0.38   1
   2  -9  -5    0.25    0.50   2
   2   9  -5    0.49    0.50   1
  -2  -9   5    0.62    0.48   3
  -2   9   5    0.68    0.48   4
  -2   9   5    0.90    0.45   3
  -1   9   5    0.47    0.49   4
   1   9  -5    0.49    0.48   1
   1  -9  -5   -0.04    0.50   2
   1  -9  -5   -0.07    0.42   1
  -1  -9   5    1.57    0.52   3
   1   9  -5    0.11    0.41   4
   0   9  -5   88.83    2.27   1
   0  -9  -5   87.17    2.31   2
   0   9   5   87.44    2.50   4
   0  -9  -5   86.41    2.23   1
   0  -9   5   86.77    2.35   3
   0   9  -5   85.71    2.40   4
  -1   9  -5    0.25    0.47   1
   1   9   5    1.05    0.57   4
  -1  -9  -5    0.26    0.47   1
  -1  -9  -5    0.42    0.46   2
   1  -9   5    0.00    0.51   3
  -1   9  -5    0.22    0.50   4
  -2   9  -5   70.09    2.35   4
   2   9   5   73.58    2.40   4
  -2   9  -5   72.09    2.08   1
   2  -9   5   67.50    2.16   3
  -2  -9  -5   69.44    2.14   1
  -3  -9  -5   18.51    1.29   1
   3   9   5   16.85    1.38   4
   3  -9   5   16.89    1.25   3
  -3   9  -5   16.04    1.31   4
  -3   9  -5   19.54    1.39   1
  -4   9  -5    2.80    0.87   4
   4  -9   5    2.27    0.82   3
   4   9   5    1.48    0.85   4
  -4  -9  -5    2.19    0.85   1
  -7  10   5   13.11    1.22   3
   7 -10  -5   13.38    1.31   2
  -7 -10   5   13.92    1.40   2
   7  10  -5   14.29    1.27   1
   6  10  -5    0.10    0.66   1
  -6  10   5    0.40    0.65   3
   6 -10  -5    0.12    0.68   2
  -6 -10   5    0.57    0.71   2
  -6 -10   5    0.12    0.57   3
   5 -10  -5    2.05    0.68   2
  -5  10   5    0.48    0.58   3
  -5 -10   5    0.25    0.62   2
   5  10  -5    0.44    0.62   1
  -5 -10   5    0.36    0.53   3
  -4  10   5    8.96    0.81   4
   4  10  -5    9.58    0.92   1
  -4  10   5    8.76    0.88   3
  -4 -10   5    9.83    0.84   3
   4 -10  -5    8.71    0.94   2
  -4 -10   5    9.51    0.89   2
  -3 -10   5   45.77    1.57   3
   3  10  -5   44.58    1.63   1
  -3  10   5   44.01    1.52   3
  -3  10   5   45.92    1.67   4
   3 -10  -5   42.69    1.69   2
  -2  10   5   48.51    1.49   3
  -2 -10   5   47.61    1.63   3
  -2  10   5   50.43    1.72   4
   2  10  -5   47.37    1.65   1
   2 -10  -5   47.47    1.70   2
   1 -10  -5  111.71    2.81   2
  -1 -10   5  106.69    2.67   3
   1  10  -5  106.38    2.69   4
   1 -10  -5  108.32    2.50   1
   1  10  -5  110.28    2.66   1
  -1  10   5  108.98    2.84   4
   0 -10  -5   -0.43    0.43   1
   0  10  -5    0.33    0.50   4
   0 -10  -5    0.09    0.45   2
   0  10   5   -0.19    0.55   4
   0  10  -5    0.12    0.48   1
   0 -10   5    0.41    0.49   3
  -1 -10  -5   16.11    1.03   2
  -1 -10  -5   15.76    0.99   1
   1  10   5   15.56    1.17   4
  -1  10  -5   16.21    1.09   4
  -1  10  -5   17.08    1.03   1
   1 -10   5   16.47    1.13   3
   2  10   5    5.11    0.87   4
  -2  10  -5    4.87    0.81   4
   2 -10   5    4.83    0.79   3
  -2  10  -5    6.42    0.76   1
  -2 -10  -5    4.62    0.79   1
  -3  10  -5   54.21    1.92   1
  -3 -10  -5   44.80    1.86   1
   3 -10   5   42.46    1.82   3
   3  10   5   48.88    2.09   4
  -3  10  -5   43.51    1.97   4
   6  11  -5   10.93    1.11   1
  -6 -11   5   10.13    1.10   2
   6 -11  -5   12.33    1.18   2
  -6  11   5   13.03    1.18   3
   5  11  -5   30.59    1.55   1
  -5 -11   5   31.96    1.60   2
  -5 -11   5   33.53    1.42   3
   5 -11  -5   30.91    1.57   2
  -5  11   5   36.10    1.53   3
  -4 -11   5   52.39    1.84   2
   4  11  -5   51.61    1.83   1
  -4  11   5   48.70    1.74   3
  -4  11   5   51.46    1.80   4
  -4 -11   5   52.11    1.73   3
   4 -11  -5   47.73    1.88   2
   3 -11  -5    6.56    0.86   2
  -3  11   5    9.66    0.86   4
  -3  11   5    9.36    0.79   3
  -3 -11   5    8.80    0.82   3
   3  11  -5   12.49    0.99   1
  -2  11   5   31.06    1.25   3
  -2  11   5   33.18    1.46   4
  -2 -11   5   31.95    1.36   3
   2  11  -5   30.82    1.40   1
   2 -11  -5   31.90    1.45   2
   1 -11  -5    1.82    0.50   1
  -1  11   5    1.18    0.57   4
  -1 -11   5    1.72    0.59   3
   1  11  -5    1.38    0.48   4
   1 -11  -5    2.55    0.65   2
   1  11  -5    2.06    0.61   1
   0 -11  -5   28.53    1.23   1
   0  11  -5   29.44    1.36   4
   0 -11   5   30.39    1.37   3
   0 -11  -5   29.96    1.35   2
   0  11  -5   31.44    1.31   1
   0  11   5   32.36    1.49   4
   1 -11   5   33.15    1.50   3
   1  11   5   34.02    1.63   4
  -1  11  -5   34.22    1.38   1
  -1 -11  -5   33.34    1.36   1
  -1 -11  -5   32.94    1.41   2
  -1  11  -5   32.25    1.50   4
  -2  11  -5   23.96    1.25   1
   2 -11   5   16.89    1.22   3
  -2 -11  -5   23.71    1.36   1
   2  11   5   24.11    1.46   4
  -2  11  -5   22.68    1.38   4
  -3 -11  -5    1.86    0.79   1
   3  11   5    1.73    0.85   4
  -3  11  -5    2.31    0.82   4
   3 -11   5    2.36    0.75   3
  -6  12   5   11.20    1.12   3
   6 -12  -5   11.95    1.18   2
  -6 -12   5   10.83    1.16   2
   6  12  -5   10.97    1.14   1
   5 -12  -5    1.35    0.70   2
  -5 -12   5    0.11    0.53   3
  -5  12   5    0.73    0.65   3
   5  12  -5    0.27    0.67   1
  -5 -12   5    0.52    0.65   2
  -4 -12   5    0.64    0.56   3
   4 -12  -5    0.15    0.62   2
   4  12  -5    0.36    0.60   1
  -4 -12   5    0.63    0.58   2
  -4  12   5    0.50    0.56   3
  -4  12   5    0.18    0.54   4
  -3  12   5    3.15    0.70   4
   3  12  -5    2.89    0.70   1
  -3  12   5    3.57    0.64   3
  -3 -12   5    3.94    0.68   3
   3 -12  -5    1.92    0.71   2
  -2  12   5  168.56    3.95   4
   2 -12  -5  160.19    3.87   2
  -2 -12   5  155.61    3.59   3
   2  12  -5  163.26    3.65   1
  -1  12   5   73.84    2.29   4
  -1 -12   5   71.65    2.13   3
   1  12  -5   68.82    2.07   4
   1  12  -5   72.59    2.07   1
   1 -12  -5   72.56    2.23   2
   0 -12  -5   54.66    1.87   2
   0 -12   5   55.95    1.88   3
   0  12   5   56.11    1.98   4
   0  12  -5   54.35    1.88   4
   0  12  -5   55.61    1.77   1
   0 -12  -5   52.34    1.68   1
  -1  12  -5    1.19    0.58   1
   1  12   5    1.22    0.68   4
  -1 -12  -5    0.69    0.55   2
   1 -12   5    0.96    0.62   3
  -1  12  -5    1.24    0.61   4
  -1 -12  -5    1.31    0.60   1
  -2 -12  -5    9.72    0.98   1
   2 -12   5    8.26    0.97   3
  -2  12  -5    8.06    0.97   4
  -2  12  -5    9.79    0.90   1
   2  12   5   10.20    1.09   4
   3  12   5   18.48    1.49   4
  -3 -12  -5   16.62    1.30   1
  -3  12  -5   15.48    1.38   4
   3 -12   5   17.94    1.30   3
  -6 -13   5   -0.18    0.76   2
   6  13  -5    0.82    0.75   1
  -6  13   5    0.58    0.72   3
   6 -13  -5   -0.45    0.74   2
   5 -13  -5   24.47    1.48   2
   5  13  -5   24.05    1.43   1
  -5  13   5   26.62    1.44   3
  -5 -13   5   27.09    1.33   3
  -5 -13   5   24.85    1.50   2
  -4  13   5    5.67    0.78   4
   4  13  -5    4.04    0.79   1
  -4  13   5    5.18    0.78   3
  -4 -13   5    4.12    0.74   2
   4 -13  -5    4.14    0.82   2
  -4 -13   5    3.91    0.70   3
  -3  13   5   67.28    2.19   4
  -3  13   5   62.36    1.90   3
   3  13  -5   64.97    2.07   1
  -3 -13   5   69.20    2.03   3
   3 -13  -5   61.86    2.19   2
  -2 -13   5   15.34    1.09   3
   2  13  -5   15.11    1.15   1
  -2  13   5   15.24    1.29   4
   2 -13  -5   13.25    1.18   2
  -1  13   5    5.89    0.84   4
  -1 -13   5    5.86    0.79   3
   1 -13  -5    5.25    0.82   2
   1  13  -5    6.31    0.76   1
   0 -13  -5    9.98    0.99   2
   0  13  -5   11.79    0.99   4
   0  13   5   11.24    1.11   4
   0  13  -5   10.20    0.97   1
   0 -13  -5   10.88    0.92   1
   0 -13   5   11.07    0.98   3
   1  13   5   40.82    1.80   4
  -1  13  -5   44.83    1.59   1
  -1 -13  -5   41.59    1.66   1
   1 -13   5   38.57    1.68   3
  -1 -13  -5   39.96    1.65   2
  -1  13  -5   42.23    1.75   4
  -2  13  -5    0.29    0.67   4
  -2 -13  -5    0.31    0.65   1
   2 -13   5    0.81    0.70   3
   2  13   5    1.34    0.78   4
  -2 -13  -5    0.55    0.63   2
   3  13   5    4.15    1.00   4
  -3  13  -5    4.56    0.96   4
  -3 -13  -5    4.52    0.91   1
   3 -13   5    3.27    0.86   3
  -6 -14   5   13.54    1.30   2
   6 -14  -5   14.88    1.37   2
   6  14  -5   12.23    1.21   1
  -6  14   5   14.32    1.30   3
  -5 -14   5    2.75    0.78   2
   5  14  -5    2.76    0.84   1
   5 -14  -5    3.01    0.84   2
  -5  14   5    3.28    0.81   3
   4 -14  -5    0.09    0.66   2
  -4  14   5    0.89    0.62   3
   4  14  -5   -0.10    0.63   1
  -4 -14   5    0.29    0.55   3
  -4  14   5    0.76    0.61   4
   3  14  -5    0.93    0.63   1
  -3  14   5    0.27    0.64   4
   3 -14  -5    0.64    0.64   2
  -3 -14   5    0.65    0.56   3
  -2 -14   5    4.38    0.73   3
   2 -14  -5    3.97    0.81   2
  -2  14   5    3.75    0.81   4
   2  14  -5    4.84    0.77   1
  -1  14   5   13.13    1.20   4
   1 -14  -5   11.62    1.08   2
   1  14  -5   11.09    1.03   1
  -1 -14   5   12.12    1.07   3
   0 -14   5   12.71    1.05   3
   0  14  -5   11.44    1.01   4
   0  14   5   12.43    1.13   4
   0 -14  -5   12.38    1.10   2
   0  14  -5   13.17    1.04   1
  -1 -14  -5    4.64    0.78   1
  -1  14  -5    3.38    0.69   1
   1  14   5    3.58    0.82   4
  -1  14  -5    3.44    0.73   4
   1 -14   5    2.39    0.76   3
  -1 -14  -5    3.77    0.73   2
  -2  14  -5   25.76    1.57   4
   2  14   5   29.81    1.69   4
  -2 -14  -5   28.79    1.50   1
  -2 -14  -5   29.09    1.53   2
   2 -14   5   25.86    1.51   3
  -5 -15   5   -0.33    0.67   2
   5 -15  -5    0.19    0.74   2
   5  15  -5    0.04    0.72   1
  -5  15   5    0.44    0.70   3
   4  15  -5    7.80    0.97   1
   4 -15  -5    7.15    1.00   2
  -4 -15   5    9.36    0.90   3
  -4  15   5    8.99    0.97   4
  -4  15   5    8.29    0.92   3
   3  15  -5   36.98    1.61   1
  -3  15   5   32.11    1.65   4
  -3 -15   5   32.49    1.44   3
   3 -15  -5   32.41    1.66   2
   2  15  -5    8.41    0.91   1
   2 -15  -5    9.16    1.01   2
  -2  15   5    7.83    1.01   4
  -2 -15   5    7.90    0.89   3
   1 -15  -5   10.11    1.03   2
  -1  15   5   12.64    1.24   4
  -1 -15   5   12.00    1.04   3
   1  15  -5   11.03    0.94   1
   0 -15  -5    1.79    0.65   2
   0  15  -5    0.97    0.60   4
   0  15   5    0.78    0.71   4
   0  15  -5    1.02    0.62   1
   0 -15   5    0.00    0.62   3
  -1  15  -5   11.56    1.11   4
   1 -15   5   12.28    1.12   3
   1  15   5   12.99    1.27   4
  -1 -15  -5   14.08    1.14   2
   2  15   5   23.25    1.59   4
  -2  15  -5   19.27    1.46   4
  -2 -15  -5   20.93    1.45   2
   2 -15   5   22.03    1.47   3
  -2 -15  -5   21.28    1.44   1
  -5  16   5    3.44    0.86   3
   5  16  -5    2.84    0.90   1
   5 -16  -5    2.92    0.93   2
  -5 -16   5    4.60    0.92   2
   4  16  -5    2.27    0.81   1
  -4 -16   5    2.97    0.70   3
  -4  16   5    2.46    0.77   3
  -4  16   5    2.90    0.79   4
   4 -16  -5    2.87    0.86   2
   3  16  -5    7.48    0.92   1
  -3  16   5    6.93    0.96   4
   3 -16  -5    8.10    1.02   2
  -3 -16   5    7.99    0.88   3
  -2 -16   5   18.75    1.22   3
   2  16  -5   20.03    1.34   1
   2 -16  -5   20.33    1.42   2
  -2  16   5   19.41    1.49   4
   1  16  -5   73.47    2.19   1
   1 -16  -5   69.36    2.41   2
  -1  16   5   75.88    2.57   4
  -1 -16   5   72.69    2.28   3
   0 -16  -5   12.62    1.19   2
   0  16  -5   12.91    1.09   4
   0 -16   5   13.14    1.14   3
   0  16  -5   13.78    1.12   1
   0  16   5   15.92    1.36   4
   1  16   5    3.10    0.89   4
  -1  16  -5    2.68    0.77   4
  -1 -16  -5    2.77    0.77   2
   1 -16   5    2.49    0.80   3
  -2  16  -5    8.26    1.10   4
   2  16   5    7.50    1.14   4
  -2 -16  -5    5.39    0.99   2
   2 -16   5    7.42    1.05   3
  -2 -16  -5    5.86    1.00   1
   5  17  -5   -0.59    0.81   1
  -5  17   5    1.91    0.81   3
   5 -17  -5    0.93    0.85   2
   4 -17  -5   11.56    1.19   2
  -4  17   5   13.05    1.24   4
   4  17  -5   11.69    1.15   1
   3 -17  -5    2.95    0.88   2
  -3 -17   5    2.08    0.70   3
   3  17  -5    2.93    0.80   1
  -3  17   5    3.08    0.84   4
   2 -17  -5    0.99    0.71   2
   2  17  -5    0.74    0.66   1
  -2  17   5   -1.15    0.74   4
  -2 -17   5   -0.01    0.61   3
   1  17  -5    1.48    0.69   1
  -1 -17   5    1.53    0.72   3
   1 -17  -5    1.11    0.76   2
  -1  17   5    1.50    0.80   4
   0 -17   5    2.31    0.74   3
   0  17  -5    1.25    0.63   4
   0  17   5    1.21    0.81   4
   0 -17  -5    0.95    0.72   2
   1  17   5   18.44    1.58   4
  -1 -17  -5   17.50    1.34   2
   1 -17   5   18.09    1.39   3
  -1  17  -5   17.76    1.35   4
   4  18  -5    1.84    0.84   1
  -4  18   5    1.55    0.83   4
   4 -18  -5    2.15    0.86   2
   3 -18  -5   -0.02    0.75   2
  -3  18   5    0.95    0.75   4
  -3 -18   5    0.14    0.61   3
   3  18  -5   -0.61    0.67   1
   2  18  -5   -0.60    0.66   1
  -2  18   5   -0.51    0.73   4
  -2 -18   5    0.27    0.64   3
   2 -18  -5    0.76    0.73   2
   1 -18  -5   29.49    1.65   2
   1  18  -5   31.95    1.55   1
  -1 -18   5   30.50    1.57   3
  -1  18   5   31.88    1.83   4
   0  18  -5    5.21    0.87   4
   0 -18   5    5.89    0.93   3
   0  18   5    5.98    1.09   4
   0 -18  -5    6.08    1.01   2
   1 -18   5   12.15    1.23   3
   1  18   5   12.42    1.38   4
  -1 -18  -5   13.59    1.30   2
  -1  18  -5   12.30    1.24   4
  -3  19   5    2.54    0.90   4
   3  19  -5    1.41    0.80   1
  -3 -19   5    2.81    0.76   3
   3 -19  -5    1.20    0.85   2
   2 -19  -5    1.28    0.80   2
  -2  19   5    1.84    0.88   4
  -2 -19   5    0.32    0.68   3
   2  19  -5    1.38    0.76   1
  -1 -19   5    7.65    1.04   3
  -1  19   5    6.09    1.11   4
   1 -19  -5    6.88    1.02   2
   0  19   5   -1.05    0.85   4
   0 -19  -5    0.33    0.81   2
   0 -19   5    0.19    0.76   3
   2 -20  -5    2.93    0.89   2
  -2  20   5    1.71    0.91   4
  -2 -20   5    2.60    0.83   3
  -1  20   5   23.77    1.79   4
  -1 -20   5   23.25    1.55   3
   1 -20  -5   26.61    1.70   2
  -7   0   6   -0.31    0.65   3
   7   0  -6    0.01    0.72   2
   6   0  -6   29.30    1.55   2
  -6   0   6   26.62    1.37   3
   6   0  -6   25.86    1.31   1
   5   0  -6   -0.96    0.53   2
   5   0  -6   -0.43    0.48   1
  -5   0   6   -0.87    0.52   3
   4   0  -6    1.06    0.51   1
  -4   0   6    0.68    0.55   3
   4   0  -6    5.59    0.75   2
   3   0  -6   -0.28    0.48   1
  -3   0   6    0.81    0.45   3
   3   0  -6   -0.92    0.42   2
  -2   0   6   20.96    1.07   3
   2   0  -6   21.75    0.96   2
   2   0  -6   22.96    1.10   1
  -2   0   6   21.93    0.97   4
  -1   0   6   -0.97    0.44   3
  -1   0   6    0.22    0.55   4
   1   0  -6    1.02    0.48   1
   0   0   6  295.51    5.65   3
   0   0   6  296.67    6.24   4
   0   0  -6  288.54    5.81   1
   1   0   6    0.60    0.53   3
  -1   0  -6    0.34    0.55   1
   1   0   6   -0.30    0.58   4
  -2   0  -6   22.15    1.28   1
   2   0   6   20.62    1.46   4
   3   0   6    1.06    0.75   4
  -3   0  -6   -0.09    0.69   1
  -7  -1   6   16.32    1.26   3
   7  -1  -6   17.59    1.47   2
  -7   1   6   16.97    1.27   3
   7   1  -6   17.87    1.38   2
   6   1  -6    2.23    0.65   1
   6   1  -6    2.52    0.74   2
  -6  -1   6    2.57    0.70   3
  -6   1   6    2.03    0.69   3
   6  -1  -6    2.76    0.78   2
  -5  -1   6   -0.33    0.52   3
   5  -1  -6    0.14    0.57   2
  -5   1   6    0.77    0.55   3
   5  -1  -6    1.15    0.52   1
   5   1  -6    0.50    0.51   1
   5   1  -6   -0.27    0.58   2
   4   1  -6   49.04    1.65   1
   4  -1  -6   49.27    1.71   2
   4   1  -6   50.44    1.73   2
  -4  -1   6   50.28    1.69   3
  -4   1   6   49.85    1.68   3
   4  -1  -6   51.30    1.62   1
   3   1  -6  110.72    2.69   1
   3   1  -6  111.86    2.69   2
   3  -1  -6  112.52    2.73   2
   3  -1  -6  115.22    2.68   1
  -3  -1   6  118.02    2.72   3
   2  -1  -6   14.90    0.83   2
   2  -1  -6   15.50    0.95   1
  -2   1   6   14.07    0.85   4
  -2   1   6   15.28    0.93   3
  -2  -1   6   14.87    0.97   3
   2   1  -6   14.74    0.96   1
  -2  -1   6   14.68    0.83   4
   1  -1  -6   41.75    1.45   1
  -1   1   6   36.81    1.45   4
  -1  -1   6   42.05    1.48   3
  -1  -1   6   35.46    1.49   4
   1   1  -6   38.27    1.45   1
  -1   1   6   37.27    1.40   3
   0  -1   6   90.27    2.30   3
   0   1   6   88.08    2.54   4
   0   1   6   90.07    2.27   3
   0  -1  -6   85.85    2.36   1
   0   1  -6   86.80    2.38   1
   0  -1   6   87.91    2.55   4
   1  -1   6   69.82    2.01   3
  -1  -1  -6   63.95    2.02   1
  -1   1  -6   67.29    2.05   1
   1   1   6   67.60    2.25   4
   1  -1   6   69.71    2.27   4
   2  -1   6    5.45    0.91   4
  -2   1  -6    6.25    0.85   1
   2   1   6    5.09    0.93   4
  -2  -1  -6    6.61    0.84   1
  -3  -1  -6   52.43    2.01   1
   3  -1   6   54.90    2.26   4
  -3   1  -6   51.47    1.96   1
   3   1   6   51.32    2.21   4
  -7  -2   6   -0.17    0.68   3
  -7   2   6   -0.17    0.65   3
   7   2  -6    1.35    0.77   2
   7  -2  -6   -1.21    0.77   2
   6  -2  -6    1.99    0.75   2
  -6   2   6    1.75    0.68   3
  -6  -2   6    2.53    0.70   3
   6   2  -6    1.25    0.65   1
   6   2  -6    1.96    0.73   2
   5  -2  -6   17.14    1.19   2
   5   2  -6   14.19    1.08   2
   5   2  -6   16.12    1.05   1
  -5   2   6   15.68    1.06   3
  -5  -2   6   15.12    1.10   3
   5  -2  -6   16.09    1.07   1
   4  -2  -6   24.78    1.16   1
   4   2  -6   22.43    1.19   1
  -4  -2   6   22.92    1.20   3
   4   2  -6   20.74    1.18   2
  -4   2   6   23.42    1.20   3
   4  -2  -6   24.02    1.24   2
   3   2  -6   26.55    1.14   2
  -3  -2   6   29.34    1.23   3
   3  -2  -6   26.11    1.24   2
   3  -2  -6   26.12    1.20   1
   3   2  -6   27.98    1.25   1
  -3   2   6   28.24    1.21   3
  -2  -2   6   11.90    0.94   3
  -2  -2   6   13.62    0.86   4
  -2   2   6   13.71    0.85   4
   2   2  -6   14.34    0.97   1
  -2   2   6   12.83    0.88   3
   2  -2  -6   12.99    0.91   1
   2  -2  -6   13.14    0.86   2
   1   2  -6  228.90    4.69   1
  -1  -2   6  235.47    4.65   3
  -1  -2   6  233.44    4.94   4
  -1   2   6  223.85    4.90   4
  -1   2   6  227.26    4.54   3
   0  -2   6   65.04    1.90   3
   0  -2   6   63.53    2.05   4
   0   2   6   58.64    2.01   4
   0   2  -6   60.93    1.92   1
   0   2   6   63.89    1.78   3
   0  -2  -6   59.44    1.89   1
   1  -2   6    4.36    0.69   3
   1   2   6    3.90    0.74   4
  -1  -2  -6    5.05    0.74   1
   1  -2   6    4.91    0.78   4
  -1   2  -6    3.38    0.67   1
  -2   2  -6   11.93    1.03   1
   2   2   6   11.62    1.13   4
  -2  -2  -6   12.01    1.09   1
   2  -2   6   12.06    1.14   4
  -3   2  -6    2.16    0.78   1
   3   2   6    2.97    0.94   4
  -3  -2  -6    2.23    0.78   1
   3  -2   6    4.05    0.90   4
  -7  -3   6    3.87    0.86   3
  -7   3   6    4.57    0.89   3
   7   3  -6    5.00    0.91   1
   7  -3  -6    3.65    1.00   2
   7   3  -6    5.05    0.94   2
   6  -3  -6   -0.24    0.68   2
  -6  -3   6    0.92    0.61   3
  -6   3   6   -0.02    0.61   3
   6   3  -6    0.50    0.62   1
   5   3  -6   24.70    1.26   1
   5  -3  -6   26.59    1.38   2
   5   3  -6   28.35    1.39   2
  -5  -3   6   23.53    1.28   3
  -5   3   6   26.52    1.29   3
   4   3  -6  107.48    2.73   1
   4   3  -6  112.57    2.81   2
  -4   3   6  108.54    2.70   3
   4  -3  -6  110.19    2.85   2
   4  -3  -6  110.25    2.63   1
  -4  -3   6  115.37    2.75   3
  -3   3   6   40.54    1.43   3
   3  -3  -6   40.36    1.41   1
   3   3  -6   41.13    1.37   2
   3   3  -6   41.00    1.48   1
   3  -3  -6   39.69    1.46   2
  -3  -3   6   40.15    1.45   3
   2   3  -6    0.98    0.49   1
  -2   3   6    0.13    0.42   4
  -2  -3   6   -0.46    0.49   3
   2  -3  -6    0.90    0.43   2
   2  -3  -6    0.76    0.47   1
  -2  -3   6    0.82    0.41   4
  -2   3   6    0.66    0.44   3
  -1  -3   6  101.77    2.48   3
  -1   3   6   90.88    2.52   4
   1   3  -6   99.00    2.49   1
  -1  -3   6   93.07    2.54   4
   1  -3  -6   98.25    2.45   1
  -1   3   6   92.61    2.32   3
   0   3  -6    0.69    0.52   1
   0  -3   6    0.12    0.54   4
   0  -3   6    0.16    0.51   3
   0   3   6    0.99    0.48   3
   0  -3  -6   -0.25    0.53   1
   0   3   6   -0.40    0.51   4
   1  -3   6   -0.28    0.53   4
   1   3   6   -0.02    0.60   4
  -1   3  -6    0.18    0.54   1
   1  -3   6   -0.10    0.52   3
  -1  -3  -6    0.01    0.54   1
   2  -3   6   96.52    2.62   3
   2   3   6   99.41    3.03   4
   2  -3   6   97.89    3.01   4
  -2  -3  -6   99.77    2.74   1
  -2   3  -6  102.24    2.74   1
   3   3   6    2.94    0.91   4
   3  -3   6    5.63    0.97   4
  -3  -3  -6    4.73    0.86   1
  -3   3  -6    4.78    0.90   1
   7   4  -6    7.52    0.98   1
   7  -4  -6    8.00    1.11   2
  -7  -4   6    6.39    1.01   2
  -7   4   6    7.31    0.98   3
  -7  -4   6    7.07    0.98   3
   6   4  -6   -0.24    0.59   1
  -6  -4   6   -0.55    0.59   2
  -6  -4   6   -0.30    0.56   3
  -6   4   6   -0.95    0.56   3
   6  -4  -6    0.74    0.67   2
  -5  -4   6   22.68    1.27   2
  -5  -4   6   24.95    1.28   3
   5   4  -6   23.71    1.23   1
   5  -4  -6   22.18    1.31   2
  -5   4   6   23.93    1.27   3
  -4  -4   6   14.46    1.02   3
  -4   4   6   13.46    1.02   3
   4  -4  -6   12.80    1.06   2
   4   4  -6   14.69    1.05   1
   4  -4  -6   15.07    1.01   1
   3  -4  -6    0.37    0.42   1
  -3   4   6   -0.15    0.44   3
   3   4  -6    0.01    0.42   2
   3  -4  -6    0.59    0.49   2
   3   4  -6    0.43    0.51   1
  -3  -4   6    1.26    0.51   3
  -2   4   6   31.08    1.23   3
   2   4  -6   32.69    1.32   1
   2  -4  -6   34.19    1.27   1
  -2   4   6   30.93    1.23   4
   2  -4  -6   31.27    1.22   2
  -2  -4   6   31.80    1.31   3
   1   4  -6  347.56    6.69   1
  -1   4   6  352.06    6.46   3
   1  -4  -6  348.76    6.65   1
  -1  -4   6  347.66    7.05   4
  -1   4   6  347.16    7.09   4
   0   4   6   -0.40    0.49   4
   0  -4  -6   -0.56    0.53   1
   0   4  -6    1.08    0.54   1
   0  -4   6    0.27    0.50   3
  -1   4  -6    8.12    0.84   4
   1  -4   6    8.80    0.86   3
   1   4   6    8.31    0.89   4
  -1   4  -6    8.58    0.84   1
  -1  -4  -6    8.44    0.86   1
  -2  -4  -6   -0.09    0.64   1
   2  -4   6    1.32    0.71   4
  -2   4  -6    1.04    0.65   1
   2  -4   6    1.51    0.62   3
   2   4   6   -0.07    0.71   4
   3  -4   6   28.68    1.70   4
  -3   4  -6   30.14    1.62   1
   3   4   6   27.79    1.74   4
  -3  -4  -6   28.33    1.53   1
  -7   5   6    1.06    0.73   3
  -7  -5   6    1.57    0.74   3
  -7  -5   6    1.24    0.77   2
   7  -5  -6    0.32    0.76   2
   7   5  -6    0.05    0.69   1
  -6  -5   6    9.53    0.94   3
   6  -5  -6    8.49    1.00   2
  -6   5   6   10.04    1.00   3
  -6  -5   6    8.98    0.97   2
   6   5  -6    7.58    0.92   1
  -5  -5   6    0.49    0.58   2
  -5  -5   6    0.70    0.57   3
  -5   5   6   -0.36    0.56   3
   5   5  -6    0.27    0.57   1
   5  -5  -6    0.20    0.60   2
  -4  -5   6   41.79    1.54   3
   4  -5  -6   40.70    1.61   2
  -4  -5   6   39.73    1.51   2
   4   5  -6   41.03    1.56   1
  -4   5   6   39.93    1.51   3
   3   5  -6   15.45    0.92   2
   3  -5  -6   12.74    0.89   1
  -3   5   6   15.23    0.95   3
   3   5  -6   12.25    1.01   1
   3  -5  -6   12.31    0.97   2
  -3  -5   6   14.60    1.00   3
  -2   5   6    2.97    0.57   3
  -2  -5   6    3.04    0.62   3
   2  -5  -6    4.78    0.61   2
  -2   5   6    3.77    0.59   4
   2  -5  -6    5.35    0.63   1
   2   5  -6    4.30    0.64   1
   1   5  -6    3.84    0.58   4
  -1  -5   6    3.93    0.67   3
   1   5  -6    4.88    0.67   1
   1  -5  -6    3.16    0.58   2
  -1   5   6    0.69    0.60   4
  -1   5   6    2.82    0.54   3
   1  -5  -6    2.51    0.61   1
   0  -5  -6   46.78    1.65   1
   0  -5   6   49.18    1.70   3
   0   5  -6   46.97    1.65   1
   0   5   6   47.92    1.76   4
   0   5  -6   48.04    1.72   4
   1   5   6    1.61    0.64   4
   1  -5   6    1.69    0.60   3
  -1   5  -6    1.28    0.62   4
  -1  -5  -6    1.44    0.62   1
  -1   5  -6    1.43    0.59   1
  -2   5  -6   64.08    2.05   1
  -2   5  -6   56.63    2.14   4
   2  -5   6   59.79    2.00   3
   2   5   6   57.72    2.22   4
  -2  -5  -6   61.67    2.08   1
   3  -5   6    0.62    0.75   4
  -3  -5  -6   -0.25    0.68   1
   3   5   6   -0.28    0.69   4
  -3   5  -6    1.45    0.76   1
   7  -6  -6    1.20    0.82   2
  -7  -6   6    1.46    0.81   2
  -7  -6   6    2.13    0.78   3
  -7   6   6    0.70    0.70   3
   7   6  -6    1.43    0.80   1
   6   6  -6    0.06    0.65   1
   6  -6  -6   -0.09    0.66   2
  -6  -6   6    0.27    0.60   3
  -6  -6   6    0.76    0.65   2
  -6   6   6    0.20    0.62   3
  -5  -6   6   10.51    1.04   2
   5  -6  -6   11.82    1.07   2
   5   6  -6   10.48    0.95   1
  -5  -6   6   10.74    1.01   3
  -5   6   6   10.41    0.98   3
   4   6  -6    6.74    0.81   1
  -4  -6   6    6.84    0.77   2
  -4  -6   6    7.57    0.80   3
   4  -6  -6    7.72    0.85   2
  -4   6   6    7.66    0.79   3
   3  -6  -6    2.32    0.56   2
  -3   6   6    3.06    0.52   4
  -3  -6   6    1.57    0.55   3
  -3   6   6    1.89    0.53   3
   3   6  -6    1.37    0.59   1
   3  -6  -6    1.79    0.49   1
   2   6  -6   10.15    0.95   1
  -2   6   6    9.62    0.91   4
  -2  -6   6    8.27    0.82   3
   2  -6  -6   13.75    0.94   2
  -2   6   6    8.89    0.74   3
   2  -6  -6    8.92    0.83   1
   1  -6  -6   39.06    1.39   2
   1   6  -6   36.48    1.43   1
  -1   6   6   34.58    1.45   4
  -1  -6   6   35.66    1.47   3
  -1   6   6   36.01    1.25   3
   1   6  -6   36.72    1.40   4
   1  -6  -6   37.14    1.38   1
   0  -6  -6   20.63    1.15   1
   0  -6   6   19.63    1.18   3
   0   6  -6   21.10    1.15   1
   0   6   6   19.17    1.22   4
   0   6  -6   20.28    1.21   4
   1  -6   6   15.99    1.10   3
   1   6   6   15.59    1.18   4
  -1   6  -6   16.79    1.07   1
  -1  -6  -6   17.70    1.15   1
  -1   6  -6   15.49    1.17   4
  -2   6  -6    0.60    0.59   1
   2  -6   6   -0.08    0.59   3
   2   6   6   -0.71    0.65   4
  -2  -6  -6   -0.20    0.59   1
  -2   6  -6    0.65    0.61   4
   3   6   6   32.53    1.80   4
   3  -6   6   29.55    1.54   3
  -3   6  -6   35.00    1.71   1
  -3   6  -6   29.21    1.69   4
  -3  -6  -6   29.50    1.55   1
  -7  -7   6    2.15    0.87   2
  -7   7   6    2.19    0.82   3
  -7  -7   6    3.18    0.79   3
   7   7  -6    1.77    0.83   1
   7  -7  -6    1.74    0.84   2
  -6  -7   6    9.76    0.95   3
  -6   7   6    8.39    0.99   3
  -6  -7   6    8.85    0.98   2
   6   7  -6    7.80    0.96   1
   6  -7  -6    7.65    0.99   2
  -5   7   6   33.56    1.47   3
  -5  -7   6   33.43    1.47   3
   5   7  -6   28.28    1.41   1
   5  -7  -6   30.67    1.51   2
  -5  -7   6   31.84    1.48   2
  -4  -7   6   13.64    1.06   3
   4   7  -6   12.25    1.04   1
   4  -7  -6   14.09    1.10   2
  -4   7   6   15.72    1.07   3
   3  -7  -6   47.33    1.70   2
  -3  -7   6   49.24    1.65   3
  -3   7   6   48.11    1.59   3
  -3   7   6   49.50    1.63   4
   3   7  -6   46.86    1.70   1
  -2   7   6   44.13    1.46   3
  -2  -7   6   44.69    1.62   3
   2  -7  -6   44.93    1.57   2
  -2   7   6   46.30    1.61   4
   2   7  -6   45.14    1.62   1
   2  -7  -6   47.51    1.51   1
   1   7  -6    0.58    0.53   1
  -1   7   6   -0.27    0.48   4
   1  -7  -6    0.39    0.49   1
  -1  -7   6   -0.43    0.50   3
   1  -7  -6    1.20    0.50   2
   0   7   6    5.98    0.80   4
   0  -7  -6    5.91    0.75   1
   0   7  -6    4.72    0.74   4
   0   7  -6    6.72    0.79   1
   0  -7   6    7.39    0.82   3
   1   7   6   49.42    1.93   4
  -1  -7  -6   50.84    1.81   1
  -1   7  -6   49.90    1.76   1
   1  -7   6   50.68    1.81   3
  -1   7  -6   48.06    1.86   4
   2  -7   6    5.67    0.82   3
  -2   7  -6    6.88    0.84   1
   2   7   6    4.78    0.89   4
  -2   7  -6    4.35    0.83   4
  -2  -7  -6    4.46    0.79   1
  -3   7  -6    8.36    1.10   4
   3  -7   6    7.69    1.00   3
  -3  -7  -6   10.07    1.09   1
  -3   7  -6   12.62    1.16   1
   3   7   6    7.86    1.11   4
  -6  -8   6   17.83    1.22   3
   6   8  -6   17.34    1.27   1
  -6  -8   6   17.41    1.27   2
  -6   8   6   16.21    1.23   3
   6  -8  -6   15.00    1.26   2
   5   8  -6   -0.06    0.58   1
  -5  -8   6    1.22    0.64   3
  -5  -8   6    0.90    0.62   2
   5  -8  -6    0.71    0.66   2
  -5   8   6    0.16    0.64   3
  -4   8   6    6.50    0.78   3
   4   8  -6    6.19    0.80   1
   4  -8  -6    5.10    0.78   2
  -4  -8   6    4.26    0.72   3
   3   8  -6   -0.47    0.54   1
  -3   8   6    0.28    0.49   4
   3  -8  -6    0.71    0.55   2
  -3   8   6    0.76    0.50   3
  -3  -8   6    0.03    0.50   3
   2  -8  -6   55.83    1.82   2
   2   8  -6   53.96    1.80   1
  -2   8   6   56.10    1.84   4
  -2   8   6   55.32    1.68   3
   2  -8  -6   54.06    1.66   1
  -2  -8   6   55.64    1.80   3
   1   8  -6    9.55    0.87   1
  -1   8   6    8.53    0.86   4
   1  -8  -6    9.45    0.89   1
  -1  -8   6    9.23    0.88   3
   1  -8  -6    9.74    0.90   2
   0   8   6   73.09    2.30   4
   0  -8   6   72.14    2.17   3
   0   8  -6   68.76    2.19   4
   0  -8  -6   71.42    2.06   1
   0   8  -6   69.55    2.09   1
   1   8   6    9.17    0.99   4
  -1  -8  -6    9.41    0.92   1
   1  -8   6    9.10    0.92   3
  -1   8  -6    8.81    0.91   1
  -1   8  -6    8.51    0.89   4
   2   8   6    0.80    0.73   4
  -2  -8  -6    1.09    0.65   1
   2  -8   6    2.15    0.71   3
  -2   8  -6    1.01    0.71   4
  -2   8  -6    0.94    0.63   1
   3  -8   6    5.48    0.96   3
  -3   8  -6    6.41    1.02   4
  -3   8  -6    7.73    1.04   1
   3   8   6    4.15    0.99   4
  -3  -8  -6    5.88    0.97   1
   6   9  -6   -0.01    0.67   1
  -6  -9   6   -0.84    0.60   3
  -6   9   6   -0.41    0.67   3
  -6  -9   6    0.66    0.69   2
   6  -9  -6   -0.16    0.72   2
  -5  -9   6    3.52    0.72   3
  -5  -9   6    3.53    0.77   2
  -5   9   6    3.67    0.80   3
   5  -9  -6    3.37    0.77   2
   5   9  -6    3.55    0.78   1
   4   9  -6    9.05    0.92   1
  -4  -9   6    8.70    0.86   3
  -4   9   6    9.08    0.89   3
   4  -9  -6    7.63    0.90   2
  -3   9   6  104.12    2.61   3
  -3   9   6  110.93    2.84   4
  -3  -9   6  104.96    2.69   3
   3   9  -6  103.25    2.75   1
   3  -9  -6  103.78    2.85   2
  -2   9   6    0.15    0.46   3
  -2   9   6    0.70    0.53   4
   2   9  -6   -0.14    0.52   1
   2  -9  -6    0.07    0.51   2
   2  -9  -6   -0.18    0.48   1
  -2  -9   6   -0.46    0.50   3
   1  -9  -6    0.65    0.48   1
  -1   9   6    0.26    0.56   4
   1   9  -6    0.26    0.54   1
  -1  -9   6    0.87    0.58   3
   1  -9  -6    0.17    0.50   2
   0   9   6   11.02    1.09   4
   0  -9   6   11.13    1.02   3
   0   9  -6   10.52    0.98   4
   0  -9  -6   13.11    1.07   1
   0   9  -6   11.20    0.99   1
  -1   9  -6   36.20    1.64   4
  -1  -9  -6   37.92    1.57   1
   1   9   6   40.48    1.79   4
  -1   9  -6   37.69    1.57   1
   1  -9   6   37.17    1.61   3
  -2   9  -6   -1.07    0.61   1
   2  -9   6   -0.25    0.62   3
  -2  -9  -6    0.02    0.62   1
   2   9   6    0.16    0.71   4
  -2   9  -6   -0.49    0.61   4
  -6 -10   6    8.05    1.06   2
   6 -10  -6   10.21    1.12   2
  -6 -10   6   11.21    1.05   3
   6  10  -6   11.43    1.13   1
  -6  10   6   10.81    1.07   3
   5 -10  -6    3.72    0.80   2
  -5 -10   6    4.38    0.78   3
  -5  10   6    4.78    0.84   3
  -5 -10   6    2.98    0.79   2
   5  10  -6    5.39    0.85   1
  -4 -10   6    5.95    0.79   3
   4  10  -6    6.76    0.85   1
  -4  10   6    4.99    0.78   3
   4 -10  -6    5.43    0.84   2
  -3  10   6    7.04    0.85   4
   3  10  -6    6.29    0.82   1
  -3 -10   6    6.44    0.80   3
  -3  10   6    5.87    0.76   3
   3 -10  -6    6.42    0.86   2
   2  10  -6    2.97    0.69   1
  -2 -10   6    3.76    0.72   3
  -2  10   6    5.57    0.75   4
   2 -10  -6    3.92    0.75   2
   1 -10  -6   13.52    0.99   1
  -1  10   6   12.29    1.09   4
  -1 -10   6   14.07    1.08   3
   1 -10  -6   13.36    1.05   2
   1  10  -6   13.07    1.08   1
   0  10  -6   37.17    1.62   4
   0  10  -6   39.75    1.58   1
   0 -10  -6   40.52    1.58   1
   0 -10   6   38.39    1.61   3
   0  10   6   42.26    1.77   4
  -1  10  -6   -0.10    0.62   1
   1  10   6   -0.02    0.68   4
  -1  10  -6    1.28    0.60   4
  -1 -10  -6    1.10    0.60   1
   1 -10   6    0.56    0.61   3
  -2  10  -6    1.28    0.78   4
  -2 -10  -6    2.39    0.77   1
   2 -10   6    1.94    0.75   3
   2  10   6    2.48    0.85   4
  -2  10  -6    2.36    0.77   1
  -6 -11   6    0.48    0.69   3
   6 -11  -6   -0.12    0.72   2
   6  11  -6    1.43    0.76   1
  -6  11   6    1.20    0.76   3
  -6 -11   6    1.01    0.82   2
   5 -11  -6    0.61    0.71   2
  -5 -11   6    1.40    0.64   3
   5  11  -6   -0.01    0.67   1
  -5  11   6    0.67    0.69   3
  -4 -11   6    0.25    0.57   3
   4  11  -6    0.82    0.64   1
   4 -11  -6    0.08    0.63   2
  -4  11   6    0.47    0.60   3
   3 -11  -6    6.18    0.88   2
  -3  11   6    5.41    0.76   3
  -3  11   6    6.48    0.84   4
   3  11  -6    5.67    0.82   1
  -3 -11   6    4.72    0.78   3
   2 -11  -6    3.73    0.76   2
   2  11  -6    4.87    0.77   1
  -2 -11   6    4.15    0.76   3
  -2  11   6    4.39    0.77   4
   1 -11  -6    0.88    0.60   2
   1  11  -6    0.24    0.57   1
  -1 -11   6    0.21    0.59   3
  -1  11   6    0.15    0.60   4
   0  11  -6   16.62    1.24   4
   0 -11   6   16.77    1.19   3
   0 -11  -6   17.28    1.13   1
   0 -11  -6   18.56    1.18   2
   0  11   6   18.43    1.32   4
   0  11  -6   16.76    1.16   1
  -1  11  -6   16.30    1.21   1
  -1 -11  -6   16.87    1.11   1
   1 -11   6   15.25    1.18   3
  -1  11  -6   16.80    1.22   4
   1  11   6   15.93    1.36   4
  -2  11  -6   36.21    1.65   1
  -2 -11  -6   37.10    1.74   1
  -2  11  -6   31.07    1.72   4
   2  11   6   37.12    1.90   4
   2 -11   6   30.57    1.62   3
  -6  12   6   -0.51    0.71   3
   6 -12  -6    0.39    0.77   2
   6  12  -6    0.11    0.73   1
  -6 -12   6   -0.91    0.75   2
  -6 -12   6   -0.27    0.65   3
  -5  12   6   15.69    1.25   3
   5  12  -6   14.89    1.26   1
  -5 -12   6   18.56    1.27   3
   5 -12  -6   15.56    1.31   2
  -4 -12   6   13.44    1.14   3
  -4  12   6   13.58    1.12   3
   4 -12  -6   13.49    1.21   2
   4  12  -6   13.02    1.16   1
  -3 -12   6   17.99    1.22   3
  -3  12   6   20.78    1.44   4
   3  12  -6   21.11    1.31   1
   3 -12  -6   21.63    1.36   2
   2 -12  -6   26.15    1.46   2
  -2  12   6   26.37    1.48   4
  -2 -12   6   23.96    1.35   3
   2  12  -6   22.91    1.32   1
  -1  12   6   26.31    1.46   4
  -1 -12   6   22.30    1.29   3
   1 -12  -6   22.48    1.29   2
   1  12  -6   25.86    1.37   1
   0 -12   6   16.48    1.22   3
   0 -12  -6   16.37    1.18   2
   0 -12  -6   14.06    1.00   1
   0  12   6   15.45    1.25   4
   0  12  -6   14.20    1.20   4
   0  12  -6   16.53    1.19   1
  -1 -12  -6    2.71    0.72   1
   1 -12   6    3.56    0.81   3
   1  12   6    3.57    0.89   4
  -1  12  -6    4.65    0.86   4
  -1  12  -6    4.62    0.80   1
  -2 -12  -6    1.87    0.82   1
  -2  12  -6    1.26    0.78   4
   2 -12   6    1.99    0.82   3
   2  12   6    0.70    0.84   4
   5 -13  -6    8.41    1.08   2
  -5 -13   6   10.71    1.02   3
  -5  13   6   10.14    1.06   3
   5  13  -6   10.17    1.10   1
  -4  13   6   22.23    1.32   3
  -4 -13   6   23.65    1.35   3
   4 -13  -6   22.88    1.46   2
   4  13  -6   20.93    1.38   1
   3  13  -6    6.42    0.89   1
   3 -13  -6    6.45    0.93   2
  -3 -13   6    6.79    0.89   3
  -3  13   6    6.03    0.92   4
  -2  13   6  107.80    3.02   4
   2 -13  -6  107.42    3.03   2
   2  13  -6   99.30    2.76   1
  -2 -13   6   98.54    2.79   3
  -1  13   6    1.77    0.76   4
  -1 -13   6    2.19    0.71   3
   1  13  -6    1.69    0.69   1
   1 -13  -6    0.94    0.69   2
   0  13  -6    8.31    0.92   4
   0 -13   6    9.89    1.04   3
   0 -13  -6    9.37    0.96   2
   0  13  -6    8.84    0.93   1
   0  13   6    7.76    1.01   4
  -1  13  -6    0.77    0.73   4
   1  13   6    3.09    0.85   4
  -1  13  -6    2.83    0.77   1
   1 -13   6    1.15    0.75   3
  -1 -13  -6    2.10    0.75   1
   2  13   6    7.39    1.13   4
  -2 -13  -6    8.40    1.07   1
  -2  13  -6    4.70    1.00   4
   2 -13   6    8.66    1.09   3
  -5  14   6   10.40    1.11   3
   5 -14  -6   12.00    1.24   2
  -5 -14   6   12.03    1.08   3
   5  14  -6   10.64    1.15   1
  -4 -14   6   11.83    1.04   3
  -4  14   6    8.92    0.99   3
   4  14  -6   10.36    1.08   1
   4 -14  -6    9.74    1.12   2
  -3 -14   6    2.81    0.79   3
  -3  14   6    3.09    0.86   4
   3  14  -6    4.82    0.86   1
   3 -14  -6    4.95    0.92   2
  -2  14   6    2.06    0.80   4
   2 -14  -6    1.64    0.77   2
  -2 -14   6    1.45    0.72   3
   2  14  -6    2.16    0.74   1
  -1  14   6   -0.34    0.70   4
   1  14  -6    0.51    0.67   1
  -1 -14   6    0.35    0.65   3
   1 -14  -6   -0.25    0.63   2
   0 -14  -6    0.17    0.63   2
   0  14  -6    0.60    0.65   1
   0  14   6   -0.15    0.73   4
   0 -14   6   -0.39    0.66   3
  -1  14  -6   13.62    1.38   4
  -1 -14  -6   18.85    1.44   1
   1 -14   6   15.40    1.33   3
   1  14   6   19.48    1.48   4
  -1  14  -6   17.94    1.37   1
   5 -15  -6    0.28    0.79   2
   5  15  -6    0.52    0.79   1
  -5  15   6   -0.19    0.73   3
  -5 -15   6    1.19    0.73   3
   4  15  -6    0.72    0.72   1
  -4 -15   6    0.19    0.64   3
   4 -15  -6   -0.20    0.74   2
  -3  15   6   -1.08    0.69   4
   3 -15  -6   -0.34    0.71   2
  -3 -15   6    0.26    0.67   3
   3  15  -6    0.31    0.69   1
  -2  15   6   32.39    1.80   4
   2  15  -6   30.42    1.54   1
   2 -15  -6   30.99    1.72   2
  -2 -15   6   29.46    1.55   3
  -1  15   6   -0.16    0.75   4
   1  15  -6    0.15    0.69   1
  -1 -15   6    0.52    0.69   3
   1 -15  -6    0.66    0.71   2
   0 -15  -6   22.52    1.45   2
   0 -15   6   20.87    1.43   3
   0  15   6   21.24    1.57   4
   0  15  -6   23.01    1.39   1
   1 -15   6   41.74    1.96   3
   1  15   6   48.21    2.18   4
  -1  15  -6   40.26    2.00   4
   4  16  -6    0.66    0.75   1
  -4 -16   6    1.03    0.70   3
   4 -16  -6    0.30    0.76   2
  -3  16   6    0.99    0.80   4
  -3 -16   6    0.93    0.72   3
   3 -16  -6    1.78    0.83   2
   3  16  -6    2.01    0.80   1
  -2  16   6   30.02    1.82   4
   2 -16  -6   29.04    1.70   2
   2  16  -6   30.44    1.55   1
  -2 -16   6   29.92    1.57   3
   1 -16  -6    5.27    0.93   2
  -1 -16   6    5.75    0.93   3
   1  16  -6    4.86    0.90   1
  -1  16   6    5.74    1.02   4
   0  16  -6    0.21    0.73   1
   0 -16  -6    1.19    0.75   2
   0  16   6   -0.63    0.85   4
   0 -16   6   -0.72    0.76   3
  -3  17   6    6.77    1.07   4
  -3 -17   6    6.73    0.96   3
   3 -17  -6    8.00    1.14   2
   3  17  -6    7.74    1.04   1
  -2 -17   6    2.20    0.83   3
   2 -17  -6    2.83    0.86   2
  -2  17   6    2.46    0.95   4
   2  17  -6    2.14    0.79   1
  -1  17   6   21.59    1.68   4
  -1 -17   6   16.96    1.34   3
   1 -17  -6   18.57    1.39   2
   1  17  -6   21.20    1.48   1
   0  17   6    3.92    1.11   4
   0 -17  -6    3.87    0.94   2
   0 -17   6    2.14    0.90   3
  -2 -18   6    7.56    1.05   3
   2  18  -6    8.51    1.06   1
   2 -18  -6    9.17    1.15   2
  -2  18   6    8.82    1.23   4
   6   0  -7   -0.42    0.72   2
  -6   0   7   -0.29    0.62   3
   5   0  -7   20.90    1.29   2
   5   0  -7   19.77    1.25   1
  -5   0   7   18.71    1.24   3
   4   0  -7    0.64    0.58   2
   4   0  -7   -0.09    0.51   1
  -4   0   7   -0.53    0.53   3
  -3   0   7    3.47    0.69   3
   3   0  -7    4.69    0.69   1
   2   0  -7    0.64    0.55   1
  -2   0   7   -0.42    0.52   3
   1   0  -7    0.48    0.55   1
  -1   0   7   -0.56    0.52   4
  -1   0   7    0.46    0.52   3
   0   0   7   -0.30    0.58   4
   0   0   7   -0.65    0.56   3
   0   0  -7   -0.02    0.56   1
   1   0   7   18.15    1.38   4
  -1   0  -7   20.62    1.27   1
   2   0   7    0.02    0.80   4
  -2   0  -7    0.39    0.68   1
  -6   1   7    6.16    0.88   3
   6   1  -7    7.13    0.90   1
   6  -1  -7    7.33    1.00   2
  -6  -1   7    6.25    0.90   3
   6   1  -7    6.21    1.00   2
   5   1  -7   -0.31    0.54   1
  -5   1   7   -0.27    0.57   3
   5   1  -7   -0.84    0.60   2
  -5  -1   7    0.03    0.62   3
   5  -1  -7    0.19    0.54   1
   5  -1  -7    0.46    0.62   2
  -4   1   7    0.97    0.60   3
   4  -1  -7    0.81    0.57   2
   4  -1  -7    1.26    0.57   1
   4   1  -7    0.32    0.56   2
  -4  -1   7    1.39    0.62   3
   4   1  -7    0.25    0.55   1
  -3   1   7   20.75    1.17   3
   3  -1  -7   23.26    1.18   1
  -3  -1   7   21.44    1.17   3
   3   1  -7   22.82    1.24   1
   2   1  -7   67.61    2.03   1
   2  -1  -7   62.72    1.97   1
  -2   1   7   67.63    1.99   3
  -2  -1   7   66.00    1.99   3
  -1  -1   7   15.01    1.14   4
  -1   1   7   16.58    1.06   3
   1  -1  -7   15.53    1.10   1
   1   1  -7   16.33    1.09   1
  -1  -1   7   16.23    1.07   3
  -1   1   7   15.53    1.07   4
   0   1   7   19.72    1.28   4
   0   1  -7   18.17    1.18   1
   0  -1  -7   18.13    1.17   1
   0  -1   7   20.11    1.34   4
   0   1   7   16.88    1.15   3
   0  -1   7   19.81    1.24   3
   1   1   7    0.36    0.74   4
  -1  -1  -7    1.20    0.67   1
   1  -1   7    0.53    0.75   4
  -1   1  -7    1.13    0.67   1
   2   1   7   32.76    1.83   4
  -2  -1  -7   34.39    1.64   1
   2  -1   7   34.15    1.89   4
  -2   1  -7   31.49    1.60   1
  -6  -2   7    6.58    0.90   3
   6  -2  -7    9.23    1.04   2
  -6   2   7    8.84    0.99   3
   6   2  -7    8.41    1.07   2
   6   2  -7    9.51    0.99   1
   5   2  -7   11.25    1.00   2
  -5   2   7   10.95    0.98   3
   5  -2  -7   10.11    0.98   2
   5  -2  -7    9.42    0.88   1
   5   2  -7   10.40    0.97   1
  -5  -2   7    9.50    0.98   3
  -4   2   7   15.93    1.12   3
   4   2  -7   16.36    1.14   1
   4  -2  -7   17.22    1.13   1
  -4  -2   7   14.61    1.09   3
   4  -2  -7   14.96    1.11   2
  -3  -2   7    1.72    0.60   3
  -3   2   7    2.20    0.63   3
   3   2  -7    1.86    0.64   1
   3  -2  -7    2.09    0.58   1
   2   2  -7    4.15    0.70   1
   2  -2  -7    4.18    0.68   1
  -2   2   7    3.55    0.67   3
  -2  -2   7    3.97    0.68   3
  -1  -2   7   35.53    1.53   4
   1  -2  -7   35.03    1.49   1
  -1   2   7   34.99    1.50   4
   1   2  -7   34.59    1.48   1
  -1   2   7   37.28    1.43   3
  -1  -2   7   35.32    1.47   3
   0   2  -7   42.90    1.70   1
   0  -2   7   45.13    1.69   3
   0   2   7   43.31    1.77   4
   0  -2  -7   47.84    1.73   1
   0  -2   7   46.38    1.88   4
  -1  -2  -7   25.53    1.39   1
   1   2   7   24.77    1.51   4
   1  -2   7   26.91    1.50   3
   1  -2   7   26.51    1.61   4
  -1   2  -7   27.09    1.44   1
   2   2   7    0.70    0.82   4
  -2   2  -7    0.95    0.72   1
  -2  -2  -7    1.71    0.77   1
   2  -2   7    2.03    0.86   4
  -6   3   7    2.20    0.76   3
   6   3  -7    3.09    0.82   2
   6  -3  -7    2.51    0.81   2
   6   3  -7    2.04    0.71   1
  -6  -3   7    2.94    0.79   3
  -5  -3   7    2.46    0.72   3
   5   3  -7    1.99    0.72   2
   5   3  -7    2.56    0.69   1
   5  -3  -7    1.58    0.70   2
  -5   3   7    2.05    0.69   3
  -4   3   7   16.39    1.13   3
   4   3  -7   15.05    1.15   1
   4  -3  -7   17.20    1.11   1
  -4  -3   7   17.06    1.15   3
   4  -3  -7   15.88    1.13   2
   3   3  -7   25.97    1.32   1
   3  -3  -7   26.33    1.24   1
  -3   3   7   26.10    1.26   3
  -3  -3   7   27.04    1.29   3
   2  -3  -7   18.64    1.09   1
  -2  -3   7   18.56    1.12   3
   2   3  -7   19.09    1.14   1
  -2   3   7   19.13    1.13   4
  -2   3   7   20.19    1.12   3
  -1  -3   7   21.12    1.23   3
   1  -3  -7   18.56    1.18   1
   1   3  -7   19.87    1.18   1
  -1   3   7   20.30    1.14   3
  -1  -3   7   21.27    1.28   4
  -1   3   7   21.48    1.22   4
   0   3  -7   18.44    1.24   1
   0  -3  -7   17.00    1.20   1
   0   3   7   17.76    1.22   4
   0  -3   7   19.83    1.36   4
   0  -3   7   19.67    1.24   3
   1  -3   7   14.00    1.25   3
   1   3   7   14.54    1.23   4
  -1   3  -7   15.20    1.18   1
   1  -3   7   14.49    1.32   4
  -1  -3  -7   15.80    1.19   1
   2  -3   7   13.28    1.30   4
  -2   3  -7   12.05    1.17   1
   2   3   7   11.06    1.19   4
  -2  -3  -7   11.85    1.14   1
  -6  -4   7    8.05    0.96   3
   6   4  -7    9.41    1.02   2
   6   4  -7    7.73    0.98   1
   6  -4  -7    7.69    1.02   2
  -6   4   7    7.28    0.98   3
   5   4  -7    3.40    0.72   2
   5  -4  -7    3.49    0.78   2
  -5  -4   7    5.35    0.85   3
   5   4  -7    4.23    0.78   1
  -5   4   7    3.87    0.79   3
  -4  -4   7   32.01    1.46   3
   4   4  -7   32.03    1.47   1
   4  -4  -7   31.09    1.36   1
   4  -4  -7   33.37    1.50   2
  -4   4   7   32.44    1.45   3
  -3   4   7    9.75    0.87   3
  -3  -4   7   11.07    0.94   3
   3  -4  -7    9.73    0.87   2
   3  -4  -7   10.00    0.86   1
   3   4  -7   10.63    0.93   1
  -2   4   7   21.18    1.13   3
  -2  -4   7   19.53    1.15   3
   2   4  -7   20.68    1.19   1
   2  -4  -7   20.89    1.13   1
  -2   4   7   17.78    1.09   4
   1  -4  -7   10.42    0.99   1
  -1   4   7   12.77    0.97   3
  -1  -4   7   12.44    1.12   4
  -1   4   7   11.70    1.07   4
   1   4  -7   10.74    1.00   1
  -1  -4   7   12.60    1.09   3
   0  -4   7    8.44    0.96   4
   0  -4  -7    8.19    0.89   1
   0   4  -7   10.33    0.99   1
   0   4   7    6.32    0.87   4
   0  -4   7    8.66    0.96   3
   1   4   7    8.90    1.01   4
  -1   4  -7    9.45    0.98   1
   1  -4   7    9.47    1.04   3
   1  -4   7   10.12    1.08   4
  -1  -4  -7    8.04    0.93   1
   2   4   7    0.01    0.70   4
  -2   4  -7    0.36    0.73   1
   2  -4   7   -0.16    0.80   4
  -2  -4  -7    0.68    0.70   1
  -6  -5   7   13.83    1.21   3
   6   5  -7   17.90    1.32   2
  -6   5   7   12.74    1.19   3
   6  -5  -7   13.87    1.27   2
   6   5  -7   13.88    1.22   1
  -5   5   7    0.35    0.62   3
  -5  -5   7   -0.24    0.61   3
   5  -5  -7    0.12    0.60   2
   5   5  -7   -0.18    0.62   1
   5   5  -7    0.25    0.60   2
   4   5  -7    1.61    0.64   1
  -4   5   7    0.52    0.59   3
  -4  -5   7    1.56    0.66   3
   4  -5  -7    1.22    0.63   2
   3  -5  -7    0.16    0.55   2
   3  -5  -7    0.45    0.52   1
  -3  -5   7    0.33    0.57   3
  -3   5   7    1.08    0.56   3
   3   5  -7   -0.06    0.54   1
   2  -5  -7   11.85    0.97   1
  -2   5   7    9.48    0.87   4
  -2   5   7   10.97    0.92   3
  -2  -5   7   10.22    0.90   3
   2   5  -7   10.75    1.00   1
  -1  -5   7   28.66    1.40   3
  -1  -5   7   28.91    1.44   4
   1   5  -7   27.36    1.35   1
   1  -5  -7   25.94    1.31   1
  -1   5   7   27.80    1.42   4
   0  -5   7    4.43    0.84   3
   0   5  -7    7.27    0.89   1
   0   5   7    4.19    0.81   4
   0  -5   7    5.12    0.83   4
   0  -5  -7    6.37    0.83   1
   1  -5   7   36.32    1.69   3
   1  -5   7   35.90    1.74   4
  -1   5  -7   32.62    1.57   1
   1   5   7   33.40    1.71   4
  -1  -5  -7   35.45    1.61   1
  -2  -5  -7    3.36    0.83   1
   2  -5   7    4.01    0.95   4
   2   5   7    3.47    0.91   4
  -2   5  -7    2.44    0.84   1
  -6   6   7    0.52    0.72   3
   6  -6  -7   -0.52    0.71   2
  -6  -6   7    0.32    0.70   3
   6   6  -7    0.80    0.72   1
  -5   6   7    0.39    0.64   3
   5   6  -7    0.74    0.64   2
  -5  -6   7    0.13    0.63   3
   5   6  -7    0.29    0.65   1
   5  -6  -7    0.24    0.66   2
   4  -6  -7   29.71    1.46   2
   4   6  -7   29.01    1.46   1
  -4   6   7   29.82    1.44   3
  -4  -6   7   31.61    1.46   3
  -3  -6   7    5.56    0.80   3
  -3   6   7    6.63    0.77   3
   3   6  -7    6.08    0.84   1
   3  -6  -7    6.09    0.74   1
   3  -6  -7    6.18    0.79   2
   2   6  -7   36.97    1.57   1
  -2   6   7   38.31    1.58   4
   2  -6  -7   39.24    1.50   1
  -2  -6   7   35.76    1.52   3
  -2   6   7   37.98    1.44   3
  -1  -6   7    2.67    0.70   3
   1  -6  -7    3.19    0.70   1
   1   6  -7    3.25    0.71   1
  -1   6   7    2.86    0.70   4
  -1  -6   7    3.60    0.71   4
   0  -6   7   45.51    1.82   3
   0   6  -7   45.11    1.77   1
   0  -6   7   43.83    1.81   4
   0  -6  -7   44.22    1.71   1
   0   6   7   43.78    1.83   4
   1   6   7   29.16    1.63   4
   1  -6   7   31.55    1.63   3
  -1  -6  -7   32.46    1.60   1
  -1   6  -7   29.70    1.52   1
   1  -6   7   31.66    1.64   4
  -2   6  -7    6.31    0.96   1
   2  -6   7    6.75    1.02   4
   2  -6   7    5.94    0.97   3
   2   6   7    5.57    1.00   4
  -2  -6  -7    7.63    0.99   1
  -6   7   7    0.81    0.76   3
   6  -7  -7    1.28    0.83   2
  -6  -7   7    0.64    0.73   3
   6   7  -7    1.07    0.76   1
   5  -7  -7    0.10    0.67   2
  -5  -7   7   -0.31    0.59   3
  -5   7   7   -0.18    0.62   3
   5   7  -7    0.23    0.66   1
  -4   7   7   46.53    1.75   3
   4   7  -7   43.03    1.77   1
   4  -7  -7   44.09    1.80   2
  -4  -7   7   47.17    1.78   3
  -3   7   7    1.20    0.60   3
   3   7  -7    0.95    0.65   1
   3  -7  -7    0.85    0.64   2
  -3  -7   7    1.24    0.62   3
  -2   7   7   21.07    1.28   4
  -2  -7   7   22.14    1.26   3
   2   7  -7   21.71    1.28   1
   2  -7  -7   23.56    1.23   1
   1   7  -7   11.60    1.05   1
  -1   7   7    9.88    0.97   4
   1  -7  -7   10.10    0.91   1
  -1  -7   7   11.51    1.00   3
   0   7  -7    1.62    0.67   4
   0  -7  -7    1.63    0.66   1
   0   7   7    0.79    0.72   4
   0   7  -7    2.36    0.72   1
   0  -7   7    3.54    0.81   3
  -1   7  -7    3.51    0.77   1
  -1  -7  -7    2.55    0.80   1
   1  -7   7    3.38    0.85   3
   1   7   7    1.99    0.83   4
  -1   7  -7    2.17    0.78   4
  -2  -7  -7    5.38    0.92   1
  -6   8   7   -0.24    0.70   3
   6   8  -7   -0.47    0.72   1
   6  -8  -7   -0.77    0.71   2
  -6  -8   7   -0.77    0.68   3
  -5   8   7   10.96    1.06   3
   5  -8  -7   11.74    1.11   2
   5   8  -7   12.24    1.14   1
  -5  -8   7   12.41    1.15   3
  -4   8   7   12.04    1.11   3
  -4  -8   7   14.09    1.13   3
   4  -8  -7   12.86    1.20   2
   4   8  -7   14.01    1.16   1
  -3   8   7    6.81    0.80   3
  -3  -8   7    6.24    0.83   3
   3  -8  -7    5.75    0.84   2
   3   8  -7    5.79    0.83   1
   2   8  -7    0.60    0.61   1
  -2   8   7   -0.46    0.58   4
  -2  -8   7    0.20    0.59   3
   2  -8  -7    0.85    0.55   1
  -1  -8   7   11.62    1.07   3
   1   8  -7   11.64    1.06   1
  -1   8   7   11.28    1.05   4
   1  -8  -7   11.18    0.97   1
   0  -8   7    2.82    0.79   3
   0  -8  -7    2.85    0.73   1
   0   8   7    3.19    0.83   4
   0   8  -7    0.81    0.67   4
   0   8  -7    2.07    0.73   1
   1   8   7    3.33    0.91   4
  -1  -8  -7    3.58    0.83   1
  -1   8  -7    3.48    0.84   4
   1  -8   7    5.76    0.92   3
  -1   8  -7    4.22    0.82   1
   6   9  -7   -1.00    0.66   1
  -6  -9   7    0.35    0.71   3
   6  -9  -7   -0.43    0.76   2
  -6   9   7    0.00    0.72   3
  -5   9   7    7.13    0.96   3
   5   9  -7    7.80    1.00   1
  -5  -9   7    7.78    0.98   3
   5  -9  -7    7.21    1.01   2
  -4  -9   7    2.10    0.73   3
  -4   9   7    0.99    0.65   3
   4  -9  -7    1.78    0.75   2
   4   9  -7    2.34    0.76   1
  -3  -9   7    1.53    0.65   3
  -3   9   7    0.35    0.58   3
   3  -9  -7    0.03    0.66   2
   3   9  -7    0.30    0.62   1
   2  -9  -7   29.58    1.48   2
  -2  -9   7   26.47    1.38   3
  -2   9   7   26.86    1.45   4
   2   9  -7   28.40    1.45   1
   1  -9  -7   -0.18    0.58   1
  -1  -9   7   -0.26    0.66   3
   1   9  -7   -0.20    0.60   1
  -1   9   7    0.85    0.69   4
   0   9  -7    1.60    0.74   1
   0  -9   7    1.59    0.74   3
   0  -9  -7    1.60    0.72   1
   0   9   7    1.30    0.78   4
  -1   9  -7    0.54    0.67   1
  -1   9  -7   -0.86    0.66   4
   1   9   7   -0.06    0.82   4
   1  -9   7    0.13    0.70   3
  -1  -9  -7    0.77    0.70   1
  -5  10   7   32.79    1.66   3
   5  10  -7   30.45    1.62   1
   5 -10  -7   29.47    1.66   2
  -5 -10   7   34.01    1.65   3
  -4  10   7   -0.62    0.60   3
   4 -10  -7   -0.05    0.70   2
  -4 -10   7    0.61    0.67   3
   4  10  -7    0.70    0.66   1
   3 -10  -7   -0.73    0.64   2
   3  10  -7   -0.02    0.61   1
  -3 -10   7   -0.15    0.62   3
  -2 -10   7    0.42    0.61   3
   2  10  -7    0.87    0.66   1
  -2  10   7    0.49    0.65   4
   2 -10  -7    0.23    0.65   2
   1  10  -7   58.34    2.05   1
   1 -10  -7   61.62    2.00   1
  -1  10   7   62.80    2.21   4
  -1 -10   7   57.39    2.10   3
   0 -10  -7    8.79    0.97   1
   0  10   7    7.87    1.03   4
   0  10  -7    6.75    0.97   1
   0 -10   7    7.76    1.02   3
  -1  10  -7    9.03    1.09   4
   1  10   7    8.46    1.13   4
   1 -10   7    8.56    1.07   3
  -1 -10  -7    9.22    0.99   1
  -1  10  -7    8.72    0.98   1
   5 -11  -7    1.45    0.82   2
  -5  11   7    2.18    0.80   3
  -5 -11   7    1.44    0.75   3
   5  11  -7    0.99    0.76   1
  -4  11   7    3.66    0.80   3
  -4 -11   7    2.82    0.79   3
   4  11  -7    3.07    0.83   1
   4 -11  -7    3.03    0.87   2
   3  11  -7   12.81    1.13   1
  -3 -11   7   11.70    1.06   3
   3 -11  -7   12.38    1.19   2
   2 -11  -7   -0.09    0.65   2
  -2 -11   7    0.10    0.58   3
   2  11  -7   -0.04    0.63   1
  -2  11   7   -0.55    0.65   4
   1  11  -7    1.89    0.74   1
  -1 -11   7    1.46    0.75   3
  -1  11   7    1.11    0.79   4
   0  11   7    2.89    0.86   4
   0 -11   7    2.78    0.85   3
   0 -11  -7    3.64    0.79   1
   0  11  -7    4.02    0.82   1
   1  11   7    1.53    0.88   4
   1 -11   7    1.97    0.80   3
  -1 -11  -7    0.44    0.68   1
  -1  11  -7   -0.52    0.74   4
  -1  11  -7   -0.07    0.69   1
   5 -12  -7    5.27    1.00   2
   5  12  -7    5.77    1.00   1
  -5  12   7    4.89    0.96   3
  -5 -12   7    6.53    0.98   3
   4  12  -7    2.20    0.79   1
   4 -12  -7    1.21    0.80   2
  -4 -12   7    1.30    0.73   3
   3  12  -7    4.84    0.86   1
   3 -12  -7    5.48    0.94   2
  -3 -12   7    3.99    0.83   3
  -2  12   7    0.99    0.74   4
  -2 -12   7   -0.28    0.62   3
   2  12  -7    0.29    0.69   1
   2 -12  -7    0.52    0.71   2
  -1 -12   7   15.69    1.27   3
  -1  12   7   16.69    1.43   4
   1  12  -7   15.59    1.27   1
   0 -12  -7   14.79    1.15   1
   0  12   7   18.62    1.41   4
   0 -12   7   13.87    1.31   3
   0  12  -7   14.28    1.21   1
   4  13  -7   -0.05    0.69   1
  -4 -13   7   -0.51    0.67   3
   4 -13  -7    0.06    0.79   2
  -3 -13   7   34.49    1.64   3
   3  13  -7   33.42    1.64   1
   3 -13  -7   36.11    1.82   2
   2 -13  -7    5.20    0.92   2
   2  13  -7    1.58    0.75   1
  -2 -13   7    1.98    0.77   3
  -2  13   7    2.33    0.87   4
  -1 -13   7    5.70    0.96   3
  -1  13   7    4.40    0.99   4
   1  13  -7    6.39    0.96   1
   0  13   7    2.62    0.91   4
   0  13  -7    1.98    0.78   1
   0 -13   7    2.20    0.91   3
   4  14  -7    5.11    0.93   1
   4 -14  -7    4.84    1.02   2
  -4 -14   7    3.82    0.87   3
   3  14  -7    2.09    0.82   1
  -3 -14   7    0.50    0.74   3
   3 -14  -7    0.53    0.80   2
   2 -14  -7    0.58    0.78   2
   2  14  -7    0.98    0.76   1
  -2 -14   7    0.95    0.73   3
  -2  14   7    0.68    0.84   4
  -1 -14   7   -0.03    0.75   3
   1  14  -7    1.45    0.76   1
  -1  14   7   -0.47    0.80   4
   3 -15  -7    6.06    1.06   2
   3  15  -7    7.23    1.00   1
  -3  15   7    7.45    1.11   4
  -3 -15   7    6.04    0.99   3
  -2 -15   7   -0.56    0.69   3
  -2  15   7   -0.27    0.86   4
   2  15  -7    0.42    0.74   1
   2 -15  -7    0.57    0.76   2
   6   0  -8    2.99    0.91   2
  -6   0   8    2.66    0.87   3
  -5   0   8    0.67    0.70   3
   5   0  -8    1.03    0.72   1
   4   0  -8    3.03    0.77   1
  -4   0   8    3.62    0.79   3
  -3   0   8   -0.43    0.59   3
   3   0  -8   -0.21    0.57   1
  -2   0   8   -0.18    0.61   3
   2   0  -8    0.88    0.64   1
   1   0  -8   -0.46    0.63   1
  -1   0   8   -0.37    0.61   3
   0   0  -8    5.24    0.89   1
   0   0   8    4.36    0.91   4
   6   1  -8    0.80    0.73   1
  -6   1   8    0.08    0.77   3
   6  -1  -8   -0.15    0.79   2
   6   1  -8    0.37    0.79   2
  -6  -1   8    0.17    0.75   3
  -5  -1   8    4.47    0.89   3
  -5   1   8    4.28    0.86   3
   5  -1  -8    3.52    0.84   1
   5   1  -8    3.99    0.87   1
  -4  -1   8    0.69    0.67   3
  -4   1   8   -0.08    0.63   3
   4  -1  -8    0.50    0.63   1
   4   1  -8    0.18    0.69   1
  -3   1   8    5.59    0.83   3
  -3  -1   8    4.40    0.79   3
   3  -1  -8    4.78    0.79   1
   3   1  -8    4.67    0.79   1
  -2   1   8   11.99    1.06   3
  -2  -1   8   11.80    1.02   3
   2  -1  -8   13.76    1.10   1
   2   1  -8   12.23    1.06   1
   1   1  -8   15.02    1.21   1
  -1   1   8   15.42    1.17   4
  -1   1   8   14.65    1.14   3
  -1  -1   8   14.46    1.12   3
   1  -1  -8   14.85    1.17   1
   0  -1  -8   -0.40    0.65   1
   0   1   8   -0.40    0.65   4
   0   1  -8    0.08    0.64   1
   0  -1   8   -0.35    0.70   4
  -6  -2   8    5.68    0.99   3
  -6   2   8    4.41    0.96   3
   6   2  -8    5.68    0.94   1
  -5   2   8   40.43    1.80   3
   5   2  -8   39.00    1.76   1
  -5  -2   8   42.10    1.80   3
  -4  -2   8    6.24    0.90   3
   4  -2  -8    5.43    0.84   1
  -4   2   8    5.11    0.85   3
   4   2  -8    6.10    0.89   1
  -3  -2   8    0.05    0.62   3
  -3   2   8    0.92    0.67   3
   3  -2  -8    0.56    0.61   1
   3   2  -8   -0.05    0.61   1
  -2  -2   8    1.58    0.68   3
   2  -2  -8    1.72    0.69   1
  -2   2   8    2.33    0.71   3
   2   2  -8    1.77    0.70   1
  -1  -2   8    1.23    0.67   3
   1   2  -8    0.20    0.68   1
  -1   2   8   -0.12    0.65   4
   1  -2  -8   -0.05    0.62   1
   0  -2   8   10.39    1.04   3
   0  -2  -8    9.70    1.03   1
   0   2   8    9.43    1.04   4
   0  -2   8    9.21    1.07   4
   0   2  -8    9.72    1.03   1
   5   3  -8    5.29    0.92   1
   5  -3  -8    3.48    0.87   2
  -5  -3   8    5.59    0.90   3
  -5   3   8    4.62    0.89   3
  -4   3   8    2.51    0.75   3
  -4  -3   8    2.73    0.78   3
   4   3  -8    2.59    0.76   1
   4  -3  -8    2.44    0.72   1
  -3  -3   8   20.26    1.29   3
  -3   3   8   22.41    1.28   3
   3   3  -8   24.29    1.35   1
   3  -3  -8   22.04    1.26   1
  -2   3   8   36.92    1.53   3
  -2  -3   8   31.56    1.50   3
   2   3  -8   32.16    1.52   1
   2  -3  -8   32.55    1.53   1
  -1   3   8    2.72    0.78   4
   1  -3  -8    3.68    0.81   1
  -1  -3   8    2.94    0.78   3
   1   3  -8    3.60    0.80   1
   0  -3   8    8.97    1.12   4
   0   3   8    8.97    1.03   4
   0  -3   8   10.29    1.06   3
   0  -3  -8   11.77    1.07   1
   0   3  -8    9.28    1.04   1
  -5  -4   8   12.71    1.18   3
   5  -4  -8   10.27    1.14   2
  -5   4   8   10.15    1.08   3
   5   4  -8   11.74    1.12   1
  -4   4   8    0.88    0.68   3
   4   4  -8    0.04    0.65   1
  -4  -4   8    1.01    0.68   3
  -3   4   8   -0.91    0.58   3
   3  -4  -8    0.44    0.60   1
   3   4  -8    0.15    0.63   1
  -3  -4   8   -0.21    0.62   3
   2  -4  -8    3.68    0.82   1
   2   4  -8    3.90    0.80   1
  -2   4   8    3.90    0.75   3
  -2  -4   8    3.40    0.75   3
  -1  -4   8    6.12    0.90   3
  -1   4   8    6.59    0.93   4
   1  -4  -8    6.98    0.92   1
   1   4  -8    6.87    0.91   1
   0  -4  -8    0.46    0.67   1
   0  -4   8    0.59    0.78   4
   0  -4   8   -0.67    0.72   3
   0   4  -8    0.16    0.68   1
   0   4   8   -0.66    0.66   4
  -5  -5   8   -0.57    0.67   3
  -5   5   8    0.60    0.71   3
   5  -5  -8   -0.87    0.72   2
   5   5  -8    0.53    0.69   1
  -4   5   8    3.09    0.80   3
  -4  -5   8    3.44    0.79   3
   4   5  -8    2.57    0.77   1
   3   5  -8    0.79    0.67   1
   3  -5  -8    0.57    0.62   1
  -3   5   8   -0.35    0.60   3
  -3  -5   8   -0.13    0.65   3
   2   5  -8    8.36    0.98   1
   2  -5  -8    8.98    0.96   1
  -2  -5   8    7.98    0.92   3
   1   5  -8    0.07    0.65   1
  -1  -5   8    0.14    0.68   3
   1  -5  -8   -0.67    0.65   1
  -1   5   8    0.08    0.70   4
   0  -5   8    3.30    0.92   4
   0   5  -8    1.97    0.76   1
   0  -5   8    3.03    0.85   3
   0   5   8    3.17    0.86   4
   0  -5  -8    2.59    0.78   1
   5   6  -8    4.57    0.90   1
  -5   6   8    4.30    0.90   3
  -5  -6   8    5.45    0.93   3
   5  -6  -8    5.14    0.95   2
  -4   6   8    3.33    0.81   3
  -4  -6   8    2.86    0.76   3
   4   6  -8    2.54    0.80   1
  -3  -6   8    1.63    0.73   3
  -3   6   8    2.15    0.73   3
   3   6  -8    4.21    0.86   1
   2  -6  -8    2.04    0.72   1
  -2  -6   8    0.56    0.71   3
   2   6  -8    1.46    0.71   1
  -1  -6   8    5.79    0.93   3
  -1   6   8    5.10    0.92   4
   1  -6  -8    5.45    0.87   1
   1   6  -8    6.23    0.90   1
   0  -6  -8    5.59    0.90   1
   0  -6   8    6.46    1.01   3
   0   6   8    6.03    1.01   4
   0   6  -8    3.55    0.88   1
   0  -6   8    6.88    1.01   4
  -5  -7   8    0.32    0.72   3
   5  -7  -8    0.10    0.77   2
  -5   7   8    0.32    0.74   3
   5   7  -8    0.80    0.70   1
   4   7  -8   -0.17    0.66   1
  -4   7   8    0.38    0.68   3
  -4  -7   8   -0.01    0.63   3
   3   7  -8   21.43    1.37   1
  -3  -7   8   20.59    1.30   3
  -3   7   8   21.83    1.34   3
   2   7  -8   12.49    1.13   1
   2  -7  -8   14.28    1.17   1
  -2  -7   8   12.53    1.14   3
   1   7  -8   11.50    1.10   1
  -1   7   8   11.30    1.18   4
   1  -7  -8   11.69    1.08   1
  -1  -7   8   12.77    1.15   3
   0   7   8    2.58    0.88   4
   0  -7   8    4.45    0.94   4
   0  -7   8    1.91    0.84   3
   0  -7  -8    2.74    0.82   1
   0   7  -8    3.16    0.86   1
   5  -8  -8   -0.33    0.77   2
   5   8  -8   -0.31    0.71   1
  -5   8   8   -0.68    0.69   3
  -5  -8   8    0.44    0.75   3
  -4   8   8    3.26    0.83   3
  -4  -8   8    3.52    0.82   3
   4  -8  -8    3.01    0.90   2
   4   8  -8    3.22    0.84   1
  -3  -8   8   -0.11    0.59   3
   3   8  -8   -0.03    0.64   1
   2   8  -8    0.69    0.69   1
  -2  -8   8    1.21    0.75   3
   1  -8  -8    7.79    0.99   1
  -1  -8   8    7.88    1.03   3
   1   8  -8    6.71    0.95   1
  -1   8   8    8.88    1.09   4
   4  -9  -8    0.06    0.75   2
  -4   9   8   -0.62    0.68   3
  -4  -9   8    0.80    0.72   3
   4   9  -8    0.96    0.76   1
   3   9  -8    2.51    0.78   1
  -3  -9   8    2.34    0.73   3
  -2  -9   8    6.43    0.99   3
   2   9  -8    8.40    1.00   1
   1  -9  -8   12.53    1.10   1
  -1   9   8   13.74    1.36   4
   1   9  -8   10.10    1.09   1
  -1  -9   8   11.10    1.14   3
   4 -10  -8   11.02    1.20   2
   4  10  -8   12.20    1.17   1
  -4 -10   8   12.98    1.22   3
  -3 -10   8    1.33    0.73   3
   3  10  -8    0.71    0.74   1
  -2 -10   8    0.50    0.73   3
   2  10  -8    1.37    0.74   1
   1  10  -8    5.14    0.90   1
  -1 -10   8    3.20    0.88   3
  -1  10   8    4.20    0.94   4
   3  11  -8   -0.34    0.66   1
  -3 -11   8   -0.96    0.64   3
   2  11  -8    3.47    0.91   1
  -2 -11   8    2.83    0.85   3
  -3   0   9   22.68    1.45   3
   3   0  -9   19.27    1.35   1
   3   1  -9    2.32    0.78   1
  -3   1   9    2.74    0.84   3
  -3  -1   9    2.23    0.81   3
   3  -1  -9    2.41    0.82   1
  -3   2   9   11.07    1.11   3
   3  -2  -9   10.91    1.13   1
   3   2  -9    9.76    1.09   1
  -3  -2   9   11.13    1.15   3
   0   0   0    0.00    0.00   0
;
_shelx_hkl_checksum              78936
_olex2_submission_special_instructions 'No special instructions were received'
#END Tags that were not found in dictionaries
loop_
_space_group_symop_operation_xyz
'x, y, z'
'-x+1/2, y+1/2, -z+1/2'
'-x, -y, -z'
'x-1/2, -y-1/2, z-1/2'
loop_
_atom_site_label
_atom_site_type_symbol
_atom_site_fract_x
_atom_site_fract_y
_atom_site_fract_z
_atom_site_U_iso_or_equiv
_atom_site_adp_type
_atom_site_occupancy
_atom_site_site_symmetry_order
_atom_site_calc_flag
_atom_site_refinement_flags_posn
_atom_site_refinement_flags_occupancy
_atom_site_disorder_assembly
_atom_site_disorder_group
C1 C 0.5449(4) 0.41041(9) 0.1967(3) 0.0403(3) Uani 0.749(4) 1 d . P A 1
C2 C 0.4397(5) 0.40254(15) 0.3586(4) 0.0479(5) Uani 0.749(4) 1 d . P A 1
H2 H 0.3047 0.4334 0.3539 0.057 Uiso 0.749(4) 1 calc R P A 1
C3 C 0.5355(11) 0.3485(3) 0.5283(9) 0.0529(9) Uani 0.749(4) 1 d . P A 1
H3 H 0.4715 0.3459 0.6423 0.063 Uiso 0.749(4) 1 calc R P A 1
C4 C 0.7235(13) 0.2990(4) 0.5296(11) 0.0546(16) Uani 0.749(4) 1 d . P A 1
H4 H 0.7776 0.2600 0.6359 0.066 Uiso 0.749(4) 1 calc R P A 1
C5 C 0.8290(9) 0.3081(3) 0.3720(8) 0.0636(12) Uani 0.749(4) 1 d . P A 1
H5 H 0.9638 0.2768 0.3785 0.076 Uiso 0.749(4) 1 calc R P A 1
C6 C 0.7435(5) 0.36210(13) 0.2024(4) 0.0478(5) Uani 0.749(4) 1 d . P A 1
H6 H 0.8163 0.3662 0.0947 0.057 Uiso 0.749(4) 1 calc R P A 1
C7 C 0.4446(2) 0.46794(8) 0.0149(2) 0.0403(4) Uani 0.749(4) 1 d . P A 1
Cl1 Cl 0.14864(14) 0.44498(5) -0.17964(16) 0.0472(2) Uani 0.749(4) 1 d . P A 1
C1' C 0.6311(11) 0.4203(3) 0.2324(9) 0.0389(12) Uiso 0.251(4) 1 d . P A 2
C2' C 0.4952(16) 0.4137(5) 0.3704(15) 0.052(2) Uiso 0.251(4) 1 d . P A 2
H2' H 0.3883 0.4535 0.3761 0.062 Uiso 0.251(4) 1 calc R P A 2
C3' C 0.516(4) 0.3489(10) 0.500(3) 0.064(5) Uiso 0.251(4) 1 d . P A 2
H3' H 0.4019 0.3384 0.5693 0.076 Uiso 0.251(4) 1 calc R P A 2
C4' C 0.716(4) 0.2999(14) 0.522(4) 0.065(6) Uiso 0.251(4) 1 d . P A 2
H4' H 0.7635 0.2639 0.6375 0.078 Uiso 0.251(4) 1 calc R P A 2
C5' C 0.849(2) 0.3029(6) 0.3755(15) 0.0344(16) Uiso 0.251(4) 1 d . P A 2
H5' H 0.9600 0.2642 0.3708 0.041 Uiso 0.251(4) 1 calc R P A 2
C6' C 0.8053(14) 0.3663(5) 0.2413(13) 0.0482(19) Uiso 0.251(4) 1 d . P A 2
H6' H 0.8998 0.3727 0.1511 0.058 Uiso 0.251(4) 1 calc R P A 2
C7' C 0.5967(7) 0.4906(2) 0.0892(6) 0.0389(12) Uiso 0.251(4) 1 d . P A 2
Cl1' Cl 0.8479(8) 0.5553(3) 0.1789(8) 0.087(2) Uiso 0.251(4) 1 d . P A 2
loop_
_atom_site_aniso_label
_atom_site_aniso_U_11
_atom_site_aniso_U_22
_atom_site_aniso_U_33
_atom_site_aniso_U_23
_atom_site_aniso_U_13
_atom_site_aniso_U_12
C1 0.0375(8) 0.0377(7) 0.0437(7) -0.0019(5) 0.0121(6) -0.0019(6)
C2 0.0472(11) 0.0472(10) 0.0532(10) 0.0023(7) 0.0230(9) 0.0057(9)
C3 0.0591(15) 0.0583(15) 0.0440(13) 0.0078(9) 0.0218(12) 0.0011(8)
C4 0.0560(18) 0.0482(16) 0.0502(16) 0.0130(8) 0.0076(7) 0.0017(6)
C5 0.0515(15) 0.0553(15) 0.0774(17) 0.0016(9) 0.0152(10) 0.0157(9)
C6 0.0457(11) 0.0494(9) 0.0493(10) -0.0027(7) 0.0183(9) 0.0020(8)
C7 0.0353(7) 0.0429(7) 0.0402(7) -0.0033(5) 0.0106(5) -0.0018(5)
Cl1 0.0341(2) 0.0479(3) 0.0488(3) -0.00073(13) 0.00176(15) -0.01184(14)
loop_
_atom_type_symbol
_atom_type_description
_atom_type_scat_dispersion_real
_atom_type_scat_dispersion_imag
_atom_type_scat_source
C C 0.0033 0.0016 'International Tables Vol C Tables 4.2.6.8 and 6.1.1.4'
H H 0.0000 0.0000 'International Tables Vol C Tables 4.2.6.8 and 6.1.1.4'
Cl Cl 0.1484 0.1585 'International Tables Vol C Tables 4.2.6.8 and 6.1.1.4'
loop_
_geom_angle_atom_site_label_1
_geom_angle_atom_site_label_2
_geom_angle_atom_site_label_3
_geom_angle
_geom_angle_site_symmetry_1
C2 C1 C6 119.33(17) .
C2 C1 C7 120.53(15) .
C6 C1 C7 120.12(15) .
C1 C2 H2 120.0 .
C1 C2 C3 120.0(2) .
C3 C2 H2 120.0 .
C2 C3 H3 119.6 .
C4 C3 C2 120.8(3) .
C4 C3 H3 119.6 .
C3 C4 H4 120.7 .
C5 C4 C3 118.6(4) .
C5 C4 H4 120.7 .
C4 C5 H5 118.8 .
C4 C5 C6 122.5(3) .
C6 C5 H5 118.8 .
C1 C6 H6 120.7 .
C5 C6 C1 118.6(2) .
C5 C6 H6 120.7 .
C1 C7 Cl1 114.26(11) .
C7 C7 C1 127.23(17) 3_665
C7 C7 Cl1 118.51(14) 3_665
C2' C1' C7' 118.9(5) .
C6' C1' C2' 119.5(6) .
C6' C1' C7' 121.4(5) .
C1' C2' H2' 119.6 .
C3' C2' C1' 120.7(10) .
C3' C2' H2' 119.6 .
C2' C3' H3' 121.7 .
C2' C3' C4' 116.6(14) .
C4' C3' H3' 121.7 .
C3' C4' H4' 118.9 .
C3' C4' C5' 122.1(13) .
C5' C4' H4' 118.9 .
C4' C5' H5' 122.2 .
C6' C5' C4' 115.6(10) .
C6' C5' H5' 122.2 .
C1' C6' C5' 123.3(8) .
C1' C6' H6' 118.4 .
C5' C6' H6' 118.4 .
C1' C7' Cl1' 114.0(3) .
C7' C7' C1' 128.4(5) 3_665
C7' C7' Cl1' 117.6(4) 3_665
loop_
_geom_bond_atom_site_label_1
_geom_bond_atom_site_label_2
_geom_bond_distance
_geom_bond_site_symmetry_2
C1 C2 1.382(3) .
C1 C6 1.400(3) .
C1 C7 1.484(2) .
C2 H2 0.9300 .
C2 C3 1.391(4) .
C3 H3 0.9300 .
C3 C4 1.372(4) .
C4 H4 0.9300 .
C4 C5 1.361(5) .
C5 H5 0.9300 .
C5 C6 1.384(4) .
C6 H6 0.9300 .
C7 C7 1.325(3) 3_665
C7 Cl1 1.7510(14) .
C1' C2' 1.377(9) .
C1' C6' 1.353(8) .
C1' C7' 1.494(6) .
C2' H2' 0.9300 .
C2' C3' 1.376(13) .
C3' H3' 0.9300 .
C3' C4' 1.391(14) .
C4' H4' 0.9300 .
C4' C5' 1.409(13) .
C5' H5' 0.9300 .
C5' C6' 1.361(10) .
C6' H6' 0.9300 .
C7' C7' 1.316(7) 3_665
C7' Cl1' 1.748(5) .
loop_
_geom_torsion_atom_site_label_1
_geom_torsion_atom_site_label_2
_geom_torsion_atom_site_label_3
_geom_torsion_atom_site_label_4
_geom_torsion
_geom_torsion_site_symmetry_4
C1 C2 C3 C4 -4.4(8) .
C2 C1 C6 C5 -0.4(4) .
C2 C1 C7 C7 110.8(2) 3_665
C2 C1 C7 Cl1 -70.3(2) .
C2 C3 C4 C5 5.5(11) .
C3 C4 C5 C6 -4.2(11) .
C4 C5 C6 C1 1.7(7) .
C6 C1 C2 C3 1.7(5) .
C6 C1 C7 C7 -70.9(3) 3_665
C6 C1 C7 Cl1 108.08(18) .
C7 C1 C2 C3 -179.9(4) .
C7 C1 C6 C5 -178.7(3) .
C1' C2' C3' C4' 14(3) .
C2' C1' C6' C5' 2.5(11) .
C2' C1' C7' C7' -72.0(8) 3_665
C2' C1' C7' Cl1' 106.8(6) .
C2' C3' C4' C5' -17(4) .
C3' C4' C5' C6' 13(3) .
C4' C5' C6' C1' -5.4(19) .
C6' C1' C2' C3' -6.8(15) .
C6' C1' C7' C7' 112.9(7) 3_665
C6' C1' C7' Cl1' -68.2(6) .
C7' C1' C2' C3' 178.1(12) .
C7' C1' C6' C5' 177.5(7) .
