#------------------------------------------------------------------------------
#$Date: 2016-03-24 14:28:49 +0200 (Thu, 24 Mar 2016) $
#$Revision: 179665 $
#$URL: svn://www.crystallography.net/cod/cif/4/51/18/4511870.cif $
#------------------------------------------------------------------------------
#
# This file is available in the Crystallography Open Database (COD),
# http://www.crystallography.net/
#
# All data on this site have been placed in the public domain by the
# contributors.
#
data_4511870
loop_
_publ_author_name
'Miyake, Ryosuke'
'Nakagawa, Yuki'
'Hase, Mariko'
_publ_section_title
;
 Selective Thermal Elongation of Metal--Metal Distances in the
 Two-Dimensional Assembly of Ag(I) Ions Templated by Assembled Peptide
 Ligands
;
_journal_issue                   10
_journal_name_full               'Crystal Growth &amp; Design'
_journal_page_first              4882
_journal_paper_doi               10.1021/cg5009347
_journal_volume                  14
_journal_year                    2014
_chemical_absolute_configuration ad
_chemical_formula_sum            'C7 H11 Ag2 N3 O5'
_chemical_formula_weight         432.93
_space_group_crystal_system      monoclinic
_space_group_IT_number           4
_space_group_name_Hall           'P 2yb'
_space_group_name_H-M_alt        'P 1 21 1'
_symmetry_space_group_name_Hall  'P 2yb'
_symmetry_space_group_name_H-M   'P 1 21 1'
_atom_sites_solution_hydrogens   geom
_cell_angle_alpha                90
_cell_angle_beta                 103.298(2)
_cell_angle_gamma                90
_cell_formula_units_Z            2
_cell_length_a                   4.8078(6)
_cell_length_b                   19.908(3)
_cell_length_c                   5.4958(7)
_cell_measurement_temperature    123
_cell_volume                     511.92(12)
_computing_cell_refinement       'SAINT V8.32B (Bruker AXS)'
_computing_data_collection       'Bruker SMART APEXII ULTRA'
_computing_data_reduction        'SAINT V8.32B (Bruker AXS)'
_computing_molecular_graphics    'XSHELL V6.3.1 (Bruker AXS)'
_computing_publication_material  'Generate Report (Bruker AXS)'
_computing_structure_refinement  'SHELXL-2013 (Sheldrick, 2013)'
_computing_structure_solution    'SHELXS-97 (Sheldrick, 1997)'
_diffrn_ambient_temperature      123
_diffrn_detector_area_resol_mean 8.333
_diffrn_measured_fraction_theta_full 0.989
_diffrn_measured_fraction_theta_max 0.989
_diffrn_measurement_device_type  'Bruker D8 goniometer'
_diffrn_measurement_method       'omega scans'
_diffrn_radiation_monochromator  'multilayered conforcal mirror'
_diffrn_radiation_type           MoK\a
_diffrn_radiation_wavelength     0.71073
_diffrn_reflns_av_R_equivalents  0.0157
_diffrn_reflns_limit_h_max       5
_diffrn_reflns_limit_h_min       -6
_diffrn_reflns_limit_k_max       22
_diffrn_reflns_limit_k_min       -27
_diffrn_reflns_limit_l_max       7
_diffrn_reflns_limit_l_min       -6
_diffrn_reflns_number            3481
_diffrn_reflns_theta_full        29.11
_diffrn_reflns_theta_max         29.11
_diffrn_reflns_theta_min         2.05
_diffrn_source                   'rotating-anode X-ray tube'
_diffrn_source_type              'Bruker Tourbo X-ray Source'
_exptl_absorpt_coefficient_mu    3.840
_exptl_absorpt_correction_T_max  0.96
_exptl_absorpt_correction_T_min  0.82
_exptl_absorpt_correction_type   empirical
_exptl_absorpt_process_details   'SADABS V2012/1 (Bruker AXS)'
_exptl_crystal_colour            colorless
_exptl_crystal_density_diffrn    2.809
_exptl_crystal_density_method    'not measured'
_exptl_crystal_description       plate
_exptl_crystal_F_000             416
_exptl_crystal_size_max          0.055
_exptl_crystal_size_mid          0.023
_exptl_crystal_size_min          0.010
_refine_diff_density_max         1.168
_refine_diff_density_min         -0.659
_refine_ls_abs_structure_details
;
Flack x determined using 876 quotients [(I+)-(I-)]/[(I+)+(I-)]
(Parsons and Flack (2004), Acta Cryst. A60, s61).
;
_refine_ls_abs_structure_Flack   0.01(3)
_refine_ls_extinction_method     none
_refine_ls_goodness_of_fit_ref   1.058
_refine_ls_hydrogen_treatment    constr
_refine_ls_matrix_type           full
_refine_ls_number_parameters     154
_refine_ls_number_reflns         2214
_refine_ls_number_restraints     1
_refine_ls_restrained_S_all      1.058
_refine_ls_R_factor_all          0.0242
_refine_ls_R_factor_gt           0.0224
_refine_ls_shift/su_max          0.001
_refine_ls_shift/su_mean         0.000
_refine_ls_structure_factor_coef Fsqd
_refine_ls_weighting_details
'w=1/[\s^2^(Fo^2^)+(0.0194P)^2^+0.4841P] where P=(Fo^2^+2Fc^2^)/3'
_refine_ls_weighting_scheme      calc
_refine_ls_wR_factor_gt          0.0473
_refine_ls_wR_factor_ref         0.0479
_reflns_number_gt                2114
_reflns_number_total             2214
_reflns_threshold_expression     'I > 2\s(I)'
_cod_data_source_file            cg5009347_si_001.cif
_cod_data_source_block           p21_123K_again
_cod_depositor_comments
'Adding full bibliography for 4511859--4511871.cif.'
_cod_original_cell_volume        511.92(11)
_cod_database_code               4511870
#BEGIN Tags that were not found in dictionaries:
_shelx_res_file
;
TITL p21(-150) in P2(1)
CELL 0.71073   4.80780  19.90780   5.49580  90.0000 103.2978  90.0000
ZERR    2.00   0.00060   0.00260   0.00070   0.0000   0.0020   0.0000
LATT -1
SYMM -X, 0.5+Y, -Z
SFAC C  H  N  O  Ag
UNIT 14  22  6  10  4
L.S. 30
SHEL 20 0.73
ACTA
BOND $h
FMAP 2
PLAN 20
size 0.055 0.023 0.010
TEMP -150
WGHT    0.019400    0.484100
FVAR       0.18804
AG1   5    0.213554    0.857876    0.426841    11.00000    0.01857    0.00871 =
         0.02149   -0.00174    0.00020    0.00360
AG2   5   -0.440166    0.866762   -0.008786    11.00000    0.02046    0.01236 =
         0.01960   -0.00218    0.00148    0.00408
C1    1   -0.023612    0.755992    0.023427    11.00000    0.01644    0.01320 =
         0.01252   -0.00457   -0.00044    0.00072
C2    1    0.140850    0.694477    0.142794    11.00000    0.01663    0.01177 =
         0.01684   -0.00054    0.00021    0.00250
AFIX  23
H2A   2    0.017360    0.654347    0.101656    11.00000   -1.20000
H2B   2    0.309602    0.687913    0.070715    11.00000   -1.20000
AFIX   0
C3    1    0.239919    0.700386    0.425555    11.00000    0.00726    0.01057 =
         0.01706    0.00124    0.00377    0.00078
AFIX  13
H3    2    0.068718    0.704511    0.499000    11.00000   -1.20000
AFIX   0
C4    1    0.405736    0.637451    0.529163    11.00000    0.01003    0.00798 =
         0.01603    0.00214    0.00317    0.00417
C5    1    0.390666    0.524774    0.695291    11.00000    0.01030    0.00889 =
         0.01861    0.00608    0.00473    0.00092
AFIX  13
H5    2    0.570800    0.520217    0.635013    11.00000   -1.20000
AFIX   0
C6    1    0.471438    0.525449    0.981143    11.00000    0.01568    0.00945 =
         0.02052   -0.00087    0.00280   -0.00018
AFIX  23
H6A   2    0.584605    0.566261    1.040131    11.00000   -1.20000
H6B   2    0.295729    0.526772    1.046032    11.00000   -1.20000
AFIX   0
C7    1    0.196690    0.465258    0.591990    11.00000    0.00933    0.01014 =
         0.01873    0.00318    0.00233    0.00287
N1    3    0.419399    0.760423    0.491286    11.00000    0.01227    0.00835 =
         0.01633   -0.00057    0.00230    0.00078
AFIX  23
H1A   2    0.571123    0.758825    0.396393    11.00000   -1.20000
H1B   2    0.514722    0.757391    0.670912    11.00000   -1.20000
AFIX   0
N2    3    0.253713    0.587760    0.597034    11.00000    0.00951    0.00863 =
         0.02219    0.00678    0.00578    0.00401
AFIX  43
H2    2    0.068844    0.592960    0.582484    11.00000   -1.20000
AFIX   0
N3    3    0.638983    0.465496    1.077568    11.00000    0.01603    0.01458 =
         0.01752    0.00065   -0.00050    0.00056
AFIX  23
H3A   2    0.705702    0.470909    1.260813    11.00000   -1.20000
H3B   2    0.811086    0.465286    1.007410    11.00000   -1.20000
AFIX   0
O1    4    0.060354    0.788911   -0.134768    11.00000    0.02549    0.03411 =
         0.02119    0.00995    0.00946    0.00716
O2    4   -0.245936    0.770636    0.104287    11.00000    0.01886    0.01738 =
         0.03987    0.00952    0.01619    0.00604
O3    4    0.663792    0.632942    0.541780    11.00000    0.00715    0.01439 =
         0.05106    0.01254    0.01097    0.00425
O4    4    0.265189    0.429391    0.432701    11.00000    0.02733    0.03790 =
         0.03343   -0.01912    0.01392   -0.01047
O5    4   -0.019939    0.456272    0.679787    11.00000    0.01490    0.01609 =
         0.03028   -0.00620    0.00946   -0.00657
HKLF 4

REM  p21(-150) in P2(1)
REM R1 =  0.0224 for    2114 Fo > 4sig(Fo)  and  0.0242 for all    2214 data
REM    154 parameters refined using      1 restraints

END

WGHT      0.0194      0.4841

REM Highest difference peak  1.168,  deepest hole -0.659,  1-sigma level  0.112
Q1    1   0.0991  0.8497  0.5007  11.00000  0.05    1.17
Q2    1  -0.3085  0.8741 -0.0832  11.00000  0.05    0.93
Q3    1   0.2159  0.8176  0.4244  11.00000  0.05    0.55
Q4    1   0.8927  0.3825  1.1674  11.00000  0.05    0.54
Q5    1  -0.0853  0.8517 -0.2781  11.00000  0.05    0.53
Q6    1   0.3238  0.8560  0.2822  11.00000  0.05    0.52
Q7    1   0.0837  0.4712  0.8758  11.00000  0.05    0.45
Q8    1  -0.4350  0.9107 -0.0021  11.00000  0.05    0.45
Q9    1   0.3235  0.8602  0.4763  11.00000  0.05    0.44
Q10   1  -0.4839  0.8632  0.1669  11.00000  0.05    0.44
Q11   1   0.2424  0.8973  0.4171  11.00000  0.05    0.44
Q12   1   0.8579  0.4024  1.0652  11.00000  0.05    0.39
Q13   1  -0.2826  0.9004  0.1615  11.00000  0.05    0.38
Q14   1   0.0491  0.8874  0.2618  11.00000  0.05    0.38
Q15   1  -0.1093  0.7692  0.0944  11.00000  0.05    0.37
Q16   1  -0.2578  0.8599  0.2708  11.00000  0.05    0.37
Q17   1   0.0897  0.4258  0.7693  11.00000  0.05    0.37
Q18   1   0.1192  0.8436  0.2255  11.00000  0.05    0.36
Q19   1   0.5812  0.6433  0.6149  11.00000  0.05    0.36
Q20   1  -0.0413  0.8826 -0.1160  11.00000  0.05    0.35
;
_shelx_res_checksum              35951
_shelx_hkl_file
;
  -1   0   0  148.79    2.29
  -1   0   0  148.01    2.09
  -2   0   0   15.61    0.67
  -2   0   0   14.36    0.58
  -3   0   0   48.13    1.26
  -3   0   0   49.80    1.44
  -4   0   0   41.65    1.55
  -4   0   0   41.83    1.35
  -5   0   0   67.69    2.25
  -6   0   0   19.60    1.59
   0  -1   0   -1.37    0.01
   0   1   0   -1.33    0.02
  -1  -1   0   96.73    1.56
  -1  -1   0   95.27    1.42
  -1   1   0   91.15    1.56
  -1   1   0   94.14    1.44
  -2  -1   0  212.06    3.13
  -2  -1   0  214.20    3.44
  -2   1   0  214.52    3.46
  -2   1   0  205.95    3.14
  -3  -1   0  143.39    2.83
  -3  -1   0  143.77    2.53
  -3   1   0  146.01    2.86
  -3   1   0  147.16    2.56
  -4  -1   0    9.78    0.95
  -4  -1   0   11.54    0.85
  -4   1   0   12.08    0.96
  -5  -1   0   13.21    1.20
  -5   1   0   15.57    1.25
  -6  -1   0   53.42    2.28
  -6   1   0   53.47    2.35
   0  -2   0  909.14   15.06
   1  -2   0   48.43    0.83
  -1  -2   0   47.28    0.87
  -1  -2   0   46.56    0.92
  -1   2   0   49.52    0.96
  -2  -2   0    0.63    0.26
  -2  -2   0    1.26    0.28
  -2   2   0    0.88    0.29
  -3  -2   0  111.47    2.35
  -3  -2   0  110.41    2.11
  -3   2   0  112.07    2.37
  -4  -2   0   36.57    1.27
  -4  -2   0   36.92    1.47
  -4   2   0   36.33    1.45
  -5  -2   0   44.66    1.84
  -5   2   0   45.70    1.88
  -6  -2   0   12.01    1.33
  -6   2   0   10.61    1.29
   0  -3   0   -0.49    0.09
  -1  -3   0   68.55    1.22
   1  -3   0   70.00    1.13
  -1  -3   0   68.61    1.17
  -1   3   0   69.06    1.21
  -1   3   0   69.03    1.27
  -2  -3   0  161.18    2.73
  -2  -3   0  157.97    2.52
   2  -3   0  161.61    2.44
  -2   3   0  163.27    2.79
   3  -3   0  243.63    3.71
  -3  -3   0  252.17    3.88
  -3  -3   0  247.45    4.24
  -3   3   0  249.08    4.28
   4  -3   0    3.61    0.44
  -4  -3   0    4.05    0.68
  -4  -3   0    4.45    0.62
  -4   3   0    4.67    0.69
  -5  -3   0    8.52    1.04
  -5   3   0    7.07    1.04
  -6  -3   0   49.90    2.16
  -6   3   0   50.67    2.28
   0  -4   0  392.83    5.19
  -1  -4   0  149.13    2.33
   1  -4   0  152.02    2.21
  -1  -4   0  150.29    2.26
  -1   4   0  154.17    2.41
  -1   4   0  149.09    2.43
  -2  -4   0   20.65    0.74
   2  -4   0   21.95    0.65
  -2  -4   0   22.07    0.77
  -2   4   0   25.23    0.84
  -3  -4   0   97.51    2.14
  -3  -4   0   93.01    1.92
   3  -4   0   93.78    1.77
  -3   4   0   89.96    2.11
   4  -4   0   14.92    0.76
  -4  -4   0   13.33    1.00
  -4  -4   0   14.21    0.93
  -4   4   0   14.44    1.03
  -5  -4   0   24.33    1.42
  -5   4   0   23.62    1.51
  -6  -4   0   11.52    1.35
  -6   4   0   11.20    1.31
   0  -5   0   -1.03    0.16
  -1  -5   0   81.64    1.45
   1  -5   0   85.35    1.43
  -1  -5   0   84.65    1.48
  -1   5   0   87.48    1.55
  -1   5   0   87.36    1.57
  -2  -5   0  285.61    4.48
  -2  -5   0  292.07    4.23
   2  -5   0  288.34    4.13
  -2   5   0  295.91    4.60
  -3  -5   0  351.78    5.59
   3  -5   0  339.85    4.98
  -3  -5   0  343.21    5.12
  -3   5   0  345.04    5.66
  -4  -5   0    0.94    0.50
  -4  -5   0    1.15    0.47
   4  -5   0    0.99    0.34
  -4   5   0    1.45    0.56
  -5  -5   0    7.42    0.99
  -5   5   0   10.31    1.12
  -6  -5   0   44.12    2.06
  -6   5   0   47.20    2.25
   0  -6   0  325.36    4.51
   1  -6   0  150.46    2.33
  -1  -6   0  151.84    2.40
  -1  -6   0  156.80    2.41
  -1   6   0  153.01    2.61
  -1   6   0  153.37    2.50
  -2  -6   0    4.05    0.43
   2  -6   0    4.65    0.39
  -2  -6   0    4.17    0.41
  -2   6   0    5.51    0.50
  -2   6   0    3.41    0.32
  -3  -6   0  177.93    3.07
   3  -6   0  176.95    2.92
  -3  -6   0  180.68    3.31
  -3   6   0  177.72    3.40
  -4  -6   0   12.52    0.96
  -4  -6   0   11.53    0.87
   4  -6   0   10.86    0.70
  -4   6   0   12.66    1.00
  -5  -6   0   28.13    1.51
  -5   6   0   27.74    1.60
  -6  -6   0   11.81    1.32
  -6   6   0   14.10    1.48
   0  -7   0   -0.11    0.21
  -1  -7   0  238.27    3.59
  -1  -7   0  238.67    3.55
   1  -7   0  244.17    3.51
   2  -7   0  168.00    2.71
  -2  -7   0  167.72    2.81
  -2  -7   0  168.68    2.86
  -2   7   0  173.37    3.01
  -2   7   0  166.93    2.92
  -3  -7   0  381.16    5.71
   3  -7   0  381.75    5.54
  -3  -7   0  385.60    6.06
  -3   7   0  380.64    6.19
   4  -7   0    3.07    0.46
  -4  -7   0    3.65    0.61
  -4  -7   0    4.07    0.66
  -4   7   0    3.33    0.66
  -5  -7   0    7.68    0.99
  -5   7   0    8.97    1.13
  -6  -7   0   36.99    1.89
  -6   7   0   36.35    2.03
   0  -8   0  678.26    9.05
  -1  -8   0  191.77    3.02
   1  -8   0  195.35    3.00
  -1  -8   0  191.82    2.99
  -2  -8   0   48.15    1.20
  -2  -8   0   49.70    1.27
   2  -8   0   50.38    1.17
  -2   8   0   49.25    1.31
  -2   8   0   48.52    1.21
   3  -8   0   67.95    1.55
  -3  -8   0   69.96    1.74
  -3  -8   0   70.00    1.72
  -3   8   0   66.99    1.83
  -4  -8   0   19.02    1.11
   4  -8   0   18.52    0.88
  -4  -8   0   19.92    1.09
  -4   8   0   17.16    1.16
  -5  -8   0   47.51    1.87
  -5   8   0   43.22    1.94
  -6  -8   0    8.44    1.16
  -6   8   0    7.48    1.22
   0  -9   0   -0.23    0.22
  -1  -9   0   47.86    1.18
   1  -9   0   47.59    1.14
  -1  -9   0   45.78    1.03
   2  -9   0   42.60    1.11
  -2  -9   0   39.22    1.10
  -2  -9   0   42.96    1.21
  -2   9   0   43.91    1.25
  -3  -9   0  104.76    2.29
   3  -9   0  107.57    2.13
  -3  -9   0  109.14    2.27
  -3   9   0  105.16    2.43
  -4  -9   0    9.90    0.91
   4  -9   0    9.61    0.74
  -4  -9   0   10.26    0.90
  -4   9   0   11.01    1.01
  -5  -9   0    8.62    1.02
  -5   9   0    9.90    1.14
  -6  -9   0   39.44    1.95
  -6   9   0   41.74    2.16
   0 -10   0  793.33   10.65
  -1 -10   0   38.82    0.94
   1 -10   0   40.01    1.08
  -1 -10   0   37.29    1.09
  -2 -10   0    3.88    0.41
  -2 -10   0    3.42    0.48
   2 -10   0    5.52    0.54
  -2  10   0    4.64    0.51
   3 -10   0   47.87    1.34
  -3 -10   0   46.90    1.45
  -3 -10   0   49.55    1.45
  -3  10   0   50.64    1.59
   4 -10   0   26.65    1.08
  -4 -10   0   26.45    1.27
  -4 -10   0   27.63    1.30
  -4  10   0   26.86    1.36
  -5 -10   0   51.37    1.98
  -5  10   0   53.70    2.12
  -6 -10   0    7.98    1.10
  -6  10   0   11.42    1.39
   0 -11   0    0.64    0.28
   1 -11   0   71.67    1.60
  -1 -11   0   73.16    1.45
  -1 -11   0   70.32    1.63
   2 -11   0   84.09    1.81
  -2 -11   0   82.25    1.88
  -2 -11   0   80.79    1.74
   3 -11   0  144.25    2.70
  -3 -11   0  142.57    2.84
  -3 -11   0  145.10    2.84
  -3  11   0  137.93    2.99
  -4 -11   0   30.63    1.39
  -4 -11   0   29.08    1.32
   4 -11   0   28.18    1.15
  -4  11   0   27.86    1.43
  -5 -11   0    6.11    0.91
  -5  11   0   10.36    1.17
  -6 -11   0   36.91    1.91
  -6  11   0   34.38    2.20
   0 -12   0  755.48   10.35
  -1 -12   0   50.16    1.38
   1 -12   0   49.23    1.33
  -1 -12   0   48.41    1.14
   2 -12   0   28.90    1.03
  -2 -12   0   29.13    1.13
  -2 -12   0   27.27    0.95
  -3 -12   0   67.28    1.86
   3 -12   0   71.43    1.76
  -3 -12   0   68.34    1.78
  -3  12   0   69.53    1.94
  -4 -12   0   34.55    1.51
   4 -12   0   33.44    1.27
  -4 -12   0   33.32    1.41
  -4  12   0   31.56    1.53
  -5 -12   0   31.71    1.59
  -5  12   0   34.61    1.80
  -6 -12   0    8.20    1.19
   0 -13   0    0.87    0.34
   1 -13   0   35.54    1.16
  -1 -13   0   33.25    0.95
  -1 -13   0   36.09    1.20
   2 -13   0  143.42    2.73
  -2 -13   0  140.73    2.83
  -2 -13   0  140.43    2.62
  -3 -13   0  111.20    2.56
   3 -13   0  115.06    2.45
  -3 -13   0  113.10    2.44
   4 -13   0   34.87    1.36
  -4 -13   0   36.21    1.58
  -4 -13   0   36.10    1.47
  -4  13   0   36.93    1.62
  -5 -13   0    2.49    0.69
  -5  13   0    3.31    0.81
   0 -14   0  275.20    4.50
  -1 -14   0   48.21    1.46
  -1 -14   0   47.82    1.19
   1 -14   0   47.80    1.42
  -2 -14   0   54.63    1.66
   2 -14   0   57.71    1.60
  -2 -14   0   54.88    1.42
   3 -14   0   46.45    1.52
  -3 -14   0   48.11    1.65
  -3 -14   0   49.21    1.48
  -4 -14   0   20.46    1.30
  -4 -14   0   19.00    1.13
   4 -14   0   18.19    1.08
   0 -15   0    0.36    0.33
   1 -15   0   63.83    1.74
  -1 -15   0   65.39    1.47
  -1 -15   0   63.79    1.77
   2 -15   0   64.23    1.78
  -2 -15   0   65.89    1.61
  -2 -15   0   68.54    1.91
  -3 -15   0  114.76    2.53
  -3 -15   0  119.32    2.78
   3 -15   0  120.56    2.64
  -4 -15   0   21.43    1.25
  -4 -15   0   21.07    1.33
   4 -15   0   19.72    1.16
   0 -16   0   92.01    2.19
   1 -16   0   38.84    1.38
  -1 -16   0   40.81    1.45
  -1 -16   0   38.88    1.10
  -2 -16   0   27.28    1.29
   2 -16   0   30.60    1.26
   3 -16   0   47.61    1.62
  -3 -16   0   47.57    1.75
  -3 -16   0   47.45    1.56
  -4 -16   0   13.16    1.17
   4 -16   0   14.74    1.17
   0 -17   0    0.38    0.36
  -1 -17   0   35.39    1.42
   1 -17   0   35.05    1.35
  -1 -17   0   37.15    1.09
   2 -17   0   60.44    1.82
  -2 -17   0   58.44    1.89
  -3 -17   0   85.67    2.42
   3 -17   0   91.08    2.35
  -4 -17   0    1.21    0.67
   4 -17   0    2.07    0.62
   0 -18   0  348.08    5.77
  -1 -18   0   64.78    1.98
   1 -18   0   67.28    1.94
  -2 -18   0   15.26    1.12
   2 -18   0   15.17    1.01
   3 -18   0   30.10    1.42
  -3 -18   0   32.82    1.55
  -4 -18   0    7.31    0.98
   4 -18   0    9.58    1.00
   0 -19   0    0.20    0.41
   1 -19   0   83.63    2.27
  -1 -19   0   81.99    2.31
  -2 -19   0   25.21    1.38
   2 -19   0   27.53    1.32
  -3 -19   0   78.00    2.40
   3 -19   0   76.38    2.28
  -4 -19   0   23.19    1.50
   4 -19   0   24.65    1.42
   0 -20   0  145.08    3.23
   1 -20   0   56.29    1.89
  -1 -20   0   54.75    1.93
  -2 -20   0   16.78    1.25
   2 -20   0   18.34    1.17
  -3 -20   0   26.64    1.54
   3 -20   0   25.88    1.38
  -4 -20   0   15.14    1.39
   4 -20   0   18.70    1.30
   0 -21   0    0.70    0.48
   1 -21   0   44.71    1.74
  -1 -21   0   46.72    1.81
   2 -21   0   14.54    1.12
  -2 -21   0   14.47    1.22
  -3 -21   0   37.86    1.83
   3 -21   0   38.66    1.70
   4 -21   0   23.38    1.42
  -4 -21   0   24.31    1.64
   0 -22   0  112.72    2.92
   1 -22   0   21.80    1.31
  -1 -22   0   22.05    1.37
  -2 -22   0   19.08    1.38
   2 -22   0   18.45    1.25
   3 -22   0   12.81    1.14
  -3 -22   0   13.51    1.32
  -4 -22   0   10.77    1.24
   4 -22   0   13.47    1.30
   0 -23   0    0.71    0.53
  -1 -23   0   24.94    1.48
   1 -23   0   25.35    1.44
   2 -23   0   27.37    1.51
  -2 -23   0   25.64    1.59
   3 -23   0   35.65    1.76
  -3 -23   0   39.63    1.97
  -4 -23   0   29.09    1.82
   4 -23   0   30.13    1.69
   0 -24   0   57.37    2.13
  -1 -24   0   14.93    1.28
   1 -24   0   12.52    1.21
   2 -24   0   25.78    1.53
  -2 -24   0   25.24    1.64
   3 -24   0   31.87    1.71
  -3 -24   0   29.92    1.84
   0 -25   0    0.82    0.60
  -1 -25   0   29.66    1.69
   1 -25   0   33.31    1.71
  -2 -25   0   29.84    1.79
   2 -25   0   30.89    1.68
  -3 -25   0   65.76    2.60
   3 -25   0   59.85    2.37
   0 -26   0   55.32    2.27
  -1 -26   0   35.03    1.87
   1 -26   0   34.12    1.80
   2 -26   0   59.85    2.33
  -2 -26   0   59.87    2.47
   0 -27   0    0.45    0.68
   1 -27   0   29.34    1.73
  -1 -27   0   29.34    1.82
  -6   0   1   -0.19    0.67
  -5   0   1   11.66    1.15
  -4   0   1   35.19    1.41
  -3   0   1    7.96    0.66
  -2   0   1  732.56   10.37
  -1   0   1   65.93    1.19
   0   0  -1   11.09    0.38
  -1   0  -1  253.07    3.79
  -1   0  -1  252.51    3.65
  -2   0  -1  348.24    5.12
  -2   0  -1  350.56    5.40
  -3   0  -1   13.99    0.88
  -3   0  -1   14.17    0.88
  -4   0  -1    1.43    0.60
  -4   0  -1    1.64    0.59
  -5   0  -1   21.24    1.46
  -5   0  -1   23.41    1.40
  -6   0  -1    1.88    0.82
  -6  -1   1    2.30    0.79
  -6   1   1    1.86    0.81
  -5  -1   1  141.70    3.36
  -5   1   1  136.71    3.36
  -4  -1   1  114.27    2.64
  -4   1   1  108.84    2.61
  -3  -1   1   11.83    0.73
  -3   1   1   12.32    0.77
  -2  -1   1  106.37    1.98
  -2   1   1  105.52    1.98
  -1  -1   1  424.19    5.99
  -1   1   1  422.84    5.95
   0  -1  -1   92.05    1.41
   0   1  -1   92.76    1.43
  -1  -1  -1  188.19    2.87
  -1  -1  -1  190.19    2.82
  -1   1  -1  182.95    2.81
  -1   1  -1  179.39    2.91
  -2  -1  -1    4.70    0.50
  -2  -1  -1    3.48    0.41
  -2   1  -1    3.51    0.43
  -2   1  -1    3.75    0.48
  -3  -1  -1   24.85    1.07
  -3  -1  -1   25.18    1.08
  -3   1  -1   23.38    1.08
  -3   1  -1   25.01    1.11
  -4  -1  -1  230.31    4.16
  -4  -1  -1  226.68    4.40
  -4   1  -1  223.16    4.42
  -4   1  -1  225.47    4.13
  -5  -1  -1   30.76    1.64
  -5  -1  -1   30.17    1.56
  -5   1  -1   29.88    1.67
  -6  -1  -1    0.86    0.75
  -6   1  -1    1.63    0.81
  -6  -2   1    0.67    0.70
  -6   2   1   -0.83    0.65
  -5  -2   1    3.92    0.78
  -5   2   1    3.54    0.79
  -4  -2   1   51.87    1.73
  -4   2   1   55.35    1.75
  -3  -2   1    1.61    0.39
  -3   2   1    1.92    0.41
  -2  -2   1  331.43    5.11
  -2   2   1  344.05    5.12
  -1  -2   1  283.45    4.22
  -1   2   1  293.61    4.15
   0  -2  -1   46.00    0.86
  -1  -2  -1  568.58    7.64
  -1  -2  -1  565.38    8.01
  -1   2  -1  585.03    7.69
  -1   2  -1  573.65    8.14
  -2  -2  -1  239.55    3.90
  -2  -2  -1  246.75    3.80
  -2   2  -1  242.58    3.81
  -2   2  -1  243.16    4.00
  -3  -2  -1   41.58    1.36
  -3  -2  -1   41.50    1.37
  -3   2  -1   40.70    1.36
  -3   2  -1   41.10    1.40
  -4  -2  -1    9.16    0.93
  -4  -2  -1   11.02    0.99
  -4   2  -1    9.64    1.02
  -5  -2  -1   16.15    1.33
  -5  -2  -1   16.49    1.29
  -5   2  -1   16.69    1.37
  -6  -2  -1   13.87    1.47
  -6   2  -1   15.07    1.59
  -6  -3   1    1.40    0.75
  -6   3   1    0.55    0.75
  -5  -3   1   50.79    1.91
  -5   3   1   50.16    1.93
  -4  -3   1  100.78    2.47
  -4   3   1   99.40    2.47
  -3  -3   1   10.63    0.70
  -3   3   1   11.92    0.76
  -3   3   1   11.01    0.55
  -2  -3   1  121.51    2.15
  -2   3   1  114.08    2.12
  -2   3   1  110.52    2.10
  -1  -3   1  380.28    5.47
  -1   3   1  377.74    5.78
  -1   3   1  381.72    5.42
   0  -3  -1    3.14    0.29
  -1  -3  -1  389.02    5.57
  -1  -3  -1  396.24    5.45
  -2  -3  -1   13.80    0.68
  -2  -3  -1   14.94    0.75
  -2   3  -1   14.55    0.74
  -2   3  -1   14.01    0.75
  -3  -3  -1   15.72    0.91
  -3  -3  -1   15.81    0.95
  -3   3  -1   17.89    0.96
  -4  -3  -1  169.63    3.39
  -4  -3  -1  167.49    3.52
  -4   3  -1  166.91    3.60
  -5  -3  -1   13.73    1.24
  -5  -3  -1   12.70    1.25
   5  -3   1   13.02    0.95
  -5   3  -1   14.57    1.38
  -6  -3  -1    2.00    0.83
  -6   3  -1    2.10    0.86
  -6  -4   1    0.11    0.63
  -6   4   1   -0.20    0.67
  -5  -4   1    6.63    0.93
  -5   4   1    5.30    0.85
  -4  -4   1   41.08    1.53
  -4   4   1   41.71    1.54
  -3  -4   1   14.52    0.79
  -3   4   1   13.32    0.80
  -3   4   1   12.79    0.60
  -2  -4   1  397.45    6.01
  -2   4   1  404.19    6.25
  -2   4   1  404.93    5.98
  -1  -4   1   58.57    1.17
   1  -4  -1   60.29    1.03
  -1  -4   1   59.60    1.01
  -1   4   1   55.92    1.06
  -1   4   1   56.35    1.22
   0  -4  -1   33.88    0.79
   0  -4   1   35.29    0.75
   0   4   1   36.70    0.85
  -1  -4  -1  512.50    6.95
  -1  -4  -1  510.52    7.14
   1  -4   1  509.98    6.84
   2  -4   1  304.66    4.49
  -2  -4  -1  306.48    4.64
  -2  -4  -1  313.71    4.80
  -2   4  -1  311.67    4.95
  -3  -4  -1    8.41    0.74
  -3  -4  -1    9.91    0.82
  -3   4  -1    7.08    0.74
  -4  -4  -1    7.71    0.88
  -4  -4  -1    7.91    0.92
   4  -4   1    8.23    0.71
  -4   4  -1    7.61    0.89
   5  -4   1    7.70    0.82
  -5  -4  -1    7.62    1.05
  -5  -4  -1    7.50    0.99
  -5   4  -1    8.08    1.08
  -6  -4  -1   16.14    1.51
  -6   4  -1   18.27    1.64
  -6  -5   1    0.56    0.69
  -6   5   1   -0.28    0.71
  -5  -5   1   57.84    2.03
  -5   5   1   54.98    2.03
  -4  -5   1  142.41    3.06
  -4   5   1  140.20    3.07
  -3  -5   1   11.92    0.76
  -3   5   1   11.86    0.79
  -3   5   1   12.10    0.62
  -2  -5   1   76.55    1.61
   2  -5  -1   71.17    1.30
  -2  -5   1   73.05    1.34
  -2   5   1   77.45    1.57
  -2   5   1   75.72    1.58
  -1  -5   1  270.95    3.80
   1  -5  -1  273.14    3.82
  -1  -5   1  277.64    4.15
  -1   5   1  279.99    4.00
  -1   5   1  278.97    4.40
   0  -5   1   34.24    0.77
   0  -5  -1   33.95    0.82
  -1  -5  -1  266.50    3.90
   1  -5   1  257.74    3.77
   2  -5   1   12.04    0.59
  -2  -5  -1   14.49    0.76
  -2  -5  -1   12.13    0.63
  -2   5  -1   12.96    0.75
  -3  -5  -1   22.31    1.02
  -3  -5  -1   22.03    1.08
   3  -5   1   21.13    0.87
  -3   5  -1   20.67    1.05
   4  -5   1  160.70    3.02
  -4  -5  -1  157.71    3.30
  -4  -5  -1  162.43    3.41
  -4   5  -1  160.03    3.55
  -5  -5  -1   20.99    1.38
  -5  -5  -1   21.19    1.45
   5  -5   1   19.53    1.12
  -5   5  -1   20.90    1.49
  -6  -5  -1    1.33    0.78
  -6   5  -1    3.16    0.96
  -6  -6   1    0.96    0.68
  -6   6   1    0.43    0.78
  -5  -6   1    4.81    0.84
  -5   6   1    3.72    0.80
  -4  -6   1   45.43    1.58
   4  -6  -1   44.13    1.14
  -4   6   1   44.96    1.60
   3  -6  -1    9.56    0.50
  -3  -6   1    9.95    0.62
  -3  -6   1   11.32    0.74
  -3   6   1    9.49    0.72
  -3   6   1    9.91    0.59
   2  -6  -1  441.23    6.12
  -2  -6   1  461.62    6.76
  -2  -6   1  448.55    6.16
  -2   6   1  459.84    6.70
  -2   6   1  461.32    7.07
  -1  -6   1   89.90    1.53
  -1  -6   1   88.88    1.65
   1  -6  -1   87.86    1.54
  -1   6   1   89.75    1.76
  -1   6   1   85.94    1.48
   0  -6  -1   46.76    1.02
   0  -6   1   45.58    0.97
   0   6   1   43.56    1.07
   1  -6   1  707.50    9.51
  -1  -6  -1  732.34    9.67
  -2  -6  -1  168.13    2.95
  -2  -6  -1  164.01    2.84
   2  -6   1  168.98    2.78
  -2   6  -1  166.47    3.09
  -3  -6  -1   16.89    0.92
   3  -6   1   18.31    0.83
  -3  -6  -1   17.01    1.00
  -3   6  -1   18.92    1.04
   4  -6   1    1.23    0.45
  -4  -6  -1    0.77    0.49
  -4  -6  -1    1.13    0.57
  -4   6  -1    0.27    0.51
  -5  -6  -1   21.76    1.46
   5  -6   1   22.85    1.20
  -5  -6  -1   20.86    1.39
  -5   6  -1   22.98    1.55
  -6  -6  -1    5.75    1.06
  -6   6  -1    6.16    1.16
  -6  -7   1    1.65    0.78
  -6   7   1    3.80    0.95
  -5  -7   1   84.96    2.51
  -5   7   1   84.78    2.59
  -4  -7   1   93.76    2.34
   4  -7  -1   88.02    1.81
  -4   7   1   91.04    2.04
  -4   7   1   95.39    2.39
   3  -7  -1   22.42    0.75
  -3  -7   1   23.56    0.85
  -3  -7   1   23.10    1.00
  -3   7   1   25.40    1.03
  -3   7   1   22.94    0.87
   2  -7  -1   62.50    1.27
  -2  -7   1   62.88    1.30
  -2  -7   1   62.87    1.46
  -2   7   1   63.66    1.40
  -2   7   1   64.73    1.48
   1  -7  -1  427.41    5.85
  -1  -7   1  422.02    6.22
  -1  -7   1  424.62    5.82
  -1   7   1  433.66    6.64
  -1   7   1  420.35    6.02
   0  -7  -1   62.29    1.29
   0  -7   1   61.99    1.24
   0   7   1   62.29    1.39
  -1  -7  -1  362.21    5.21
   1  -7   1  355.76    5.08
  -2  -7  -1   15.49    0.80
   2  -7   1   14.80    0.69
  -2  -7  -1   14.39    0.65
  -2   7  -1   15.32    0.82
  -3  -7  -1   11.74    0.80
   3  -7   1   10.83    0.70
  -3  -7  -1   11.60    0.91
  -3   7  -1   11.28    0.91
   4  -7   1  102.64    2.28
  -4  -7  -1   99.47    2.54
  -4  -7  -1  104.16    2.55
  -4   7  -1  100.94    2.72
   5  -7   1   28.64    1.32
  -5  -7  -1   29.39    1.62
  -5  -7  -1   27.10    1.51
  -5   7  -1   27.25    1.68
  -6  -7  -1   -0.04    0.61
  -6   7  -1    0.86    0.82
  -6  -8   1    2.58    0.82
  -6   8   1    4.20    0.95
  -5  -8   1    3.79    0.78
  -5   8   1    3.02    0.77
  -4  -8   1   50.70    1.68
   4  -8  -1   49.79    1.26
  -4   8   1   45.10    1.35
  -4   8   1   46.94    1.68
  -3  -8   1   10.78    0.77
   3  -8  -1   10.53    0.57
  -3  -8   1   12.21    0.69
  -3   8   1   11.88    0.79
  -3   8   1   12.84    0.70
   2  -8  -1  290.97    4.25
  -2  -8   1  287.64    4.26
  -2  -8   1  303.25    4.67
  -2   8   1  286.93    4.54
  -2   8   1  287.09    4.83
  -1  -8   1   83.56    1.57
  -1  -8   1   82.95    1.62
   1  -8  -1   82.63    1.57
  -1   8   1   80.88    1.75
  -1   8   1   76.38    1.43
   0  -8   1   58.95    1.27
   0  -8  -1   59.22    1.31
   0   8   1   62.53    1.43
   1  -8   1  334.47    4.83
  -1  -8  -1  331.90    4.94
  -2  -8  -1  151.24    2.66
   2  -8   1  154.44    2.68
  -2  -8  -1  156.17    2.84
  -3  -8  -1   16.84    0.90
  -3  -8  -1   18.49    1.04
   3  -8   1   18.51    0.88
  -3   8  -1   16.92    1.04
   4  -8   1   17.20    0.98
  -4  -8  -1   15.15    1.07
  -4  -8  -1   14.22    1.16
  -4   8  -1   16.00    1.23
  -5  -8  -1   21.03    1.48
  -5  -8  -1   18.23    1.32
   5  -8   1   18.88    1.14
  -5   8  -1   19.88    1.53
  -6  -8  -1    7.91    1.15
  -6  -9   1    3.57    0.94
  -6   9   1    2.21    0.87
  -5  -9   1   76.91    2.40
  -5   9   1   75.01    2.45
  -4  -9   1   49.96    1.69
  -4  -9   1   50.69    1.48
   4  -9  -1   46.70    1.30
  -4   9   1   50.17    1.45
  -4   9   1   50.83    1.74
  -3  -9   1   10.39    0.77
   3  -9  -1    9.64    0.59
  -3  -9   1    9.57    0.68
  -3   9   1    8.55    0.63
  -3   9   1    9.56    0.74
  -2  -9   1   84.61    1.72
   2  -9  -1   86.15    1.73
  -2  -9   1   87.52    1.88
  -2   9   1   91.40    1.97
  -2   9   1   91.41    1.81
  -1  -9   1  311.50    4.80
   1  -9  -1  312.74    4.60
  -1  -9   1  315.11    4.59
  -1   9   1  315.15    5.18
   0  -9   1   25.23    0.81
   0  -9  -1   25.08    0.85
   0   9   1   23.88    0.88
   1  -9   1   78.10    1.61
  -1  -9  -1   80.18    1.73
  -2  -9  -1   16.77    0.87
  -2  -9  -1   15.53    0.68
   2  -9   1   15.60    0.74
   3  -9   1   32.12    1.12
  -3  -9  -1   32.40    1.17
  -3  -9  -1   29.99    1.32
  -3   9  -1   30.96    1.33
   4  -9   1  178.66    3.40
  -4  -9  -1  184.65    3.76
  -4  -9  -1  181.93    3.72
  -4   9  -1  184.91    4.03
  -5  -9  -1   25.96    1.46
   5  -9   1   23.68    1.23
  -5  -9  -1   25.21    1.59
  -5   9  -1   27.85    1.71
  -6  -9  -1    2.25    0.81
  -6 -10   1    0.99    0.68
  -6  10   1    1.46    0.81
  -5 -10   1    5.16    0.88
  -5  10   1    6.27    0.93
  -4 -10   1   22.84    1.22
  -4 -10   1   23.68    1.12
   4 -10  -1   21.83    0.94
  -4  10   1   25.24    1.28
  -4  10   1   23.90    1.02
  -3 -10   1    7.68    0.72
  -3 -10   1    6.01    0.60
   3 -10  -1    6.64    0.56
  -3  10   1    7.43    0.62
  -3  10   1    7.44    0.71
   2 -10  -1  187.28    3.11
  -2 -10   1  187.30    3.30
  -2 -10   1  190.77    3.11
  -2  10   1  184.41    3.19
  -2  10   1  190.09    3.49
  -1 -10   1  102.83    1.95
  -1 -10   1   98.90    1.95
   1 -10  -1   97.69    1.94
  -1  10   1  102.08    2.16
   0 -10  -1  103.27    2.01
   0 -10   1   99.91    1.94
   1 -10   1  209.40    3.38
  -1 -10  -1  210.74    3.52
   2 -10   1  110.99    2.22
  -2 -10  -1  112.39    2.39
  -2 -10  -1  111.16    2.10
  -3 -10  -1   21.66    1.18
  -3 -10  -1   21.24    0.97
   3 -10   1   21.85    0.98
  -4 -10  -1    1.46    0.64
   4 -10   1    1.11    0.48
  -4 -10  -1    0.70    0.48
  -4  10  -1    1.15    0.62
  -5 -10  -1   25.44    1.59
  -5 -10  -1   21.99    1.40
   5 -10   1   22.94    1.25
  -5  10  -1   23.68    1.67
  -6 -11   1    1.11    0.71
  -6  11   1    3.69    0.94
  -5 -11   1   92.93    2.70
  -5  11   1   93.64    2.78
  -4 -11   1   53.28    1.76
  -4 -11   1   51.33    1.61
   4 -11  -1   50.64    1.44
  -4  11   1   48.62    1.52
  -4  11   1   48.41    1.74
  -3 -11   1    3.02    0.50
  -3 -11   1    3.46    0.53
   3 -11  -1    3.75    0.49
  -3  11   1    5.09    0.58
  -3  11   1    4.46    0.57
  -2 -11   1   64.02    1.58
  -2 -11   1   64.25    1.53
   2 -11  -1   62.99    1.52
  -2  11   1   66.20    1.69
  -2  11   1   63.61    1.50
   1 -11  -1  313.78    4.73
  -1 -11   1  307.49    4.70
  -1 -11   1  307.65    4.84
  -1  11   1  312.09    5.28
   0 -11   1   46.40    1.23
   0 -11  -1   46.05    1.27
   1 -11   1  154.36    2.76
  -1 -11  -1  161.33    2.94
  -2 -11  -1    6.42    0.51
  -2 -11  -1    7.49    0.73
   2 -11   1    6.99    0.63
  -3 -11  -1    5.63    0.60
  -3 -11  -1    5.51    0.76
   3 -11   1    8.43    0.77
  -4 -11  -1  105.60    2.69
   4 -11   1  105.89    2.45
  -4 -11  -1  103.19    2.58
   5 -11   1   22.73    1.26
  -5 -11  -1   24.18    1.59
  -6 -12   1    6.23    1.00
  -6  12   1    6.82    1.06
  -5 -12   1    9.61    1.10
  -5  12   1    9.93    1.11
  -4 -12   1   27.30    1.31
  -4 -12   1   27.09    1.24
   4 -12  -1   27.66    1.10
  -4  12   1   26.99    1.34
  -4  12   1   26.87    1.14
  -3 -12   1   12.85    0.86
  -3 -12   1   12.09    0.82
   3 -12  -1   11.76    0.74
  -3  12   1   11.22    0.78
  -3  12   1   11.60    0.81
  -2 -12   1  252.50    4.21
   2 -12  -1  250.74    4.06
  -2 -12   1  251.29    4.04
  -2  12   1  245.51    4.08
  -2  12   1  249.07    4.51
  -1 -12   1   68.26    1.57
  -1 -12   1   68.87    1.63
   1 -12  -1   67.83    1.62
  -1  12   1   67.63    1.76
   0 -12  -1   44.05    1.28
   0 -12   1   43.41    1.25
   1 -12   1  245.67    3.97
  -1 -12  -1  243.36    4.11
   2 -12   1  115.32    2.36
  -2 -12  -1  111.15    2.50
  -3 -12  -1   17.91    1.13
  -3 -12  -1   15.79    0.86
   3 -12   1   16.90    0.96
  -4 -12  -1    0.50    0.61
   4 -12   1    1.11    0.52
  -4 -12  -1    0.48    0.47
  -5 -12  -1   16.78    1.45
   5 -12   1   14.04    1.12
  -6 -13   1    4.21    0.91
  -6  13   1    5.97    1.03
  -5 -13   1   63.93    2.22
  -5  13   1   61.87    2.26
  -4 -13   1   77.33    2.15
   4 -13  -1   82.14    2.01
  -4 -13   1   81.87    2.26
  -4  13   1   80.99    2.30
  -4  13   1   82.46    2.18
   3 -13  -1   33.06    1.19
  -3 -13   1   31.48    1.22
  -3 -13   1   31.70    1.25
  -3  13   1   31.47    1.24
  -3  13   1   32.24    1.24
  -2 -13   1   44.50    1.33
  -2 -13   1   45.01    1.35
   2 -13  -1   45.98    1.36
  -2  13   1   43.12    1.43
  -1 -13   1  130.11    2.49
   1 -13  -1  128.91    2.55
  -1 -13   1  132.20    2.55
   0 -13   1   25.19    1.00
   0 -13  -1   25.67    1.02
   1 -13   1  106.11    2.23
  -1 -13  -1  105.93    2.36
  -2 -13  -1   37.56    1.40
   2 -13   1   36.54    1.25
  -3 -13  -1   13.86    0.85
   3 -13   1   15.09    0.96
  -3 -13  -1   13.99    1.07
   4 -13   1  131.28    2.90
  -4 -13  -1  133.07    3.20
   5 -13   1   12.66    1.09
  -5 -13  -1   11.67    1.25
  -6 -14   1    1.82    0.76
  -5 -14   1    9.51    1.08
  -5  14   1   11.61    1.19
  -4 -14   1   28.26    1.36
  -4 -14   1   26.68    1.34
   4 -14  -1   29.86    1.23
  -4  14   1   28.00    1.39
  -3 -14   1   11.34    0.87
  -3 -14   1    9.18    0.81
   3 -14  -1   11.03    0.78
  -3  14   1   10.24    0.81
  -3  14   1   10.08    0.81
  -2 -14   1  171.18    3.19
  -2 -14   1  171.78    3.23
   2 -14  -1  173.49    3.21
  -2  14   1  175.43    3.53
  -1 -14   1   77.51    1.88
   1 -14  -1   78.46    1.88
  -1 -14   1   76.29    1.76
   0 -14   1   69.39    1.73
   0 -14  -1   64.17    1.72
   1 -14   1  174.95    3.23
  -1 -14  -1  179.24    3.40
  -2 -14  -1  142.73    3.04
   2 -14   1  147.73    2.91
   3 -14   1   13.81    0.96
  -3 -14  -1   14.65    1.12
   4 -14   1    0.89    0.51
  -4 -14  -1    2.35    0.72
   5 -14   1    8.63    1.01
  -5 -14  -1    7.65    1.09
  -5 -15   1   14.24    1.23
  -5  15   1   15.25    1.32
  -4 -15   1   55.27    1.88
   4 -15  -1   55.96    1.72
  -4  15   1   51.92    1.86
  -3 -15   1   48.76    1.60
  -3 -15   1   49.53    1.60
   3 -15  -1   48.81    1.54
   2 -15  -1   30.02    1.17
  -2 -15   1   28.15    1.10
  -2 -15   1   30.03    1.21
   1 -15  -1  102.34    2.29
  -1 -15   1  100.45    2.27
  -1 -15   1  102.19    2.17
   0 -15   1    0.53    0.37
   0 -15  -1    0.72    0.37
   1 -15   1  103.48    2.33
  -1 -15  -1  107.12    2.49
  -2 -15  -1   35.93    1.47
   2 -15   1   37.08    1.38
  -3 -15  -1   13.03    1.11
   3 -15   1   11.54    0.95
  -4 -15  -1   63.83    2.25
   4 -15   1   66.12    2.02
   5 -15   1    4.32    0.77
  -5 -15  -1    4.39    1.00
  -5 -16   1    5.63    0.87
  -5  16   1    7.81    1.00
  -4 -16   1   27.65    1.38
   4 -16  -1   29.16    1.27
  -3 -16   1    7.09    0.80
   3 -16  -1    9.13    0.87
  -3 -16   1    6.89    0.73
  -2 -16   1  121.61    2.60
  -2 -16   1  126.50    2.71
   2 -16  -1  125.16    2.70
  -1 -16   1   17.38    0.86
  -1 -16   1   18.55    1.00
   1 -16  -1   18.02    0.97
   0 -16   1   31.68    1.26
   0 -16  -1   32.24    1.28
   1 -16   1  161.07    3.18
  -1 -16  -1  159.95    3.31
   2 -16   1  108.75    2.51
  -2 -16  -1  103.57    2.63
  -3 -16  -1   25.18    1.41
   3 -16   1   26.87    1.31
   4 -16   1    0.69    0.54
  -4 -16  -1    0.00    0.66
   5 -16   1   12.56    1.16
  -4 -17   1   54.28    1.90
   4 -17  -1   55.62    1.82
  -3 -17   1   31.39    1.39
  -3 -17   1   31.92    1.33
   3 -17  -1   29.15    1.30
  -2 -17   1   32.37    1.22
   2 -17  -1   30.39    1.28
  -2 -17   1   32.99    1.35
   1 -17  -1   58.44    1.75
  -1 -17   1   57.77    1.76
  -1 -17   1   60.51    1.61
   0 -17   1   12.13    0.90
   0 -17  -1   12.53    0.93
  -1 -17  -1   37.90    1.53
   1 -17   1   38.59    1.45
  -2 -17  -1   34.59    1.55
   2 -17   1   34.28    1.41
   3 -17   1   26.09    1.36
  -3 -17  -1   26.73    1.48
   4 -17   1   73.42    2.28
  -4 -17  -1   68.93    2.44
   5 -17   1   23.48    1.50
   4 -18  -1   16.82    1.10
  -3 -18   1    5.69    0.83
  -3 -18   1    4.53    0.66
   3 -18  -1    4.88    0.72
   2 -18  -1  176.36    3.56
  -2 -18   1  176.59    3.55
  -2 -18   1  175.01    3.42
   1 -18  -1   16.26    1.01
  -1 -18   1   17.07    0.89
  -1 -18   1   16.23    1.05
   0 -18  -1   43.97    1.61
   0 -18   1   45.14    1.58
  -1 -18  -1   89.57    2.41
   1 -18   1   81.66    2.23
  -2 -18  -1   82.18    2.42
   2 -18   1   83.42    2.28
  -3 -18  -1   18.43    1.34
   3 -18   1   18.73    1.25
   4 -18   1    1.07    0.62
  -4 -18  -1    1.53    0.77
   5 -18   1   20.52    1.44
   4 -19  -1   25.59    1.35
  -3 -19   1   36.80    1.59
   3 -19  -1   37.50    1.54
  -2 -19   1   28.48    1.36
   2 -19  -1   28.47    1.32
  -2 -19   1   29.86    1.21
   1 -19  -1   95.77    2.45
  -1 -19   1   94.35    2.22
  -1 -19   1   95.53    2.46
   0 -19   1   20.20    1.16
   0 -19  -1   19.60    1.18
  -1 -19  -1   42.66    1.73
   1 -19   1   44.45    1.65
   2 -19   1   19.81    1.22
  -2 -19  -1   19.63    1.33
  -3 -19  -1   19.55    1.44
   3 -19   1   18.05    1.25
   4 -19   1   53.83    2.07
  -4 -19  -1   52.15    2.24
   4 -20  -1   17.30    1.24
  -3 -20   1    5.23    0.85
   3 -20  -1    7.33    0.88
  -2 -20   1   70.38    2.16
   2 -20  -1   71.17    2.14
  -1 -20   1   52.70    1.59
   1 -20  -1   50.62    1.79
  -1 -20   1   50.83    1.82
   0 -20   1   56.28    1.90
   0 -20  -1   56.57    1.94
   1 -20   1   82.35    2.35
  -1 -20  -1   80.65    2.43
  -2 -20  -1   39.24    1.78
   2 -20   1   36.88    1.63
  -3 -20  -1   26.05    1.63
   3 -20   1   26.31    1.45
   4 -20   1    0.33    0.56
  -4 -20  -1    0.73    0.75
   3 -21  -1   23.22    1.35
  -3 -21   1   20.81    1.37
   2 -21  -1   12.48    1.02
  -2 -21   1   13.17    1.10
   1 -21  -1   82.56    2.39
  -1 -21   1   83.36    2.42
   0 -21   1   12.23    1.12
   0 -21  -1   14.08    1.14
  -1 -21  -1   33.44    1.66
   1 -21   1   34.38    1.58
   2 -21   1   22.12    1.37
  -2 -21  -1   22.89    1.49
  -3 -21  -1   17.08    1.60
   3 -21   1   14.43    1.24
  -4 -21  -1   49.95    2.28
   4 -21   1   52.69    2.09
  -3 -22   1    2.36    0.80
   3 -22  -1    2.28    0.60
  -2 -22   1   42.05    1.78
   2 -22  -1   42.68    1.75
  -1 -22   1   32.16    1.57
   1 -22  -1   28.31    1.48
   0 -22  -1   51.48    1.97
   0 -22   1   49.26    1.89
  -1 -22  -1   46.77    1.98
   1 -22   1   49.09    1.90
   2 -22   1   30.90    1.60
  -2 -22  -1   29.06    1.71
   3 -22   1   14.55    1.29
  -3 -22  -1   12.24    1.35
  -4 -22  -1    1.30    0.93
  -3 -23   1   18.87    1.43
   3 -23  -1   20.00    1.32
   2 -23  -1   22.32    1.36
  -2 -23   1   23.77    1.45
  -1 -23   1   55.28    2.07
   1 -23  -1   56.64    2.07
   0 -23   1   11.23    1.12
   0 -23  -1   11.22    1.15
  -1 -23  -1   40.10    1.90
   1 -23   1   40.50    1.79
  -2 -23  -1   19.35    1.53
   2 -23   1   15.69    1.29
   3 -23   1   11.14    1.23
  -3 -23  -1    7.38    1.17
  -3 -24   1    5.70    1.04
   3 -24  -1    7.31    0.98
   2 -24  -1   55.02    2.12
  -2 -24   1   58.08    2.22
  -1 -24   1   23.31    1.50
   1 -24  -1   24.74    1.51
   0 -24   1   46.95    1.95
   0 -24  -1   46.87    2.01
  -1 -24  -1   68.63    2.51
   1 -24   1   71.26    2.43
   2 -24   1   21.69    1.49
  -2 -24  -1   22.27    1.66
  -3 -24  -1   11.14    1.40
   3 -24   1   15.42    1.36
  -3 -25   1   44.92    2.09
   3 -25  -1   43.20    1.95
   2 -25  -1   10.29    1.16
  -2 -25   1   10.05    1.26
  -1 -25   1   31.48    1.73
   1 -25  -1   34.82    1.80
   0 -25   1    8.50    1.05
   0 -25  -1   11.40    1.26
   1 -25   1   36.79    1.83
  -1 -25  -1   34.71    1.92
  -2 -25  -1   34.33    1.99
   2 -25   1   33.94    1.82
  -3 -26   1   12.25    1.55
   2 -26  -1   46.46    2.06
  -2 -26   1   47.93    2.16
   1 -26  -1    8.97    1.13
  -1 -26   1   10.11    1.28
   0 -26  -1   45.50    2.11
   0 -26   1   47.35    2.10
   1 -26   1   27.44    1.66
  -1 -26  -1   27.96    1.83
  -1 -27   1   14.63    1.45
   1 -27  -1   17.33    1.48
   0 -27  -1    2.59    0.81
   0 -27   1    1.98    0.75
  -6   0   2   54.37    2.26
  -5   0   2    4.25    0.83
  -4   0   2   25.29    1.20
  -3   0   2    0.08    0.35
  -2   0   2   16.41    0.70
  -1   0   2  750.04   10.45
   0   0  -2 1000.00   13.13
  -1   0  -2    7.64    0.62
  -2   0  -2   17.40    0.93
  -2   0  -2   15.78    0.82
  -3   0  -2  143.27    3.04
  -3   0  -2  144.73    3.02
  -4   0  -2    2.81    0.68
  -4   0  -2    3.53    0.80
  -5   0  -2   43.59    1.98
  -5   0  -2   43.08    2.00
  -6   0  -2    0.52    0.84
  -6  -1   2   25.14    1.67
  -6   1   2   25.80    1.70
  -5  -1   2    1.91    0.70
  -5   1   2    2.89    0.75
  -4  -1   2   28.68    1.26
  -4   1   2   31.46    1.34
  -3  -1   2  210.78    3.69
  -3   1   2  207.24    3.68
  -2  -1   2   24.64    0.84
  -2   1   2   24.33    0.82
  -1  -1   2   28.57    0.79
  -1   1   2   28.00    0.74
   0  -1  -2  253.31    3.75
   0   1  -2  266.74    3.77
  -1  -1  -2    0.28    0.31
  -1   1  -2    0.18    0.30
  -2  -1  -2  155.38    2.95
  -2  -1  -2  156.84    2.93
  -2   1  -2  156.08    2.98
  -2   1  -2  163.57    2.97
  -3  -1  -2   41.73    1.49
  -3  -1  -2   41.29    1.56
  -3   1  -2   41.82    1.59
  -3   1  -2   41.46    1.52
  -4  -1  -2    5.61    0.91
  -4  -1  -2    6.09    0.88
  -4   1  -2    6.21    0.89
  -4   1  -2    4.35    0.85
  -5  -1  -2   73.24    2.54
  -5  -1  -2   70.58    2.51
  -5   1  -2   73.27    2.61
  -6  -1  -2   31.55    2.02
  -6  -2   2   45.42    2.08
  -6   2   2   44.51    2.08
  -5  -2   2    5.69    0.87
  -5   2   2    4.92    0.87
  -4  -2   2   40.18    1.48
  -4   2   2   42.31    1.54
  -3  -2   2   19.19    0.92
  -3   2   2   20.61    0.94
  -2  -2   2   19.20    0.78
  -2   2   2   19.81    0.74
  -1  -2   2  502.48    7.13
  -1   2   2  486.01    6.97
   0  -2  -2  357.98    4.92
   0   2   2  347.07    5.44
   0   2  -2  351.51    4.94
  -1  -2  -2   28.45    0.97
  -1   2  -2   29.28    1.00
  -2  -2  -2   48.09    1.43
  -2  -2  -2   45.33    1.28
  -2   2  -2   45.00    1.35
  -2   2  -2   44.98    1.43
  -3  -2  -2  161.25    3.26
  -3  -2  -2  160.58    3.31
  -3   2  -2  166.01    3.40
  -3   2  -2  160.21    3.27
  -4  -2  -2    0.66    0.54
  -4  -2  -2    0.97    0.66
  -4   2  -2    0.57    0.58
  -4   2  -2    0.74    0.64
  -5  -2  -2   43.47    2.02
  -5  -2  -2   42.59    1.99
  -5   2  -2   38.69    2.03
  -6  -2  -2    0.34    0.76
  -6  -3   2   21.01    1.56
  -6   3   2   23.83    1.61
  -5  -3   2    0.76    0.61
  -5   3   2   -0.53    0.55
  -4  -3   2   42.11    1.52
  -4   3   2   40.38    1.33
  -4   3   2   44.15    1.56
  -3  -3   2  326.71    5.34
  -3   3   2  322.56    5.45
  -3   3   2  329.56    5.27
  -2  -3   2   51.44    1.30
  -2   3   2   50.29    1.21
  -1  -3   2   24.84    0.77
  -1   3   2   23.55    0.64
  -1   3   2   23.99    0.80
   0  -3  -2  113.68    1.95
   0   3   2  111.94    2.07
  -1  -3  -2    5.31    0.52
  -1   3  -2    5.37    0.54
  -2  -3  -2  252.88    4.17
  -2  -3  -2  244.95    4.10
  -2   3  -2  252.37    4.19
  -3  -3  -2   36.48    1.49
  -3  -3  -2   37.22    1.38
  -3   3  -2   36.07    1.46
  -3   3  -2   36.21    1.47
  -4  -3  -2    2.06    0.63
  -4  -3  -2    2.72    0.78
  -4   3  -2    2.40    0.70
  -5  -3  -2   34.04    1.89
  -5  -3  -2   35.38    1.83
  -5   3  -2   39.07    1.97
  -6  -3  -2   21.01    1.72
  -6  -4   2   32.66    1.80
  -6   4   2   32.46    1.79
  -5  -4   2   20.19    1.36
  -5   4   2   22.49    1.37
  -4  -4   2   47.15    1.59
  -4   4   2   43.60    1.57
  -4   4   2   41.50    1.37
  -3  -4   2    5.89    0.63
  -3   4   2    5.67    0.62
  -3   4   2    6.63    0.59
  -2  -4   2   17.01    0.74
  -2   4   2   16.68    0.68
  -2   4   2   16.26    0.75
   1  -4  -2  266.31    3.74
  -1  -4   2  267.80    3.67
  -1  -4   2  261.32    4.15
  -1   4   2  268.72    3.91
  -1   4   2  274.15    4.42
   0  -4  -2  373.92    5.38
   0  -4   2  392.17    5.28
   0   4   2  387.48    5.99
  -1  -4  -2   15.22    0.74
   1   4   2   13.71    0.56
  -2  -4  -2   49.75    1.31
  -2  -4  -2   50.66    1.50
  -3  -4  -2  112.60    2.62
  -3  -4  -2  110.70    2.49
  -3   4  -2  112.17    2.69
  -4  -4  -2    3.78    0.86
  -4  -4  -2    4.61    0.77
   4  -4   2    4.78    0.66
  -4   4  -2    5.98    0.91
  -5  -4  -2   18.00    1.58
   5  -4   2   13.01    1.13
  -5  -4  -2   11.16    1.24
  -5   4  -2   13.88    1.44
  -6  -4  -2    0.49    0.72
  -6  -5   2   15.01    1.41
  -6   5   2   13.33    1.32
  -5  -5   2    1.95    0.65
  -5   5   2    1.62    0.68
  -4  -5   2   84.68    2.25
  -4   5   2   88.73    2.27
  -4   5   2   84.51    2.08
  -3  -5   2  331.88    5.46
  -3   5   2  333.89    5.37
  -3   5   2  331.85    5.61
  -2  -5   2    2.41    0.37
  -2   5   2    2.53    0.33
  -2   5   2    2.06    0.37
   1  -5  -2   19.87    0.62
  -1  -5   2   20.64    0.73
  -1  -5   2   19.94    0.58
  -1   5   2   20.59    0.78
   0  -5  -2   83.03    1.61
   0  -5   2   85.02    1.53
   0   5   2   81.86    1.72
  -1  -5  -2   10.67    0.69
   1  -5   2    9.57    0.56
   1   5   2    9.58    0.51
  -2  -5  -2  370.14    5.63
  -2  -5  -2  371.93    5.69
   2  -5   2  354.40    5.40
  -3  -5  -2   36.22    1.33
   3  -5   2   36.92    1.25
  -3  -5  -2   38.15    1.52
  -3   5  -2   40.28    1.53
  -4  -5  -2    1.43    0.73
   4  -5   2    2.21    0.57
  -4  -5  -2    1.58    0.59
  -4   5  -2    3.09    0.78
  -5  -5  -2   25.15    1.68
   5  -5   2   30.53    1.49
  -5  -5  -2   31.67    1.72
  -5   5  -2   28.29    1.81
  -6  -5  -2   52.70    2.40
  -6  -6   2   26.01    1.68
  -6   6   2   27.36    1.68
  -5  -6   2    4.78    0.81
  -5   6   2    3.06    0.76
  -4  -6   2   94.13    2.40
  -4   6   2   93.83    2.37
  -4   6   2   95.16    2.25
  -3  -6   2    1.25    0.41
  -3   6   2    1.05    0.37
  -3   6   2    1.11    0.41
  -2  -6   2    6.82    0.55
  -2   6   2    6.59    0.58
  -2   6   2    5.65    0.47
  -1  -6   2  143.94    2.56
  -1  -6   2  145.41    2.25
   1  -6  -2  143.11    2.32
  -1   6   2  143.58    2.71
   0  -6   2  236.35    3.54
   0  -6  -2  239.91    3.69
   0   6   2  243.76    4.03
  -1  -6  -2    7.03    0.61
   1  -6   2    7.32    0.53
   1   6   2    6.96    0.49
   2  -6   2   52.20    1.37
  -2  -6  -2   50.08    1.28
  -2  -6  -2   50.82    1.52
  -3  -6  -2  193.17    3.60
  -3  -6  -2  190.16    3.74
   3  -6   2  187.48    3.41
  -4  -6  -2    0.68    0.53
  -4  -6  -2   -0.01    0.63
   4  -6   2   -0.21    0.43
  -4   6  -2    0.51    0.63
  -5  -6  -2   18.66    1.56
  -5  -6  -2   18.66    1.44
   5  -6   2   18.03    1.23
  -5   6  -2   19.53    1.63
  -6  -7   2   15.80    1.47
  -6   7   2   16.37    1.42
  -5  -7   2    6.24    0.91
  -5   7   2    5.59    0.85
  -4  -7   2   62.49    1.90
  -4   7   2   62.68    1.76
  -4   7   2   61.81    1.87
  -3  -7   2  294.51    5.02
  -3   7   2  296.23    5.14
  -3   7   2  296.39    4.88
   2  -7  -2   15.43    0.57
  -2  -7   2   14.77    0.76
  -2   7   2   17.77    0.67
  -2   7   2   17.42    0.82
   1  -7  -2   25.80    0.80
  -1  -7   2   26.25    0.88
  -1  -7   2   26.56    0.77
  -1   7   2   27.07    0.96
   0  -7   2  147.54    2.41
   0  -7  -2  146.85    2.53
   0   7   2  140.13    2.69
  -1  -7  -2   43.00    1.27
   1  -7   2   41.39    1.13
   1   7   2   44.19    1.16
  -2  -7  -2  273.66    4.38
  -2  -7  -2  284.85    4.63
   2  -7   2  275.49    4.37
  -3  -7  -2   53.21    1.59
  -3  -7  -2   56.64    1.83
   3  -7   2   51.35    1.54
   4  -7   2    7.27    0.82
  -4  -7  -2    8.51    1.04
  -4  -7  -2    6.95    0.84
   5  -7   2   40.65    1.67
  -5  -7  -2   41.41    2.02
  -5  -7  -2   38.63    1.85
  -6  -8   2   29.48    1.80
  -6   8   2   30.40    1.79
  -5  -8   2   21.59    1.36
  -5   8   2   23.78    1.39
  -4  -8   2   28.03    1.32
  -4   8   2   28.95    1.19
  -4   8   2   30.41    1.32
  -3  -8   2    6.31    0.69
  -3   8   2    6.48    0.64
  -3   8   2    5.45    0.63
   2  -8  -2   17.14    0.64
  -2  -8   2   16.94    0.80
  -2  -8   2   16.95    0.63
  -2   8   2   15.15    0.81
  -2   8   2   15.02    0.64
  -1  -8   2  234.62    3.52
   1  -8  -2  230.24    3.59
  -1   8   2  238.38    4.11
   0  -8   2  373.65    5.36
   0  -8  -2  377.40    5.52
   0   8   2  378.00    6.10
   1  -8   2   13.60    0.69
  -1  -8  -2   12.87    0.77
   1   8   2   11.55    0.67
   2  -8   2   61.82    1.56
  -2  -8  -2   63.38    1.78
  -3  -8  -2   86.54    2.32
   3  -8   2   84.12    2.04
   4  -8   2    2.39    0.61
  -4  -8  -2    3.29    0.81
  -4  -8  -2    2.52    0.62
  -5  -8  -2   19.77    1.61
   5  -8   2   19.75    1.28
  -6  -9   2   11.61    1.31
  -6   9   2   15.23    1.46
  -5  -9   2    7.88    0.99
  -5   9   2    8.61    0.99
  -4  -9   2   27.31    1.31
  -4   9   2   25.67    1.23
  -4   9   2   24.79    1.14
   3  -9  -2  190.95    3.16
  -3  -9   2  201.16    3.74
  -3   9   2  200.95    3.81
  -3   9   2  198.23    3.54
  -2  -9   2    6.68    0.61
   2  -9  -2    7.24    0.50
  -2  -9   2    6.84    0.49
  -2   9   2    8.23    0.48
  -2   9   2    7.60    0.67
  -1  -9   2   21.64    0.78
   1  -9  -2   21.64    0.80
  -1   9   2   22.32    0.93
   0  -9  -2  121.73    2.34
   0  -9   2  126.40    2.23
   0   9   2  122.48    2.50
   1  -9   2    2.04    0.39
  -1  -9  -2    1.92    0.43
   1   9   2    1.73    0.37
   2  -9   2  169.80    3.07
  -2  -9  -2  171.62    3.34
   3  -9   2   15.82    0.96
  -3  -9  -2   16.50    1.15
  -4  -9  -2    9.37    0.94
   4  -9   2   11.23    0.98
  -4  -9  -2   12.46    1.20
   5  -9   2   34.57    1.57
  -5  -9  -2   33.21    1.91
  -6 -10   2   38.18    1.99
  -6  10   2   39.68    1.98
  -5 -10   2   14.10    1.20
  -5  10   2   14.41    1.23
  -4 -10   2   20.66    1.21
  -4  10   2   19.71    1.12
  -4  10   2   19.52    1.06
  -3 -10   2    5.46    0.67
  -3 -10   2    5.68    0.53
   3 -10  -2    6.87    0.54
  -3  10   2    8.20    0.77
  -3  10   2    6.32    0.61
   2 -10  -2    9.98    0.59
  -2 -10   2   10.22    0.71
  -2 -10   2   10.23    0.61
  -2  10   2   10.01    0.75
  -2  10   2    9.92    0.54
   1 -10  -2  284.04    4.37
  -1 -10   2  284.36    4.31
   0 -10  -2  296.84    4.63
   0 -10   2  295.04    4.46
   0  10   2  293.91    5.05
  -1 -10  -2   21.80    1.02
   1 -10   2   22.76    0.90
  -2 -10  -2   20.49    1.11
   2 -10   2   19.88    0.93
   3 -10   2   81.86    2.05
  -3 -10  -2   84.17    2.33
  -4 -10  -2    1.35    0.72
   4 -10   2    1.35    0.57
   5 -10   2   25.34    1.38
  -5 -10  -2   24.11    1.71
  -6 -11   2   22.61    1.64
  -6  11   2   21.37    1.60
  -5 -11   2    2.14    0.70
  -5  11   2    3.16    0.76
  -4 -11   2   43.12    1.67
  -4  11   2   45.58    1.58
  -4  11   2   44.59    1.62
   3 -11  -2  143.23    2.65
  -3 -11   2  149.10    3.07
  -3 -11   2  141.24    2.62
  -3  11   2  147.41    2.86
  -3  11   2  149.89    3.14
  -2 -11   2   17.45    0.78
   2 -11  -2   15.83    0.76
  -2 -11   2   16.11    0.87
  -2  11   2   16.14    0.66
  -2  11   2   17.28    0.90
   1 -11  -2   22.26    0.88
  -1 -11   2   20.39    0.87
  -1  11   2   20.77    0.96
   0 -11  -2   86.71    1.98
   0 -11   2   85.86    1.85
   0  11   2   90.55    2.10
   1 -11   2   11.42    0.71
  -1 -11  -2   10.33    0.82
   2 -11   2   82.73    1.96
  -2 -11  -2   83.38    2.17
  -3 -11  -2   57.02    1.93
   3 -11   2   56.12    1.70
   4 -11   2    7.20    0.84
  -4 -11  -2    7.32    1.01
  -5 -11  -2   44.72    2.11
   5 -11   2   42.95    1.76
  -6 -12   2   33.37    1.90
  -6  12   2   36.61    1.94
  -5 -12   2   -0.10    0.54
  -5  12   2    0.42    0.58
  -4 -12   2   71.88    2.16
  -4  12   2   64.50    1.98
  -4  12   2   66.19    1.98
  -3 -12   2    1.46    0.43
  -3 -12   2    2.56    0.53
   3 -12  -2    2.17    0.39
  -3  12   2    2.55    0.57
  -3  12   2    2.38    0.43
  -2 -12   2   19.94    0.88
   2 -12  -2   18.72    0.86
  -2 -12   2   21.07    0.97
  -2  12   2   21.60    1.03
  -1 -12   2  252.76    4.07
   1 -12  -2  254.75    4.14
  -1  12   2  253.26    4.62
   0 -12   2  207.84    3.50
   0 -12  -2  208.21    3.65
   0  12   2  198.67    3.87
  -1 -12  -2   38.18    1.39
   1 -12   2   37.77    1.22
  -2 -12  -2   18.00    1.11
   2 -12   2   15.43    0.91
  -3 -12  -2  129.65    3.11
   3 -12   2  130.09    2.81
  -4 -12  -2    0.66    0.63
   4 -12   2    0.57    0.54
   5 -12   2   26.43    1.47
  -5 -12  -2   25.54    1.77
  -6 -13   2   10.87    1.31
  -6  13   2   12.67    1.35
  -5 -13   2    7.62    1.06
  -5  13   2    8.82    1.03
  -4 -13   2   40.95    1.65
  -4  13   2   39.30    1.53
  -4  13   2   41.32    1.57
  -3 -13   2  127.89    2.85
  -3 -13   2  123.70    2.51
   3 -13  -2  130.40    2.57
  -3  13   2  127.95    2.94
  -3  13   2  126.62    2.60
  -2 -13   2   21.12    1.02
  -2 -13   2   20.74    0.94
   2 -13  -2   21.26    0.93
  -2  13   2   19.22    1.03
  -1 -13   2   15.97    0.85
  -1 -13   2   16.56    0.86
   1 -13  -2   16.80    0.87
  -1  13   2   18.43    0.96
   0 -13   2   61.85    1.62
   0 -13  -2   64.17    1.76
   0  13   2   64.38    1.81
  -1 -13  -2    7.60    0.76
   1 -13   2    8.44    0.71
   2 -13   2  115.81    2.53
  -2 -13  -2  117.99    2.75
  -3 -13  -2   31.96    1.58
   3 -13   2   29.13    1.33
  -4 -13  -2   16.97    1.40
   4 -13   2   19.38    1.24
   5 -13   2   26.88    1.50
  -5 -13  -2   23.40    1.75
  -6  14   2   27.23    1.76
  -5 -14   2    2.70    0.77
  -5  14   2    2.20    0.70
  -4 -14   2   32.20    1.51
  -4  14   2   28.65    1.37
  -4  14   2   31.64    1.38
  -3 -14   2   16.55    0.93
   3 -14  -2   15.28    0.85
  -3 -14   2   16.53    1.04
  -3  14   2   16.75    0.90
  -3  14   2   16.60    1.05
  -2 -14   2   31.19    1.23
  -2 -14   2   29.07    1.14
   2 -14  -2   30.46    1.14
  -2  14   2   31.13    1.31
   1 -14  -2  162.23    3.09
  -1 -14   2  162.55    3.05
  -1 -14   2  163.17    3.14
  -1  14   2  154.76    3.35
   0 -14   2  147.69    2.88
   0 -14  -2  150.44    3.05
  -1 -14  -2   54.80    1.74
   1 -14   2   53.26    1.57
   2 -14   2   28.75    1.22
  -2 -14  -2   26.59    1.35
  -3 -14  -2   78.34    2.44
   3 -14   2   78.82    2.17
  -4 -14  -2    0.55    0.66
   4 -14   2    2.09    0.66
   5 -14   2   15.54    1.27
  -5 -14  -2   14.50    1.48
  -5 -15   2    9.13    1.08
  -5  15   2   10.60    1.09
  -4 -15   2   34.97    1.59
  -4  15   2   34.58    1.46
  -4  15   2   34.01    1.52
   3 -15  -2  145.08    2.92
  -3 -15   2  140.01    2.88
  -3 -15   2  146.76    3.19
  -3  15   2  143.99    3.31
  -2 -15   2   24.98    1.13
  -2 -15   2   25.40    1.12
   2 -15  -2   25.15    1.08
  -2  15   2   22.41    1.17
   1 -15  -2   35.85    1.31
  -1 -15   2   36.99    1.32
  -1 -15   2   36.03    1.29
  -1  15   2   35.62    1.41
   0 -15  -2   34.26    1.37
   0 -15   2   31.97    1.24
  -1 -15  -2    3.00    0.61
   1 -15   2    4.59    0.64
   2 -15   2  100.56    2.41
  -2 -15  -2  102.37    2.66
  -3 -15  -2   27.50    1.57
   3 -15   2   27.58    1.35
  -4 -15  -2   14.69    1.38
   4 -15   2   16.52    1.29
  -5 -15  -2   11.73    1.36
   5 -15   2   14.50    1.25
  -5 -16   2    3.10    0.77
  -4 -16   2   36.39    1.63
  -4  16   2   35.47    1.58
  -3 -16   2    5.52    0.72
   3 -16  -2    5.69    0.68
  -3 -16   2    5.38    0.68
  -3  16   2    5.05    0.75
  -2 -16   2   32.90    1.30
   2 -16  -2   31.49    1.25
  -2 -16   2   31.78    1.29
  -2  16   2   31.80    1.40
  -1 -16   2   89.91    2.18
   1 -16  -2   87.42    2.20
  -1 -16   2   90.11    2.20
  -1  16   2   89.32    2.39
   0 -16  -2   99.84    2.47
   0 -16   2   93.94    2.29
  -1 -16  -2   36.81    1.54
   1 -16   2   37.37    1.42
   2 -16   2   22.71    1.19
  -2 -16  -2   20.56    1.33
  -3 -16  -2   52.43    2.07
   3 -16   2   54.46    1.87
   4 -16   2   -0.32    0.51
  -4 -16  -2    0.80    0.71
  -5 -17   2    6.28    1.01
  -4 -17   2   25.96    1.44
  -4  17   2   23.96    1.37
  -3 -17   2   96.56    2.40
  -3 -17   2  102.85    2.61
   3 -17  -2  100.81    2.44
  -3  17   2  102.55    2.77
   2 -17  -2   16.70    1.00
  -2 -17   2   15.52    0.99
  -2 -17   2   15.34    1.02
  -2  17   2   16.28    1.09
  -1 -17   2   29.89    1.23
   1 -17  -2   27.24    1.25
  -1 -17   2   28.11    1.26
   0 -17  -2   72.08    2.13
   0 -17   2   70.95    2.00
  -1 -17  -2    1.46    0.59
   1 -17   2    3.67    0.66
   2 -17   2  104.62    2.59
  -2 -17  -2  103.74    2.84
  -3 -17  -2   12.05    1.24
   3 -17   2   14.09    1.12
   4 -17   2    6.46    0.94
  -4 -17  -2    5.23    1.00
  -5 -18   2    3.87    0.81
  -4 -18   2   20.27    1.34
  -4  18   2   19.81    1.29
  -3 -18   2    1.24    0.52
  -3 -18   2    1.57    0.54
   3 -18  -2    0.77    0.40
  -3  18   2    1.92    0.58
  -2 -18   2   23.05    1.18
   2 -18  -2   24.56    1.21
  -2 -18   2   25.63    1.26
   1 -18  -2   81.25    2.23
  -1 -18   2   78.85    2.19
  -1 -18   2   83.01    2.15
   0 -18   2  155.15    3.31
   0 -18  -2  162.90    3.50
  -1 -18  -2   27.69    1.46
   1 -18   2   28.43    1.36
   2 -18   2   17.19    1.17
  -2 -18  -2   17.37    1.36
   3 -18   2   41.52    1.74
  -3 -18  -2   41.96    1.94
   4 -18   2    2.29    0.71
  -4 -18  -2    1.82    0.79
  -4 -19   2   19.43    1.34
   3 -19  -2   71.99    2.11
  -3 -19   2   73.67    2.20
  -3 -19   2   64.90    2.06
  -2 -19   2   14.63    1.01
   2 -19  -2   13.33    1.00
  -2 -19   2   15.04    1.09
  -1 -19   2   38.58    1.57
   1 -19  -2   40.29    1.59
  -1 -19   2   38.16    1.46
   0 -19   2   47.38    1.73
   0 -19  -2   45.65    1.82
   1 -19   2   10.78    1.04
  -1 -19  -2    9.55    1.06
   2 -19   2   61.03    2.04
  -2 -19  -2   58.29    2.23
   3 -19   2   15.87    1.35
  -3 -19  -2   14.79    1.39
  -4 -19  -2   26.76    1.77
   4 -19   2   29.68    1.65
  -4 -20   2   24.70    1.49
  -3 -20   2    0.47    0.49
   3 -20  -2    0.41    0.41
  -3 -20   2    0.96    0.54
  -2 -20   2   20.55    1.17
   2 -20  -2   19.32    1.20
  -2 -20   2   22.51    1.30
  -1 -20   2   77.36    2.27
   1 -20  -2   76.03    2.30
  -1 -20   2   78.35    2.17
   0 -20  -2   81.10    2.48
   0 -20   2   81.77    2.36
  -1 -20  -2   40.02    1.81
   1 -20   2   35.79    1.64
  -2 -20  -2   14.03    1.35
   2 -20   2   14.42    1.25
   3 -20   2   47.05    1.97
  -3 -20  -2   42.72    2.07
  -3 -21   2   62.09    2.13
  -3 -21   2   59.28    2.05
   3 -21  -2   60.72    2.06
  -2 -21   2   21.79    1.34
   2 -21  -2   20.46    1.28
  -2 -21   2   21.76    1.24
  -1 -21   2   29.32    1.46
  -1 -21   2   27.94    1.32
   1 -21  -2   26.32    1.45
   0 -21   2   34.55    1.60
   0 -21  -2   30.78    1.64
   1 -21   2    7.67    0.98
  -1 -21  -2    6.54    0.95
   2 -21   2   48.34    1.93
  -2 -21  -2   49.98    2.19
   3 -21   2   13.25    1.29
  -3 -21  -2   11.09    1.30
   3 -22  -2    0.59    0.49
  -3 -22   2    1.46    0.66
   2 -22  -2   20.71    1.34
  -2 -22   2   21.70    1.38
  -2 -22   2   20.23    1.23
  -1 -22   2   63.29    2.01
   1 -22  -2   64.39    2.25
  -1 -22   2   64.77    2.16
   0 -22  -2   63.38    2.30
   0 -22   2   57.73    2.10
   1 -22   2   44.81    1.88
  -1 -22  -2   41.92    1.96
   2 -22   2    3.39    0.79
  -2 -22  -2    5.46    1.06
   3 -22   2   26.21    1.62
  -3 -22  -2   28.91    1.86
  -3 -23   2   38.23    1.87
   3 -23  -2   39.45    1.78
   2 -23  -2    9.96    1.09
  -2 -23   2    9.88    1.14
  -1 -23   2   24.09    1.29
   1 -23  -2   23.20    1.51
  -1 -23   2   24.93    1.49
   0 -23   2    9.63    1.10
   0 -23  -2   10.10    1.18
   1 -23   2    5.08    0.92
  -1 -23  -2    8.67    1.15
   2 -23   2   31.51    1.73
  -2 -23  -2   32.65    1.96
   3 -24  -2    2.59    0.72
  -2 -24   2   16.58    1.36
   2 -24  -2   15.73    1.32
   1 -24  -2   37.63    1.89
  -1 -24   2   41.33    1.88
   0 -24   2   19.35    1.43
   0 -24  -2   19.62    1.54
  -1 -24  -2   40.75    2.05
   1 -24   2   37.30    1.87
  -2 -24  -2    9.55    1.29
   2 -24   2   10.97    1.23
   3 -25  -2   44.67    2.03
   2 -25  -2   14.13    1.32
  -2 -25   2   16.04    1.40
  -1 -25   2   17.07    1.42
   1 -25  -2   16.65    1.48
   0 -25  -2   15.92    1.51
   0 -25   2   14.25    1.46
   1 -25   2   10.26    1.25
  -1 -25  -2   11.15    1.35
  -2 -26   2   23.47    1.61
   2 -26  -2   21.64    1.57
  -1 -26   2   30.40    1.78
   1 -26  -2   31.88    1.87
   0 -26   2   35.64    1.87
   0 -26  -2   36.17    2.03
   1 -26   2   42.17    2.31
  -1 -27   2   23.82    1.72
  -6   0   3    2.46    0.86
  -5   0   3   12.84    1.24
  -4   0   3   14.73    1.01
  -3   0   3   55.41    1.58
  -2   0   3  162.65    2.93
   1   0  -3   -0.31    0.21
  -1   0   3    0.08    0.23
   0   0  -3   53.53    1.35
  -1   0  -3  329.69    5.18
  -2   0  -3   47.47    1.64
  -3   0  -3   12.77    1.19
  -4   0  -3   40.56    1.92
  -5   0  -3    0.72    0.83
  -6  -1   3    9.35    1.20
  -6   1   3    8.01    1.12
  -5  -1   3   93.89    2.65
  -5   1   3   96.79    2.71
  -4  -1   3    8.92    0.88
  -4   1   3    8.82    0.87
  -3  -1   3    7.29    0.70
  -3   1   3    7.57    0.69
  -2  -1   3  269.15    4.40
  -2   1   3  270.18    4.35
   1  -1  -3  119.53    2.01
  -1  -1   3  120.63    2.23
   1   1  -3  118.09    2.00
  -1   1   3  119.94    2.16
   0  -1  -3   74.95    1.63
   0   1  -3   71.16    1.61
  -1  -1  -3    6.11    0.67
  -1   1  -3    5.15    0.63
  -2  -1  -3   22.03    1.19
  -2   1  -3   20.80    1.21
  -3  -1  -3  140.33    3.25
  -3   1  -3  135.49    3.23
  -4  -1  -3  110.80    3.13
  -4   1  -3  114.07    3.16
  -5  -1  -3    0.23    0.79
  -6  -2   3    3.77    0.90
  -6   2   3    3.16    0.85
  -5  -2   3   22.83    1.44
  -5   2   3   23.18    1.19
  -5   2   3   24.76    1.46
  -4  -2   3   54.86    1.78
  -4   2   3   56.08    1.76
  -3  -2   3   51.97    1.56
  -3   2   3   52.41    1.49
  -2  -2   3  134.75    2.58
  -2   2   3  132.80    2.46
  -1  -2   3    5.18    0.49
   1  -2  -3    4.87    0.44
  -1   2   3    5.88    0.43
   0  -2  -3  121.31    2.28
   0   2   3  123.11    2.37
   0   2  -3  124.00    2.30
  -1  -2  -3  358.78    5.58
  -1   2  -3  365.14    5.63
  -2  -2  -3   28.26    1.32
  -2   2  -3   27.95    1.33
  -3  -2  -3   13.03    1.21
  -3   2  -3   12.46    1.16
  -4  -2  -3   26.59    1.66
  -4   2  -3   26.97    1.63
  -5  -2  -3    6.12    1.17
  -6  -3   3    2.90    0.83
  -6   3   3    4.11    0.94
  -5  -3   3   78.35    2.44
  -5   3   3   80.52    2.23
  -5   3   3   78.06    2.40
  -4  -3   3   25.53    1.26
  -4   3   3   27.30    1.21
  -4   3   3   27.44    1.28
  -3  -3   3    8.92    0.79
  -3   3   3    8.59    0.75
  -2  -3   3  181.49    3.23
  -2   3   3  171.29    3.02
  -1  -3   3   40.73    0.91
   1  -3  -3   39.63    0.99
  -1  -3   3   39.50    1.12
  -1   3   3   40.38    0.98
  -1   3   3   40.06    1.21
   0  -3  -3   75.98    1.67
   0   3   3   72.15    1.66
  -1  -3  -3    9.94    0.82
  -1   3  -3    9.84    0.82
  -2  -3  -3   16.69    1.08
  -2   3  -3   15.72    1.10
  -3  -3  -3   49.25    1.91
  -3   3  -3   47.42    1.85
  -4  -3  -3   49.93    2.11
  -4  -3  -3   51.16    2.00
   5  -3   3    0.06    0.58
  -5  -3  -3   -0.30    0.78
  -5  -3  -3    0.75    0.74
  -6  -4   3    3.12    0.89
  -6   4   3    1.99    0.78
  -5  -4   3    8.96    1.06
  -5   4   3   11.42    1.11
  -5   4   3    9.82    0.92
  -4  -4   3   36.26    1.47
  -4   4   3   33.93    1.44
  -4   4   3   34.96    1.38
  -3  -4   3   77.93    1.96
  -3   4   3   73.27    1.82
  -3   4   3   74.05    1.97
  -2  -4   3   91.62    2.03
  -2   4   3   89.54    1.83
  -2   4   3   90.32    2.12
   1  -4  -3   15.03    0.64
  -1  -4   3   14.65    0.57
  -1   4   3   16.24    0.82
   0  -4   3   38.97    1.03
   0  -4  -3   38.00    1.15
   0   4   3   37.64    1.14
  -1  -4  -3  373.13    5.71
   1   4   3  358.92    5.79
  -2  -4  -3   13.71    1.03
  -2   4  -3   14.50    1.07
  -3  -4  -3    2.34    0.72
   4  -4   3   21.21    1.26
  -4  -4  -3   19.18    1.53
  -4  -4  -3   17.72    1.31
  -5  -4  -3    1.62    0.93
  -5  -4  -3    3.11    0.89
   5  -4   3    2.75    0.77
  -6  -5   3   11.42    1.33
  -6   5   3    6.58    1.03
  -5  -5   3   67.15    2.27
  -5   5   3   65.12    2.03
  -5   5   3   63.69    2.17
  -4  -5   3   13.74    1.04
  -4   5   3   14.05    1.05
  -4   5   3   12.81    0.95
  -3  -5   3    5.24    0.66
  -3   5   3    5.17    0.58
  -3   5   3    4.21    0.62
  -2  -5   3  184.81    3.39
  -2   5   3  181.65    3.09
  -2   5   3  188.25    3.56
  -1  -5   3  105.27    1.79
   1  -5  -3   99.52    1.90
  -1   5   3  103.24    2.24
   0  -5   3   68.85    1.49
   0  -5  -3   72.75    1.65
   0   5   3   71.39    1.69
  -1  -5  -3    3.48    0.59
   1  -5   3    4.14    0.47
   1   5   3    2.65    0.41
  -2  -5  -3   11.07    0.99
  -3  -5  -3   56.15    2.03
  -4  -5  -3   83.27    2.70
  -4  -5  -3   79.47    2.42
   4  -5   3   77.46    2.29
  -5  -5  -3    0.96    0.87
   5  -5   3    0.81    0.67
  -6  -6   3    2.76    0.80
  -6   6   3    1.12    0.69
  -5  -6   3   15.52    1.30
  -5   6   3   15.95    1.25
  -5   6   3   15.74    1.07
  -4  -6   3   46.92    1.73
  -4   6   3   47.96    1.65
  -4   6   3   47.60    1.65
  -3  -6   3   53.90    1.65
  -3   6   3   53.00    1.50
  -3   6   3   54.09    1.68
  -2  -6   3  129.39    2.63
  -2   6   3  128.26    2.32
  -2   6   3  130.38    2.77
  -1  -6   3    4.63    0.41
   1  -6  -3    4.44    0.44
  -1   6   3    4.34    0.52
   0  -6  -3  101.35    2.11
   0  -6   3  101.30    1.93
   0   6   3   98.03    2.15
   1  -6   3  566.49    8.02
  -1  -6  -3  573.15    8.30
   1   6   3  572.79    8.83
   2  -6   3   21.24    0.99
  -2  -6  -3   18.56    1.18
   3  -6   3    7.67    0.79
  -3  -6  -3    8.53    1.04
  -3  -6  -3    6.48    0.70
   4  -6   3   19.38    1.25
  -4  -6  -3   17.59    1.52
   5  -6   3    5.20    0.88
  -5  -6  -3    4.56    1.11
  -6  -7   3    6.87    1.08
  -6   7   3    5.34    0.94
  -5  -7   3   55.67    2.10
  -5   7   3   59.14    2.05
  -5   7   3   56.79    1.91
  -4  -7   3   13.94    1.08
  -4   7   3   13.93    1.02
  -4   7   3   12.52    0.96
  -3  -7   3   32.36    1.34
  -3   7   3   35.22    1.36
  -3   7   3   37.33    1.24
  -2  -7   3  179.50    3.33
  -2   7   3  179.59    3.51
  -2   7   3  172.43    2.94
  -1  -7   3   92.36    1.73
   1  -7  -3   92.07    1.85
  -1   7   3   91.26    2.14
   0  -7  -3  103.42    2.16
   0  -7   3   99.75    1.97
   0   7   3  102.27    2.22
  -1  -7  -3    6.40    0.71
   1  -7   3    6.94    0.64
   1   7   3    4.80    0.54
  -2  -7  -3   30.61    1.40
   2  -7   3   29.32    1.15
   3  -7   3   48.89    1.64
  -3  -7  -3   47.52    1.91
  -3  -7  -3   49.58    1.73
  -4  -7  -3   72.88    2.58
   4  -7   3   64.76    2.12
   5  -7   3    8.76    1.09
  -5  -7  -3    6.91    1.24
  -6  -8   3    0.74    0.69
  -6   8   3   -0.09    0.63
  -5  -8   3   10.71    1.17
  -5   8   3    7.42    0.87
  -5   8   3    7.66    0.93
  -4  -8   3   19.15    1.20
  -4   8   3   18.42    1.14
  -4   8   3   18.07    1.10
  -3  -8   3   30.83    1.30
  -3   8   3   31.19    1.31
  -3   8   3   31.01    1.12
   2  -8  -3  107.41    2.01
  -2  -8   3  110.36    2.39
  -2   8   3  108.94    2.52
   1  -8  -3   11.35    0.69
  -1  -8   3   11.75    0.62
  -1   8   3   11.99    0.82
   0  -8  -3   69.94    1.72
   0  -8   3   67.97    1.55
   0   8   3   64.44    1.71
  -1  -8  -3  166.80    3.25
   1  -8   3  163.36    2.97
   1   8   3  167.91    3.17
   2  -8   3   22.75    1.06
  -2  -8  -3   22.73    1.23
  -3  -8  -3   14.66    1.30
   3  -8   3   13.17    1.00
  -4  -8  -3   24.41    1.69
   4  -8   3   23.47    1.34
  -5  -8  -3    3.27    1.02
   5  -8   3    4.23    0.87
  -6  -9   3   10.63    1.25
  -6   9   3    9.17    1.12
  -5  -9   3   78.18    2.53
  -5   9   3   80.48    2.36
  -5   9   3   78.70    2.37
  -4  -9   3    4.96    0.76
  -4   9   3    5.41    0.72
  -4   9   3    4.11    0.70
  -3  -9   3   28.41    1.28
  -3   9   3   29.46    1.09
  -3   9   3   31.03    1.33
  -2  -9   3  195.79    3.18
   2  -9  -3  201.21    3.27
  -2  -9   3  197.38    3.71
  -2   9   3  210.20    3.98
  -1  -9   3   78.76    1.65
   1  -9  -3   77.63    1.78
  -1   9   3   77.99    1.99
   0  -9  -3   63.55    1.68
   0  -9   3   63.52    1.53
   0   9   3   65.64    1.74
  -1  -9  -3    3.16    0.59
   1  -9   3    3.38    0.52
   1   9   3    3.21    0.50
   2  -9   3   14.59    0.90
  -2  -9  -3   14.04    1.07
   3  -9   3   57.80    1.80
  -3  -9  -3   54.09    2.06
  -4  -9  -3   83.06    2.78
   4  -9   3   95.07    2.54
   5  -9   3    5.05    0.94
  -5  -9  -3    2.07    0.98
  -6 -10   3    6.25    1.03
  -6  10   3    8.39    1.14
  -5 -10   3    7.25    1.00
  -5  10   3    7.42    0.89
  -5  10   3    7.43    0.87
  -4 -10   3   18.04    1.22
  -4  10   3   17.27    1.07
  -4  10   3   17.42    1.13
  -3 -10   3   21.14    1.15
  -3  10   3   20.99    1.16
  -3  10   3   19.76    0.92
  -2 -10   3   96.57    2.28
   2 -10  -3   99.41    2.02
  -2 -10   3   96.01    1.92
  -2  10   3   97.30    2.40
  -1 -10   3   62.52    1.47
   1 -10  -3   58.65    1.56
  -1  10   3   59.61    1.75
   0 -10  -3   53.32    1.59
   0 -10   3   56.54    1.47
   0  10   3   56.38    1.65
   1 -10   3  103.13    2.22
  -1 -10  -3  101.52    2.44
   1  10   3  106.06    2.37
  -2 -10  -3   13.26    1.07
   2 -10   3   13.57    0.92
   3 -10   3   11.91    1.03
  -3 -10  -3   11.18    1.18
  -4 -10  -3   20.09    1.58
   4 -10   3   20.63    1.32
  -5 -10  -3    2.90    1.07
   5 -10   3    3.05    0.82
  -6 -11   3    9.14    1.22
  -6  11   3    8.97    1.14
  -5 -11   3   51.28    2.07
  -5  11   3   48.61    1.87
  -5  11   3   49.78    1.89
  -4 -11   3    8.34    0.97
  -4  11   3    8.14    0.93
  -4  11   3    5.83    0.70
  -3 -11   3    4.78    0.70
  -3  11   3    6.14    0.79
  -3  11   3    4.60    0.51
   2 -11  -3  157.13    2.86
  -2 -11   3  152.04    3.16
  -2 -11   3  154.85    2.75
  -2  11   3  155.62    3.34
   1 -11  -3   51.51    1.51
  -1 -11   3   54.60    1.43
  -1  11   3   52.57    1.67
   0 -11  -3   61.69    1.77
   0 -11   3   62.48    1.59
   0  11   3   63.07    1.79
  -1 -11  -3    4.63    0.68
   1 -11   3    3.97    0.58
   1  11   3    4.18    0.59
   2 -11   3    9.48    0.84
  -2 -11  -3   11.03    1.08
   3 -11   3   62.64    1.91
  -3 -11  -3   57.07    2.16
   4 -11   3   52.36    1.88
  -4 -11  -3   47.84    2.17
  -6  12   3    8.18    1.10
  -5 -12   3   14.58    1.32
  -5  12   3   14.36    1.14
  -5  12   3   12.89    1.19
  -4 -12   3   28.46    1.49
  -4  12   3   24.91    1.36
  -4  12   3   25.89    1.23
  -3 -12   3   30.68    1.40
  -3  12   3   32.71    1.45
  -2 -12   3   85.97    2.20
   2 -12  -3   88.52    2.01
  -2 -12   3   84.69    1.90
  -2  12   3   89.60    2.36
  -1 -12   3   19.44    0.92
   1 -12  -3   20.79    1.02
  -1  12   3   18.33    1.03
   0 -12  -3   46.83    1.57
   0 -12   3   46.44    1.39
   0  12   3   44.84    1.54
   1 -12   3  256.86    4.36
  -1 -12  -3  257.73    4.65
   1  12   3  263.23    4.79
  -2 -12  -3   24.34    1.40
   2 -12   3   23.80    1.17
   3 -12   3   11.54    1.02
  -3 -12  -3   10.14    1.18
   4 -12   3   23.42    1.42
  -4 -12  -3   22.50    1.66
  -5  13   3   53.46    2.09
  -4 -13   3    9.71    1.03
  -4  13   3   10.08    1.01
  -3 -13   3    8.95    0.95
  -3  13   3    8.83    0.95
  -2 -13   3  126.86    2.52
   2 -13  -3  128.73    2.63
  -2 -13   3  126.42    2.84
  -2  13   3  121.37    2.95
  -1 -13   3   42.31    1.36
   1 -13  -3   44.94    1.48
  -1  13   3   41.92    1.54
   0 -13  -3   61.00    1.85
   0 -13   3   60.45    1.64
   0  13   3   59.55    1.85
   1 -13   3    3.36    0.58
  -1 -13  -3    3.99    0.72
   2 -13   3   29.05    1.28
  -2 -13  -3   29.62    1.53
   3 -13   3   54.77    1.90
  -3 -13  -3   57.86    2.18
   4 -13   3   61.55    2.16
  -4 -13  -3   62.16    2.50
  -5 -14   3    7.09    1.03
  -5  14   3    6.14    0.91
  -4 -14   3   23.66    1.42
  -4  14   3   21.26    1.36
  -3 -14   3   57.41    1.92
  -3  14   3   53.63    1.95
  -2 -14   3   40.66    1.36
   2 -14  -3   42.76    1.43
  -2 -14   3   42.28    1.54
  -2  14   3   37.99    1.57
  -1 -14   3   41.74    1.40
   1 -14  -3   43.49    1.50
  -1  14   3   39.23    1.57
   0 -14  -3   73.63    2.11
   0 -14   3   72.73    1.90
   0  14   3   77.42    2.17
   1 -14   3  209.03    3.83
  -1 -14  -3  211.00    4.13
  -2 -14  -3   17.41    1.32
   2 -14   3   17.41    1.08
   3 -14   3   13.69    1.19
  -3 -14  -3   12.63    1.31
  -4 -14  -3    8.94    1.23
   4 -14   3    9.92    1.10
  -5 -15   3   43.29    2.00
  -4 -15   3   13.87    1.22
  -4  15   3   14.58    1.21
  -3 -15   3   21.82    1.28
  -3  15   3   22.22    1.35
   2 -15  -3   55.59    1.68
  -2 -15   3   53.24    1.78
  -2 -15   3   54.56    1.62
  -2  15   3   49.57    1.84
   1 -15  -3   12.93    1.00
  -1 -15   3   11.83    0.92
  -1  15   3   11.79    1.02
   0 -15   3   25.47    1.21
   0 -15  -3   25.20    1.32
   0  15   3   25.29    1.33
  -1 -15  -3    3.76    0.76
   1 -15   3    3.12    0.65
  -2 -15  -3   22.59    1.46
   2 -15   3   20.46    1.18
   3 -15   3   16.61    1.20
  -3 -15  -3   16.33    1.40
  -4 -15  -3   13.72    1.49
   4 -15   3   14.57    1.31
  -5 -16   3   12.23    1.27
  -4 -16   3   27.87    1.56
  -4  16   3   30.41    1.57
  -3 -16   3   42.35    1.71
  -3  16   3   41.59    1.77
  -2 -16   3   33.62    1.33
  -2 -16   3   33.41    1.43
   2 -16  -3   32.77    1.36
  -2  16   3   33.52    1.55
  -1 -16   3    1.05    0.48
   1 -16  -3    1.69    0.54
  -1 -16   3    2.30    0.58
  -1  16   3    2.09    0.62
   0 -16  -3   24.24    1.35
   0 -16   3   23.38    1.21
   0  16   3   23.23    1.30
   1 -16   3  167.65    3.41
  -1 -16  -3  167.35    3.71
   2 -16   3   11.95    1.02
  -2 -16  -3   14.77    1.34
  -3 -16  -3    4.31    0.91
   3 -16   3    5.15    0.83
   4 -16   3    8.34    1.08
  -4 -16  -3    7.46    1.21
  -5 -17   3   44.46    2.06
  -4 -17   3   14.29    1.26
  -4  17   3   16.84    1.29
  -3 -17   3   34.09    1.59
  -3  17   3   34.45    1.67
  -2 -17   3   52.46    1.83
  -2 -17   3   53.84    1.73
   2 -17  -3   56.67    1.82
  -2  17   3   54.86    2.01
  -1 -17   3   32.97    1.39
  -1 -17   3   31.20    1.40
   1 -17  -3   34.29    1.55
  -1  17   3   34.29    1.58
   0 -17   3   32.70    1.44
   0 -17  -3   31.43    1.55
  -1 -17  -3    1.31    0.63
   1 -17   3    1.28    0.56
   2 -17   3   22.50    1.29
  -2 -17  -3   24.83    1.57
  -3 -17  -3   33.83    1.88
   3 -17   3   33.85    1.63
  -5 -18   3    3.08    0.83
  -4 -18   3    6.16    0.94
  -4  18   3    5.68    0.89
  -3 -18   3   24.96    1.41
  -3  18   3   22.70    1.43
  -2 -18   3   45.17    1.64
   2 -18  -3   45.97    1.70
  -2 -18   3   49.13    1.76
  -2  18   3   43.69    1.87
   1 -18  -3   15.57    1.22
  -1 -18   3   15.52    1.09
  -1 -18   3   13.17    1.05
  -1  18   3   16.16    1.23
   0 -18  -3   30.01    1.57
   0 -18   3   30.40    1.44
  -1 -18  -3  104.66    2.95
   1 -18   3  102.47    2.68
   2 -18   3   14.51    1.15
  -2 -18  -3   14.86    1.39
  -3 -18  -3    9.50    1.25
   3 -18   3   12.31    1.19
  -4 -19   3    5.98    0.96
  -4  19   3    5.44    0.90
  -3 -19   3   28.11    1.53
  -3  19   3   27.92    1.57
   2 -19  -3   78.95    2.32
  -2 -19   3   76.01    2.22
  -2 -19   3   78.12    2.32
  -2  19   3   78.28    2.56
  -1 -19   3   34.74    1.52
  -1 -19   3   33.88    1.51
   1 -19  -3   34.67    1.66
   0 -19  -3   37.65    1.78
   0 -19   3   38.29    1.66
  -1 -19  -3    1.66    0.72
   1 -19   3    0.78    0.60
   2 -19   3   24.93    1.43
  -2 -19  -3   23.32    1.63
  -3 -19  -3   34.36    2.00
   3 -19   3   35.03    1.71
  -4 -20   3   11.56    1.23
  -4  20   3   12.58    1.25
  -3 -20   3   11.35    1.13
  -3  20   3   12.71    1.24
  -2 -20   3   41.69    1.71
  -2 -20   3   44.42    1.77
   2 -20  -3   47.50    1.85
  -2  20   3   40.10    1.88
  -1 -20   3   46.30    1.81
   1 -20  -3   45.36    1.93
  -1 -20   3   45.30    1.78
   0 -20  -3   40.32    1.88
   0 -20   3   38.79    1.72
   1 -20   3   54.48    2.01
  -1 -20  -3   54.57    2.23
   2 -20   3   18.17    1.34
  -2 -20  -3   20.02    1.59
  -3 -20  -3   25.14    1.84
   3 -20   3   22.75    1.50
  -4 -21   3   10.50    1.19
  -3 -21   3   16.27    1.32
  -3  21   3   16.28    1.35
   2 -21  -3   51.82    2.05
  -2 -21   3   54.67    1.98
  -2 -21   3   54.40    2.00
  -1 -21   3    9.99    1.10
   1 -21  -3    9.84    1.11
  -1 -21   3   10.04    1.11
   0 -21  -3   46.13    2.05
   0 -21   3   45.48    1.88
   1 -21   3    0.22    0.60
  -1 -21  -3    1.05    0.74
  -2 -21  -3   23.54    1.73
   2 -21   3   20.29    1.44
  -4 -22   3    4.09    0.89
  -3 -22   3    7.94    1.04
   2 -22  -3   25.22    1.58
  -2 -22   3   25.13    1.47
  -2 -22   3   23.70    1.42
  -1 -22   3   32.83    1.65
   1 -22  -3   36.96    1.86
  -1 -22   3   35.02    1.64
   0 -22   3   17.11    1.33
   0 -22  -3   18.45    1.52
  -1 -22  -3   28.53    1.81
   1 -22   3   29.91    1.68
   2 -22   3    7.88    1.06
  -2 -22  -3    8.64    1.28
  -3 -23   3   10.77    1.17
  -2 -23   3   47.52    1.98
  -2 -23   3   48.43    1.98
   2 -23  -3   45.75    2.07
  -1 -23   3    7.83    0.98
   1 -23  -3    9.13    1.17
  -1 -23   3    9.42    1.16
   0 -23   3   25.04    1.55
   0 -23  -3   22.07    1.67
  -1 -23  -3    1.10    0.79
   1 -23   3    0.60    0.67
  -2 -24   3   24.14    1.52
  -2 -24   3   24.48    1.56
   2 -24  -3   28.14    1.77
   1 -24  -3   23.38    1.66
  -1 -24   3   21.81    1.48
  -1 -24   3   21.13    1.40
   0 -24   3   28.24    1.68
   0 -24  -3   25.88    1.79
   1 -24   3  100.30    3.06
  -1 -24  -3   95.19    3.24
  -2 -25   3   24.15    1.59
   2 -25  -3   22.30    1.70
   1 -25  -3    6.68    1.08
  -1 -25   3    5.39    0.96
  -1 -25   3    4.93    0.89
   0 -25   3   34.29    1.86
   0 -25  -3   34.70    2.04
  -2 -26   3   10.93    1.36
   1 -26  -3   14.07    1.52
  -1 -26   3   19.01    1.51
  -6   0   4   21.99    1.61
  -5   0   4   -0.54    0.53
  -4   0   4    1.25    0.60
  -3   0   4   34.25    1.37
  -2   0   4   59.08    1.59
  -1   0   4  420.26    6.48
   1   0  -4  424.62    6.10
   0   0  -4   24.39    1.10
  -1   0  -4    1.83    0.62
  -2   0  -4  124.70    3.08
  -3   0  -4   36.59    1.91
  -4   0  -4   10.29    1.43
  -6  -1   4    2.17    0.84
  -6   1   4    0.77    0.75
  -5  -1   4    1.56    0.66
  -5   1   4    0.67    0.58
  -4  -1   4   54.99    1.88
  -4   1   4   54.65    1.84
  -3  -1   4  134.07    2.92
  -3   1   4  141.48    2.91
  -2  -1   4   10.10    0.77
  -2   1   4    9.36    0.73
   1  -1  -4   31.52    1.04
  -1  -1   4   30.68    1.08
  -1   1   4   30.80    1.04
   1   1  -4   30.25    1.03
   0  -1  -4   74.03    1.89
   0   1  -4   78.49    1.94
  -1  -1  -4   12.85    1.06
  -1   1  -4   13.33    1.08
  -2  -1  -4   77.86    2.39
  -2   1  -4   81.82    2.45
  -3  -1  -4    2.72    0.87
  -3   1  -4    4.60    1.00
  -4  -1  -4    5.22    1.13
  -4   1  -4    7.00    1.22
  -6  -2   4   25.48    1.73
  -6   2   4   27.09    1.68
  -5  -2   4    3.83    0.81
  -5   2   4    2.22    0.67
  -5   2   4    3.32    0.72
  -4  -2   4   10.26    1.03
  -4   2   4   11.14    1.00
  -3  -2   4   28.54    1.26
  -3   2   4   26.79    1.20
  -2  -2   4    8.82    0.74
  -2   2   4   10.38    0.72
   1  -2  -4  229.97    3.65
  -1  -2   4  222.14    3.89
  -1   2   4  225.66    3.76
   0  -2  -4   27.77    1.17
   0   2   4   26.57    1.07
   0   2  -4   28.95    1.20
  -1  -2  -4    0.49    0.53
  -1   2  -4    0.11    0.54
   1   2   4    0.89    0.32
  -2  -2  -4   96.20    2.66
  -2   2  -4   92.97    2.63
  -3  -2  -4   53.03    2.16
  -3   2  -4   54.47    2.20
  -4  -2  -4   11.33    1.44
  -6  -3   4    1.53    0.80
  -6   3   4    2.04    0.76
  -5  -3   4    0.70    0.61
  -5   3   4    0.35    0.58
  -5   3   4    0.91    0.55
  -4  -3   4   78.30    2.30
  -4   3   4   77.02    2.19
  -4   3   4   76.71    2.27
  -3  -3   4   64.18    1.88
  -3   3   4   65.45    1.80
  -2  -3   4    8.40    0.75
  -2   3   4    8.54    0.66
   1  -3  -4   32.28    1.08
  -1  -3   4   32.97    1.15
  -1  -3   4   32.70    0.95
  -1   3   4   31.31    1.00
  -1   3   4   34.73    1.28
   0  -3  -4   99.08    2.20
   0   3   4   92.70    2.17
  -1  -3  -4   15.68    1.12
   1   3   4   17.28    0.82
  -1   3  -4   17.83    1.18
  -2  -3  -4   51.02    1.97
  -2   3  -4   56.20    2.02
  -3  -3  -4    0.10    0.70
  -3   3  -4    1.55    0.79
  -4  -3  -4    9.43    1.38
  -6  -4   4   23.28    1.65
  -6   4   4   23.59    1.60
  -5  -4   4   -0.26    0.56
  -5   4   4   -0.61    0.52
  -5   4   4   -0.60    0.46
  -4  -4   4    4.74    0.79
  -4   4   4    4.01    0.71
  -4   4   4    2.13    0.62
  -3  -4   4   22.46    1.19
  -3   4   4   24.82    1.25
  -3   4   4   24.73    1.10
  -2  -4   4    0.58    0.38
  -2   4   4    0.46    0.33
  -2   4   4    0.80    0.46
   1  -4  -4  167.46    2.93
  -1  -4   4  168.51    2.76
  -1   4   4  163.95    2.87
  -1   4   4  172.67    3.42
   0  -4  -4   43.33    1.42
   0   4   4   39.90    1.34
  -1  -4  -4    4.53    0.73
   1   4   4    3.09    0.45
  -2  -4  -4   99.63    2.72
  -3  -4  -4   50.42    2.17
  -4  -4  -4   12.66    1.47
  -6  -5   4    0.77    0.72
  -6   5   4    0.19    0.67
  -5  -5   4   -0.13    0.58
  -5   5   4   -0.31    0.54
  -5   5   4    0.24    0.52
  -4  -5   4  170.71    3.73
  -4   5   4  168.95    3.75
  -4   5   4  167.06    3.46
  -3  -5   4   54.99    1.78
  -3   5   4   55.51    1.85
  -3   5   4   56.94    1.61
  -2  -5   4    2.48    0.51
  -2   5   4    1.94    0.55
  -2   5   4    2.13    0.39
   1  -5  -4   11.26    0.76
  -1  -5   4   11.91    0.70
  -1   5   4   14.09    0.92
   0  -5   4   97.75    2.02
   0  -5  -4   94.52    2.22
   0   5   4   95.25    2.24
  -1  -5  -4   61.39    1.91
   1   5   4   57.88    1.56
  -2  -5  -4   66.65    2.21
  -3  -5  -4    2.85    0.89
   3  -5   4    1.45    0.59
  -4  -5  -4    4.94    1.13
   4  -5   4    6.75    0.97
  -6  -6   4   42.42    2.06
  -6   6   4   34.54    1.83
  -5  -6   4    4.92    0.89
  -5   6   4    3.73    0.76
  -5   6   4    4.30    0.78
  -4  -6   4   24.85    1.44
  -4   6   4   23.53    1.27
  -4   6   4   25.13    1.38
  -3  -6   4   10.68    0.93
  -3   6   4   11.02    0.96
  -3   6   4   10.39    0.81
  -2  -6   4    4.56    0.64
  -2   6   4    4.20    0.65
  -2   6   4    3.53    0.44
   1  -6  -4  184.70    3.23
  -1  -6   4  190.18    3.08
  -1   6   4  191.27    3.77
   0  -6  -4   45.15    1.50
   0  -6   4   46.55    1.34
   0   6   4   45.99    1.48
  -1  -6  -4    2.06    0.63
   1  -6   4    2.40    0.53
   1   6   4    2.39    0.46
   2  -6   4   96.88    2.37
  -2  -6  -4   96.06    2.70
  -3  -6  -4   38.99    1.97
   3  -6   4   37.57    1.61
   4  -6   4    6.52    0.96
  -4  -6  -4    6.27    1.19
  -6  -7   4    0.97    0.74
  -6   7   4    0.27    0.64
  -5  -7   4    5.92    0.97
  -5   7   4    6.31    0.92
  -5   7   4    4.66    0.82
  -4  -7   4  128.66    3.16
  -4   7   4  117.07    2.79
  -4   7   4  129.25    3.20
  -3  -7   4   41.85    1.56
  -3   7   4   38.94    1.59
  -3   7   4   40.28    1.30
  -2  -7   4   13.70    0.92
  -2   7   4   13.68    0.97
   1  -7  -4   27.83    1.08
  -1  -7   4   26.95    0.97
  -1   7   4   27.37    1.25
   0  -7  -4  125.42    2.65
   0  -7   4  123.94    2.43
   0   7   4  121.42    2.73
   1  -7   4   34.55    1.28
  -1  -7  -4   34.25    1.49
   1   7   4   34.86    1.23
  -2  -7  -4   80.09    2.46
   2  -7   4   77.22    2.09
  -3  -7  -4    0.79    0.76
   3  -7   4    1.23    0.59
   4  -7   4    7.96    1.04
  -4  -7  -4    9.43    1.40
  -6  -8   4   29.29    1.89
  -6   8   4   27.17    1.64
  -5  -8   4    1.67    0.69
  -5   8   4    2.09    0.66
  -5   8   4    2.72    0.71
  -4  -8   4    7.07    0.94
  -4   8   4    5.97    0.88
  -4   8   4    5.75    0.73
  -3  -8   4   15.17    1.08
  -3   8   4   14.19    0.86
  -3   8   4   14.30    1.10
  -2  -8   4   15.24    0.97
  -2   8   4   15.98    1.06
  -1  -8   4  139.71    2.51
   1  -8  -4  132.13    2.68
  -1   8   4  136.54    3.03
   0  -8   4   59.04    1.59
   0  -8  -4   60.64    1.79
   0   8   4   65.05    1.83
   1  -8   4   10.75    0.89
  -1  -8  -4   12.01    1.06
   1   8   4   11.95    0.85
  -2  -8  -4   86.46    2.60
   2  -8   4   90.21    2.28
  -3  -8  -4   29.63    1.73
   3  -8   4   28.67    1.42
   4  -8   4    8.29    1.06
  -4  -8  -4    8.67    1.34
  -6   9   4    0.88    0.67
  -5  -9   4    3.34    0.84
  -5   9   4    4.10    0.77
  -5   9   4    3.03    0.71
  -4  -9   4   48.69    1.93
  -4   9   4   45.36    1.84
  -4   9   4   47.76    1.68
  -3  -9   4   63.27    2.00
  -3   9   4   61.95    2.06
  -2  -9   4    8.86    0.84
   2  -9  -4    9.48    0.72
  -2  -9   4   10.10    0.65
  -2   9   4   10.72    0.95
   1  -9  -4   15.16    0.95
  -1  -9   4   13.28    0.79
  -1   9   4   13.46    1.02
   0  -9   4   77.33    1.87
   0  -9  -4   77.15    2.07
   0   9   4   77.54    2.10
  -1  -9  -4    1.53    0.58
   1  -9   4    1.60    0.52
   1   9   4    1.05    0.44
  -2  -9  -4   60.76    2.20
   2  -9   4   59.49    1.86
   3  -9   4    8.68    1.00
  -3  -9  -4    7.14    1.13
  -4  -9  -4    3.09    1.02
   4  -9   4    2.95    0.80
  -5 -10   4    1.71    0.71
  -5  10   4    2.64    0.74
  -4 -10   4    3.03    0.76
  -4  10   4    2.27    0.70
  -3 -10   4   15.66    1.12
  -3  10   4   15.05    1.19
  -2 -10   4   17.62    0.83
   2 -10  -4   17.78    0.90
  -2 -10   4   17.53    1.07
  -2  10   4   15.95    1.13
   1 -10  -4  132.20    2.73
  -1 -10   4  134.78    2.54
  -1  10   4  128.23    3.00
   0 -10  -4   23.62    1.24
   0 -10   4   23.78    1.08
   0  10   4   20.34    1.15
   1 -10   4   18.33    1.02
  -1 -10  -4   17.92    1.22
   1  10   4   18.27    1.05
  -2 -10  -4   74.92    2.44
   2 -10   4   76.26    2.13
  -3 -10  -4   28.25    1.76
   3 -10   4   25.00    1.36
  -4 -10  -4    8.26    1.30
   4 -10   4    5.36    0.89
  -5 -11   4    1.76    0.74
  -5  11   4    1.91    0.65
  -4 -11   4   40.12    1.82
  -4  11   4   40.72    1.78
  -3 -11   4   70.92    2.19
  -3  11   4   69.33    2.25
  -2 -11   4    8.24    0.86
   2 -11  -4    9.95    0.79
  -2 -11   4    8.91    0.73
  -2  11   4    9.99    1.00
   1 -11  -4   35.98    1.38
  -1 -11   4   35.49    1.22
  -1  11   4   37.40    1.54
   0 -11   4   60.31    1.70
   0 -11  -4   62.63    1.95
   0  11   4   65.10    2.01
   1 -11   4    7.07    0.77
  -1 -11  -4    7.32    0.96
   1  11   4    6.67    0.77
  -2 -11  -4   49.64    2.03
   2 -11   4   49.15    1.71
   3 -11   4    9.28    1.01
  -3 -11  -4    9.65    1.29
   4 -11   4    9.74    1.11
  -4 -11  -4    9.07    1.34
  -5 -12   4    7.35    1.08
  -5  12   4    6.39    0.97
  -4 -12   4   14.10    1.29
  -4  12   4   12.70    1.19
  -3 -12   4   16.64    1.21
  -3  12   4   16.26    1.26
  -2 -12   4   15.02    1.04
   2 -12  -4   16.04    0.95
  -2 -12   4   14.32    0.86
  -2  12   4   15.64    1.16
  -1 -12   4  198.36    3.50
   1 -12  -4  195.51    3.70
  -1  12   4  192.03    4.10
   0 -12  -4   14.45    1.10
   0 -12   4   14.21    0.94
   0  12   4   15.63    1.12
   1 -12   4   21.91    1.16
  -1 -12  -4   20.18    1.33
   1  12   4   22.81    1.22
  -2 -12  -4   68.74    2.36
   2 -12   4   63.58    1.99
  -3 -12  -4   31.49    1.89
   3 -12   4   29.81    1.48
  -5 -13   4    9.75    1.21
  -5  13   4   11.72    1.21
  -4 -13   4   79.71    2.52
  -4  13   4   72.39    2.48
  -3 -13   4   69.52    2.24
  -3  13   4   65.07    2.26
   2 -13  -4   17.67    1.04
  -2 -13   4   16.04    1.11
  -2 -13   4   14.80    0.90
  -2  13   4   16.23    1.21
  -1 -13   4    9.92    0.89
   1 -13  -4   10.64    0.95
  -1  13   4   11.34    1.08
   0 -13   4   35.59    1.36
   0 -13  -4   38.50    1.60
   0  13   4   35.60    1.57
  -1 -13  -4   20.81    1.37
   1 -13   4   21.11    1.16
   1  13   4   20.75    1.24
   2 -13   4   38.71    1.60
  -2 -13  -4   41.32    1.90
   3 -13   4   10.73    1.14
  -3 -13  -4    8.90    1.28
  -5 -14   4    5.09    0.97
  -5  14   4    3.25    0.81
  -4 -14   4    2.39    0.76
  -4  14   4    4.13    0.84
  -3 -14   4   27.63    1.50
  -3  14   4   24.30    1.52
   2 -14  -4    5.20    0.68
  -2 -14   4    5.42    0.67
  -2 -14   4    6.18    0.81
  -2  14   4    7.13    0.92
   1 -14  -4  117.31    2.79
  -1 -14   4  114.96    2.56
  -1  14   4  113.69    3.00
   0 -14  -4   16.22    1.19
   0 -14   4   15.88    1.06
   0  14   4   16.77    1.22
  -1 -14  -4   25.04    1.50
   1 -14   4   25.29    1.27
   1  14   4   26.09    1.37
   2 -14   4   48.38    1.78
  -2 -14  -4   47.99    2.08
   3 -14   4   38.48    1.73
  -3 -14  -4   35.78    2.02
  -5 -15   4    6.87    1.09
  -5  15   4    7.53    1.05
  -4 -15   4   52.88    2.14
  -4  15   4   50.43    2.13
  -3 -15   4   23.38    1.44
  -3  15   4   27.97    1.60
  -2 -15   4   15.71    1.05
   2 -15  -4   16.59    1.11
  -2 -15   4   14.56    1.14
  -2  15   4   13.34    1.25
   1 -15  -4   20.56    1.28
  -1 -15   4   18.94    1.13
  -1  15   4   20.42    1.37
   0 -15  -4   40.99    1.74
   0 -15   4   39.50    1.53
   0  15   4   40.17    1.73
   1 -15   4   12.14    1.03
  -1 -15  -4   16.32    1.46
   2 -15   4   20.08    1.28
  -2 -15  -4   19.24    1.51
   3 -15   4    9.99    1.17
  -3 -15  -4   10.27    1.38
  -5  16   4    5.26    0.88
  -4 -16   4    9.59    1.13
  -4  16   4   13.09    1.32
  -3 -16   4    8.73    1.01
  -3  16   4   11.35    1.26
  -2 -16   4    0.44    0.52
   2 -16  -4    0.78    0.51
  -2  16   4    1.85    0.72
   1 -16  -4   77.53    2.34
  -1 -16   4   72.73    2.09
  -1  16   4   74.23    2.43
   0 -16   4   27.97    1.38
   0 -16  -4   30.40    1.57
   0  16   4   28.78    1.55
  -1 -16  -4   13.37    1.34
   1 -16   4   12.73    1.07
  -2 -16  -4   34.20    1.89
   2 -16   4   37.66    1.64
  -3 -16  -4   21.73    1.77
   3 -16   4   21.22    1.45
  -5  17   4    3.58    0.84
  -4 -17   4   45.15    2.04
  -4  17   4   45.91    2.08
  -3 -17   4   27.98    1.59
  -3  17   4   31.00    1.75
   2 -17  -4   19.98    1.28
  -2 -17   4   17.78    1.26
  -2  17   4   17.24    1.38
  -1 -17   4   11.78    1.10
  -1 -17   4   12.49    1.10
   1 -17  -4   11.44    1.14
  -1  17   4   11.29    1.19
   0 -17   4   39.32    1.66
   0 -17  -4   40.37    1.82
   0  17   4   38.41    1.82
  -1 -17  -4   17.43    1.42
   1 -17   4   17.64    1.21
   2 -17   4   28.95    1.54
  -2 -17  -4   31.51    1.86
  -3 -17  -4    2.44    0.98
  -4 -18   4    6.22    1.01
  -4  18   4    8.51    1.11
  -3 -18   4    8.66    1.05
  -3  18   4    8.02    1.14
  -2 -18   4   18.57    1.30
   2 -18  -4   18.97    1.33
  -2  18   4   17.33    1.45
  -1 -18   4  103.92    2.86
  -1 -18   4  102.14    2.64
   1 -18  -4   97.25    2.82
  -1  18   4   97.57    2.98
   0 -18   4   24.71    1.43
   0 -18  -4   25.50    1.56
   0  18   4   25.91    1.54
   1 -18   4   13.92    1.17
  -1 -18  -4   12.21    1.31
   2 -18   4   46.59    1.90
  -2 -18  -4   44.32    2.20
  -4 -19   4   34.47    1.87
  -4  19   4   36.82    1.98
  -3 -19   4   21.43    1.48
  -3  19   4   21.80    1.64
   2 -19  -4   40.06    1.81
  -2 -19   4   37.20    1.76
  -2  19   4   39.83    1.94
  -1 -19   4    6.71    0.87
  -1 -19   4   10.36    1.10
   1 -19  -4   10.30    1.22
  -1  19   4    9.09    1.18
   0 -19   4   33.76    1.67
   0 -19  -4   33.39    1.79
  -1 -19  -4   12.24    1.36
   1 -19   4   10.77    1.17
  -2 -19  -4   28.12    1.90
   2 -19   4   30.78    1.62
  -4 -20   4    8.23    1.12
  -3 -20   4   12.92    1.31
  -3  20   4   10.45    1.24
   2 -20  -4   15.96    1.36
  -2 -20   4   16.90    1.32
  -2  20   4   17.14    1.48
  -1 -20   4   54.91    2.00
   1 -20  -4   54.03    2.22
  -1 -20   4   56.73    2.15
  -1  20   4   58.15    2.33
   0 -20   4   23.34    1.49
   0 -20  -4   22.38    1.60
   1 -20   4   25.90    1.54
  -1 -20  -4   24.35    1.71
   2 -20   4   25.00    1.59
  -2 -20  -4   25.05    1.84
  -3 -21   4   18.03    1.46
  -3  21   4   19.20    1.62
   2 -21  -4   30.97    1.92
  -2 -21   4   30.37    1.67
  -2  21   4   30.22    1.83
  -1 -21   4   10.24    1.19
   1 -21  -4    8.96    1.19
  -1 -21   4    6.67    0.97
   0 -21  -4   27.91    1.78
   0 -21   4   31.02    1.70
  -1 -21  -4   -0.66    0.65
   1 -21   4    1.32    0.72
  -3 -22   4    6.45    1.02
  -2 -22   4    4.32    0.86
  -2  22   4    4.48    0.96
  -1 -22   4   35.78    1.79
  -1 -22   4   36.07    1.81
   1 -22  -4   36.86    1.99
   0 -22   4    4.73    0.97
   0 -22  -4    7.57    1.18
  -1 -22  -4   21.66    1.73
   1 -22   4   25.86    1.70
  -2 -23   4   14.05    1.31
  -1 -23   4   14.06    1.29
  -1 -23   4   12.71    1.28
   1 -23  -4    9.71    1.26
   0 -23   4   11.82    1.31
   0 -23  -4   10.99    1.36
  -2 -24   4    3.07    0.83
  -1 -24   4   44.57    2.09
  -1 -24   4   44.26    2.03
   1 -24  -4   49.56    2.35
   0 -24   4   10.60    1.36
  -6   0   5   -0.51    0.68
  -6   0   5    0.35    0.66
  -5   0   5   22.65    1.51
  -4   0   5    2.20    0.67
  -3   0   5   80.03    2.20
  -2   0   5    0.97    0.45
   1   0  -5    1.98    0.49
  -1   0   5    2.11    0.50
   0   0  -5   95.44    2.43
  -1   0  -5   89.20    2.59
  -2   0  -5    2.45    0.85
  -3   0  -5    7.24    1.23
  -6  -1   5   16.52    1.46
  -6   1   5   15.48    1.40
  -6   1   5   13.71    1.39
  -5  -1   5   24.98    1.57
  -5   1   5   24.76    1.56
  -5   1   5   24.34    1.54
  -4  -1   5    1.15    0.62
  -4   1   5    1.12    0.58
  -3  -1   5   53.03    1.81
  -3   1   5   50.99    1.74
  -2  -1   5  103.62    2.46
  -2   1   5  100.62    2.36
  -1  -1   5    4.94    0.63
   1  -1  -5    5.51    0.65
  -1   1   5    6.89    0.68
   0  -1  -5    8.94    0.94
   0   1   5    8.26    0.83
   0   1  -5    8.24    0.91
  -1  -1  -5   20.98    1.39
  -1   1  -5   20.56    1.40
  -2  -1  -5    1.26    0.79
  -2   1  -5    1.38    0.78
  -3  -1  -5   77.53    2.84
  -3   1  -5   73.49    2.78
  -6  -2   5    2.31    0.90
  -6   2   5    3.55    0.86
  -6   2   5    2.63    0.87
  -5  -2   5   39.30    1.89
  -5   2   5   34.02    1.72
  -5   2   5   39.08    1.86
  -4  -2   5    9.60    1.04
  -4   2   5    9.39    0.96
  -3  -2   5   32.87    1.51
  -3   2   5   35.46    1.44
  -2  -2   5    6.35    0.74
  -2   2   5    4.57    0.62
   1  -2  -5    3.22    0.55
  -1  -2   5    2.98    0.57
  -1   2   5    3.49    0.63
  -1   2   5    3.15    0.50
   0  -2  -5   94.70    2.43
   0   2  -5   95.69    2.40
   0   2   5   95.88    2.37
  -1  -2  -5  105.40    2.81
  -1   2  -5  101.46    2.77
  -2  -2  -5    0.68    0.75
  -2   2  -5    0.44    0.75
  -3  -2  -5    9.71    1.36
  -3   2  -5   12.81    1.47
  -6   3   5   10.96    1.27
  -6   3   5   10.66    1.27
  -5  -3   5   17.46    1.42
  -5   3   5   17.25    1.34
  -5   3   5   19.29    1.41
  -4  -3   5    2.49    0.72
  -4   3   5    2.88    0.67
  -4   3   5    2.08    0.71
  -3  -3   5   34.69    1.53
  -3   3   5   31.89    1.57
  -3   3   5   31.73    1.34
  -2  -3   5  111.83    2.63
  -2   3   5  110.81    2.82
  -2   3   5  113.24    2.43
  -1  -3   5    2.00    0.51
   1  -3  -5    2.07    0.50
  -1  -3   5    2.79    0.46
  -1   3   5    2.19    0.44
  -1   3   5    2.40    0.59
   0  -3  -5   23.47    1.29
   0   3   5   21.36    1.15
  -1  -3  -5   23.95    1.46
  -2  -3  -5    1.13    0.77
  -3  -3  -5   48.68    2.37
  -6   4   5    6.27    1.05
  -6   4   5    5.46    0.95
  -5  -4   5   21.68    1.51
  -5   4   5   23.14    1.51
  -5   4   5   22.14    1.44
  -4  -4   5    0.85    0.64
  -4   4   5    1.05    0.58
  -4   4   5    1.28    0.66
  -3  -4   5   27.47    1.42
  -3   4   5   28.73    1.52
  -2  -4   5    5.90    0.75
  -2   4   5    4.37    0.53
  -2   4   5    7.62    0.94
  -1  -4   5    2.04    0.43
  -1  -4   5    1.68    0.52
   1  -4  -5    1.87    0.49
  -1   4   5    2.06    0.59
   0  -4   5  115.83    2.44
   0  -4  -5  109.39    2.68
   0   4   5  115.24    2.71
  -1  -4  -5  105.81    2.88
  -2  -4  -5    1.45    0.76
   3  -4   5    3.56    0.76
  -3  -4  -5    4.39    1.05
  -6   5   5   25.23    1.69
  -5  -5   5   19.86    1.50
  -5   5   5   18.50    1.42
  -5   5   5   19.02    1.38
  -4  -5   5    2.30    0.75
  -4   5   5    2.12    0.61
  -4   5   5    1.24    0.67
  -3  -5   5   20.81    1.28
  -3   5   5   19.80    1.34
  -2  -5   5  114.85    2.73
  -2   5   5  114.06    2.90
  -1  -5   5    0.55    0.35
   1  -5  -5    0.56    0.41
  -1  -5   5    0.43    0.46
  -1   5   5    1.41    0.56
   0  -5  -5    6.44    0.83
   0  -5   5    7.15    0.73
   0   5   5    5.93    0.74
   1  -5   5   23.49    1.20
  -1  -5  -5   22.61    1.43
   2  -5   5    0.41    0.56
  -2  -5  -5    0.26    0.69
  -3  -5  -5   45.60    2.29
   3  -5   5   46.18    1.96
  -6   6   5    1.70    0.72
  -5  -6   5   24.97    1.65
  -5   6   5   26.66    1.63
  -5   6   5   24.70    1.52
  -4  -6   5    1.79    0.70
  -4   6   5    1.63    0.69
  -3  -6   5   41.60    1.70
  -3   6   5   38.04    1.72
  -2  -6   5    3.73    0.68
  -2   6   5    4.26    0.78
  -1  -6   5    1.61    0.40
  -1  -6   5    2.10    0.59
   1  -6  -5    1.18    0.47
  -1   6   5    0.71    0.51
   0  -6  -5  113.56    2.74
   0  -6   5  111.19    2.44
   0   6   5  114.56    2.74
  -1  -6  -5   86.47    2.56
   1  -6   5   85.77    2.23
   2  -6   5    4.68    0.82
  -2  -6  -5    4.73    0.98
  -3  -6  -5    4.16    1.04
   3  -6   5    2.54    0.74
  -6   7   5   18.38    1.47
  -5  -7   5   13.61    1.36
  -5   7   5   14.03    1.31
  -4  -7   5    3.74    0.83
  -4   7   5    5.16    0.89
  -3  -7   5   36.48    1.64
  -3   7   5   33.77    1.67
  -2  -7   5  111.08    2.72
  -2   7   5  105.09    2.84
   1  -7  -5    3.07    0.59
  -1  -7   5    2.45    0.47
  -1   7   5    2.23    0.65
   0  -7  -5   13.08    1.09
   0  -7   5   13.12    0.94
   0   7   5   12.06    1.05
  -1  -7  -5   17.68    1.34
   1  -7   5   16.63    1.12
   2  -7   5    5.48    0.87
  -2  -7  -5    3.85    0.93
   3  -7   5   45.96    1.91
  -3  -7  -5   43.43    2.30
  -5  -8   5   20.47    1.59
  -5   8   5   20.86    1.50
  -4  -8   5    2.67    0.81
  -4   8   5    2.24    0.72
  -3  -8   5   36.30    1.66
  -3   8   5   34.00    1.69
  -2  -8   5   10.87    1.04
  -2   8   5   11.02    1.13
   1  -8  -5    0.72    0.47
  -1  -8   5    0.79    0.40
  -1   8   5    0.82    0.52
   0  -8  -5   87.27    2.44
   0  -8   5   89.50    2.15
   0   8   5   88.00    2.41
  -1  -8  -5   50.82    2.01
   1  -8   5   51.28    1.73
   2  -8   5   13.06    1.12
  -2  -8  -5   11.27    1.32
  -3  -8  -5    5.38    1.13
   3  -8   5    5.66    0.94
  -5  -9   5   20.62    1.59
  -5   9   5   21.15    1.54
  -4  -9   5    4.97    0.90
  -4   9   5    3.03    0.82
  -3  -9   5   30.26    1.58
  -3   9   5   32.93    1.68
  -2  -9   5  118.41    2.93
  -2   9   5  115.43    3.05
  -1  -9   5   13.41    0.88
   1  -9  -5   10.47    0.91
  -1   9   5   10.18    1.05
   0  -9   5    5.87    0.71
   0  -9  -5    5.16    0.83
   0   9   5    6.37    0.83
  -1  -9  -5   12.04    1.25
   1  -9   5    9.97    0.97
  -2  -9  -5    3.32    0.90
   2  -9   5    3.64    0.79
   3  -9   5   54.50    2.05
  -3  -9  -5   51.10    2.49
  -5 -10   5   23.86    1.68
  -5  10   5   24.80    1.66
  -4 -10   5    6.14    1.02
  -4  10   5    4.87    0.93
  -3 -10   5   35.40    1.69
  -3  10   5   31.79    1.69
  -2 -10   5    2.96    0.68
  -2  10   5    3.79    0.83
   1 -10  -5    9.63    0.92
  -1 -10   5    9.67    0.82
  -1  10   5    9.60    1.02
   0 -10   5   68.24    1.88
   0 -10  -5   64.32    2.12
   0  10   5   66.85    2.14
   1 -10   5   40.33    1.57
  -1 -10  -5   39.30    1.83
   2 -10   5    5.86    0.87
  -2 -10  -5    4.60    0.97
   3 -10   5    8.26    1.10
  -5 -11   5   11.09    1.31
  -5  11   5   14.90    1.38
  -4 -11   5    2.65    0.81
  -4  11   5    3.16    0.84
  -3 -11   5   44.85    1.90
  -3  11   5   40.92    1.92
  -2 -11   5   72.08    2.30
  -2  11   5   75.82    2.42
   1 -11  -5    3.48    0.69
  -1 -11   5    4.29    0.61
  -1  11   5    4.75    0.81
   0 -11   5   13.32    0.99
   0 -11  -5   12.81    1.15
   0  11   5   13.37    1.19
  -1 -11  -5   10.87    1.22
   1 -11   5   12.19    1.03
   2 -11   5    0.82    0.58
  -2 -11  -5    0.41    0.69
   3 -11   5   45.96    1.96
  -3 -11  -5   43.48    2.28
  -5 -12   5   21.48    1.68
  -5  12   5   21.50    1.59
  -4 -12   5    1.25    0.69
  -4  12   5   -0.03    0.61
  -3 -12   5   39.34    1.84
  -3  12   5   37.44    1.86
  -2 -12   5    2.00    0.70
  -2  12   5    1.86    0.74
  -1 -12   5   13.61    0.97
   1 -12  -5   12.01    1.04
  -1  12   5   13.91    1.22
   0 -12  -5   59.57    2.10
   0 -12   5   56.25    1.80
   0  12   5   60.10    2.15
  -1 -12  -5   62.59    2.31
   1 -12   5   59.88    1.94
  -2 -12  -5    1.17    0.77
   2 -12   5    2.61    0.71
   3 -12   5    4.88    0.95
  -5  13   5   15.20    1.46
  -4 -13   5    4.41    0.89
  -4  13   5    8.27    1.16
  -3 -13   5   17.44    1.43
  -3  13   5   13.43    1.34
  -2 -13   5   58.91    2.15
  -2  13   5   59.22    2.22
   1 -13  -5    7.25    0.92
  -1 -13   5    6.86    0.78
  -1  13   5    7.59    1.00
   0 -13   5   10.22    0.95
   0 -13  -5   10.98    1.16
   0  13   5   11.19    1.12
  -1 -13  -5   18.45    1.46
   1 -13   5   17.48    1.20
   2 -13   5    0.08    0.56
  -2 -13  -5    1.05    0.78
  -4 -14   5    0.70    0.63
  -4  14   5    0.57    0.71
  -3 -14   5   18.79    1.47
  -3  14   5   21.13    1.56
  -2 -14   5    1.72    0.69
  -2  14   5    3.21    0.85
  -1 -14   5   17.21    1.33
  -1 -14   5   16.18    1.13
   1 -14  -5   19.36    1.31
  -1  14   5   18.57    1.44
   0 -14   5   62.22    1.96
   0 -14  -5   59.90    2.22
   0  14   5   68.69    2.35
  -1 -14  -5   70.99    2.51
   1 -14   5   68.94    2.15
  -2 -14  -5    6.52    1.16
   2 -14   5    4.00    0.85
  -4 -15   5    5.64    0.97
  -4  15   5    6.54    1.08
  -3 -15   5   16.13    1.43
  -3  15   5   18.66    1.50
  -2 -15   5   53.48    2.12
  -2  15   5   51.73    2.24
  -1 -15   5    4.32    0.72
   1 -15  -5    4.87    0.89
  -1 -15   5    6.06    0.94
  -1  15   5    5.14    0.97
   0 -15   5    9.76    0.97
   0 -15  -5    9.06    1.15
   0  15   5   12.59    1.25
  -1 -15  -5   14.21    1.40
   1 -15   5   17.42    1.24
   2 -15   5    0.56    0.67
  -2 -15  -5    0.99    0.80
  -4 -16   5    1.20    0.72
  -4  16   5    2.29    0.86
  -3 -16   5   16.65    1.47
  -3  16   5   16.45    1.51
  -2 -16   5    2.94    0.79
  -2  16   5    2.63    0.86
  -1 -16   5    7.25    1.01
  -1 -16   5    6.61    0.85
   1 -16  -5    7.17    1.03
  -1  16   5    8.71    1.16
   0 -16  -5   50.28    2.16
   0 -16   5   55.27    1.93
   0  16   5   55.56    2.20
   1 -16   5   50.17    1.93
  -1 -16  -5   45.22    2.16
  -2 -16  -5   12.31    1.44
   2 -16   5   14.92    1.29
  -3 -17   5   30.29    1.80
  -3  17   5   29.81    1.86
  -2 -17   5   37.72    1.88
  -2  17   5   42.71    2.10
   1 -17  -5    5.75    1.03
  -1 -17   5    3.27    0.79
  -1 -17   5    4.60    0.81
  -1  17   5    5.06    0.99
   0 -17  -5    9.31    1.21
   0 -17   5   12.11    1.13
   0  17   5    9.68    1.22
   1 -17   5    7.98    1.06
  -1 -17  -5    4.80    1.01
  -3 -18   5   38.09    2.00
  -3  18   5   39.46    2.09
  -2 -18   5    1.24    0.68
  -2  18   5    1.22    0.80
  -1 -18   5    6.59    1.02
  -1 -18   5    5.21    0.87
   1 -18  -5    7.01    1.06
  -1  18   5    8.33    1.20
   0 -18  -5   45.02    2.14
   0 -18   5   48.84    1.96
   0  18   5   48.25    2.15
  -1 -18  -5   20.19    1.68
   1 -18   5   21.95    1.52
  -3 -19   5   16.01    1.52
  -3  19   5   18.09    1.66
  -2 -19   5   46.37    2.12
  -2  19   5   39.39    2.15
  -1 -19   5    3.38    0.83
  -1 -19   5    3.08    0.83
   1 -19  -5    2.78    0.85
  -1  19   5    3.98    0.99
   0 -19   5    8.06    1.07
   0 -19  -5    7.71    1.21
  -1 -19  -5    6.81    1.19
   1 -19   5    5.61    0.96
  -2 -20   5    5.65    0.97
  -2  20   5    5.45    1.09
  -1 -20   5    9.72    1.20
   1 -20  -5    9.49    1.25
  -1 -20   5    8.30    1.14
  -1  20   5   11.27    1.40
   0 -20  -5   24.61    1.79
   0 -20   5   28.00    1.67
  -1 -21   5    4.85    0.98
   1 -21  -5    5.26    1.02
  -1  21   5    6.94    1.16
   0 -21  -5   20.01    1.70
   0 -21   5   16.08    1.46
   1 -22  -5   14.71    1.54
  -5   0   6    1.24    0.77
  -5   0   6    1.76    0.74
  -4   0   6    9.48    1.10
  -3   0   6   14.60    1.20
  -2   0   6   65.66    2.04
  -1   0   6   52.78    1.76
   0   0  -6    0.83    0.65
   0   0   6    0.45    0.50
  -1   0  -6   11.35    1.30
  -2   0  -6  101.72    3.41
  -5  -1   6    5.14    0.96
  -5   1   6    3.17    0.82
  -5   1   6    3.48    0.92
  -4  -1   6   41.58    1.86
  -4   1   6   43.52    1.85
  -3  -1   6    6.59    0.90
  -3   1   6    6.41    0.82
  -2  -1   6    5.46    0.78
  -2   1   6    5.23    0.74
  -1  -1   6   49.47    1.75
  -1   1   6   54.10    2.02
   0  -1  -6    9.67    1.09
   0  -1   6   11.81    1.07
   0   1   6   13.10    1.09
  -1  -1  -6   15.52    1.46
  -1   1  -6   15.52    1.50
  -2  -1  -6    6.69    1.19
  -2   1  -6    4.64    1.09
  -5  -2   6    1.58    0.75
  -5   2   6    2.41    0.89
  -5   2   6    1.45    0.72
  -4  -2   6    2.39    0.76
  -4   2   6    1.57    0.68
  -3  -2   6    8.52    0.99
  -3   2   6    9.16    1.15
  -3   2   6    6.94    0.89
  -2  -2   6   38.65    1.64
  -2   2   6   36.05    1.74
  -1  -2   6   36.72    1.54
  -1   2   6   34.32    1.62
   0  -2  -6   -0.18    0.60
   0   2   6   -0.48    0.45
  -1  -2  -6   13.60    1.39
  -2  -2  -6   50.38    2.50
  -5  -3   6    7.35    1.09
  -5   3   6    7.15    1.13
  -4  -3   6   58.46    2.22
  -4   3   6   58.20    2.37
  -3  -3   6    5.17    0.89
  -3   3   6    6.13    1.00
  -2  -3   6    6.18    0.84
  -2   3   6    8.17    1.06
  -1  -3   6   53.44    1.87
  -1   3   6   52.61    1.94
   0  -3   6   11.16    0.94
   0  -3  -6    8.35    1.00
   0   3   6    8.95    0.97
  -1  -3  -6   19.40    1.56
  -2  -3  -6    1.01    0.87
  -5  -4   6    1.88    0.81
  -5   4   6    1.14    0.79
  -4  -4   6    6.35    1.01
  -4   4   6   10.33    1.25
  -3  -4   6   10.46    1.11
  -3   4   6   10.68    1.20
  -2  -4   6   16.46    1.18
  -2   4   6   16.44    1.32
  -1  -4   6   45.23    1.74
  -1   4   6   44.83    1.84
   0  -4   6    0.03    0.43
   0  -4  -6   -0.28    0.58
   0   4   6    0.04    0.49
   1  -4   6   18.49    1.28
  -1  -4  -6   19.22    1.56
  -2  -4  -6   47.58    2.34
   2  -4   6   46.10    2.07
  -5  -5   6   14.29    1.45
  -5   5   6   15.19    1.54
  -4  -5   6   51.52    2.14
  -4   5   6   57.55    2.38
  -3  -5   6    5.16    0.89
  -3   5   6    5.00    0.96
  -2  -5   6    2.43    0.66
  -2   5   6    3.48    0.82
  -1  -5   6   42.27    1.72
  -1   5   6   43.18    1.88
   0  -5  -6   10.50    1.12
   0  -5   6   10.78    0.95
   0   5   6   11.77    1.10
  -1  -5  -6   32.58    1.92
   1  -5   6   31.83    1.53
   2  -5   6    1.37    0.72
  -2  -5  -6    1.05    0.84
  -5  -6   6    2.90    0.90
  -5   6   6    4.92    1.00
  -4  -6   6    4.25    0.91
  -4   6   6    5.24    1.00
  -3  -6   6    4.83    0.86
  -3   6   6    5.84    1.02
  -2  -6   6    8.85    1.00
  -2   6   6   11.90    1.27
  -1  -6   6   47.07    1.84
  -1   6   6   47.67    1.95
   0  -6   6    3.24    0.65
   0  -6  -6    2.03    0.74
   0   6   6    3.70    0.73
   1  -6   6   19.32    1.27
  -1  -6  -6   18.35    1.54
  -2  -6  -6   53.04    2.48
   2  -6   6   55.64    2.16
  -4  -7   6   36.66    1.87
  -4   7   6   37.67    2.02
  -3  -7   6    3.11    0.78
  -3   7   6    4.21    0.95
  -2  -7   6    1.07    0.60
  -2   7   6    0.77    0.67
  -1  -7   6   61.95    2.12
  -1   7   6   62.50    2.22
   0  -7   6   18.61    1.13
   0  -7  -6   18.84    1.37
   0   7   6   17.69    1.28
   1  -7   6   31.40    1.65
  -1  -7  -6   28.34    1.80
   2  -7   6    3.96    0.88
  -2  -7  -6    3.99    1.07
  -4  -8   6    3.55    0.88
  -4   8   6    5.36    1.05
  -3  -8   6    6.65    1.01
  -3   8   6    6.79    1.07
  -2  -8   6   22.87    1.43
  -2   8   6   24.13    1.53
  -1  -8   6   39.09    1.72
  -1   8   6   36.81    1.76
   0  -8  -6   14.49    1.29
   0  -8   6   12.82    1.02
   0   8   6   13.56    1.19
   1  -8   6   19.74    1.29
  -1  -8  -6   19.71    1.59
   2  -8   6   53.06    2.05
  -2  -8  -6   50.21    2.44
  -4  -9   6   35.10    1.88
  -4   9   6   34.69    2.03
  -3  -9   6   10.48    1.21
  -3   9   6    8.02    1.16
  -2  -9   6    1.86    0.68
  -2   9   6    2.05    0.76
  -1  -9   6   29.70    1.57
  -1   9   6   31.15    1.65
   0  -9  -6    4.43    0.85
   0  -9   6    4.73    0.74
   0   9   6    5.55    0.90
   1  -9   6   13.87    1.17
  -1  -9  -6   10.31    1.29
   2  -9   6    1.16    0.73
  -2  -9  -6    1.67    0.92
  -4 -10   6    1.40    0.75
  -4  10   6    1.18    0.82
  -3 -10   6    6.21    1.03
  -3  10   6    6.27    1.09
  -2 -10   6   31.61    1.66
  -2  10   6   34.59    1.81
  -1 -10   6   22.58    1.43
  -1  10   6   21.72    1.51
   0 -10  -6    1.29    0.73
   0 -10   6    1.34    0.58
   0  10   6    1.69    0.69
  -1 -10  -6    8.87    1.20
   1 -10   6   10.42    1.16
   2 -10   6   45.83    2.09
  -2 -10  -6   47.78    2.40
  -4 -11   6   30.49    1.83
  -4  11   6   33.50    2.03
  -3 -11   6    3.46    0.90
  -3  11   6    2.02    0.85
  -2 -11   6   10.57    1.18
  -2  11   6    8.74    1.14
  -1 -11   6   40.32    1.82
  -1  11   6   37.71    1.84
   0 -11  -6   12.41    1.31
   0 -11   6   15.71    1.12
   0  11   6   17.83    1.44
  -1 -11  -6   10.49    1.29
   1 -11   6   12.17    1.16
   2 -11   6    5.81    1.00
  -4 -12   6    2.60    0.85
  -4  12   6    3.37    0.94
  -3 -12   6    4.49    0.94
  -3  12   6    5.91    1.08
  -2 -12   6   27.57    1.66
  -2  12   6   28.58    1.71
  -1 -12   6   28.87    1.64
  -1  12   6   27.08    1.65
   0 -12   6    4.24    0.76
   0 -12  -6    4.04    0.92
   0  12   6    3.89    0.90
   1 -12   6   13.86    1.21
  -1 -12  -6    9.99    1.31
  -3 -13   6    5.17    1.03
  -3  13   6    4.12    1.00
  -2 -13   6   12.64    1.36
  -2  13   6   11.26    1.34
  -1 -13   6   22.91    1.55
  -1  13   6   25.01    1.66
   0 -13  -6    5.30    0.99
   0 -13   6    4.53    0.75
   0  13   6    4.95    0.91
   1 -13   6   14.94    1.24
  -1 -13  -6   12.06    1.40
  -3 -14   6    7.57    1.13
  -3  14   6    8.76    1.27
  -2 -14   6   18.90    1.52
  -2  14   6   17.69    1.58
  -1 -14   6   24.94    1.64
  -1  14   6   23.26    1.71
   0 -14  -6    6.06    1.05
   0 -14   6    6.50    0.90
   0  14   6    7.78    1.11
  -1 -14  -6   13.65    1.52
   1 -14   6   16.54    1.33
  -3 -15   6    6.94    1.11
  -3  15   6    6.87    1.20
  -2 -15   6    9.26    1.18
  -2  15   6    9.54    1.27
  -1 -15   6   33.05    1.85
  -1  15   6   33.45    1.94
   0 -15   6    3.78    0.79
   0 -15  -6    3.18    0.93
   0  15   6    3.55    0.88
  -1 -15  -6   11.24    1.41
  -2 -16   6   11.47    1.34
  -2  16   6   11.82    1.50
  -1 -16   6   21.11    1.64
  -1  16   6   24.65    1.91
   0 -16   6   12.19    1.21
   0 -16  -6   11.30    1.34
   0  16   6   12.38    1.38
  -2  17   6    3.77    1.10
  -1 -17   6   23.42    1.78
  -1  17   6   23.41    1.80
   0 -17  -6    1.89    0.84
   0 -17   6    1.44    0.69
   0  17   6    1.64    0.83
  -1  18   6   30.80    2.05
   0 -18  -6    6.44    1.14
   0 -18   6    7.00    1.03
   0  18   6    6.04    1.13
  -4   0   7    4.80    1.12
  -3   0   7   10.23    1.31
  -2   0   7    2.51    0.79
  -1   0   7    0.85    0.72
  -3   1   7   51.77    2.42
  -2   1   7   19.12    1.55
  -1  -1   7   -0.23    0.60
  -1   1   7    0.50    0.64
  -1  -1  -7   12.55    1.45
  -4  -2   7    1.17    0.74
  -3  -2   7    0.26    0.67
  -3   2   7    2.18    0.85
  -2   2   7    3.20    0.86
  -1   2   7    4.21    0.92
   1  -2   7    5.99    0.96
  -1  -2  -7    3.77    1.08
  -4  -3   7    1.57    0.76
  -3  -3   7   25.93    1.63
  -3   3   7   27.62    1.87
  -2  -3   7   18.58    1.42
  -2   3   7   21.32    1.73
  -1   3   7    2.44    0.80
   1  -3   7   11.12    1.14
  -1  -3  -7   10.33    1.38
  -4  -4   7    0.21    0.68
  -3  -4   7    3.92    0.93
  -3   4   7    4.04    1.03
  -2  -4   7    2.99    0.78
  -2   4   7    4.24    1.01
  -1  -4   7    8.23    1.07
  -1   4   7    7.85    1.12
  -1  -4  -7    7.23    1.21
   1  -4   7    9.58    1.09
  -4  -5   7    0.50    0.74
  -3  -5   7   23.18    1.59
  -3   5   7   25.60    1.90
  -2  -5   7   23.88    1.52
  -2   5   7   22.23    1.69
  -1  -5   7    4.03    0.83
  -1   5   7    3.99    0.87
  -1  -5  -7   10.95    1.36
  -4  -6   7    0.87    0.76
  -3  -6   7    5.59    1.00
  -3   6   7    5.31    1.12
  -2  -6   7    2.73    0.78
  -2   6   7    2.40    0.86
  -1  -6   7   15.70    1.36
  -1   6   7   14.75    1.43
   1  -6   7    7.59    1.07
  -1  -6  -7    6.35    1.14
  -3  -7   7   41.21    2.01
  -3   7   7   42.43    2.30
  -2  -7   7   18.55    1.42
  -2   7   7   17.99    1.58
  -1  -7   7    6.56    1.00
  -1   7   7    5.15    0.98
  -1  -7  -7    9.18    1.33
   1  -7   7    9.05    1.08
  -3  -8   7    4.63    0.96
  -3   8   7    4.95    1.11
  -2  -8   7    4.38    0.87
  -2   8   7    4.92    1.01
  -1  -8   7    4.21    0.86
  -1   8   7    4.10    0.94
   1  -8   7    5.22    0.96
  -1  -8  -7    5.84    1.21
  -3  -9   7   37.73    1.99
  -2  -9   7    7.33    1.06
  -2   9   7   12.36    1.44
  -1  -9   7    1.25    0.71
  -1   9   7    1.20    0.74
   1  -9   7    5.87    0.99
  -3 -10   7    3.71    0.97
  -2 -10   7    2.61    0.81
  -2  10   7    2.90    0.98
  -1 -10   7    0.63    0.68
  -1  10   7    0.27    0.71
  -2 -11   7   18.44    1.53
  -2  11   7   12.99    1.50
  -1 -11   7    2.43    0.83
  -1  11   7    2.98    0.91
  -1  12   7    4.63    0.97
  -1  13   7    6.78    1.26
   0   0   0    0.00    0.00
;
_shelx_hkl_checksum              52177
#END Tags that were not found in dictionaries
loop_
_space_group_symop_operation_xyz
'x, y, z'
'-x, y+1/2, -z'
loop_
_atom_site_type_symbol
_atom_site_label
_atom_site_fract_x
_atom_site_fract_y
_atom_site_fract_z
_atom_site_U_iso_or_equiv
_atom_site_adp_type
_atom_site_calc_flag
_atom_site_refinement_flags_adp
_atom_site_refinement_flags_posn
_atom_site_occupancy
Ag Ag1 0.21355(8) 0.85788(2) 0.42684(7) 0.01697(10) Uani d . . 1
Ag Ag2 -0.44017(8) 0.86676(2) -0.00879(7) 0.01798(10) Uani d . . 1
C C1 -0.0236(12) 0.7560(3) 0.0234(10) 0.0147(11) Uani d . . 1
C C2 0.1408(13) 0.6945(3) 0.1428(11) 0.0157(11) Uani d . . 1
H H2A 0.0174 0.6543 0.1017 0.019 Uiso calc U R 1
H H2B 0.3096 0.6879 0.0707 0.019 Uiso calc U R 1
C C3 0.2399(11) 0.7004(3) 0.4256(10) 0.0115(11) Uani d . . 1
H H3 0.0687 0.7045 0.499 0.014 Uiso calc U R 1
C C4 0.4057(11) 0.6375(3) 0.5292(10) 0.0113(10) Uani d . . 1
C C5 0.3907(12) 0.5248(3) 0.6953(11) 0.0124(10) Uani d . . 1
H H5 0.5708 0.5202 0.635 0.015 Uiso calc U R 1
C C6 0.4714(13) 0.5254(3) 0.9811(12) 0.0154(12) Uani d . . 1
H H6A 0.5846 0.5663 1.0401 0.019 Uiso calc U R 1
H H6B 0.2957 0.5268 1.046 0.019 Uiso calc U R 1
C C7 0.1967(11) 0.4653(3) 0.5920(11) 0.0129(10) Uani d . . 1
N N1 0.4194(10) 0.7604(2) 0.4913(9) 0.0125(9) Uani d . . 1
H H1A 0.5711 0.7588 0.3964 0.015 Uiso calc U R 1
H H1B 0.5147 0.7574 0.6709 0.015 Uiso calc U R 1
N N2 0.2537(9) 0.5878(2) 0.5970(9) 0.0131(9) Uani d . . 1
H H2 0.0688 0.593 0.5825 0.016 Uiso calc U R 1
N N3 0.6390(11) 0.4655(3) 1.0776(10) 0.0167(10) Uani d . . 1
H H3A 0.7057 0.4709 1.2608 0.02 Uiso calc U R 1
H H3B 0.8111 0.4653 1.0074 0.02 Uiso calc U R 1
O O1 0.0604(10) 0.7889(2) -0.1348(8) 0.0263(10) Uani d . . 1
O O2 -0.2459(9) 0.7706(2) 0.1043(9) 0.0238(10) Uani d . . 1
O O3 0.6638(8) 0.6329(2) 0.5418(9) 0.0235(10) Uani d . . 1
O O4 0.2652(10) 0.4294(3) 0.4327(9) 0.0318(12) Uani d . . 1
O O5 -0.0199(9) 0.4563(2) 0.6798(8) 0.0197(9) Uani d . . 1
loop_
_atom_site_aniso_label
_atom_site_aniso_U_11
_atom_site_aniso_U_22
_atom_site_aniso_U_33
_atom_site_aniso_U_12
_atom_site_aniso_U_13
_atom_site_aniso_U_23
Ag1 0.01857(18) 0.00871(19) 0.0215(2) 0.00360(16) 0.00020(15) -0.00174(17)
Ag2 0.02046(18) 0.0124(2) 0.0196(2) 0.00408(17) 0.00148(15) -0.00218(17)
C1 0.016(3) 0.013(3) 0.013(3) 0.001(2) 0.000(2) -0.005(2)
C2 0.017(3) 0.012(3) 0.017(3) 0.003(2) 0.000(2) -0.001(2)
C3 0.007(2) 0.011(3) 0.017(3) 0.0008(18) 0.004(2) 0.0012(19)
C4 0.010(2) 0.008(2) 0.016(2) 0.0042(19) 0.003(2) 0.0021(19)
C5 0.010(2) 0.009(2) 0.019(3) 0.0009(19) 0.005(2) 0.0061(19)
C6 0.016(2) 0.009(3) 0.021(3) 0.000(2) 0.003(2) -0.001(2)
C7 0.009(2) 0.010(2) 0.019(3) 0.003(2) 0.002(2) 0.003(2)
N1 0.012(2) 0.008(2) 0.016(2) 0.0008(18) 0.0023(18) -0.0006(18)
N2 0.0095(19) 0.009(2) 0.022(3) 0.0040(15) 0.0058(19) 0.0068(17)
N3 0.016(2) 0.015(2) 0.018(2) 0.001(2) 0.000(2) 0.001(2)
O1 0.025(2) 0.034(3) 0.021(2) 0.0072(19) 0.009(2) 0.010(2)
O2 0.019(2) 0.017(2) 0.040(3) 0.0060(18) 0.016(2) 0.010(2)
O3 0.0071(18) 0.014(2) 0.051(3) 0.0042(15) 0.0110(19) 0.013(2)
O4 0.027(3) 0.038(3) 0.033(3) -0.010(2) 0.014(2) -0.019(2)
O5 0.0149(19) 0.016(2) 0.030(2) -0.0066(17) 0.0095(18) -0.0062(18)
loop_
_atom_type_symbol
_atom_type_description
_atom_type_scat_dispersion_real
_atom_type_scat_dispersion_imag
_atom_type_scat_source
C C 0.0033 0.0016 'International Tables Vol C Tables 4.2.6.8 and 6.1.1.4'
H H 0.0000 0.0000 'International Tables Vol C Tables 4.2.6.8 and 6.1.1.4'
N N 0.0061 0.0033 'International Tables Vol C Tables 4.2.6.8 and 6.1.1.4'
O O 0.0106 0.0060 'International Tables Vol C Tables 4.2.6.8 and 6.1.1.4'
Ag Ag -0.8971 1.1015 'International Tables Vol C Tables 4.2.6.8 and 6.1.1.4'
loop_
_geom_angle_atom_site_label_1
_geom_angle_atom_site_label_2
_geom_angle_atom_site_label_3
_geom_angle_site_symmetry_1
_geom_angle_site_symmetry_3
_geom_angle
N1 Ag1 O5 . 2_556 173.38(17)
N1 Ag1 Ag2 . 1_656 76.88(13)
O5 Ag1 Ag2 2_556 1_656 107.89(12)
N1 Ag1 Ag2 . 1_655 82.88(13)
O5 Ag1 Ag2 2_556 1_655 90.72(11)
Ag2 Ag1 Ag2 1_656 1_655 118.649(18)
O2 Ag2 N3 . 2_556 173.29(19)
O2 Ag2 Ag1 . 1_454 109.12(13)
N3 Ag2 Ag1 2_556 1_454 76.70(13)
O2 Ag2 Ag1 . 1_455 90.04(11)
N3 Ag2 Ag1 2_556 1_455 84.11(14)
Ag1 Ag2 Ag1 1_454 1_455 118.650(18)
O1 C1 O2 . . 124.0(6)
O1 C1 C2 . . 120.8(5)
O2 C1 C2 . . 115.2(5)
C3 C2 C1 . . 112.8(5)
C3 C2 H2A . . 109.0
C1 C2 H2A . . 109.0
C3 C2 H2B . . 109.0
C1 C2 H2B . . 109.0
H2A C2 H2B . . 107.8
N1 C3 C2 . . 110.0(5)
N1 C3 C4 . . 110.5(4)
C2 C3 C4 . . 109.4(5)
N1 C3 H3 . . 109.0
C2 C3 H3 . . 109.0
C4 C3 H3 . . 109.0
O3 C4 N2 . . 122.7(5)
O3 C4 C3 . . 121.0(5)
N2 C4 C3 . . 116.2(4)
N2 C5 C6 . . 111.0(5)
N2 C5 C7 . . 110.0(4)
C6 C5 C7 . . 112.1(5)
N2 C5 H5 . . 107.8
C6 C5 H5 . . 107.8
C7 C5 H5 . . 107.8
N3 C6 C5 . . 110.6(5)
N3 C6 H6A . . 109.5
C5 C6 H6A . . 109.5
N3 C6 H6B . . 109.5
C5 C6 H6B . . 109.5
H6A C6 H6B . . 108.1
O4 C7 O5 . . 124.8(6)
O4 C7 C5 . . 118.1(5)
O5 C7 C5 . . 117.0(5)
C3 N1 Ag1 . . 117.8(3)
C3 N1 H1A . . 107.8
Ag1 N1 H1A . . 107.8
C3 N1 H1B . . 107.8
Ag1 N1 H1B . . 107.8
H1A N1 H1B . . 107.2
C4 N2 C5 . . 120.7(4)
C4 N2 H2 . . 119.6
C5 N2 H2 . . 119.6
C6 N3 Ag2 . 2_546 119.2(4)
C6 N3 H3A . . 107.5
Ag2 N3 H3A 2_546 . 107.5
C6 N3 H3B . . 107.5
Ag2 N3 H3B 2_546 . 107.5
H3A N3 H3B . . 107.0
C1 O2 Ag2 . . 116.2(4)
C7 O5 Ag1 . 2_546 111.3(4)
loop_
_geom_bond_atom_site_label_1
_geom_bond_atom_site_label_2
_geom_bond_site_symmetry_2
_geom_bond_distance
Ag1 N1 . 2.170(5)
Ag1 O5 2_556 2.190(4)
Ag1 Ag2 1_656 3.1698(6)
Ag1 Ag2 1_655 3.2200(6)
Ag2 O2 . 2.157(5)
Ag2 N3 2_556 2.180(5)
Ag2 Ag1 1_454 3.1698(6)
Ag2 Ag1 1_455 3.2200(6)
C1 O1 . 1.229(7)
C1 O2 . 1.282(7)
C1 C2 . 1.522(8)
C2 C3 . 1.522(8)
C2 H2A . 0.99
C2 H2B . 0.99
C3 N1 . 1.470(7)
C3 C4 . 1.523(7)
C3 H3 . 1.0
C4 O3 . 1.230(6)
C4 N2 . 1.333(7)
C5 N2 . 1.461(7)
C5 C6 . 1.529(8)
C5 C7 . 1.534(8)
C5 H5 . 1.0
C6 N3 . 1.469(8)
C6 H6A . 0.99
C6 H6B . 0.99
C7 O4 . 1.232(7)
C7 O5 . 1.257(6)
N1 H1A . 0.99
N1 H1B . 0.99
N2 H2 . 0.88
N3 Ag2 2_546 2.180(5)
N3 H3A . 0.99
N3 H3B . 0.99
O5 Ag1 2_546 2.190(4)
