#------------------------------------------------------------------------------
#$Date: 2016-03-24 14:28:49 +0200 (Thu, 24 Mar 2016) $
#$Revision: 179665 $
#$URL: svn://www.crystallography.net/cod/cif/4/51/18/4511860.cif $
#------------------------------------------------------------------------------
#
# This file is available in the Crystallography Open Database (COD),
# http://www.crystallography.net/
#
# All data on this site have been placed in the public domain by the
# contributors.
#
data_4511860
loop_
_publ_author_name
'Miyake, Ryosuke'
'Nakagawa, Yuki'
'Hase, Mariko'
_publ_section_title
;
 Selective Thermal Elongation of Metal--Metal Distances in the
 Two-Dimensional Assembly of Ag(I) Ions Templated by Assembled Peptide
 Ligands
;
_journal_issue                   10
_journal_name_full               'Crystal Growth &amp; Design'
_journal_page_first              4882
_journal_paper_doi               10.1021/cg5009347
_journal_volume                  14
_journal_year                    2014
_chemical_absolute_configuration ad
_chemical_formula_sum            'C7 H11 Ag2 N3 O5'
_chemical_formula_weight         432.93
_space_group_crystal_system      monoclinic
_space_group_IT_number           4
_space_group_name_Hall           'P 2yb'
_space_group_name_H-M_alt        'P 1 21 1'
_symmetry_space_group_name_Hall  'P 2yb'
_symmetry_space_group_name_H-M   'P 1 21 1'
_atom_sites_solution_hydrogens   geom
_cell_angle_alpha                90
_cell_angle_beta                 103.363(2)
_cell_angle_gamma                90
_cell_formula_units_Z            2
_cell_length_a                   4.8207(7)
_cell_length_b                   19.966(3)
_cell_length_c                   5.5008(7)
_cell_measurement_temperature    123
_cell_volume                     515.12(13)
_computing_cell_refinement       'SAINT V8.32B (Bruker AXS)'
_computing_data_collection       'Bruker SMART APEXII ULTRA'
_computing_data_reduction        'SAINT V8.32B (Bruker AXS)'
_computing_molecular_graphics    'XSHELL V6.3.1 (Bruker AXS)'
_computing_publication_material  'Generate Report (Bruker AXS)'
_computing_structure_refinement  'SHELXL-2013 (Sheldrick, 2013)'
_computing_structure_solution    'SHELXS-97 (Sheldrick, 1997)'
_diffrn_ambient_temperature      123
_diffrn_detector_area_resol_mean 8.333
_diffrn_measured_fraction_theta_full 0.991
_diffrn_measured_fraction_theta_max 0.991
_diffrn_measurement_device_type  'Bruker D8 goniometer'
_diffrn_measurement_method       'omega scans'
_diffrn_radiation_monochromator  'multilayered conforcal mirror'
_diffrn_radiation_type           MoK\a
_diffrn_radiation_wavelength     0.71073
_diffrn_reflns_av_R_equivalents  0.0183
_diffrn_reflns_limit_h_max       5
_diffrn_reflns_limit_h_min       -6
_diffrn_reflns_limit_k_max       23
_diffrn_reflns_limit_k_min       -27
_diffrn_reflns_limit_l_max       7
_diffrn_reflns_limit_l_min       -6
_diffrn_reflns_number            3475
_diffrn_reflns_theta_full        29.13
_diffrn_reflns_theta_max         29.13
_diffrn_reflns_theta_min         2.04
_diffrn_source                   'rotating-anode X-ray tube'
_diffrn_source_type              'Bruker Tourbo X-ray Source'
_exptl_absorpt_coefficient_mu    3.816
_exptl_absorpt_correction_T_max  0.96
_exptl_absorpt_correction_T_min  0.82
_exptl_absorpt_correction_type   empirical
_exptl_absorpt_process_details   'SADABS V2012/1 (Bruker AXS)'
_exptl_crystal_colour            colorless
_exptl_crystal_density_diffrn    2.791
_exptl_crystal_density_method    'not measured'
_exptl_crystal_description       plate
_exptl_crystal_F_000             416
_exptl_crystal_size_max          0.055
_exptl_crystal_size_mid          0.023
_exptl_crystal_size_min          0.010
_refine_diff_density_max         1.081
_refine_diff_density_min         -0.889
_refine_ls_abs_structure_details
;
Flack x determined using 850 quotients [(I+)-(I-)]/[(I+)+(I-)]
(Parsons and Flack (2004), Acta Cryst. A60, s61).
;
_refine_ls_abs_structure_Flack   0.02(3)
_refine_ls_extinction_method     none
_refine_ls_goodness_of_fit_ref   1.057
_refine_ls_hydrogen_treatment    constr
_refine_ls_matrix_type           full
_refine_ls_number_parameters     154
_refine_ls_number_reflns         2341
_refine_ls_number_restraints     1
_refine_ls_restrained_S_all      1.057
_refine_ls_R_factor_all          0.0259
_refine_ls_R_factor_gt           0.0239
_refine_ls_shift/su_max          0.001
_refine_ls_shift/su_mean         0.000
_refine_ls_structure_factor_coef Fsqd
_refine_ls_weighting_details
'w=1/[\s^2^(Fo^2^)+(0.0226P)^2^+0.5145P] where P=(Fo^2^+2Fc^2^)/3'
_refine_ls_weighting_scheme      calc
_refine_ls_wR_factor_gt          0.0540
_refine_ls_wR_factor_ref         0.0548
_reflns_number_gt                2226
_reflns_number_total             2341
_reflns_threshold_expression     'I > 2\s(I)'
_cod_data_source_file            cg5009347_si_001.cif
_cod_data_source_block           p21_123K
_cod_depositor_comments
'Adding full bibliography for 4511859--4511871.cif.'
_cod_original_cell_volume        515.12(12)
_cod_database_code               4511860
#BEGIN Tags that were not found in dictionaries:
_shelx_res_file
;
TITL p21(-150) in P2(1)
CELL 0.71073   4.82070  19.96580   5.50080  90.0000 103.3633  90.0000
ZERR    2.00   0.00070   0.00270   0.00070   0.0000   0.0021   0.0000
LATT -1
SYMM -X, 0.5+Y, -Z
SFAC C  H  N  O  Ag
UNIT 14  22  6  10  4
L.S. 30
SHEL 20 0.73
ACTA
BOND $h
FMAP 2
PLAN 20
size 0.055 0.023 0.010
TEMP -150
WGHT    0.022600    0.514500
FVAR       0.18568
AG1   5    0.213398    0.857940    0.426146    11.00000    0.01822    0.00937 =
         0.01966   -0.00150    0.00099    0.00319
AG2   5   -0.440915    0.866760   -0.009311    11.00000    0.02028    0.01325 =
         0.01831   -0.00179    0.00212    0.00371
C1    1   -0.022256    0.756099    0.022283    11.00000    0.01255    0.01457 =
         0.01175   -0.00298   -0.00069   -0.00407
C2    1    0.141022    0.694480    0.141692    11.00000    0.01534    0.01458 =
         0.01645   -0.00324    0.00010   -0.00086
AFIX  23
H2A   2    0.017388    0.654542    0.100370    11.00000   -1.20000
H2B   2    0.309694    0.687801    0.070405    11.00000   -1.20000
AFIX   0
C3    1    0.238628    0.700675    0.424506    11.00000    0.00748    0.01162 =
         0.01956    0.00267    0.00459    0.00125
AFIX  13
H3    2    0.067620    0.704753    0.497429    11.00000   -1.20000
AFIX   0
C4    1    0.405867    0.637525    0.528707    11.00000    0.01098    0.00981 =
         0.01321    0.00164    0.00347    0.00222
C5    1    0.389120    0.524870    0.694144    11.00000    0.01204    0.00898 =
         0.02103    0.00382    0.00607    0.00116
AFIX  13
H5    2    0.568679    0.520482    0.633789    11.00000   -1.20000
AFIX   0
C6    1    0.471091    0.525634    0.980284    11.00000    0.01898    0.00870 =
         0.01689    0.00117    0.00394   -0.00191
AFIX  23
H6A   2    0.584803    0.566256    1.038682    11.00000   -1.20000
H6B   2    0.296219    0.527230    1.045489    11.00000   -1.20000
AFIX   0
C7    1    0.197811    0.464836    0.592917    11.00000    0.00870    0.01080 =
         0.01764    0.00298    0.00164    0.00104
N1    3    0.419675    0.760432    0.492131    11.00000    0.01134    0.00912 =
         0.01525   -0.00026   -0.00005   -0.00017
AFIX  23
H1A   2    0.571891    0.758761    0.398425    11.00000   -1.20000
H1B   2    0.513429    0.757314    0.671970    11.00000   -1.20000
AFIX   0
N2    3    0.253373    0.587696    0.597510    11.00000    0.00832    0.01321 =
         0.01851    0.00720    0.00508    0.00213
AFIX  43
H2    2    0.069247    0.593035    0.584098    11.00000   -1.20000
AFIX   0
N3    3    0.638381    0.465458    1.077888    11.00000    0.01527    0.01792 =
         0.01400    0.00260    0.00082   -0.00112
AFIX  23
H3A   2    0.704262    0.470928    1.261059    11.00000   -1.20000
H3B   2    0.810551    0.465216    1.008646    11.00000   -1.20000
AFIX   0
O1    4    0.060113    0.789399   -0.136927    11.00000    0.02428    0.03275 =
         0.01703    0.01060    0.00921    0.00801
O2    4   -0.245629    0.770769    0.103307    11.00000    0.01702    0.01841 =
         0.03195    0.00805    0.01089    0.00437
O3    4    0.663474    0.633213    0.541888    11.00000    0.00954    0.01432 =
         0.05109    0.01119    0.01222    0.00371
O4    4    0.266083    0.429382    0.431580    11.00000    0.02335    0.03772 =
         0.03063   -0.01600    0.01235   -0.00694
O5    4   -0.020613    0.456266    0.681209    11.00000    0.01418    0.01681 =
         0.02817   -0.00575    0.00924   -0.00531
HKLF 4

REM  p21(-150) in P2(1)
REM R1 =  0.0239 for    2226 Fo > 4sig(Fo)  and  0.0259 for all    2341 data
REM    154 parameters refined using      1 restraints

END

WGHT      0.0226      0.5145

REM Highest difference peak  1.081,  deepest hole -0.889,  1-sigma level  0.133
Q1    1  -0.2743  0.8715 -0.0217  11.00000  0.05    1.08
Q2    1   0.0766  0.8555  0.4538  11.00000  0.05    0.97
Q3    1   0.2178  0.8947  0.4183  11.00000  0.05    0.91
Q4    1   0.3729  0.8578  0.4275  11.00000  0.05    0.87
Q5    1   0.2124  0.8178  0.4197  11.00000  0.05    0.86
Q6    1  -0.4457  0.8291 -0.0128  11.00000  0.05    0.78
Q7    1  -0.6042  0.8658 -0.0147  11.00000  0.05    0.77
Q8    1   0.8791  0.4071  1.0888  11.00000  0.05    0.76
Q9    1  -0.4251  0.9078 -0.0106  11.00000  0.05    0.72
Q10   1  -0.2578  0.9033  0.1348  11.00000  0.05    0.55
Q11   1  -0.7837  0.8658  0.0782  11.00000  0.05    0.51
Q12   1   0.0576  0.8337 -0.1001  11.00000  0.05    0.50
Q13   1  -0.0068  0.3935  0.7189  11.00000  0.05    0.49
Q14   1   0.0363  0.8147  0.2902  11.00000  0.05    0.49
Q15   1   0.1827  0.8586  0.3597  11.00000  0.05    0.46
Q16   1   0.4102  0.8199  0.5578  11.00000  0.05    0.46
Q17   1  -0.2451  0.8276  0.1247  11.00000  0.05    0.45
Q18   1  -0.2026  0.8384 -0.0527  11.00000  0.05    0.45
Q19   1   0.0781  0.3791  0.1901  11.00000  0.05    0.45
Q20   1   0.6497  0.8142  0.5221  11.00000  0.05    0.45
;
_shelx_res_checksum              58327
_shelx_hkl_file
;
  -1   0   0  138.76    2.85
  -1   0   0  143.25    2.97
  -2   0   0   15.31    0.72
  -2   0   0   14.44    0.66
  -3   0   0   50.07    1.57
  -3   0   0   49.32    1.66
  -4   0   0   47.21    1.76
  -4   0   0   45.56    1.86
  -5   0   0   76.28    2.75
  -5   0   0   74.09    2.55
  -6   0   0   18.03    1.51
   0  -1   0   -1.28    0.01
   0  -1   0   -1.29    0.02
   0   1   0   -1.30    0.02
  -1  -1   0   95.92    2.02
  -1  -1   0   89.73    1.90
  -1   1   0   88.93    1.93
  -1   1   0   89.59    2.01
  -2  -1   0  210.59    4.34
  -2  -1   0  210.11    4.54
  -2   1   0  211.25    4.38
  -2   1   0  204.73    4.52
  -3  -1   0  141.68    3.48
  -3  -1   0  137.75    3.29
  -3   1   0  140.40    3.32
  -3   1   0  143.35    3.48
  -4  -1   0   10.72    1.06
  -4  -1   0   11.33    0.92
  -4   1   0   11.97    1.07
  -4   1   0   11.42    0.94
  -5  -1   0   13.58    1.17
  -5  -1   0   13.43    1.37
  -5   1   0   13.33    1.34
  -5   1   0   13.28    1.19
  -6  -1   0   57.84    2.45
  -6   1   0   55.85    2.46
   0  -2   0  850.97   21.28
  -1  -2   0   44.61    1.17
  -1   2   0   48.12    1.19
  -1   2   0   49.17    1.15
  -2  -2   0    0.66    0.24
  -2  -2   0    1.13    0.35
  -2   2   0    0.69    0.26
  -2   2   0    0.93    0.34
  -3  -2   0  114.43    2.80
  -3  -2   0  115.32    3.00
  -3   2   0  115.04    2.95
  -3   2   0  112.90    2.85
  -4  -2   0   39.40    1.71
  -4  -2   0   38.69    1.54
  -4   2   0   37.66    1.55
  -4   2   0   38.93    1.68
  -5  -2   0   46.02    1.94
  -5  -2   0   47.05    2.18
  -5   2   0   43.47    1.95
  -5   2   0   43.47    2.06
  -6  -2   0   10.02    1.21
  -6   2   0   11.22    1.31
   0  -3   0   -0.39    0.10
  -1  -3   0   62.07    1.43
   1  -3   0   70.38    1.54
  -1  -3   0   67.59    1.61
  -1   3   0   67.61    1.38
  -1   3   0   67.97    1.54
  -2  -3   0  152.65    3.48
  -2  -3   0  151.73    3.26
  -2   3   0  153.43    3.36
  -2   3   0  153.67    3.47
  -3  -3   0  250.21    5.59
  -3  -3   0  248.32    5.29
  -3   3   0  242.65    5.36
  -3   3   0  248.64    5.55
  -4  -3   0    4.08    0.64
  -4  -3   0    5.02    0.84
  -4   3   0    6.33    0.92
  -4   3   0    4.30    0.63
  -5  -3   0    7.91    1.16
  -5  -3   0    7.89    0.97
  -5   3   0    7.17    1.16
  -5   3   0    8.46    1.03
  -6  -3   0   56.12    2.39
  -6   3   0   57.19    2.52
   0  -4   0  397.45    7.96
  -1  -4   0  140.96    3.04
  -1  -4   0  126.57    2.78
   1  -4   0  144.63    2.96
  -1   4   0  141.90    2.92
  -1   4   0  142.70    2.78
  -2  -4   0   20.04    0.75
  -2  -4   0   21.33    0.91
  -2   4   0   22.50    0.85
  -3  -4   0   99.71    2.49
  -3  -4   0   99.61    2.73
  -3   4   0   97.18    2.65
  -3   4   0   98.36    2.58
  -4  -4   0   15.42    0.98
  -4  -4   0   14.82    1.19
  -4   4   0   15.55    1.07
  -5  -4   0   25.01    1.44
  -5  -4   0   26.26    1.69
  -5   4   0   23.25    1.48
  -6  -4   0   11.38    1.27
  -6   4   0   10.65    1.29
   0  -5   0   -1.05    0.16
   1  -5   0   82.42    1.93
  -1  -5   0   80.53    1.78
  -1  -5   0   85.46    2.03
  -1   5   0   84.88    1.81
  -1   5   0   89.49    1.94
  -2  -5   0  263.81    5.45
   2  -5   0  266.64    5.66
  -2  -5   0  280.58    5.87
  -2   5   0  273.57    5.61
  -3  -5   0  344.54    7.56
  -3  -5   0  348.83    7.10
  -3   5   0  341.99    7.24
  -4  -5   0    0.83    0.43
  -4  -5   0    1.19    0.65
  -4   5   0    0.81    0.46
  -5  -5   0    8.73    0.99
  -5  -5   0    8.27    1.19
  -5   5   0   10.12    1.10
  -6  -5   0   48.85    2.21
  -6   5   0   50.39    2.41
   0  -6   0  305.95    6.27
  -1  -6   0  147.41    3.29
  -1  -6   0  142.03    2.96
   1  -6   0  146.71    3.18
  -1   6   0  149.83    3.03
  -1   6   0  148.92    3.13
  -2  -6   0    5.29    0.59
  -2  -6   0    4.06    0.41
   2  -6   0    3.79    0.39
  -2   6   0    4.70    0.49
  -3  -6   0  181.24    4.32
  -3  -6   0  181.89    3.97
   3  -6   0  169.55    4.00
  -3   6   0  176.49    4.11
  -4  -6   0   11.09    0.87
   4  -6   0   11.52    0.77
  -4  -6   0   11.31    1.10
  -4   6   0   12.80    1.00
  -5  -6   0   26.63    1.45
  -5  -6   0   25.49    1.74
  -5   6   0   25.91    1.59
  -6  -6   0    9.83    1.16
  -6   6   0    9.55    1.22
   0  -7   0   -0.31    0.20
  -1  -7   0  235.77    5.01
   1  -7   0  226.68    4.88
  -1  -7   0  231.78    4.58
  -1   7   0  234.86    4.77
  -1   7   0  234.08    4.67
  -2  -7   0  161.39    3.73
  -2  -7   0  152.57    3.32
   2  -7   0  157.94    3.52
  -2   7   0  160.91    3.56
  -2   7   0  153.02    3.23
  -3  -7   0  380.50    8.21
   3  -7   0  373.45    7.88
  -3  -7   0  376.28    7.64
  -3   7   0  369.73    7.85
  -4  -7   0    3.87    0.82
  -4  -7   0    2.80    0.55
   4  -7   0    3.08    0.52
  -4   7   0    2.29    0.59
  -5  -7   0    6.12    1.10
  -5  -7   0    5.18    0.77
  -5   7   0    7.65    1.00
  -6  -7   0   39.90    1.97
  -6   7   0   40.88    2.19
   0  -8   0  620.08   12.44
  -1  -8   0  185.26    4.13
   1  -8   0  179.85    4.01
  -1  -8   0  177.82    3.70
  -1   8   0  191.60    3.85
  -1   8   0  187.66    3.91
   2  -8   0   47.34    1.39
  -2  -8   0   48.57    1.59
  -2  -8   0   46.13    1.26
  -2   8   0   45.92    1.22
  -2   8   0   47.33    1.46
  -3  -8   0   72.93    1.94
  -3  -8   0   74.22    2.31
   3  -8   0   66.99    1.96
  -3   8   0   72.15    2.16
  -4  -8   0   19.51    1.08
   4  -8   0   18.90    0.98
  -4  -8   0   20.77    1.39
  -4   8   0   18.43    1.22
  -5  -8   0   43.74    2.22
  -5   8   0   46.08    2.08
  -6   8   0    7.02    1.08
   0  -9   0   -0.45    0.24
  -1  -9   0   42.50    1.09
  -1  -9   0   43.21    1.39
   1  -9   0   44.03    1.30
  -1   9   0   42.93    1.25
   2  -9   0   39.55    1.27
  -2  -9   0   41.37    1.48
  -2  -9   0   37.91    1.12
  -2   9   0   39.23    1.33
  -2   9   0   40.44    1.12
  -3  -9   0  104.91    2.59
   3  -9   0  104.38    2.69
  -3  -9   0  109.21    3.05
  -3   9   0  104.01    2.83
  -4  -9   0   10.46    1.20
  -4  -9   0    8.73    0.81
   4  -9   0    8.12    0.72
  -4   9   0    9.77    1.00
  -5  -9   0    9.16    1.23
  -5  -9   0    7.79    0.88
  -5   9   0   11.99    1.23
  -6   9   0   46.32    2.32
   0 -10   0  734.10   14.77
  -1 -10   0   36.95    1.01
   1 -10   0   36.77    1.22
  -1 -10   0   39.19    1.33
  -2 -10   0    3.32    0.36
   2 -10   0    6.54    0.64
  -2 -10   0    4.64    0.67
  -2  10   0    3.52    0.37
  -2  10   0    4.84    0.56
   3 -10   0   49.72    1.61
  -3 -10   0   47.87    1.49
  -3 -10   0   46.82    1.87
  -3  10   0   50.49    1.73
  -4 -10   0   25.13    1.54
   4 -10   0   24.98    1.16
  -4  10   0   27.68    1.43
  -5 -10   0   49.83    2.38
  -5  10   0   53.08    2.25
  -6  10   0    9.08    1.23
   0 -11   0    0.50    0.31
   1 -11   0   69.23    1.92
  -1 -11   0   68.69    1.99
  -1 -11   0   66.07    1.60
  -2 -11   0   73.99    1.84
   2 -11   0   77.96    2.11
  -2 -11   0   77.00    2.31
  -2  11   0   76.23    2.13
   3 -11   0  136.50    3.41
  -3 -11   0  137.94    3.77
  -3 -11   0  140.44    3.21
  -3  11   0  137.01    3.51
   4 -11   0   27.61    1.26
  -4 -11   0   26.67    1.58
  -4  11   0   28.02    1.48
  -5 -11   0    5.30    1.08
  -5  11   0    8.75    1.14
   0 -12   0  703.10   14.31
   1 -12   0   46.13    1.52
  -1 -12   0   47.19    1.60
  -1 -12   0   45.24    1.21
  -2 -12   0   27.59    0.92
  -2 -12   0   28.78    1.32
   2 -12   0   28.28    1.16
  -2  12   0   26.56    1.15
  -3 -12   0   72.57    2.44
   3 -12   0   69.40    2.10
  -3 -12   0   70.03    1.92
  -3  12   0   65.90    2.19
   4 -12   0   30.60    1.35
  -4 -12   0   34.91    1.79
  -4  12   0   31.71    1.61
  -5  12   0   32.93    1.88
   0 -13   0    0.71    0.34
  -1 -13   0   32.45    1.34
   1 -13   0   33.19    1.28
  -1 -13   0   32.08    0.98
   2 -13   0  135.53    3.35
  -2 -13   0  134.92    3.56
  -2 -13   0  127.84    2.92
  -2  13   0  131.80    3.26
   3 -13   0  108.75    2.92
  -3 -13   0  109.50    2.66
  -3 -13   0  106.28    3.25
  -3  13   0  107.06    3.01
  -4 -13   0   32.58    1.82
   4 -13   0   35.16    1.49
  -4  13   0   36.86    1.75
  -5 -13   0    2.24    0.92
  -5  13   0    3.87    0.86
   0 -14   0  260.01    5.89
  -1 -14   0   45.27    1.67
  -1 -14   0   43.53    1.24
   1 -14   0   47.32    1.62
  -2 -14   0   51.62    1.94
  -2 -14   0   49.61    1.42
   2 -14   0   55.33    1.79
   3 -14   0   48.33    1.73
  -3 -14   0   49.24    2.05
  -3  14   0   46.51    1.81
  -4 -14   0   17.06    1.41
   4 -14   0   18.87    1.12
  -4  14   0   19.14    1.33
  -5 -14   0    6.51    1.16
   0 -15   0    0.44    0.36
  -1 -15   0   58.81    1.56
  -1 -15   0   61.42    2.05
   1 -15   0   61.03    1.99
   2 -15   0   67.42    2.13
  -2 -15   0   64.17    2.29
  -3 -15   0  113.63    3.50
   3 -15   0  116.45    3.17
  -3  15   0  112.88    3.18
  -4 -15   0   17.10    1.46
   4 -15   0   19.96    1.16
  -4  15   0   17.54    1.30
  -5 -15   0    4.89    1.10
  -5  15   0    6.68    1.06
   0 -16   0   93.01    2.72
   1 -16   0   37.94    1.54
  -1 -16   0   37.11    1.15
  -1 -16   0   38.55    1.61
  -2 -16   0   28.62    1.51
   2 -16   0   27.62    1.33
   3 -16   0   47.54    1.83
  -3 -16   0   50.01    2.16
   4 -16   0   12.51    1.01
  -4 -16   0    9.94    1.27
  -4  16   0   10.76    1.11
  -5 -16   0    3.79    1.05
  -5  16   0    6.80    1.05
   0 -17   0    0.58    0.45
   1 -17   0   34.91    1.53
  -1 -17   0   35.21    1.60
  -2 -17   0   57.40    2.26
   2 -17   0   60.64    2.09
  -3 -17   0   83.10    2.98
   3 -17   0   87.84    2.71
  -4 -17   0    0.96    0.78
   4 -17   0    1.84    0.59
  -5 -17   0    2.29    1.01
  -5  17   0    3.47    0.80
   0 -18   0  328.27    7.52
  -1 -18   0   63.79    2.30
   1 -18   0   63.86    2.24
   2 -18   0   17.07    1.11
  -2 -18   0   15.50    1.25
   3 -18   0   30.75    1.53
  -3 -18   0   31.44    1.80
   4 -18   0   10.28    1.13
  -4 -18   0    5.46    1.08
  -5 -18   0    9.25    1.33
   0 -19   0    0.75    0.48
   1 -19   0   83.88    2.71
  -1 -19   0   81.58    2.78
  -2 -19   0   26.15    1.58
   2 -19   0   25.74    1.40
  -3 -19   0   76.01    2.90
   3 -19   0   71.64    2.54
   4 -19   0   22.61    1.40
  -4 -19   0   17.37    1.64
  -5 -19   0    4.74    1.15
   0 -20   0  139.89    3.95
   1 -20   0   55.47    2.13
  -1 -20   0   49.87    2.15
  -2 -20   0   18.21    1.42
   2 -20   0   18.62    1.24
  -3 -20   0   25.39    1.75
   3 -20   0   24.23    1.42
   4 -20   0   15.27    1.34
  -4 -20   0   10.11    1.40
   0 -21   0    0.59    0.54
  -1 -21   0   40.99    1.96
   1 -21   0   41.95    1.89
   2 -21   0   12.64    1.11
  -2 -21   0   14.51    1.32
   3 -21   0   37.52    1.81
  -3 -21   0   35.32    2.07
  -4 -21   0   19.75    1.78
   0 -22   0  106.97    3.40
   1 -22   0   21.08    1.40
  -1 -22   0   21.53    1.49
   2 -22   0   18.11    1.33
  -2 -22   0   18.94    1.50
  -3 -22   0   13.49    1.47
   3 -22   0   12.90    1.17
  -4 -22   0    4.25    1.12
   0 -23   0    0.42    0.54
  -1 -23   0   25.10    1.63
   1 -23   0   23.11    1.51
   2 -23   0   23.98    1.53
  -2 -23   0   27.85    1.79
  -3 -23   0   33.43    2.13
   3 -23   0   36.73    1.89
   0 -24   0   53.80    2.36
  -1 -24   0   12.23    1.28
   1 -24   0   12.51    1.25
   2 -24   0   25.62    1.62
  -2 -24   0   23.99    1.76
  -3 -24   0   29.19    2.04
   3 -24   0   29.91    1.76
   0 -25   0    1.15    0.68
   1 -25   0   30.76    1.82
  -1 -25   0   28.88    1.86
   2 -25   0   30.29    1.80
  -2 -25   0   29.47    1.96
   3 -25   0   60.98    2.61
   0 -26   0   55.80    2.54
   1 -26   0   31.82    1.94
  -1 -26   0   34.50    2.05
   2 -26   0   58.85    2.57
  -2 -26   0   54.54    2.69
   0 -27   0    0.59    0.70
   1 -27   0   26.91    1.83
  -1 -27   0   28.54    1.95
   2 -27   0    4.63    1.02
  -6   0   1   -0.09    0.62
  -5   0   1   11.60    1.12
  -4   0   1   36.18    1.51
  -3   0   1    8.44    0.67
  -2   0   1  714.54   13.74
  -1   0   1   64.25    1.45
   0   0  -1    9.75    0.45
  -1   0  -1  253.05    5.32
  -1   0  -1  248.88    4.99
  -2   0  -1  348.31    7.23
  -2   0  -1  322.87    6.75
  -3   0  -1   12.41    0.81
  -3   0  -1   12.49    1.05
  -4   0  -1    0.61    0.73
  -4   0  -1    0.19    0.47
  -5   0  -1   24.22    1.52
  -5   0  -1   26.96    1.82
  -6  -1   1    1.86    0.77
  -6   1   1    1.05    0.70
  -5  -1   1  144.36    3.90
  -5   1   1  145.29    3.93
  -4  -1   1  117.39    3.09
  -4   1   1  114.14    3.09
  -3  -1   1   11.63    0.72
  -3   1   1   11.48    0.76
  -2  -1   1  106.69    2.41
  -2   1   1  103.66    2.41
  -1  -1   1  415.53    7.89
  -1   1   1  402.90    7.86
   0  -1  -1   85.76    1.90
   0   1  -1   86.52    1.93
  -1  -1  -1  177.43    3.51
  -1  -1  -1  179.47    3.84
  -1   1  -1  168.38    3.58
  -1   1  -1  167.71    3.82
  -2  -1  -1    4.96    0.48
  -2  -1  -1    5.43    0.68
  -2   1  -1    4.69    0.49
  -2   1  -1    5.48    0.68
  -3  -1  -1   23.39    1.30
  -3  -1  -1   25.56    1.11
  -3   1  -1   22.79    1.08
  -3   1  -1   24.20    1.34
  -4  -1  -1  227.04    5.28
  -4  -1  -1  227.77    5.78
  -4   1  -1  225.68    5.72
  -4   1  -1  228.88    5.36
  -5  -1  -1   32.20    1.67
  -5  -1  -1   29.66    1.90
  -5   1  -1   26.24    1.87
  -5   1  -1   27.24    1.61
  -6  -1  -1    2.00    0.80
  -6   1  -1    2.17    0.78
  -6  -2   1    0.49    0.66
  -6   2   1    0.26    0.62
  -5  -2   1    4.59    0.79
  -5   2   1    3.44    0.74
  -4  -2   1   52.99    1.82
  -4  -2   1   52.45    1.84
  -4   2   1   53.25    1.85
  -3  -2   1    1.64    0.36
  -3  -2   1    1.19    0.35
  -3   2   1    1.45    0.39
  -2  -2   1  319.34    6.54
  -2   2   1  335.86    6.58
  -1  -2   1  260.87    5.21
  -1   2   1  268.66    5.18
   0  -2  -1   43.26    1.09
   0   2   1   44.16    1.04
  -1  -2  -1  535.72   10.53
  -1  -2  -1  541.03   11.10
  -1   2  -1  563.36   11.12
  -1   2  -1  559.25   10.65
   1   2   1  553.17   10.43
  -2  -2  -1  236.75    4.96
  -2  -2  -1  246.00    5.42
  -2   2  -1  246.27    5.40
  -2   2  -1  234.82    5.06
  -3  -2  -1   39.48    1.37
  -3  -2  -1   39.23    1.65
  -3   2  -1   36.74    1.40
  -3   2  -1   37.88    1.63
  -4  -2  -1    9.33    0.93
  -4  -2  -1   11.08    1.25
  -4   2  -1    9.02    0.93
  -4   2  -1   11.15    1.27
  -5  -2  -1   16.83    1.60
  -5  -2  -1   18.09    1.33
  -5   2  -1   17.27    1.39
  -5   2  -1   19.83    1.68
  -6  -2  -1   11.72    1.32
  -6   2  -1   14.92    1.44
  -6  -3   1    1.26    0.66
  -6   3   1    0.30    0.64
  -5  -3   1   54.37    2.07
  -5   3   1   50.58    2.09
  -4  -3   1  102.59    2.81
  -4   3   1  103.23    2.87
  -3  -3   1   12.31    0.74
  -3  -3   1   11.40    0.71
  -3   3   1   11.86    0.78
  -2  -3   1  119.07    2.66
  -2  -3   1  121.61    2.69
  -2   3   1  116.77    2.69
  -1  -3   1  360.08    7.30
  -1  -3   1  374.54    7.15
  -1   3   1  367.76    7.11
  -1   3   1  368.55    7.10
   0  -3   1    2.42    0.27
   0  -3  -1    2.71    0.30
  -1  -3  -1  374.03    7.02
  -1  -3  -1  375.17    7.55
   1   3   1  358.90    7.03
  -1   3  -1  352.60    7.55
  -1   3  -1  365.53    7.25
  -2  -3  -1   17.15    0.93
  -2  -3  -1   13.97    0.65
  -2   3  -1   14.97    0.76
  -2   3  -1   14.35    0.91
  -3  -3  -1   14.63    0.84
  -3  -3  -1   15.09    1.13
  -3   3  -1   15.79    1.14
  -3   3  -1   16.91    0.98
  -4  -3  -1  164.60    4.08
  -4  -3  -1  167.74    4.57
  -4   3  -1  168.43    4.25
  -4   3  -1  164.29    4.51
  -5  -3  -1   15.51    1.63
  -5  -3  -1   12.85    1.16
  -5   3  -1   11.41    1.18
  -5   3  -1   12.91    1.52
  -6  -3  -1    2.42    0.83
  -6   3  -1    3.72    0.91
  -6  -4   1    0.20    0.55
  -6   4   1    0.25    0.64
  -5  -4   1    7.67    0.98
  -5   4   1    7.45    0.95
  -4  -4   1   37.50    1.58
  -4  -4   1   39.47    1.55
  -4   4   1   40.87    1.59
  -3  -4   1   14.27    0.80
  -3  -4   1   14.11    0.77
  -3   4   1   13.34    0.59
  -3   4   1   14.82    0.86
  -2  -4   1  381.39    7.67
  -2  -4   1  377.66    7.87
  -2   4   1  390.22    7.56
  -2   4   1  400.81    7.73
  -1  -4   1   58.15    1.38
  -1  -4   1   54.61    1.36
  -1   4   1   55.21    1.31
  -1   4   1   56.51    1.35
   0  -4   1   31.08    0.90
   0  -4  -1   32.24    0.93
   0   4   1   33.47    0.89
  -1  -4  -1  499.41    9.51
  -1  -4  -1  497.85   10.19
   1   4   1  506.03    9.61
  -2  -4  -1  304.50    6.16
  -2  -4  -1  314.48    6.75
  -2   4  -1  299.70    6.36
  -2   4  -1  310.34    6.71
  -3  -4  -1    9.69    1.09
  -3  -4  -1    6.81    0.63
  -3   4  -1    6.50    0.69
  -3   4  -1    9.34    0.98
  -4  -4  -1    9.03    1.19
  -4  -4  -1    8.41    0.84
  -4   4  -1    9.87    1.23
  -4   4  -1    8.53    0.92
  -5  -4  -1    8.84    1.31
  -5  -4  -1    9.51    1.02
  -5   4  -1   11.92    1.21
  -6  -4  -1   15.16    1.43
  -6   4  -1   18.39    1.63
  -6  -5   1    0.20    0.55
  -6   5   1   -0.55    0.57
  -5  -5   1   58.60    2.18
  -5   5   1   60.11    2.26
  -4  -5   1  143.29    3.56
  -4   5   1  140.47    3.66
  -3  -5   1   12.61    0.80
  -3  -5   1   13.10    0.76
  -3   5   1   11.91    0.82
  -3   5   1   10.82    0.55
  -2  -5   1   73.66    1.87
  -2  -5   1   73.20    1.85
  -2   5   1   74.67    1.76
  -2   5   1   76.78    1.89
   1  -5  -1  260.75    5.45
  -1  -5   1  271.50    5.37
  -1  -5   1  264.99    5.53
  -1   5   1  273.08    5.30
  -1   5   1  276.26    5.36
   0  -5  -1   33.67    1.01
   0  -5   1   33.30    0.98
   0   5   1   35.06    0.96
  -1  -5  -1  245.75    5.28
   1  -5   1  251.57    5.19
   1   5   1  236.32    4.89
  -2  -5  -1   13.05    0.86
  -2  -5  -1   12.30    0.59
  -2   5  -1   13.97    0.78
  -3  -5  -1   19.84    0.94
  -3  -5  -1   19.73    1.25
  -3   5  -1   20.99    1.09
  -3   5  -1   20.58    1.24
  -4  -5  -1  158.57    3.89
  -4  -5  -1  160.61    4.49
  -4   5  -1  155.53    4.09
  -5  -5  -1   21.22    1.81
  -5  -5  -1   19.72    1.31
  -5   5  -1   19.75    1.46
  -6   5  -1    2.41    0.90
  -6  -6   1   -0.14    0.57
  -6   6   1   -0.27    0.59
  -5  -6   1    6.09    0.87
  -5   6   1    5.05    0.82
  -4  -6   1   44.04    1.62
  -4  -6   1   43.35    1.74
  -4   6   1   42.98    1.69
  -3  -6   1   10.72    0.79
  -3  -6   1   10.46    0.70
  -3   6   1    9.36    0.75
  -3   6   1    9.28    0.52
  -2  -6   1  453.63    9.07
  -2  -6   1  461.42    9.41
  -2   6   1  475.10    9.13
  -2   6   1  453.41    8.97
  -1  -6   1   86.36    1.96
  -1  -6   1   85.05    2.05
   1  -6  -1   84.96    1.97
  -1   6   1   85.81    1.90
  -1   6   1   87.72    1.98
   0  -6   1   43.01    1.19
   0  -6  -1   41.68    1.20
   0   6   1   41.91    1.14
  -1  -6  -1  693.67   14.02
   1  -6   1  701.73   13.90
   1   6   1  692.35   13.34
  -2  -6  -1  161.18    3.42
   2  -6   1  162.45    3.75
  -2  -6  -1  166.05    3.97
  -2   6  -1  160.49    3.73
  -3  -6  -1   15.79    0.83
  -3  -6  -1   15.95    1.17
  -3   6  -1   16.33    1.01
  -4  -6  -1    0.73    0.71
  -4  -6  -1    0.47    0.43
  -4   6  -1    0.64    0.49
  -5  -6  -1   21.92    1.83
   5  -6   1   23.15    1.31
  -5   6  -1   24.58    1.63
  -6   6  -1    7.16    1.21
  -6  -7   1    1.61    0.66
  -6   7   1    2.56    0.80
  -5  -7   1   85.50    2.74
  -5   7   1   89.34    2.92
   4  -7  -1   85.84    2.32
  -4  -7   1   92.61    2.78
  -4  -7   1   93.25    2.61
  -4   7   1   99.95    2.77
   3  -7  -1   22.77    0.85
  -3  -7   1   23.35    1.00
  -3  -7   1   25.00    1.13
  -3   7   1   24.48    1.10
  -3   7   1   23.04    0.84
  -2  -7   1   60.78    1.64
   2  -7  -1   58.53    1.55
  -2  -7   1   64.07    1.76
  -2   7   1   62.97    1.58
  -2   7   1   66.20    1.70
  -1  -7   1  410.47    8.30
  -1  -7   1  402.24    7.94
   1  -7  -1  401.27    8.21
  -1   7   1  407.94    7.88
  -1   7   1  407.96    7.96
   0  -7  -1   58.98    1.59
   0  -7   1   59.96    1.56
   0   7   1   59.20    1.51
  -1  -7  -1  339.77    7.13
   1  -7   1  331.64    6.99
   2  -7   1   14.03    0.78
  -2  -7  -1   14.22    0.61
  -2  -7  -1   16.07    0.96
  -2   7  -1   15.56    0.85
   3  -7   1   10.62    0.77
  -3  -7  -1    9.68    1.03
  -3  -7  -1    9.34    0.70
  -3   7  -1   12.66    0.91
  -4  -7  -1  102.58    3.32
   4  -7   1   96.05    2.81
  -4   7  -1  102.34    3.05
   5  -7   1   27.57    1.44
  -5  -7  -1   25.63    1.91
  -5   7  -1   28.14    1.75
  -6   7  -1    0.91    0.79
  -6  -8   1    2.64    0.76
  -6   8   1    4.18    0.91
  -5  -8   1    2.04    0.62
  -5   8   1    3.50    0.77
  -4  -8   1   51.49    1.75
   4  -8  -1   45.61    1.54
  -4  -8   1   49.89    1.88
  -4   8   1   44.28    1.79
   3  -8  -1   10.57    0.60
  -3  -8   1   11.62    0.76
  -3  -8   1   10.93    0.84
  -3   8   1   12.17    0.83
  -3   8   1   11.53    0.59
  -2  -8   1  286.86    5.86
   2  -8  -1  277.64    5.94
  -2  -8   1  292.67    6.16
  -2   8   1  290.15    5.90
  -2   8   1  283.19    5.79
   1  -8  -1   78.68    1.92
  -1  -8   1   77.76    1.99
  -1   8   1   76.06    1.87
  -1   8   1   74.35    1.76
   0  -8  -1   55.33    1.56
   0  -8   1   54.45    1.53
   0   8   1   57.51    1.49
   1  -8   1  326.31    6.83
  -1  -8  -1  323.68    6.98
   2  -8   1  147.17    3.50
  -2  -8  -1  148.79    3.12
  -2  -8  -1  147.65    3.75
  -2   8  -1  146.02    3.53
  -3  -8  -1   16.36    1.22
   3  -8   1   15.54    0.92
  -3  -8  -1   16.13    0.83
  -3   8  -1   15.68    1.02
  -4  -8  -1   15.37    1.38
   4  -8   1   15.43    1.02
  -4   8  -1   16.48    1.24
  -5  -8  -1   19.57    1.83
   5  -8   1   18.85    1.25
  -5   8  -1   20.69    1.59
  -6  -9   1    2.62    0.73
  -6   9   1    3.73    0.92
  -5   9   1   78.27    2.70
  -4  -9   1   49.63    1.95
  -4  -9   1   52.48    1.80
  -4   9   1   52.79    1.94
  -3  -9   1   10.71    0.73
  -3  -9   1    9.08    0.82
   3  -9  -1    8.94    0.57
  -3   9   1    8.10    0.54
  -3   9   1    9.36    0.77
  -2  -9   1   80.11    2.03
   2  -9  -1   78.38    2.04
  -2  -9   1   80.23    2.22
  -2   9   1   85.76    2.10
  -2   9   1   83.51    2.01
  -1  -9   1  299.92    6.40
   1  -9  -1  302.08    6.33
  -1   9   1  303.66    6.11
  -1   9   1  300.03    5.99
   0  -9  -1   23.38    0.95
   0  -9   1   24.78    0.94
   0   9   1   23.42    0.89
   1  -9   1   72.91    1.98
  -1  -9  -1   74.46    2.12
  -2  -9  -1   15.13    1.00
   2  -9   1   13.69    0.81
  -2  -9  -1   13.86    0.58
  -2   9  -1   16.05    0.91
  -3  -9  -1   29.29    1.52
   3  -9   1   27.91    1.22
  -3   9  -1   27.68    1.33
  -4  -9  -1  178.36    4.92
   4  -9   1  169.92    4.36
  -4   9  -1  178.94    4.61
  -5  -9  -1   21.25    1.87
   5  -9   1   24.70    1.35
  -5   9  -1   26.01    1.75
  -6 -10   1    1.15    0.67
  -6  10   1    2.22    0.80
  -5 -10   1    2.50    0.66
  -5  10   1    4.80    0.86
  -4 -10   1   22.12    1.16
  -4 -10   1   22.34    1.35
  -4  10   1   22.99    1.28
  -3 -10   1    7.05    0.84
   3 -10  -1    5.87    0.52
  -3 -10   1    5.66    0.59
  -3  10   1    6.67    0.51
  -3  10   1    6.52    0.68
  -2 -10   1  188.76    4.32
   2 -10  -1  184.21    4.12
  -2 -10   1  181.84    3.99
  -2  10   1  185.69    4.06
  -2  10   1  181.55    3.98
  -1 -10   1   95.41    2.47
   1 -10  -1   96.33    2.40
  -1  10   1   97.57    2.20
  -1  10   1   94.48    2.31
   0 -10   1   98.97    2.51
   0 -10  -1   99.34    2.52
   0  10   1   97.99    2.40
   1 -10   1  205.92    4.63
  -1 -10  -1  206.47    4.76
   2 -10   1  109.11    2.79
  -2 -10  -1  111.31    3.04
  -2 -10  -1  102.05    2.34
  -3 -10  -1   18.23    1.29
   3 -10   1   19.51    1.03
  -3  10  -1   19.56    1.15
  -4 -10  -1    0.25    0.69
   4 -10   1    0.45    0.48
  -4  10  -1    0.40    0.53
  -5 -10  -1   20.04    1.84
   5 -10   1   23.26    1.32
  -5  10  -1   24.38    1.71
  -6  11   1    2.92    0.84
  -5  11   1   93.21    3.10
  -4 -11   1   50.02    2.03
  -4 -11   1   51.97    1.78
  -4  11   1   48.03    1.91
  -3 -11   1    3.32    0.66
  -3 -11   1    2.83    0.46
   3 -11  -1    3.55    0.49
  -3  11   1    4.91    0.65
  -3  11   1    4.35    0.45
   2 -11  -1   60.21    1.75
  -2 -11   1   61.87    1.94
  -2 -11   1   61.61    1.70
  -2  11   1   62.70    1.71
  -2  11   1   62.28    1.76
  -1 -11   1  295.24    6.41
   1 -11  -1  297.90    6.33
  -1  11   1  295.83    6.09
  -1  11   1  289.82    5.93
   0 -11  -1   45.68    1.49
   0 -11   1   45.41    1.49
   0  11   1   45.38    1.41
  -1 -11  -1  150.09    3.73
   1 -11   1  151.08    3.60
   2 -11   1    6.87    0.67
  -2 -11  -1    8.77    0.95
   3 -11   1    6.39    0.75
  -3 -11  -1    5.57    0.92
  -3  11  -1    4.94    0.69
   4 -11   1   96.72    2.87
  -4  11  -1   99.19    3.14
  -5 -11  -1   19.05    1.77
   5 -11   1   24.01    1.38
  -5  11  -1   25.58    1.76
  -6 -11  -1    1.40    1.26
  -6  12   1    7.72    1.15
  -5  12   1   11.15    1.22
  -4 -12   1   25.49    1.51
  -4 -12   1   26.08    1.25
  -4  12   1   27.78    1.45
  -3 -12   1   12.03    0.78
  -3 -12   1   11.52    0.97
   3 -12  -1   12.19    0.73
  -3  12   1   10.12    0.66
  -3  12   1   10.99    0.87
  -2 -12   1  247.80    5.56
  -2 -12   1  241.88    5.10
   2 -12  -1  239.57    5.34
  -2  12   1  238.28    5.13
  -2  12   1  239.76    5.17
   1 -12  -1   63.23    1.87
  -1 -12   1   63.66    1.95
  -1  12   1   65.42    1.81
   0 -12   1   41.48    1.44
   0 -12  -1   40.01    1.43
   0  12   1   40.00    1.36
   1 -12   1  235.83    5.32
  -1 -12  -1  236.51    5.47
   2 -12   1  110.85    2.92
  -2 -12  -1  109.25    3.18
  -3 -12  -1   16.16    1.30
   3 -12   1   16.35    1.01
  -3  12  -1   16.85    1.11
  -4 -12  -1   -0.06    0.69
   4 -12   1    1.06    0.53
  -4  12  -1    0.95    0.55
   5 -12   1   15.44    1.18
  -5 -12  -1   11.10    1.49
  -5  12  -1   19.84    1.63
  -5  13   1   67.82    2.58
  -4 -13   1   77.75    2.76
  -4 -13   1   82.20    2.39
  -4  13   1   81.67    2.63
   3 -13  -1   29.82    1.22
  -3 -13   1   32.07    1.22
  -3 -13   1   29.06    1.46
  -3  13   1   31.67    1.16
  -3  13   1   29.29    1.30
   2 -13  -1   40.34    1.44
  -2 -13   1   43.59    1.35
  -2 -13   1   43.28    1.63
  -2  13   1   40.59    1.37
  -2  13   1   39.72    1.39
  -1 -13   1  123.99    3.22
   1 -13  -1  126.15    3.15
  -1  13   1  123.87    3.01
   0 -13   1   23.67    1.11
   0 -13  -1   24.48    1.12
   1 -13   1  101.81    2.73
  -1 -13  -1   98.50    2.85
   2 -13   1   35.60    1.44
  -2 -13  -1   35.85    1.64
   3 -13   1   12.66    0.95
  -3 -13  -1   12.70    1.22
   4 -13   1  123.13    3.47
  -4  13  -1  123.81    3.68
   5 -13   1   12.03    1.12
  -5  13  -1   14.49    1.47
  -5  14   1    9.54    1.12
  -4 -14   1   26.37    1.61
  -4 -14   1   27.34    1.27
  -4  14   1   27.22    1.45
  -3 -14   1   11.91    0.79
   3 -14  -1   10.22    0.76
  -3 -14   1   11.40    1.02
  -3  14   1   10.00    0.83
  -3  14   1    9.59    0.67
  -2 -14   1  166.83    3.77
  -2 -14   1  166.75    4.24
   2 -14  -1  169.62    4.05
  -2  14   1  168.88    3.88
  -2  14   1  166.46    3.87
   1 -14  -1   72.69    2.18
  -1 -14   1   74.77    2.28
  -1  14   1   75.43    2.10
   0 -14   1   62.95    2.01
   0 -14  -1   62.03    1.99
  -1 -14  -1  178.55    4.50
   1 -14   1  179.20    4.34
   2 -14   1  147.99    3.78
  -2 -14  -1  148.90    4.07
  -3 -14  -1   13.81    1.27
   3 -14   1   11.88    0.95
   4 -14   1    1.31    0.56
  -4 -14  -1    0.83    0.79
  -5 -14  -1    5.25    1.20
   5 -14   1    9.28    1.09
  -5  15   1   15.89    1.37
  -4 -15   1   49.90    2.20
  -4  15   1   52.18    2.05
  -3 -15   1   46.43    1.94
  -3 -15   1   48.54    1.60
   3 -15  -1   46.41    1.68
  -3  15   1   47.71    1.76
  -3  15   1   47.14    1.57
  -2 -15   1   26.90    1.37
  -2 -15   1   28.29    1.09
   2 -15  -1   26.46    1.20
  -2  15   1   25.73    1.11
   1 -15  -1   93.25    2.64
  -1 -15   1   93.38    2.72
  -1  15   1   93.08    2.53
   0 -15  -1    1.15    0.46
   0 -15   1    0.97    0.45
  -1 -15  -1  100.38    3.00
   1 -15   1  101.24    2.86
   2 -15   1   31.93    1.45
  -2 -15  -1   34.24    1.68
   3 -15   1   12.57    1.00
  -3 -15  -1   13.82    1.32
  -4 -15  -1   61.96    2.71
   4 -15   1   62.87    2.27
  -5 -15  -1    1.68    1.02
  -5  16   1    7.05    1.04
  -4 -16   1   29.91    1.73
  -4  16   1   29.33    1.57
  -3 -16   1    8.99    1.15
  -3 -16   1    7.21    0.69
   3 -16  -1    6.50    0.68
  -3  16   1    6.10    0.62
  -3  16   1    7.59    0.82
  -2 -16   1  119.49    2.91
   2 -16  -1  116.91    3.21
  -2 -16   1  123.94    3.43
  -2  16   1  116.67    3.04
  -1 -16   1   16.80    1.09
   1 -16  -1   16.95    1.02
   0 -16  -1   29.04    1.37
   0 -16   1   28.84    1.36
  -1 -16  -1  154.16    4.16
   1 -16   1  154.35    4.01
  -2 -16  -1  103.61    3.28
   2 -16   1  103.15    3.01
  -3 -16  -1   27.17    1.71
   3 -16   1   24.39    1.34
  -4 -16  -1    0.36    0.76
   4 -16   1    0.49    0.54
  -5 -16  -1    6.31    1.30
  -5  17   1   37.36    1.98
  -4 -17   1   52.52    2.35
  -4  17   1   56.61    2.19
   3 -17  -1   29.74    1.37
  -3 -17   1   29.13    1.60
  -3  17   1   27.69    1.36
  -2 -17   1   31.27    1.21
  -2 -17   1   31.25    1.56
   2 -17  -1   28.82    1.37
  -1 -17   1   57.67    2.09
   1 -17  -1   55.17    1.97
   0 -17   1   11.29    0.97
   0 -17  -1   11.62    0.97
   1 -17   1   37.19    1.61
  -1 -17  -1   33.84    1.67
  -2 -17  -1   32.13    1.72
   2 -17   1   30.26    1.49
   3 -17   1   25.29    1.41
  -3 -17  -1   25.85    1.70
   4 -17   1   66.87    2.39
  -4 -17  -1   56.09    2.72
  -5 -17  -1    8.83    1.46
  -5  18   1   10.46    1.23
  -4 -18   1   14.07    1.37
  -4  18   1   15.18    1.21
  -3 -18   1    5.34    0.96
   3 -18  -1    5.86    0.83
  -2 -18   1  175.58    4.07
  -2 -18   1  175.68    4.67
   2 -18  -1  173.41    4.45
  -1 -18   1   16.19    1.15
   1 -18  -1   16.68    1.10
   0 -18   1   42.87    1.79
   0 -18  -1   42.15    1.80
   1 -18   1   84.28    2.71
  -1 -18  -1   84.40    2.85
   2 -18   1   78.69    2.60
  -2 -18  -1   75.52    2.82
   3 -18   1   17.63    1.24
  -3 -18  -1   18.01    1.52
  -4 -18  -1   -0.15    0.77
   4 -18   1    1.28    0.65
  -5  19   1   56.40    2.46
  -4 -19   1   25.02    1.73
  -4  19   1   25.80    1.49
   3 -19  -1   37.89    1.66
  -3 -19   1   34.57    1.85
  -2 -19   1   25.38    1.52
   2 -19  -1   28.50    1.42
   1 -19  -1   94.59    2.89
  -1 -19   1   88.75    2.92
   0 -19   1   18.11    1.21
   0 -19  -1   18.54    1.26
  -1 -19  -1   40.67    1.92
   1 -19   1   41.02    1.82
   2 -19   1   18.44    1.27
  -2 -19  -1   17.53    1.43
   3 -19   1   19.76    1.34
  -3 -19  -1   17.70    1.54
  -4 -19  -1   44.54    2.52
   4 -19   1   51.80    2.20
  -4 -20   1   14.08    1.46
   3 -20  -1    6.99    0.96
  -3 -20   1    7.04    1.11
  -2 -20   1   69.89    2.63
   2 -20  -1   71.18    2.45
  -1 -20   1   47.92    2.05
   1 -20  -1   49.16    1.98
   0 -20  -1   54.11    2.19
   0 -20   1   53.06    2.14
  -1 -20  -1   83.50    2.94
   1 -20   1   79.14    2.76
   2 -20   1   36.41    1.79
  -2 -20  -1   37.03    2.00
   3 -20   1   26.21    1.55
  -3 -20  -1   24.27    1.79
   4 -20   1    0.64    0.60
  -4 -20  -1    0.36    0.90
  -4 -21   1    6.04    1.08
   3 -21  -1   18.80    1.26
  -3 -21   1   18.02    1.47
  -2 -21   1   12.00    1.20
   2 -21  -1   11.53    1.03
  -1 -21   1   79.49    2.80
   1 -21  -1   77.97    2.69
   0 -21  -1   12.59    1.17
   0 -21   1   12.06    1.11
  -1 -21  -1   28.41    1.74
   1 -21   1   32.06    1.69
  -2 -21  -1   20.66    1.63
   2 -21   1   22.35    1.45
   3 -21   1   14.99    1.28
  -3 -21  -1   15.94    1.57
   4 -21   1   54.32    2.37
  -4 -22   1    2.89    0.95
  -3 -22   1    1.38    0.74
   3 -22  -1    2.70    0.70
   2 -22  -1   40.08    1.88
  -2 -22   1   42.53    2.10
   1 -22  -1   29.34    1.61
  -1 -22   1   27.46    1.65
   0 -22   1   47.42    2.11
   0 -22  -1   48.37    2.16
   1 -22   1   48.88    2.18
  -1 -22  -1   50.07    2.32
  -2 -22  -1   27.91    1.87
   2 -22   1   28.15    1.66
  -3 -22  -1   14.76    1.58
   3 -22   1   16.01    1.35
   4 -22   1    2.30    0.78
  -4 -23   1    7.61    1.24
  -3 -23   1   15.30    1.49
   3 -23  -1   19.68    1.37
  -2 -23   1   21.42    1.58
   2 -23  -1   21.18    1.42
   1 -23  -1   54.92    2.32
  -1 -23   1   55.97    2.39
   0 -23   1    9.50    1.18
   0 -23  -1   12.06    1.38
   1 -23   1   38.84    1.99
  -1 -23  -1   35.35    2.01
   2 -23   1   17.04    1.39
  -2 -23  -1   18.00    1.62
   3 -23   1    9.68    1.25
  -3 -23  -1    8.87    1.44
  -3 -24   1    5.56    1.14
   2 -24  -1   54.68    2.32
  -2 -24   1   51.34    2.45
  -1 -24   1   24.28    1.66
   1 -24  -1   23.22    1.58
   0 -24   1   44.34    2.15
   0 -24  -1   43.19    2.17
   1 -24   1   66.97    2.71
  -1 -24  -1   65.06    2.78
  -2 -24  -1   23.37    1.85
   2 -24   1   23.66    1.63
   3 -24   1   12.40    1.28
  -3 -25   1   41.75    2.38
  -2 -25   1    9.37    1.38
   2 -25  -1   11.16    1.30
   1 -25  -1   30.66    1.83
  -1 -25   1   29.97    1.88
   0 -25  -1   10.56    1.33
   0 -25   1    9.88    1.33
   1 -25   1   34.44    1.96
  -1 -25  -1   31.86    1.98
  -2 -25  -1   28.43    2.04
   2 -25   1   33.04    1.93
  -2 -26   1   46.77    2.48
   2 -26  -1   47.28    2.28
   1 -26  -1    9.12    1.27
  -1 -26   1    9.29    1.32
   0 -26   1   48.39    2.38
   0 -26  -1   47.55    2.40
   1 -26   1   26.66    1.79
  -1 -26  -1   25.34    1.85
   2 -26   1   38.26    2.14
   2 -27  -1   16.94    1.51
   1 -27  -1   17.04    1.58
  -1 -27   1   16.79    1.60
   0 -27   1    2.23    0.85
   0 -27  -1    2.39    0.89
  -1 -27  -1   12.07    1.66
   1 -27   1   11.52    1.47
  -6   0   2   55.28    2.38
  -5   0   2    4.01    0.76
  -4   0   2   27.58    1.28
  -3   0   2   -0.20    0.32
  -2   0   2   15.68    0.73
  -1   0   2  797.38   15.22
   0   0  -2 1000.00   19.84
   1   0   2    5.00    0.35
  -1   0  -2    4.86    0.61
  -2   0  -2   16.64    0.84
  -2   0  -2   15.69    1.08
  -3   0  -2  142.65    4.02
  -3   0  -2  141.75    3.56
  -4   0  -2    4.39    1.04
  -4   0  -2    4.28    0.73
  -5   0  -2   41.21    2.05
  -5   0  -2   42.16    2.48
  -6   0  -2    0.57    0.74
  -6   0  -2   -0.28    1.18
  -6  -1   2   25.33    1.68
  -6   1   2   25.26    1.70
  -5  -1   2    2.11    0.66
  -5   1   2    2.03    0.67
  -4  -1   2   29.40    1.33
  -4   1   2   29.39    1.35
  -3  -1   2  214.23    4.65
  -3   1   2  206.96    4.63
  -2  -1   2   24.83    0.93
  -2   1   2   22.81    0.90
  -1  -1   2   28.14    0.90
  -1   1   2   25.99    0.84
   0  -1  -2  267.80    5.61
   0   1  -2  264.90    5.63
  -1  -1  -2    0.09    0.37
  -1   1  -2    0.60    0.41
   1   1   2    0.08    0.18
  -2  -1  -2  149.83    3.83
  -2  -1  -2  144.49    3.39
  -2   1  -2  151.22    3.85
  -2   1  -2  148.00    3.45
  -3  -1  -2   36.80    1.46
  -3  -1  -2   35.85    1.80
  -3   1  -2   37.79    1.82
  -3   1  -2   38.28    1.51
  -4  -1  -2    4.55    0.74
  -4  -1  -2    6.81    1.17
  -4   1  -2    5.10    0.80
  -4   1  -2    5.58    1.10
  -5  -1  -2   72.61    2.74
  -5   1  -2   76.55    2.81
  -6   1  -2   31.72    2.04
  -6  -2   2   48.78    2.23
  -6   2   2   48.26    2.24
  -5  -2   2    4.39    0.80
  -5   2   2    4.94    0.81
  -4  -2   2   42.88    1.63
  -4   2   2   42.36    1.65
  -3  -2   2   19.44    0.96
  -3   2   2   20.58    0.98
  -2  -2   2   19.30    0.82
  -2   2   2   18.99    0.79
  -1  -2   2  501.77    9.70
  -1   2   2  494.44    9.61
   0  -2  -2  357.08    7.32
   0   2  -2  351.84    7.35
  -1  -2  -2   28.02    1.19
  -1   2  -2   28.65    1.20
   1   2   2   29.23    0.85
  -2  -2  -2   44.86    1.40
  -2  -2  -2   48.74    1.79
  -2   2  -2   43.07    1.47
  -2   2  -2   45.91    1.76
  -3  -2  -2  160.67    4.41
  -3  -2  -2  162.08    3.89
  -3   2  -2  165.75    4.03
  -3   2  -2  163.67    4.41
  -4  -2  -2    0.69    0.77
  -4  -2  -2    0.03    0.44
  -4   2  -2   -0.12    0.76
  -4   2  -2    0.84    0.52
  -5  -2  -2   41.27    2.58
  -5  -2  -2   41.33    1.99
  -5   2  -2   37.32    2.36
  -5   2  -2   39.20    2.05
  -6  -2  -2    0.17    1.28
  -6   2  -2    0.77    0.78
  -6  -3   2   23.79    1.64
  -6   3   2   23.31    1.69
  -5  -3   2   -0.07    0.48
  -5   3   2    0.23    0.56
  -4  -3   2   41.70    1.61
  -4   3   2   43.74    1.68
  -3  -3   2  328.99    6.85
  -3   3   2  325.08    6.83
  -2  -3   2   49.94    1.44
  -2   3   2   47.74    1.37
  -1  -3   2   22.33    0.81
  -1  -3   2   22.47    0.70
  -1   3   2   23.17    0.74
   0  -3  -2  115.74    2.78
   0   3   2  123.28    2.64
  -1  -3  -2    6.71    0.73
  -1   3  -2    5.22    0.70
   1   3   2    3.77    0.36
  -2  -3  -2  232.76    5.49
  -2  -3  -2  218.72    4.83
  -2   3  -2  240.27    5.49
  -3  -3  -2   33.31    1.32
  -3  -3  -2   34.18    1.74
  -3   3  -2   31.66    1.72
  -3   3  -2   34.63    1.49
  -4  -3  -2    2.82    0.59
  -4  -3  -2    2.60    0.96
  -4   3  -2    2.66    0.92
  -4   3  -2    2.73    0.70
  -5  -3  -2   37.75    1.88
  -5  -3  -2   36.37    2.35
  -5   3  -2   39.30    2.34
  -5   3  -2   38.59    2.01
  -6   3  -2   18.67    1.74
  -6  -4   2   35.13    1.90
  -6   4   2   33.01    1.95
  -5  -4   2   20.66    1.33
  -5   4   2   21.88    1.43
  -4  -4   2   48.46    1.74
  -4   4   2   45.73    1.74
  -3  -4   2    6.61    0.66
  -3   4   2    5.90    0.62
  -2  -4   2   15.34    0.76
  -2   4   2   16.40    0.73
  -1  -4   2  256.20    5.41
  -1  -4   2  262.04    5.39
  -1   4   2  263.94    5.24
  -1   4   2  277.24    5.41
   0  -4  -2  371.56    7.94
   0  -4   2  392.24    7.91
   0   4   2  394.94    7.40
   0   4   2  387.29    7.61
  -1  -4  -2   15.08    0.89
   1   4   2   13.10    0.59
  -1   4  -2   14.07    0.89
  -2  -4  -2   52.97    1.89
  -2  -4  -2   47.06    1.40
  -2   4  -2   48.15    1.84
  -3  -4  -2  109.80    3.38
  -3   4  -2  109.52    3.06
  -3   4  -2  110.20    3.37
  -4  -4  -2    2.93    0.56
  -4  -4  -2    3.66    1.01
  -4   4  -2    4.78    1.05
  -4   4  -2    3.70    0.77
  -5  -4  -2    6.73    1.33
  -5   4  -2   12.35    1.36
  -5   4  -2   11.85    1.64
  -6  -5   2   14.88    1.39
  -6   5   2   16.55    1.50
  -5  -5   2    1.18    0.57
  -5   5   2    2.66    0.71
  -4  -5   2   88.35    2.54
  -4   5   2   83.30    2.23
  -4   5   2   88.41    2.58
  -3  -5   2  328.93    6.82
  -3   5   2  328.86    6.81
  -3   5   2  314.31    6.61
  -2  -5   2    2.45    0.38
  -2   5   2    2.71    0.37
  -2   5   2    2.61    0.37
  -1  -5   2   19.82    0.72
  -1   5   2   19.63    0.79
  -1   5   2   17.62    0.63
   0  -5  -2   83.77    2.17
   0  -5   2   87.98    2.14
   0   5   2   87.63    2.07
  -1  -5  -2   11.47    0.81
   1   5   2   10.62    0.56
  -2  -5  -2  370.83    8.18
  -2   5  -2  366.93    8.15
  -3  -5  -2   35.39    1.79
  -3   5  -2   33.94    1.53
  -3   5  -2   33.94    1.74
  -4  -5  -2    2.48    0.89
  -4  -5  -2    1.56    0.45
  -4   5  -2    1.45    0.63
  -4   5  -2    2.21    0.92
  -5  -5  -2   29.53    2.31
  -5   5  -2   30.67    1.90
   6  -5   2   40.15    2.07
  -6  -6   2   30.26    1.79
  -6   6   2   30.82    1.86
  -5  -6   2    3.90    0.74
  -5   6   2    2.94    0.75
  -4  -6   2   96.59    2.73
  -4   6   2   95.02    2.44
  -4   6   2  100.02    2.81
  -3  -6   2    1.16    0.39
  -3   6   2    0.83    0.41
  -3   6   2    0.75    0.29
  -2  -6   2    6.85    0.47
  -2  -6   2    6.70    0.57
  -2   6   2    5.99    0.51
  -2   6   2    5.94    0.51
   1  -6  -2  138.14    3.10
  -1  -6   2  142.93    3.16
  -1   6   2  146.65    3.16
  -1   6   2  138.12    2.93
   0  -6  -2  233.11    5.18
   0  -6   2  244.29    5.13
   0   6   2  239.92    4.94
   1  -6   2    6.80    0.60
  -1  -6  -2    5.98    0.68
   1   6   2    5.11    0.45
  -2  -6  -2   51.64    1.95
  -3  -6  -2  189.50    5.08
  -3   6  -2  197.07    4.70
  -4  -6  -2    0.62    0.75
  -4   6  -2    0.70    0.57
   5  -6   2   15.72    1.23
  -5  -6  -2   11.13    1.52
  -5   6  -2   18.10    1.57
   6  -6   2    3.63    0.95
  -6  -7   2   18.62    1.47
  -6   7   2   18.55    1.55
  -5  -7   2    5.83    0.85
  -5   7   2    6.67    0.95
  -4  -7   2   67.10    2.11
  -4   7   2   62.75    2.13
  -4   7   2   59.86    1.78
  -3  -7   2  300.73    6.24
  -3  -7   2  280.14    6.22
  -3   7   2  294.42    6.20
  -3   7   2  284.41    6.03
  -2  -7   2   15.18    0.79
  -2  -7   2   15.43    0.73
  -2   7   2   16.62    0.76
  -2   7   2   17.68    0.79
  -1  -7   2   23.66    0.89
   1  -7  -2   23.97    0.84
  -1   7   2   23.76    0.92
  -1   7   2   23.75    0.74
   0  -7   2  150.09    3.40
   0  -7  -2  150.68    3.47
   0   7   2  142.58    3.26
  -1  -7  -2   44.13    1.57
   1  -7   2   43.41    1.45
   1   7   2   44.25    1.31
  -2  -7  -2  274.68    6.40
   2  -7   2  270.25    6.07
  -3  -7  -2   48.92    2.13
   3  -7   2   49.64    1.78
  -4  -7  -2    9.28    1.40
   4  -7   2    7.58    0.89
  -4   7  -2    7.10    0.97
   5  -7   2   39.25    1.89
  -5  -7  -2   35.74    2.35
  -5   7  -2   44.23    2.18
  -6   8   2   29.75    1.87
  -5  -8   2   22.82    1.38
  -5   8   2   24.69    1.53
  -4  -8   2   32.75    1.44
  -4   8   2   33.39    1.50
  -4   8   2   32.61    1.21
  -3  -8   2    5.70    0.63
  -3  -8   2    5.68    0.64
  -3   8   2    5.87    0.66
  -3   8   2    5.25    0.56
  -2  -8   2   17.24    0.84
  -2  -8   2   16.26    0.78
  -2   8   2   16.25    0.80
  -2   8   2   14.75    0.73
  -1  -8   2  230.31    5.02
   1  -8  -2  230.19    4.97
  -1   8   2  227.05    4.61
  -1   8   2  237.77    4.91
   0  -8   2  360.95    7.61
   0  -8  -2  363.72    7.69
   0   8   2  367.67    7.35
  -1  -8  -2   12.32    0.88
   1  -8   2   11.77    0.73
   1   8   2   11.71    0.67
  -2  -8  -2   61.81    2.19
   2  -8   2   61.35    1.94
  -3  -8  -2   88.32    2.96
   3  -8   2   80.97    2.51
  -4  -8  -2    1.87    0.93
   4  -8   2    2.86    0.65
  -4   8  -2    1.78    0.65
  -5  -8  -2   16.69    1.81
   5  -8   2   16.46    1.31
  -5   8  -2   18.25    1.56
  -6   9   2   13.69    1.40
  -5  -9   2    8.84    1.00
  -5   9   2    9.87    1.10
  -4  -9   2   28.89    1.33
  -4  -9   2   24.97    1.30
  -4   9   2   25.75    1.36
  -4   9   2   25.65    1.08
  -3  -9   2  191.35    4.53
  -3  -9   2  201.42    4.53
  -3   9   2  195.66    4.37
  -3   9   2  203.43    4.52
  -2  -9   2    7.02    0.60
  -2  -9   2    6.61    0.61
  -2   9   2    7.24    0.57
  -2   9   2    7.73    0.62
  -1  -9   2   19.84    0.90
   1  -9  -2   20.73    0.86
  -1   9   2   20.60    0.89
  -1   9   2   18.77    0.66
   0  -9  -2  124.58    3.14
   0  -9   2  128.74    3.09
   0   9   2  127.20    2.98
   1  -9   2    2.13    0.44
  -1  -9  -2    1.92    0.52
   1   9   2    2.05    0.40
  -2  -9  -2  165.13    4.32
   2  -9   2  165.96    4.04
   3  -9   2   14.03    1.02
  -3  -9  -2   13.84    1.29
  -4  -9  -2    8.39    1.30
   4  -9   2   10.08    1.01
  -5  -9  -2   28.49    2.22
   5  -9   2   37.89    1.84
  -6  10   2   41.25    2.13
  -5 -10   2   15.12    1.17
  -5  10   2   13.57    1.26
  -4 -10   2   19.48    1.14
  -4 -10   2   20.26    1.21
  -4  10   2   19.89    0.96
  -4  10   2   19.70    1.22
  -3 -10   2    6.97    0.72
  -3 -10   2    6.73    0.72
  -3  10   2    8.06    0.76
  -3  10   2    6.44    0.62
  -2 -10   2   10.91    0.73
   2 -10  -2    9.73    0.59
  -2 -10   2   10.25    0.73
  -2  10   2    9.65    0.68
  -2  10   2    9.60    0.63
   1 -10  -2  272.14    5.81
  -1 -10   2  276.23    5.88
  -1  10   2  252.59    5.30
  -1  10   2  271.40    5.67
   0 -10  -2  287.96    6.23
   0 -10   2  286.47    6.13
   0  10   2  269.00    5.87
  -1 -10  -2   21.41    1.18
   1 -10   2   22.47    1.05
   1  10   2   22.16    0.98
  -2 -10  -2   21.53    1.32
   2 -10   2   19.75    1.05
  -3 -10  -2   87.69    3.06
   3 -10   2   84.29    2.60
  -4 -10  -2    0.93    0.87
   4 -10   2    1.22    0.58
  -5 -10  -2   20.81    1.95
   5 -10   2   22.20    1.45
  -6  11   2   20.87    1.61
  -5 -11   2    1.39    0.61
  -5  11   2    2.33    0.71
  -4 -11   2   41.89    1.68
  -4 -11   2   43.34    1.76
  -4  11   2   43.69    1.49
  -4  11   2   45.58    1.80
  -3 -11   2  145.45    3.59
  -3 -11   2  147.80    3.73
  -3  11   2  146.96    3.49
  -3  11   2  148.64    3.57
  -2 -11   2   15.57    0.85
  -2 -11   2   15.74    0.90
   2 -11  -2   15.32    0.76
  -2  11   2   15.35    0.76
  -2  11   2   15.46    0.84
  -1 -11   2   20.11    0.98
   1 -11  -2   18.62    0.92
  -1  11   2   19.91    0.93
  -1  11   2   19.05    0.68
   0 -11  -2   82.34    2.43
   0 -11   2   87.01    2.38
   0  11   2   90.77    2.32
   1 -11   2    9.39    0.76
  -1 -11  -2   10.61    0.91
   1  11   2   10.97    0.74
  -2 -11  -2   83.93    2.71
   2 -11   2   77.45    2.38
   3 -11   2   49.30    1.87
  -3 -11  -2   52.21    2.32
  -4 -11  -2    6.47    1.22
   4 -11   2    7.81    0.96
   5 -11   2   42.58    1.96
  -6  12   2   35.57    2.04
  -5 -12   2    0.89    0.57
  -5  12   2    0.42    0.55
  -4 -12   2   64.38    2.27
  -4 -12   2   70.58    2.23
  -4  12   2   62.63    1.94
  -4  12   2   66.56    2.25
  -3 -12   2    2.57    0.50
  -3 -12   2    1.90    0.57
  -3  12   2    2.79    0.52
  -3  12   2    2.16    0.44
  -2 -12   2   20.88    0.98
  -2 -12   2   19.51    1.04
   2 -12  -2   17.61    0.87
  -2  12   2   20.27    0.87
  -2  12   2   20.65    0.98
   1 -12  -2  248.53    5.50
  -1 -12   2  244.86    5.55
  -1  12   2  233.37    4.91
  -1  12   2  252.23    5.34
   0 -12   2  193.36    4.55
   0 -12  -2  203.79    4.67
   0  12   2  185.27    4.34
  -1 -12  -2   39.04    1.65
   1 -12   2   39.25    1.49
   1  12   2   38.85    1.42
  -2 -12  -2   15.70    1.23
   2 -12   2   15.36    1.00
  -3 -12  -2  118.84    3.82
   3 -12   2  123.05    3.40
  -4 -12  -2    0.55    0.83
   4 -12   2    1.05    0.59
   5 -12   2   23.12    1.51
  -5 -12  -2   20.70    2.10
  -6  13   2   10.96    1.40
  -5 -13   2    5.03    0.81
  -5  13   2    7.92    1.02
  -4 -13   2   39.89    1.66
  -4 -13   2   38.82    1.76
  -4  13   2   42.50    1.74
  -4  13   2   39.76    1.47
  -3 -13   2  131.91    3.32
  -3 -13   2  127.74    3.49
  -3  13   2  129.06    3.22
  -3  13   2  129.07    3.26
  -2 -13   2   19.70    0.97
   2 -13  -2   20.21    0.95
  -2 -13   2   18.77    1.08
  -2  13   2   19.03    1.00
  -2  13   2   18.19    0.86
   1 -13  -2   15.15    0.91
  -1 -13   2   16.75    0.99
  -1  13   2   15.28    0.63
  -1  13   2   17.32    0.91
   0 -13  -2   63.10    2.05
   0 -13   2   58.75    1.95
   0  13   2   63.20    1.90
   1 -13   2    7.42    0.76
  -1 -13  -2    7.35    0.92
   1  13   2    6.90    0.72
  -2 -13  -2  110.35    3.42
   2 -13   2  110.58    3.09
  -3 -13  -2   28.38    1.76
   3 -13   2   28.78    1.45
  -4 -13  -2   15.01    1.58
   4 -13   2   18.07    1.25
  -5 -13  -2   19.89    2.03
   5 -13   2   25.37    1.55
  -5 -14   2    1.67    0.65
  -5  14   2    3.41    0.79
  -4 -14   2   31.51    1.47
  -4 -14   2   28.67    1.57
  -4  14   2   31.06    1.52
  -4  14   2   30.35    1.27
  -3 -14   2   16.82    1.00
  -3 -14   2   15.17    1.11
  -3  14   2   16.54    1.00
  -3  14   2   16.93    0.95
   2 -14  -2   29.04    1.21
  -2 -14   2   29.63    1.22
  -2 -14   2   30.47    1.39
  -2  14   2   28.72    1.09
  -2  14   2   32.40    1.29
  -1 -14   2  167.45    4.09
   1 -14  -2  161.51    4.00
  -1  14   2  156.15    3.82
   0 -14  -2  144.92    3.71
   0 -14   2  138.76    3.62
   0  14   2  136.90    3.46
  -1 -14  -2   56.00    2.11
   1 -14   2   55.06    1.91
   2 -14   2   27.54    1.34
  -2 -14  -2   23.83    1.54
  -3 -14  -2   76.57    2.95
   3 -14   2   77.02    2.56
  -4 -14  -2    1.48    0.94
   4 -14   2    1.70    0.66
   5 -14   2   14.92    1.28
  -5 -14  -2    7.64    1.51
  -5  15   2   10.50    1.17
  -4 -15   2   34.96    1.57
  -4 -15   2   33.16    1.71
  -4  15   2   33.12    1.59
  -3 -15   2  137.64    3.83
  -3 -15   2  145.49    3.59
  -3  15   2  137.41    3.51
  -3  15   2  139.99    3.52
  -2 -15   2   23.86    1.25
  -2 -15   2   22.82    1.08
   2 -15  -2   21.20    1.07
  -2  15   2   21.83    1.10
  -2  15   2   20.83    0.95
   1 -15  -2   33.92    1.44
  -1 -15   2   34.32    1.50
  -1  15   2   33.41    1.38
   0 -15  -2   35.37    1.56
   0 -15   2   34.14    1.50
   0  15   2   34.62    1.41
  -1 -15  -2    3.81    0.76
   1 -15   2    5.89    0.84
  -2 -15  -2  103.97    3.38
   2 -15   2  100.59    3.00
   3 -15   2   23.17    1.37
  -3 -15  -2   27.00    1.76
  -4 -15  -2   11.49    1.53
   4 -15   2   14.46    1.20
   5 -15   2   16.96    1.36
  -5  16   2    3.60    0.78
  -4 -16   2   35.86    1.60
  -4 -16   2   33.02    1.75
  -4  16   2   32.47    1.56
  -3 -16   2    4.74    0.64
  -3 -16   2    5.22    0.90
  -3  16   2    4.64    0.62
  -3  16   2    5.16    0.67
  -2 -16   2   32.59    1.51
   2 -16  -2   30.68    1.34
  -2 -16   2   30.75    1.29
  -2  16   2   31.07    1.36
   1 -16  -2   88.14    2.66
  -1 -16   2   90.46    2.74
  -1  16   2   86.41    2.53
   0 -16  -2   97.57    2.94
   0 -16   2   95.85    2.88
   0  16   2   94.82    2.72
   1 -16   2   35.15    1.56
  -1 -16  -2   34.24    1.72
  -2 -16  -2   23.96    1.60
   2 -16   2   20.19    1.26
   3 -16   2   51.79    2.07
  -3 -16  -2   49.18    2.41
  -4 -16  -2    0.46    0.89
   4 -16   2    0.68    0.58
  -5  17   2    6.30    0.93
  -4 -17   2   22.41    1.52
  -4 -17   2   23.87    1.36
  -4  17   2   22.68    1.34
  -3 -17   2   96.38    2.76
  -3 -17   2   99.55    3.13
  -3  17   2   99.68    2.80
  -3  17   2   95.92    2.75
   2 -17  -2   16.68    1.02
  -2 -17   2   16.43    1.15
  -2 -17   2   14.53    0.95
  -2  17   2   16.42    1.02
   1 -17  -2   27.21    1.38
  -1 -17   2   26.80    1.42
  -1  17   2   25.73    1.28
   0 -17   2   67.22    2.33
   0 -17  -2   69.08    2.40
   0  17   2   65.34    2.20
  -1 -17  -2    4.60    0.90
   1 -17   2    3.03    0.70
   2 -17   2   95.71    2.97
  -2 -17  -2   96.51    3.34
   3 -17   2   11.27    1.08
  -3 -17  -2   13.23    1.42
   4 -17   2    7.06    1.01
  -4 -17  -2    4.23    1.18
  -5  18   2    5.92    0.94
  -4 -18   2   17.93    1.46
  -4  18   2   21.78    1.33
  -3 -18   2    1.24    0.62
  -3 -18   2    1.48    0.47
  -3  18   2    0.99    0.43
  -2 -18   2   26.40    1.45
   2 -18  -2   24.83    1.29
  -2 -18   2   24.70    1.20
  -2  18   2   23.84    1.27
  -1 -18   2   82.14    2.68
   1 -18  -2   77.64    2.60
  -1  18   2   78.92    2.47
   0 -18  -2  157.57    4.32
   0 -18   2  157.27    4.25
   1 -18   2   23.19    1.39
  -1 -18  -2   26.09    1.60
  -2 -18  -2   15.22    1.43
   2 -18   2   17.73    1.26
   3 -18   2   40.77    1.88
  -3 -18  -2   39.10    2.23
  -4 -18  -2    0.46    0.92
   4 -18   2    1.81    0.70
  -5  19   2   16.80    1.41
  -4 -19   2   14.98    1.39
  -3 -19   2   71.01    2.34
  -3 -19   2   68.01    2.61
  -3  19   2   66.27    2.26
  -2 -19   2   14.28    1.18
   2 -19  -2   14.02    1.05
  -2 -19   2   12.93    0.95
  -2  19   2   16.74    1.07
  -1 -19   2   36.05    1.76
   1 -19  -2   40.91    1.80
  -1  19   2   36.94    1.65
   0 -19   2   46.57    2.03
   0 -19  -2   48.63    2.09
   1 -19   2   11.03    1.20
  -1 -19  -2    8.67    1.16
   2 -19   2   58.22    2.31
  -2 -19  -2   61.31    2.64
   3 -19   2   14.54    1.24
  -3 -19  -2    8.74    1.31
   4 -19   2   30.74    1.73
  -4 -19  -2   22.17    2.05
  -4 -20   2   18.88    1.53
  -3 -20   2    0.60    0.62
  -3  20   2    1.23    0.46
  -2 -20   2   20.07    1.40
  -2 -20   2   23.95    1.22
   2 -20  -2   20.64    1.27
  -2  20   2   19.69    1.23
  -1 -20   2   76.81    2.72
   1 -20  -2   76.68    2.70
   0 -20   2   78.44    2.76
   0 -20  -2   76.37    2.78
   1 -20   2   37.72    1.86
  -1 -20  -2   34.93    1.96
  -2 -20  -2   14.01    1.46
   2 -20   2   11.95    1.16
  -3 -20  -2   40.07    2.33
   3 -20   2   39.67    1.97
   4 -20   2    2.63    0.84
  -4 -21   2    9.39    1.24
  -3 -21   2   58.70    2.53
  -3  21   2   59.42    2.20
   2 -21  -2   20.95    1.33
  -2 -21   2   19.56    1.43
   1 -21  -2   27.57    1.63
  -1 -21   2   26.77    1.61
   0 -21  -2   35.50    1.87
   0 -21   2   33.62    1.81
  -1 -21  -2    9.14    1.31
   1 -21   2    8.15    1.13
  -2 -21  -2   46.53    2.41
   2 -21   2   47.92    2.19
  -3 -21  -2    7.75    1.28
   3 -21   2   11.39    1.24
  -4 -22   2   17.89    1.59
  -3 -22   2    0.84    0.74
   2 -22  -2   21.78    1.41
  -2 -22   2   20.24    1.51
  -1 -22   2   66.44    2.62
   1 -22  -2   64.28    2.56
   0 -22  -2   56.11    2.42
   0 -22   2   56.00    2.41
  -1 -22  -2   40.90    2.21
   1 -22   2   40.44    2.04
  -2 -22  -2    5.73    1.17
   2 -22   2    4.95    1.00
   3 -22   2   28.48    1.77
  -3 -22  -2   24.04    2.00
  -4 -23   2   29.38    1.97
  -3 -23   2   40.66    2.21
   2 -23  -2   11.73    1.19
  -2 -23   2   11.75    1.28
   1 -23  -2   22.28    1.59
  -1 -23   2   20.38    1.55
   0 -23   2   10.27    1.31
   0 -23  -2    9.75    1.29
   1 -23   2    7.36    1.18
  -1 -23  -2    7.70    1.26
  -2 -23  -2   31.37    2.10
   2 -23   2   33.12    1.93
  -3 -24   2    3.54    1.01
  -2 -24   2   15.46    1.46
   2 -24  -2   16.71    1.40
  -1 -24   2   39.55    2.12
   1 -24  -2   38.26    2.06
   0 -24  -2   19.97    1.59
   0 -24   2   20.23    1.56
  -1 -24  -2   37.63    2.22
   1 -24   2   35.28    2.01
   2 -24   2   13.62    1.50
  -2 -24  -2   12.67    1.63
  -3 -25   2   39.06    2.34
  -2 -25   2   15.15    1.49
   2 -25  -2   14.50    1.42
  -1 -25   2   13.91    1.45
   1 -25  -2   15.35    1.50
   0 -25   2   13.56    1.39
   0 -25  -2   16.76    1.53
  -1 -25  -2    8.95    1.36
   1 -25   2    7.58    1.22
  -2 -26   2   25.13    1.88
   1 -26  -2   30.23    1.99
  -1 -26   2   29.57    1.94
   0 -26   2   36.51    2.10
   0 -26  -2   32.16    2.06
  -1 -26  -2   38.21    2.35
   1 -27  -2   21.73    1.82
   0 -27  -2   17.34    1.66
  -6   0   3    1.78    0.74
  -5   0   3   10.66    1.10
  -4   0   3   14.47    1.05
  -3   0   3   59.49    1.86
  -2   0   3  168.69    3.80
  -1   0   3    0.29    0.26
   0   0  -3   54.61    1.73
  -1   0  -3  332.44    7.33
   1   0   3  320.50    6.50
  -2   0  -3   44.20    1.92
  -3   0  -3   10.59    1.35
  -4   0  -3   44.08    2.43
  -6  -1   3   10.15    1.25
  -6   1   3    8.88    1.16
  -5  -1   3  104.46    3.18
  -5   1   3  104.44    3.21
  -4  -1   3    8.50    0.88
  -4   1   3    8.80    0.90
  -3  -1   3    6.98    0.73
  -3   1   3    6.08    0.66
  -2  -1   3  280.62    5.96
  -2   1   3  288.28    5.95
  -1  -1   3  127.60    2.91
  -1   1   3  124.84    2.85
   0  -1  -3   72.09    2.07
   0   1  -3   69.57    2.07
  -1  -1  -3    5.42    0.80
  -1   1  -3    5.26    0.80
   1   1   3    4.43    0.47
  -2  -1  -3   21.50    1.40
  -2   1  -3   21.63    1.38
  -3  -1  -3  129.54    4.08
  -3   1  -3  137.28    4.11
  -4  -1  -3  107.58    3.91
  -4   1  -3  108.49    3.95
  -5  -1  -3   -0.42    1.08
  -5   1  -3   -0.39    1.13
  -6  -2   3    4.26    0.90
  -6   2   3    4.00    0.90
  -5  -2   3   24.79    1.52
  -5   2   3   29.07    1.63
  -4  -2   3   54.90    1.96
  -4   2   3   55.52    1.96
  -3  -2   3   58.06    1.83
  -3   2   3   56.53    1.79
  -2  -2   3  131.91    3.15
  -2   2   3  135.48    3.11
  -1  -2   3    5.88    0.44
  -1  -2   3    5.60    0.53
  -1   2   3    5.84    0.52
   0  -2  -3  120.53    3.06
   0   2  -3  124.05    3.11
  -1  -2  -3  365.77    7.95
  -1   2  -3  350.31    7.93
   1   2   3  360.05    7.15
  -2  -2  -3   27.58    1.54
  -2   2  -3   29.76    1.58
  -3  -2  -3   10.01    1.33
  -3   2  -3   11.12    1.40
  -4  -2  -3   25.34    1.96
  -4   2  -3   24.37    1.97
  -5   2  -3    1.29    1.21
  -6  -3   3    3.96    0.89
  -6   3   3    3.60    0.90
  -5  -3   3   86.09    2.83
  -5   3   3   83.17    2.81
  -4  -3   3   26.42    1.34
  -4   3   3   27.24    1.34
  -3  -3   3    9.99    0.83
  -3   3   3    8.16    0.78
  -2  -3   3  178.62    4.00
  -2   3   3  176.81    3.91
  -1  -3   3   42.79    1.20
  -1  -3   3   39.95    1.30
  -1   3   3   42.13    1.22
   0  -3  -3   77.41    2.18
   0   3   3   74.80    1.96
  -1  -3  -3    8.68    0.94
   1   3   3    7.49    0.60
  -1   3  -3    9.52    1.02
  -2  -3  -3   19.03    1.32
  -2   3  -3   15.89    1.27
  -3  -3  -3   49.73    2.29
  -3   3  -3   44.47    2.21
  -4  -3  -3   46.42    2.54
  -4   3  -3   49.89    2.59
  -5  -3  -3    0.33    1.12
  -5   3  -3   -1.20    1.04
  -6  -4   3    2.77    0.80
  -6   4   3    3.30    0.88
  -5  -4   3    9.36    1.09
  -5   4   3   11.92    1.17
  -4  -4   3   39.92    1.63
  -4   4   3   34.57    1.56
  -3  -4   3   79.07    2.28
  -3   4   3   76.90    2.19
  -2  -4   3   86.22    2.31
  -2   4   3   89.26    2.21
  -1  -4   3   15.28    0.67
  -1   4   3   15.55    0.68
   0  -4   3   41.94    1.36
   0  -4  -3   40.11    1.46
   0   4   3   40.33    1.30
  -1  -4  -3  375.86    8.34
  -1   4  -3  378.16    8.33
   1   4   3  377.07    7.56
  -2  -4  -3   14.29    1.21
  -2   4  -3   13.26    1.21
  -3  -4  -3    1.71    0.84
  -3   4  -3    1.58    0.88
  -4  -4  -3   22.64    1.87
  -4   4  -3   17.97    1.78
  -5  -4  -3    1.70    1.19
  -6  -5   3   11.61    1.29
  -6   5   3   12.23    1.34
  -5  -5   3   70.00    2.51
  -5   5   3   67.74    2.49
  -4  -5   3   15.70    1.12
  -4   5   3   14.82    1.09
  -3  -5   3    5.74    0.69
  -3   5   3    5.59    0.65
  -2  -5   3  193.86    4.32
  -2   5   3  189.56    4.14
  -1  -5   3  103.60    2.48
  -1   5   3  105.36    2.57
  -1   5   3  101.28    2.33
   0  -5  -3   69.37    2.08
   0  -5   3   70.38    1.98
   0   5   3   73.53    1.92
   0   5   3   72.08    1.66
  -1  -5  -3    2.95    0.67
   1   5   3    2.18    0.43
  -2  -5  -3   13.43    1.38
   2   5   3   11.66    0.64
  -2   5  -3   11.26    1.14
  -3  -5  -3   54.21    2.43
  -3   5  -3   52.91    2.37
  -4  -5  -3   74.75    3.19
  -4   5  -3   80.40    3.23
  -5  -5  -3    1.31    1.17
  -6  -6   3    3.01    0.79
  -6   6   3    2.42    0.81
  -5  -6   3   18.31    1.35
  -5   6   3   14.91    1.29
  -4  -6   3   47.73    1.84
  -4   6   3   47.61    1.81
  -4   6   3   45.21    1.61
  -3  -6   3   56.91    1.85
  -3   6   3   54.29    1.73
  -3   6   3   54.07    1.74
  -2  -6   3  132.57    3.17
  -2   6   3  127.71    3.12
  -2   6   3  129.90    2.97
  -1  -6   3    4.95    0.49
  -1   6   3    5.93    0.61
  -1   6   3    4.05    0.40
   0  -6   3  105.21    2.64
   0  -6  -3  100.92    2.75
   0   6   3  102.12    2.55
  -1  -6  -3  584.39   12.31
   1  -6   3  584.24   12.06
   1   6   3  577.57   11.44
  -2  -6  -3   18.12    1.34
   2   6   3   19.34    0.83
  -3  -6  -3    9.28    1.34
  -4  -6  -3   22.16    1.87
  -5  -6  -3    3.28    1.24
   5  -6   3    3.17    0.80
  -6  -7   3    7.25    1.07
  -6   7   3    7.38    1.17
  -5  -7   3   60.82    2.31
  -5   7   3   61.46    2.34
  -4  -7   3   13.29    1.06
  -4   7   3   14.78    1.10
  -4   7   3   12.71    0.88
  -3  -7   3   36.67    1.46
  -3   7   3   36.94    1.39
  -3   7   3   34.99    1.36
  -2  -7   3  180.52    4.12
  -2  -7   3  174.94    4.01
  -2   7   3  185.40    4.13
  -2   7   3  182.49    3.94
  -1  -7   3   89.40    2.27
   1  -7  -3   86.45    2.27
  -1   7   3   90.10    2.32
   0  -7   3  103.78    2.64
   0  -7  -3   99.44    2.74
   0   7   3  101.79    2.57
   1  -7   3    4.78    0.66
  -1  -7  -3    5.99    0.88
   1   7   3    4.48    0.56
  -2  -7  -3   31.16    1.66
   2  -7   3   27.86    1.31
   2   7   3   27.68    1.06
  -3  -7  -3   49.91    2.37
   3  -7   3   46.27    1.86
  -4  -7  -3   59.66    2.87
   4  -7   3   61.78    2.36
  -5  -7  -3    5.31    1.42
   5  -7   3    4.84    0.95
  -6  -8   3    0.91    0.61
  -6   8   3    1.69    0.77
  -5  -8   3    8.95    1.05
  -5   8   3    7.68    0.99
  -4  -8   3   21.31    1.26
  -4   8   3   19.70    1.24
  -4   8   3   19.50    1.06
  -3  -8   3   31.47    1.36
  -3   8   3   32.08    1.29
  -3   8   3   31.65    1.30
  -2  -8   3  108.86    2.77
  -2  -8   3  108.56    2.68
  -2   8   3  108.74    2.77
  -2   8   3  105.83    2.56
  -1  -8   3   13.12    0.75
   1  -8  -3   11.93    0.76
  -1   8   3   12.94    0.80
   0  -8  -3   68.99    2.12
   0  -8   3   69.91    2.01
   0   8   3   66.29    1.94
  -1  -8  -3  169.47    4.41
   1  -8   3  173.94    4.18
   1   8   3  170.24    3.89
   2  -8   3   20.55    1.15
  -2  -8  -3   21.93    1.44
   2   8   3   20.73    0.94
   3  -8   3   12.29    1.04
  -3  -8  -3   15.73    1.72
  -4  -8  -3   21.86    1.88
   4  -8   3   21.34    1.43
   5  -8   3    4.54    0.94
  -5  -8  -3    3.25    1.25
  -6   9   3   11.59    1.31
  -5  -9   3   84.83    2.84
  -5   9   3   86.31    2.89
  -4  -9   3    5.27    0.77
  -4   9   3    4.42    0.63
  -4   9   3    4.81    0.73
  -3  -9   3   27.43    1.28
  -3  -9   3   26.60    1.11
  -3   9   3   29.48    1.23
  -3   9   3   29.42    1.25
  -2  -9   3  202.60    4.63
  -2  -9   3  206.09    4.64
  -2   9   3  210.60    4.65
  -2   9   3  202.33    4.39
  -1  -9   3   78.44    2.16
   1  -9  -3   76.05    2.15
  -1   9   3   77.86    2.19
   0  -9   3   62.06    1.94
   0  -9  -3   64.43    2.07
   0   9   3   66.01    1.91
   1  -9   3    3.16    0.59
  -1  -9  -3    2.84    0.71
   1   9   3    3.59    0.52
  -2  -9  -3   15.23    1.31
   2  -9   3   13.43    1.00
   2   9   3   15.20    0.86
  -3  -9  -3   58.40    2.55
   3  -9   3   52.66    2.05
  -4  -9  -3   76.23    3.38
   4  -9   3   87.78    2.94
  -5  -9  -3    3.31    1.26
   5  -9   3    4.07    0.93
  -6  10   3    6.39    1.03
  -5 -10   3    7.33    0.98
  -5  10   3    7.44    1.00
  -4 -10   3   17.84    1.19
  -4  10   3   18.47    1.06
  -4  10   3   18.34    1.21
  -3 -10   3   19.87    1.00
  -3 -10   3   21.08    1.15
  -3  10   3   21.02    1.10
  -3  10   3   21.66    1.07
  -2 -10   3  101.68    2.65
  -2 -10   3   98.71    2.67
  -2  10   3  100.09    2.67
  -2  10   3   97.86    2.41
  -1 -10   3   62.63    1.90
   1 -10  -3   60.54    1.88
  -1  10   3   62.88    1.91
   0 -10  -3   55.40    1.95
   0 -10   3   59.69    1.86
   0  10   3   53.82    1.75
  -1 -10  -3  106.76    3.13
   1 -10   3   99.32    2.84
   1  10   3  105.48    2.71
   2 -10   3   13.71    0.98
  -2 -10  -3   13.23    1.28
   2  10   3   13.65    0.87
  -3 -10  -3   11.56    1.53
   3 -10   3    9.56    1.00
   4 -10   3   22.25    1.50
  -4 -10  -3   21.98    1.92
   5 -10   3    2.34    0.79
  -6  11   3   12.69    1.35
  -5 -11   3   53.89    2.17
  -5  11   3   51.65    2.16
  -4 -11   3    8.72    0.94
  -4  11   3    6.79    0.78
  -4  11   3    8.31    0.92
  -3 -11   3    5.58    0.71
  -3 -11   3    4.62    0.64
  -3  11   3    4.89    0.61
  -3  11   3    7.11    0.76
  -2 -11   3  159.43    3.84
  -2 -11   3  153.75    3.79
  -2  11   3  162.85    3.82
  -2  11   3  152.46    3.48
   1 -11  -3   51.30    1.74
  -1 -11   3   51.02    1.72
  -1  11   3   54.29    1.76
   0 -11  -3   62.32    2.16
   0 -11   3   64.04    2.04
   0  11   3   66.69    2.00
   1 -11   3    3.15    0.61
  -1 -11  -3    3.02    0.75
   1  11   3    3.18    0.54
  -2 -11  -3   12.48    1.43
   2 -11   3   10.26    0.90
  -3 -11  -3   58.02    2.64
   3 -11   3   58.55    2.18
   4 -11   3   54.42    2.29
  -4 -11  -3   48.46    2.74
  -6  12   3    8.91    1.17
  -5  12   3   13.21    1.23
  -4 -12   3   28.07    1.46
  -4  12   3   27.22    1.29
  -4  12   3   27.44    1.42
  -3 -12   3   31.08    1.41
  -3 -12   3   31.18    1.36
  -3  12   3   32.04    1.31
  -3  12   3   32.50    1.40
  -2 -12   3   86.29    2.45
   2 -12  -3   85.90    2.33
  -2 -12   3   85.56    2.47
  -2  12   3   81.23    2.12
  -2  12   3   84.82    2.45
   1 -12  -3   21.40    1.12
  -1 -12   3   21.33    1.11
  -1  12   3   20.37    1.08
   0 -12  -3   46.71    1.84
   0 -12   3   48.17    1.73
   0  12   3   46.43    1.66
   1 -12   3  252.96    6.03
  -1 -12  -3  269.16    6.38
   1  12   3  262.08    5.78
  -2 -12  -3   23.91    1.61
   2 -12   3   22.57    1.28
   3 -12   3    9.07    1.04
  -3 -12  -3    7.74    1.25
   4 -12   3   22.65    1.48
  -4 -12  -3   18.23    1.85
  -5  13   3   53.81    2.22
  -4 -13   3   10.07    1.00
  -4  13   3   10.22    0.99
  -4  13   3   10.37    0.90
  -3 -13   3    7.66    0.81
  -3 -13   3    8.76    0.88
  -3  13   3    7.86    0.82
  -3  13   3    6.84    0.72
  -2 -13   3  124.27    3.26
   2 -13  -3  129.18    3.23
  -2 -13   3  125.47    3.35
  -2  13   3  128.01    3.29
   1 -13  -3   45.78    1.72
  -1 -13   3   44.76    1.70
  -1  13   3   44.06    1.65
   0 -13   3   62.28    2.08
   0 -13  -3   66.63    2.27
   0  13   3   62.36    2.03
  -1 -13  -3    3.66    0.83
   1 -13   3    2.25    0.60
   1  13   3    2.98    0.58
   2 -13   3   26.97    1.41
  -2 -13  -3   30.78    1.79
   3 -13   3   54.19    2.12
  -3 -13  -3   53.04    2.59
   4 -13   3   57.26    2.33
  -4 -13  -3   48.59    2.76
  -5  14   3    6.42    0.92
  -4 -14   3   25.66    1.41
  -4  14   3   23.96    1.26
  -4  14   3   23.39    1.33
  -3 -14   3   50.52    1.91
  -3 -14   3   56.28    1.95
  -3  14   3   52.09    1.75
  -3  14   3   54.17    1.91
  -2 -14   3   40.13    1.58
   2 -14  -3   41.01    1.53
  -2 -14   3   40.42    1.64
  -2  14   3   38.73    1.58
  -1 -14   3   41.37    1.68
   1 -14  -3   43.68    1.71
  -1  14   3   41.78    1.64
   0 -14   3   68.37    2.32
   0 -14  -3   73.27    2.49
   0  14   3   77.14    2.31
  -1 -14  -3  219.40    5.64
   1 -14   3  212.41    5.27
   1  14   3  218.90    5.08
  -2 -14  -3   16.87    1.44
   2 -14   3   18.63    1.23
  -3 -14  -3    7.86    1.28
   3 -14   3   11.15    1.20
   4 -14   3   11.02    1.25
  -4 -14  -3    6.88    1.42
  -5  15   3   41.51    1.97
  -4 -15   3   14.79    1.17
  -4  15   3   15.12    1.11
  -4  15   3   14.02    1.04
  -3 -15   3   20.89    1.20
  -3 -15   3   20.70    1.24
  -3  15   3   19.35    1.18
  -2 -15   3   53.98    1.90
   2 -15  -3   53.98    1.87
  -2 -15   3   51.22    1.94
  -2  15   3   52.26    1.92
   1 -15  -3   12.96    1.03
  -1 -15   3   12.99    1.02
  -1  15   3   13.13    0.97
   0 -15   3   22.53    1.28
   0 -15  -3   24.86    1.45
   0  15   3   22.16    1.24
   1 -15   3    2.85    0.69
  -1 -15  -3    3.91    0.88
   1  15   3    3.37    0.64
   2 -15   3   21.33    1.30
  -2 -15  -3   22.57    1.62
   3 -15   3   15.95    1.25
  -3 -15  -3   14.14    1.55
   4 -15   3   10.60    1.16
  -4 -15  -3    8.20    1.45
  -5  16   3    9.60    1.07
  -4 -16   3   29.01    1.54
  -4  16   3   27.92    1.41
  -3 -16   3   40.03    1.76
  -3 -16   3   43.01    1.72
  -3  16   3   40.78    1.71
   2 -16  -3   33.67    1.50
  -2 -16   3   32.98    1.57
  -2 -16   3   32.44    1.47
  -2  16   3   34.55    1.54
  -1 -16   3    1.88    0.65
   1 -16  -3    1.84    0.57
  -1  16   3    2.98    0.64
   0 -16   3   25.55    1.39
   0 -16  -3   22.32    1.45
   0  16   3   21.91    1.28
   1 -16   3  167.47    4.50
  -1 -16  -3  175.19    4.92
   1  16   3  178.94    4.43
   2 -16   3   12.70    1.12
  -2 -16  -3   15.23    1.66
   3 -16   3    6.15    1.01
  -3 -16  -3    4.80    1.15
  -4 -16  -3    5.09    1.27
   4 -16   3    6.71    1.05
  -4 -17   3   16.03    1.22
  -4  17   3   15.55    1.13
  -3 -17   3   29.29    1.57
  -3 -17   3   32.23    1.50
  -3  17   3   31.02    1.50
  -2 -17   3   54.10    1.94
   2 -17  -3   51.28    2.06
  -2 -17   3   52.62    2.06
  -2  17   3   49.40    1.94
   1 -17  -3   32.25    1.62
  -1 -17   3   32.47    1.62
  -1  17   3   34.25    1.57
   0 -17   3   30.53    1.59
   0 -17  -3   31.65    1.73
   0  17   3   33.34    1.57
   1 -17   3    0.62    0.55
  -1 -17  -3    0.66    0.69
   2 -17   3   24.48    1.44
  -2 -17  -3   23.43    1.73
  -3 -17  -3   27.90    2.07
   3 -17   3   31.69    1.71
  -4 -18   3    5.77    0.84
  -4  18   3    6.04    0.80
  -3 -18   3   25.92    1.38
  -3 -18   3   26.10    1.51
  -3  18   3   24.94    1.40
  -2 -18   3   44.45    1.79
  -2 -18   3   46.01    1.97
  -2  18   3   44.37    1.85
  -1 -18   3   14.75    1.21
   1 -18  -3   14.58    1.21
  -1  18   3   14.34    1.12
   0 -18   3   28.49    1.59
   0 -18  -3   29.47    1.71
   0  18   3   26.73    1.45
  -1 -18  -3  108.49    3.65
   1 -18   3  105.57    3.31
   2 -18   3   12.64    1.15
  -2 -18  -3   13.77    1.46
   3 -18   3   10.29    1.12
  -3 -18  -3    7.54    1.30
  -4 -19   3    5.43    0.84
  -4  19   3    6.54    0.86
  -3 -19   3   27.32    1.46
  -3 -19   3   28.70    1.63
  -3  19   3   28.03    1.53
  -2 -19   3   81.00    2.59
  -2 -19   3   79.57    2.79
  -2  19   3   77.75    2.63
  -1 -19   3   32.73    1.76
   1 -19  -3   35.10    1.78
  -1  19   3   33.89    1.66
   0 -19   3   36.82    1.85
   0 -19  -3   37.57    1.96
   0  19   3   38.32    1.79
  -1 -19  -3    1.32    0.75
   1 -19   3    1.43    0.68
  -2 -19  -3   23.84    1.81
   2 -19   3   21.13    1.46
   3 -19   3   31.25    1.78
  -3 -19  -3   29.78    2.17
  -4  20   3   14.06    1.14
  -3 -20   3   10.78    1.18
  -3 -20   3   10.32    1.05
  -3  20   3   11.32    1.06
  -2 -20   3   39.50    1.77
  -2 -20   3   41.68    1.99
  -2  20   3   41.82    1.87
  -1 -20   3   42.68    2.08
   1 -20  -3   47.69    2.14
  -1  20   3   44.73    1.95
   0 -20   3   39.61    1.97
   0 -20  -3   41.30    2.10
   0  20   3   40.67    1.90
   1 -20   3   53.00    2.30
  -1 -20  -3   55.06    2.57
   2 -20   3   17.72    1.41
  -2 -20  -3   19.92    1.72
   3 -20   3   22.16    1.58
  -3 -20  -3   17.48    1.80
  -3 -21   3   17.48    1.26
  -3 -21   3   15.73    1.36
  -3  21   3   16.34    1.27
  -2 -21   3   50.26    2.05
  -2 -21   3   54.78    2.35
  -2  21   3   54.83    2.19
   1 -21  -3   11.07    1.29
  -1 -21   3    9.05    1.22
  -1  21   3    9.34    1.07
   0 -21   3   45.64    2.17
   0 -21  -3   47.80    2.31
  -1 -21  -3   -0.21    0.66
   1 -21   3    0.65    0.67
  -2 -21  -3   19.29    1.76
   2 -21   3   23.27    1.59
  -3 -22   3    7.51    1.13
  -3  22   3    8.43    0.98
  -2 -22   3   24.43    1.45
  -2 -22   3   22.04    1.60
  -2  22   3   22.63    1.48
   1 -22  -3   32.30    1.92
  -1 -22   3   35.70    1.95
  -1  22   3   34.95    1.83
   0 -22   3   17.43    1.50
   0 -22  -3   17.34    1.56
   1 -22   3   31.71    1.89
  -1 -22  -3   28.76    2.00
   2 -22   3    8.87    1.27
  -2 -22  -3    6.64    1.27
  -3 -23   3    8.43    1.25
  -3  23   3   12.77    1.18
  -2 -23   3   45.08    2.22
  -2 -23   3   45.06    2.05
  -2  23   3   42.50    2.06
   1 -23  -3    9.94    1.30
  -1 -23   3    7.90    1.22
   0 -23  -3   24.04    1.80
   0 -23   3   22.22    1.66
  -1 -23  -3    1.15    0.88
   1 -23   3    0.20    0.68
  -2 -23  -3    5.39    1.34
  -3 -24   3    9.87    1.31
  -2 -24   3   21.95    1.67
  -1 -24   3   21.19    1.67
  -1 -24   3   23.83    1.59
   1 -24  -3   22.25    1.76
   0 -24  -3   27.58    1.95
   0 -24   3   30.41    1.96
   1 -24   3   94.29    3.50
  -1 -24  -3   92.20    3.69
  -2 -25   3   25.27    1.81
  -1 -25   3    5.17    1.12
   1 -25  -3    6.74    1.20
   0 -25  -3   32.02    2.13
   0 -25   3   31.71    2.06
   1 -26  -3   18.82    1.73
   0 -26  -3   20.11    1.83
  -6   0   4   24.30    1.76
  -5   0   4    0.45    0.62
  -4   0   4    1.17    0.61
  -3   0   4   38.02    1.58
  -2   0   4   62.15    1.91
  -1   0   4  446.09    9.03
   0   0  -4   24.03    1.30
   1   0   4    1.93    0.38
  -1   0  -4    1.83    0.76
  -2   0  -4  125.88    3.93
  -3   0  -4   37.63    2.22
  -4   0  -4    5.41    1.39
  -6  -1   4    0.37    0.66
  -6   1   4    0.66    0.70
  -5  -1   4    0.24    0.62
  -5   1   4    0.70    0.65
  -4  -1   4   59.07    2.19
  -4   1   4   60.27    2.18
  -3  -1   4  146.11    3.69
  -3   1   4  145.70    3.66
  -2  -1   4   11.87    0.85
  -2   1   4   11.47    0.86
  -1  -1   4   37.31    1.35
   1  -1  -4   35.07    1.34
  -1   1   4   34.32    1.29
   0  -1  -4   78.60    2.47
   0   1  -4   82.49    2.53
  -1  -1  -4   14.03    1.20
  -1   1  -4   12.41    1.20
   1   1   4   14.22    0.79
  -2  -1  -4   72.53    2.81
  -2   1  -4   71.11    2.79
  -3  -1  -4    2.84    1.07
  -3   1  -4    3.57    1.10
  -4  -1  -4    5.97    1.39
  -4   1  -4    6.38    1.45
  -6  -2   4   33.58    1.95
  -6   2   4   29.23    1.87
  -5  -2   4    3.22    0.80
  -5   2   4    4.19    0.82
  -4  -2   4   11.74    1.13
  -4   2   4   10.69    1.08
  -3  -2   4   32.87    1.46
  -3   2   4   31.61    1.44
  -2  -2   4   10.19    0.82
  -2   2   4   10.24    0.81
  -1  -2   4  244.29    5.23
   1  -2  -4  238.87    5.35
  -1  -2   4  239.00    5.24
  -1   2   4  239.51    5.15
   0  -2  -4   26.84    1.36
   0   2  -4   25.32    1.35
  -1  -2  -4   -0.29    0.57
  -1   2  -4    1.02    0.66
   1   2   4    0.58    0.32
  -2  -2  -4   99.81    3.40
  -2   2  -4   96.60    3.39
  -3  -2  -4   50.30    2.55
  -3   2  -4   53.90    2.65
  -4  -2  -4    5.40    1.33
  -4   2  -4    6.44    1.43
  -6  -3   4    1.17    0.71
  -6   3   4    1.64    0.77
  -5  -3   4    1.50    0.69
  -5   3   4    1.07    0.64
  -4  -3   4   86.58    2.77
  -4   3   4   86.90    2.70
  -3  -3   4   67.08    2.16
  -3   3   4   64.70    2.09
  -2  -3   4    8.67    0.79
  -2   3   4    7.46    0.73
  -1  -3   4   35.96    1.36
   1  -3  -4   36.06    1.35
  -1  -3   4   34.20    1.23
  -1   3   4   36.89    1.27
   0  -3  -4  100.14    2.90
   0   3   4  100.60    2.58
  -1  -3  -4   18.36    1.34
   1   3   4   18.57    0.91
  -1   3  -4   17.10    1.32
  -2  -3  -4   51.75    2.36
  -2   3  -4   50.34    2.35
  -3  -3  -4   -0.19    0.82
  -3   3  -4   -0.53    0.76
  -4  -3  -4    9.81    1.59
  -4   3  -4    7.33    1.44
  -6  -4   4   30.50    1.89
  -6   4   4   25.75    1.78
  -5  -4   4    0.47    0.60
  -5   4   4    0.07    0.55
  -4  -4   4    3.15    0.72
  -4   4   4    3.72    0.73
  -3  -4   4   22.21    1.23
  -3   4   4   24.29    1.22
  -2  -4   4    0.82    0.41
  -2   4   4    0.21    0.37
  -1  -4   4  173.66    3.99
   1  -4  -4  177.80    4.14
  -1   4   4  175.33    4.06
  -1   4   4  176.66    3.87
   0  -4  -4   41.45    1.68
   0  -4   4   40.91    1.50
   0   4   4   41.25    1.29
   0   4   4   41.29    1.45
  -1  -4  -4    5.35    0.98
   1   4   4    3.33    0.49
  -2  -4  -4  105.90    3.52
  -2   4  -4  103.38    3.50
  -3  -4  -4   42.05    2.37
  -3   4  -4   45.33    2.38
  -4  -4  -4   11.05    1.67
  -4   4  -4   10.75    1.62
  -6  -5   4    0.99    0.70
  -6   5   4    0.44    0.69
  -5  -5   4    0.54    0.58
  -5   5   4   -0.21    0.43
  -5   5   4    0.18    0.57
  -4  -5   4  182.25    4.65
  -4   5   4  185.00    4.56
  -3  -5   4   57.54    1.99
  -3   5   4   57.50    1.88
  -2  -5   4    2.83    0.53
  -2   5   4    2.14    0.45
   1  -5  -4   12.33    0.86
  -1  -5   4   13.83    0.80
  -1   5   4   14.66    0.75
  -1   5   4   15.27    0.93
   0  -5  -4   99.90    2.97
   0  -5   4  103.12    2.79
   0   5   4  104.59    2.71
   0   5   4  108.05    2.46
  -1  -5  -4   64.58    2.42
   1   5   4   63.98    1.91
  -2  -5  -4   64.74    2.65
  -3  -5  -4    1.66    0.94
  -4  -5  -4    5.40    1.39
  -6  -6   4   42.73    2.18
  -6   6   4   40.22    2.13
  -5  -6   4    4.95    0.87
  -5   6   4    3.15    0.64
  -5   6   4    4.28    0.84
  -4  -6   4   23.05    1.41
  -4   6   4   25.67    1.32
  -4   6   4   24.44    1.38
  -3  -6   4   11.69    0.97
  -3   6   4   11.56    0.90
  -3   6   4   10.82    0.90
  -2  -6   4    4.46    0.64
  -2   6   4    5.34    0.66
  -2   6   4    4.49    0.54
  -1  -6   4  192.05    4.32
   1  -6  -4  192.14    4.43
  -1   6   4  183.96    4.02
  -1   6   4  186.15    4.35
   0  -6   4   44.71    1.64
   0  -6  -4   44.39    1.79
   0   6   4   47.32    1.61
   0   6   4   44.28    1.28
  -1  -6  -4    1.65    0.72
   1  -6   4    2.09    0.58
   1   6   4    2.23    0.46
  -2  -6  -4  100.60    3.46
  -3  -6  -4   35.31    2.18
   4  -6   4    5.14    0.93
  -4  -6  -4    5.91    1.39
  -6  -7   4    0.23    0.67
  -6   7   4    0.91    0.75
  -5  -7   4    4.91    0.87
  -5   7   4    4.65    0.84
  -5   7   4    4.29    0.69
  -4  -7   4  133.51    3.69
  -4   7   4  130.54    3.53
  -4   7   4  128.64    3.47
  -3  -7   4   43.48    1.70
  -3   7   4   42.47    1.56
  -3   7   4   40.88    1.63
  -2  -7   4   13.71    0.78
  -2  -7   4   15.05    0.94
  -2   7   4   13.73    0.78
  -2   7   4   14.20    0.96
   1  -7  -4   30.12    1.26
  -1  -7   4   30.75    1.20
  -1   7   4   28.61    1.28
  -1   7   4   26.10    0.96
   0  -7  -4  129.70    3.53
   0  -7   4  130.64    3.34
   0   7   4  126.40    3.23
  -1  -7  -4   38.53    1.88
   1  -7   4   36.25    1.58
   1   7   4   38.89    1.43
   2  -7   4   69.30    2.42
  -2  -7  -4   72.74    2.85
  -3  -7  -4    1.74    0.92
   3  -7   4    1.57    0.67
  -4  -7  -4    6.42    1.41
   4  -7   4    8.43    1.16
  -6  -8   4   31.65    1.96
  -6   8   4   33.49    1.97
  -5  -8   4    3.13    0.76
  -5   8   4    2.69    0.74
  -5   8   4    2.23    0.61
  -4  -8   4    5.93    0.87
  -4   8   4    5.65    0.76
  -4   8   4    5.76    0.81
  -3  -8   4   15.56    1.06
  -3   8   4   14.30    1.02
  -3   8   4   16.44    0.98
  -2  -8   4   14.17    0.83
  -2  -8   4   15.59    0.99
  -2   8   4   15.51    1.01
  -2   8   4   15.15    0.80
  -1  -8   4  140.04    3.44
   1  -8  -4  137.50    3.49
  -1   8   4  138.54    3.47
   0  -8  -4   63.85    2.21
   0  -8   4   62.10    2.03
   0   8   4   62.45    1.99
  -1  -8  -4   12.03    1.19
   1  -8   4   10.67    0.98
   1   8   4   11.35    0.85
   2  -8   4   87.00    2.79
  -2  -8  -4   89.77    3.26
  -3  -8  -4   24.38    1.89
   3  -8   4   24.36    1.49
   4  -8   4    6.51    1.04
  -4  -8  -4    5.90    1.41
  -6   9   4    0.60    0.74
  -5  -9   4    2.67    0.73
  -5   9   4    2.37    0.61
  -5   9   4    3.05    0.76
  -4  -9   4   53.01    2.11
  -4   9   4   49.66    1.91
  -4   9   4   48.60    1.86
  -3  -9   4   62.29    2.13
  -3   9   4   64.10    1.96
  -3   9   4   61.67    2.10
  -2  -9   4   10.15    0.86
  -2  -9   4    9.69    0.75
  -2   9   4   10.24    0.68
  -2   9   4    9.50    0.86
   1  -9  -4   14.37    0.97
  -1  -9   4   14.73    0.92
  -1   9   4   12.74    0.97
   0  -9  -4   79.12    2.58
   0  -9   4   79.53    2.40
   0   9   4   79.30    2.35
   1  -9   4    2.01    0.61
  -1  -9  -4    2.01    0.76
   1   9   4    1.32    0.48
   2  -9   4   59.03    2.22
  -2  -9  -4   59.68    2.64
  -3  -9  -4    6.89    1.30
   3  -9   4    8.54    1.12
   4  -9   4    2.78    0.81
  -4  -9  -4    1.34    1.08
  -6  10   4   23.58    1.76
  -5 -10   4    2.10    0.73
  -5  10   4    1.69    0.57
  -5  10   4    1.68    0.66
  -4 -10   4    3.53    0.75
  -4  10   4    2.41    0.60
  -4  10   4    3.82    0.68
  -3 -10   4   15.91    1.13
  -3  10   4   16.34    1.09
  -3  10   4   16.79    0.98
  -2 -10   4   17.73    1.08
  -2 -10   4   18.46    0.99
  -2  10   4   17.63    1.08
   1 -10  -4  128.44    3.42
  -1 -10   4  130.42    3.35
  -1  10   4  131.00    3.39
   0 -10  -4   23.76    1.39
   0 -10   4   25.16    1.27
   0  10   4   19.81    1.16
  -1 -10  -4   17.92    1.40
   1 -10   4   18.31    1.16
   1  10   4   17.14    1.07
   2 -10   4   78.47    2.64
  -2 -10  -4   80.96    3.10
  -3 -10  -4   24.75    1.96
   3 -10   4   26.14    1.54
   4 -10   4    6.57    1.09
  -4 -10  -4    3.40    1.27
  -5 -11   4    2.34    0.74
  -5  11   4    2.06    0.58
  -5  11   4    1.88    0.68
  -4 -11   4   43.77    1.94
  -4  11   4   42.08    1.74
  -4  11   4   39.90    1.71
  -3 -11   4   63.62    2.20
  -3  11   4   64.86    2.19
  -3  11   4   64.17    1.97
  -2 -11   4    9.14    0.87
  -2 -11   4    8.47    0.80
  -2  11   4   10.77    0.92
   1 -11  -4   38.67    1.58
  -1 -11   4   38.60    1.56
  -1  11   4   37.64    1.58
   0 -11   4   62.09    2.14
   0 -11  -4   63.44    2.33
   0  11   4   66.65    2.15
  -1 -11  -4    8.85    1.25
   1 -11   4    8.06    0.98
   1  11   4    7.49    0.82
   2 -11   4   45.32    1.93
  -2 -11  -4   45.71    2.33
   2  11   4   49.60    1.78
  -3 -11  -4    8.68    1.45
   3 -11   4    8.84    1.19
   4 -11   4    9.69    1.29
  -4 -11  -4    6.04    1.44
  -5 -12   4    4.93    0.89
  -5  12   4    4.92    0.87
  -5  12   4    5.57    0.80
  -4 -12   4   12.50    1.18
  -4  12   4   12.62    1.06
  -4  12   4   12.95    1.07
  -3 -12   4   17.57    1.17
  -3  12   4   14.65    1.11
  -2 -12   4   14.61    1.00
  -2 -12   4   15.23    1.07
  -2  12   4   14.46    1.04
   1 -12  -4  200.55    4.86
  -1 -12   4  197.73    4.79
  -1  12   4  192.87    4.71
   0 -12  -4   13.16    1.17
   0 -12   4   14.75    1.07
   0  12   4   15.75    1.09
  -1 -12  -4   21.07    1.55
   1 -12   4   20.65    1.28
   1  12   4   23.15    1.25
  -2 -12  -4   67.17    2.83
   2 -12   4   66.93    2.41
   2  12   4   64.24    2.18
   3 -12   4   26.24    1.58
  -3 -12  -4   26.30    2.04
   4 -12   4   10.99    1.37
  -5 -13   4    9.22    1.12
  -5  13   4   11.92    1.23
  -5  13   4   10.37    1.05
  -4 -13   4   77.96    2.68
  -4  13   4   74.12    2.50
  -3 -13   4   64.96    2.26
  -3  13   4   63.47    2.22
  -2 -13   4   15.33    1.11
  -2 -13   4   16.04    1.08
  -2  13   4   16.88    1.12
  -1 -13   4   11.95    0.99
   1 -13  -4   11.44    1.02
  -1  13   4   11.69    1.04
   0 -13  -4   35.29    1.76
   0 -13   4   36.84    1.65
   0  13   4   37.32    1.62
   1 -13   4   19.54    1.28
  -1 -13  -4   20.95    1.58
   1  13   4   21.63    1.25
   2 -13   4   39.04    1.83
  -2 -13  -4   37.56    2.17
  -3 -13  -4    7.33    1.37
   3 -13   4    8.67    1.15
  -5 -14   4    4.43    0.87
  -4 -14   4    2.28    0.67
  -4  14   4    2.26    0.61
  -3 -14   4   29.51    1.50
  -3  14   4   28.05    1.46
  -2 -14   4    7.73    0.97
  -2 -14   4    6.49    0.85
  -2  14   4    8.61    0.92
  -1 -14   4  115.42    3.33
   1 -14  -4  119.53    3.41
  -1  14   4  115.08    3.27
   0 -14  -4   16.04    1.31
   0 -14   4   17.98    1.22
   0  14   4   17.37    1.19
  -1 -14  -4   23.75    1.68
   1 -14   4   24.44    1.41
   1  14   4   23.80    1.38
   2 -14   4   48.56    2.05
  -2 -14  -4   48.25    2.49
   3 -14   4   33.77    1.80
  -3 -14  -4   30.73    2.20
  -4 -15   4   53.27    2.20
  -4  15   4   51.83    2.07
  -3 -15   4   25.37    1.42
  -3  15   4   25.26    1.41
  -2 -15   4   15.30    1.14
  -2 -15   4   15.70    1.18
  -2  15   4   13.57    1.12
  -1 -15   4   20.48    1.31
   1 -15  -4   21.44    1.37
  -1  15   4   20.54    1.32
   0 -15  -4   43.87    2.07
   0 -15   4   45.25    1.89
   0  15   4   42.37    1.85
   1 -15   4   13.67    1.17
  -1 -15  -4   14.31    1.58
   1  15   4   12.97    1.10
  -2 -15  -4   18.64    1.71
   2 -15   4   17.09    1.30
  -3 -15  -4    7.02    1.38
   3 -15   4    8.55    1.20
  -4 -16   4    9.53    1.06
  -4  16   4   10.57    1.04
  -3 -16   4    8.41    0.95
  -3  16   4   10.52    1.07
  -2 -16   4    0.76    0.53
  -2 -16   4    1.01    0.58
  -2  16   4    1.83    0.63
  -1 -16   4   73.72    2.60
   1 -16  -4   75.94    2.68
  -1  16   4   76.63    2.56
   0 -16   4   28.06    1.57
   0 -16  -4   27.54    1.71
   0  16   4   30.48    1.63
  -1 -16  -4   12.93    1.55
   1 -16   4   11.31    1.12
   1  16   4   10.90    1.10
   2 -16   4   34.21    1.76
  -2 -16  -4   32.86    2.17
  -3 -16  -4   19.87    1.95
   3 -16   4   21.80    1.56
  -5 -17   4    1.95    0.81
  -4 -17   4   47.46    2.11
  -4  17   4   48.11    2.03
  -3 -17   4   28.91    1.54
  -3  17   4   29.52    1.60
  -2 -17   4   20.78    1.38
  -2 -17   4   18.45    1.28
  -2  17   4   17.29    1.26
  -1 -17   4   12.23    1.15
   1 -17  -4   13.30    1.25
  -1  17   4   11.38    1.16
   0 -17  -4   40.70    2.07
   0 -17   4   39.05    1.89
   0  17   4   38.95    1.88
   1 -17   4   17.12    1.31
  -1 -17  -4   18.06    1.59
   1  17   4   18.64    1.37
  -2 -17  -4   28.08    2.06
   2 -17   4   28.95    1.69
   3 -17   4    2.35    0.81
  -3 -17  -4    3.17    1.24
  -4 -18   4    7.82    1.00
  -4  18   4    7.72    0.98
  -3 -18   4    7.74    0.93
  -3  18   4    8.95    1.04
  -2 -18   4   17.97    1.30
  -2 -18   4   16.59    1.31
  -2  18   4   15.46    1.24
  -1 -18   4   95.88    3.23
   1 -18  -4  102.30    3.32
  -1  18   4   97.78    3.13
   0 -18   4   24.39    1.55
   0 -18  -4   25.61    1.73
   0  18   4   27.23    1.59
  -1 -18  -4   16.26    1.79
   1 -18   4   13.10    1.26
   1  18   4   12.69    1.20
   2 -18   4   45.42    2.13
  -2 -18  -4   45.65    2.59
  -4 -19   4   34.91    1.87
  -4  19   4   35.64    1.81
  -3 -19   4   20.38    1.37
  -3  19   4   20.42    1.42
  -2 -19   4   39.98    1.90
  -2 -19   4   40.63    1.97
  -2  19   4   38.47    1.88
   1 -19  -4    9.31    1.34
  -1 -19   4   10.18    1.25
  -1  19   4    7.97    1.03
   0 -19   4   38.54    2.01
   0 -19  -4   40.09    2.16
   0  19   4   37.41    1.96
  -1 -19  -4   10.61    1.49
   1 -19   4   13.60    1.33
  -2 -19  -4   26.51    2.09
   2 -19   4   27.73    1.76
  -4 -20   4    8.57    1.06
  -4  20   4   11.46    1.20
  -3 -20   4   11.34    1.17
  -3  20   4   13.13    1.24
  -2 -20   4   15.63    1.29
  -2 -20   4   17.04    1.39
  -2  20   4   16.65    1.36
  -1 -20   4   55.79    2.46
  -1  20   4   56.27    2.35
   0 -20  -4   22.46    1.74
   0 -20   4   21.56    1.63
   0  20   4   23.70    1.59
   1 -20   4   22.69    1.65
  -1 -20  -4   23.13    1.85
  -2 -20  -4   24.79    2.08
   2 -20   4   26.87    1.76
  -3 -21   4   14.41    1.23
  -3  21   4   16.76    1.39
  -2 -21   4   32.43    1.91
  -2 -21   4   32.18    1.77
  -2  21   4   33.40    1.81
  -1 -21   4    8.07    1.23
  -1  21   4    8.51    1.10
   0 -21   4   29.10    1.87
   0 -21  -4   27.58    1.95
   0  21   4   29.89    1.83
   1 -21   4    1.47    0.77
  -1 -21  -4    0.41    0.77
  -3 -22   4    6.93    0.96
  -3  22   4    7.21    0.99
  -2 -22   4    5.06    0.90
  -2 -22   4    4.63    1.04
  -2  22   4    3.73    0.85
  -1 -22   4   37.31    2.20
  -1  22   4   38.34    2.03
   0 -22   4    5.87    1.16
   0 -22  -4    7.82    1.37
   0  22   4    6.56    1.07
  -1 -22  -4   23.65    1.96
   1 -22   4   25.74    1.85
  -3 -23   4   17.09    1.38
  -2 -23   4   13.82    1.46
  -2 -23   4   14.35    1.30
  -2  23   4   13.99    1.37
  -1 -23   4   15.24    1.75
  -1  23   4   12.66    1.38
   0 -23  -4   13.47    1.71
   0 -23   4   12.12    1.55
  -1 -23  -4    8.37    1.50
  -2 -24   4    1.95    0.94
  -2 -24   4    2.89    0.75
  -1 -24   4   49.57    2.58
  -1 -24   4   54.79    2.55
   0 -24  -4   11.40    1.63
  -5   0   5   29.16    1.83
  -4   0   5    3.68    0.80
  -3   0   5   89.96    2.79
  -2   0   5    0.25    0.46
  -1   0   5    2.44    0.55
   0   0  -5   96.57    3.09
  -1   0  -5   85.10    3.15
  -2   0  -5    0.99    0.91
  -3   0  -5    7.71    1.52
  -5  -1   5   25.75    1.70
  -5   1   5   25.97    1.74
  -4  -1   5    1.23    0.66
  -4   1   5    1.24    0.65
  -3  -1   5   54.66    2.08
  -3   1   5   54.71    2.05
  -2  -1   5  104.94    2.91
  -2   1   5  103.91    2.88
  -1  -1   5    5.38    0.63
   1  -1  -5    6.19    0.77
  -1  -1   5    6.29    0.76
  -1   1   5    6.32    0.73
   0  -1  -5    8.52    1.09
   0   1  -5    9.07    1.12
  -1  -1  -5   21.51    1.64
   1   1   5   23.53    1.27
  -1   1  -5   21.39    1.66
  -2  -1  -5    1.00    0.89
  -2   1  -5    1.50    0.95
  -3  -1  -5   71.88    3.38
  -3   1  -5   70.79    3.38
  -5  -2   5   46.73    2.21
  -5   2   5   44.30    2.19
  -4  -2   5   11.34    1.16
  -4   2   5   10.64    1.14
  -3  -2   5   36.75    1.72
  -3   2   5   40.04    1.70
  -2  -2   5    6.46    0.79
  -2   2   5    4.53    0.68
  -1  -2   5    4.29    0.59
  -1  -2   5    3.26    0.65
   1  -2  -5    3.80    0.66
  -1   2   5    3.82    0.60
   0  -2  -5  100.59    3.18
   0   2   5  104.96    2.81
  -1  -2  -5   98.09    3.37
   1   2   5   94.40    2.64
  -1   2  -5  100.26    3.41
  -2  -2  -5    0.46    0.82
  -2   2  -5    0.47    0.88
  -3  -2  -5    8.10    1.47
  -3   2  -5    8.13    1.54
  -5  -3   5   20.59    1.58
  -5   3   5   20.05    1.59
  -4  -3   5    2.87    0.74
  -4   3   5    2.37    0.70
  -3  -3   5   39.59    1.77
  -3   3   5   36.91    1.66
  -2  -3   5  121.43    3.32
  -2   3   5  125.93    3.23
  -1  -3   5    2.80    0.60
   1  -3  -5    3.01    0.62
  -1  -3   5    2.21    0.51
  -1   3   5    2.87    0.53
   0  -3  -5   24.03    1.48
   0   3   5   21.10    1.17
   0   3   5   20.92    1.06
  -1  -3  -5   25.77    1.74
   1   3   5   24.40    1.21
  -1   3  -5   26.34    1.78
  -2  -3  -5   -0.25    0.88
  -2   3  -5   -0.18    0.82
  -3  -3  -5   47.49    2.81
  -3   3  -5   57.92    3.04
  -5  -4   5   27.30    1.76
  -5   4   5   26.15    1.67
  -4  -4   5    2.14    0.68
  -4   4   5    2.35    0.68
  -3  -4   5   29.27    1.55
  -3   4   5   33.87    1.53
  -2  -4   5    5.99    0.78
  -2   4   5    4.70    0.67
  -1  -4   5    2.31    0.62
  -1  -4   5    2.15    0.49
   1  -4  -5    2.63    0.63
  -1   4   5    1.84    0.44
  -1   4   5    1.40    0.55
   0  -4  -5  122.98    3.68
   0  -4   5  128.93    3.43
   0   4   5  125.79    3.29
  -1  -4  -5  104.84    3.54
   1   4   5   98.43    2.75
  -2  -4  -5    0.96    0.92
  -3  -4  -5    4.57    1.29
  -5  -5   5   22.55    1.65
  -5   5   5   22.69    1.58
  -4  -5   5    1.75    0.66
  -4   5   5    2.37    0.69
  -4   5   5    1.73    0.63
  -3  -5   5   21.83    1.37
  -3   5   5   21.12    1.25
  -2  -5   5  120.08    3.29
  -2   5   5  123.05    3.36
  -2   5   5  121.22    3.09
  -1  -5   5    0.99    0.42
  -1  -5   5    0.55    0.51
  -1   5   5    0.49    0.37
  -1   5   5    1.02    0.52
   0  -5  -5    5.63    0.95
   0  -5   5    7.30    0.88
   0   5   5    6.89    0.80
   1  -5   5   24.81    1.40
  -1  -5  -5   25.11    1.73
   1   5   5   21.52    1.25
  -2  -5  -5    0.18    0.87
  -3  -5  -5   38.89    2.54
  -5  -6   5   29.31    1.82
  -5   6   5   28.99    1.74
  -4  -6   5    1.88    0.67
  -4   6   5    1.48    0.62
  -4   6   5    2.93    0.71
  -3  -6   5   42.76    1.82
  -3   6   5   40.37    1.64
  -3   6   5   40.76    1.77
  -2  -6   5    3.43    0.68
  -2   6   5    3.28    0.70
  -2   6   5    3.04    0.54
  -1  -6   5    1.14    0.56
  -1  -6   5    1.05    0.46
  -1   6   5    0.78    0.51
   0  -6   5  127.63    3.45
   0  -6  -5  120.64    3.66
   0   6   5  125.86    3.37
   1  -6   5   87.06    2.83
  -1  -6  -5   88.33    3.16
   1   6   5   82.95    2.52
   2  -6   5    5.96    0.99
  -2  -6  -5    5.12    1.15
   3  -6   5    3.87    0.92
  -3  -6  -5    3.53    1.23
  -5  -7   5   15.04    1.44
  -5   7   5   15.03    1.38
  -5   7   5   15.35    1.27
  -4  -7   5    3.26    0.80
  -4   7   5    3.76    0.77
  -4   7   5    3.36    0.71
  -3  -7   5   36.47    1.69
  -3   7   5   36.28    1.70
  -3   7   5   35.57    1.50
  -2  -7   5  111.25    3.14
  -2   7   5  109.73    3.14
  -1  -7   5    2.95    0.58
  -1   7   5    3.05    0.67
   0  -7  -5   11.16    1.16
   0  -7   5   10.12    0.98
   0   7   5   12.18    1.03
  -1  -7  -5   19.36    1.56
   1  -7   5   18.41    1.30
   1   7   5   19.43    1.17
   2  -7   5    3.31    0.83
  -2  -7  -5    3.33    1.07
  -3  -7  -5   47.10    2.81
   3  -7   5   43.91    2.13
  -5  -8   5   21.73    1.59
  -5   8   5   21.20    1.51
  -5   8   5   18.92    1.38
  -4  -8   5    2.87    0.73
  -4   8   5    3.04    0.71
  -4   8   5    2.27    0.64
  -3  -8   5   36.67    1.73
  -3   8   5   37.37    1.53
  -3   8   5   38.83    1.75
  -2  -8   5   10.91    1.04
  -2   8   5   10.51    1.05
  -1  -8   5    0.56    0.45
  -1   8   5    1.44    0.56
   0  -8  -5   94.38    3.10
   0  -8   5   95.00    2.84
   0   8   5   93.85    2.79
   1  -8   5   48.22    2.04
  -1  -8  -5   51.56    2.38
   1   8   5   51.05    1.91
  -2  -8  -5   13.28    1.62
   2  -8   5   12.51    1.20
  -3  -8  -5    6.34    1.40
   3  -8   5    5.28    1.04
  -5  -9   5   18.97    1.53
  -5   9   5   16.54    1.31
  -5   9   5   20.84    1.49
  -4  -9   5    4.29    0.82
  -4   9   5    4.19    0.78
  -4   9   5    2.67    0.64
  -3  -9   5   30.59    1.58
  -3   9   5   33.71    1.63
  -2  -9   5  119.84    3.43
  -2   9   5  122.21    3.43
  -1  -9   5    9.70    0.90
  -1   9   5    9.24    0.97
   0  -9  -5    5.55    0.98
   0  -9   5    5.57    0.84
   0   9   5    4.84    0.79
  -1  -9  -5   12.57    1.51
   1  -9   5   11.68    1.12
   1   9   5   11.24    1.07
  -2  -9  -5    3.16    1.11
   2  -9   5    4.04    0.91
   3  -9   5   51.57    2.46
  -3  -9  -5   52.05    2.92
  -5 -10   5   22.93    1.66
  -5  10   5   24.43    1.51
  -5  10   5   26.02    1.61
  -4 -10   5    6.51    0.97
  -4  10   5    5.31    0.82
  -3 -10   5   35.29    1.71
  -3  10   5   34.18    1.62
  -2 -10   5    3.21    0.68
  -2  10   5    2.29    0.64
  -1 -10   5    9.71    0.93
  -1  10   5    9.76    1.01
   0 -10   5   67.50    2.36
   0 -10  -5   65.42    2.60
   0  10   5   72.33    2.38
  -1 -10  -5   36.55    2.09
   1 -10   5   38.38    1.77
   1  10   5   36.72    1.70
  -2 -10  -5    2.15    1.05
   2 -10   5    5.11    0.97
   3 -10   5    6.81    1.15
  -3 -10  -5    5.28    1.35
  -5 -11   5   11.81    1.27
  -5  11   5   12.07    1.19
  -4 -11   5    2.09    0.67
  -4  11   5    2.41    0.66
  -3 -11   5   41.67    1.87
  -3  11   5   41.20    1.83
  -2 -11   5   72.84    2.57
  -2  11   5   81.63    2.61
  -1 -11   5    4.81    0.78
  -1  11   5    6.20    0.84
   0 -11   5   12.39    1.12
   0 -11  -5   12.96    1.26
   0  11   5   13.01    1.12
  -1 -11  -5   13.21    1.55
   1 -11   5   14.18    1.22
   1  11   5   12.52    1.12
  -2 -11  -5   -0.11    0.88
   2 -11   5    0.29    0.62
   3 -11   5   42.55    2.06
  -3 -11  -5   42.88    2.72
  -5 -12   5   19.38    1.56
  -5  12   5   19.76    1.43
  -4 -12   5   -0.27    0.47
  -4  12   5    0.08    0.49
  -3 -12   5   36.38    1.77
  -3  12   5   37.23    1.73
  -2 -12   5    2.04    0.64
  -2  12   5    1.38    0.58
  -1 -12   5   12.06    1.06
  -1  12   5   13.64    1.20
   0 -12   5   63.15    2.30
   0 -12  -5   64.29    2.57
   0  12   5   65.36    2.34
  -1 -12  -5   61.07    2.73
   1 -12   5   62.77    2.50
   1  12   5   62.31    2.27
   2 -12   5    3.00    0.89
  -2 -12  -5    2.03    1.05
  -3 -12  -5    4.81    1.42
   3 -12   5    6.66    1.16
  -5  13   5   12.50    1.20
  -4 -13   5    5.08    0.86
  -4  13   5    6.82    0.92
  -3 -13   5   16.76    1.29
  -3  13   5   14.25    1.18
  -2 -13   5   60.75    2.33
  -2  13   5   60.55    2.30
  -1 -13   5    8.09    1.01
  -1  13   5    8.80    1.06
   0 -13  -5   11.70    1.27
   0 -13   5   10.29    1.09
   0  13   5   11.25    1.15
  -1 -13  -5   17.79    1.63
   1 -13   5   18.94    1.42
   1  13   5   15.92    1.34
   2 -13   5    0.65    0.67
  -2 -13  -5    1.12    1.01
  -5  14   5   15.93    1.29
  -4 -14   5   -0.15    0.49
  -4  14   5    0.18    0.52
  -3 -14   5   19.31    1.39
  -3  14   5   19.40    1.34
  -2 -14   5    1.54    0.65
  -2  14   5    1.96    0.66
  -1 -14   5   16.82    1.24
  -1  14   5   17.18    1.32
   0 -14  -5   67.31    2.74
   0 -14   5   65.65    2.46
   0  14   5   68.42    2.54
   1 -14   5   75.08    2.83
  -1 -14  -5   66.19    2.94
   1  14   5   65.76    2.58
   2 -14   5    6.54    1.09
  -2 -14  -5    5.39    1.28
  -4 -15   5    6.19    0.92
  -4  15   5    6.11    0.91
  -3 -15   5   15.68    1.30
  -3  15   5   15.37    1.26
  -2 -15   5   52.98    2.22
  -2  15   5   48.57    2.07
  -1 -15   5    4.79    0.89
  -1  15   5    4.45    0.89
   0 -15  -5   11.53    1.47
   0 -15   5   13.14    1.40
   0  15   5   11.55    1.28
  -1 -15  -5   20.81    1.77
   1 -15   5   19.06    1.43
   1  15   5   20.44    1.52
   2 -15   5    0.57    0.71
  -2 -15  -5    0.82    1.01
  -4 -16   5    1.33    0.64
  -4  16   5    1.87    0.65
  -3 -16   5   16.42    1.33
  -3  16   5   15.52    1.29
  -2 -16   5    2.28    0.72
  -2  16   5    2.87    0.74
  -1 -16   5    7.58    1.10
  -1  16   5    7.94    1.07
   0 -16  -5   54.77    2.59
   0 -16   5   55.83    2.33
   0  16   5   57.71    2.47
  -1 -16  -5   46.39    2.52
   1 -16   5   47.67    2.20
   1  16   5   51.49    2.28
  -2 -16  -5   10.90    1.58
   2 -16   5   14.82    1.39
  -4 -17   5    4.69    0.87
  -4  17   5    6.71    0.96
  -3 -17   5   23.53    1.56
  -3  17   5   27.88    1.63
  -2 -17   5   42.47    2.07
  -2  17   5   40.41    1.97
  -1 -17   5    5.35    1.02
  -1  17   5    5.00    0.92
   0 -17   5   12.60    1.49
   0 -17  -5   11.86    1.55
   0  17   5   12.49    1.41
  -1 -17  -5    5.05    1.22
   1 -17   5    8.66    1.34
   1  17   5    7.94    1.10
  -2 -17  -5    3.78    1.24
  -3 -18   5   36.67    1.90
  -3  18   5   35.46    1.88
  -2 -18   5    1.02    0.64
  -2  18   5    0.92    0.60
  -1 -18   5    6.01    1.08
  -1  18   5    7.13    1.09
   0 -18   5   47.38    2.31
   0 -18  -5   48.88    2.52
   0  18   5   54.36    2.45
  -1 -18  -5   20.62    1.90
   1 -18   5   20.77    1.58
   1  18   5   23.18    1.73
  -3 -19   5   16.47    1.38
  -3  19   5   15.96    1.38
  -2 -19   5   46.70    2.23
  -2  19   5   40.13    2.03
  -1 -19   5    3.01    0.93
  -1  19   5    4.02    0.90
   0 -19   5    8.23    1.25
   0 -19  -5    7.41    1.39
   0  19   5    9.50    1.33
  -1 -19  -5    7.32    1.38
   1 -19   5   10.32    1.44
   1  19   5    7.42    1.14
  -2 -20   5    3.49    0.82
  -2  20   5    4.69    0.94
  -1 -20   5   10.38    1.44
  -1  20   5    7.63    1.18
   0 -20   5   25.70    1.87
   0  20   5   30.15    2.01
  -1 -20  -5   18.88    1.91
  -2 -21   5   41.29    2.23
  -1 -21   5    5.78    1.17
   0 -21   5   16.34    1.63
  -1 -22   5   18.75    1.77
  -5   0   6    1.16    0.76
  -4   0   6   10.43    1.23
  -3   0   6   20.37    1.43
  -2   0   6   71.99    2.44
  -1   0   6   53.74    2.01
   0   0   6    0.50    0.48
   0   0   6    0.24    0.52
   0   0  -6    0.27    0.67
  -1   0  -6   12.60    1.58
  -5  -1   6    5.13    1.04
  -5   1   6    5.94    1.06
  -4  -1   6   48.03    2.21
  -4   1   6   45.84    2.17
  -3  -1   6    7.84    1.01
  -3   1   6    8.18    1.02
  -2  -1   6    5.44    0.81
  -2   1   6    4.56    0.78
  -1  -1   6   53.99    2.08
  -1   1   6   55.03    2.00
   0  -1  -6   11.20    1.34
   0   1   6   12.66    1.12
  -1  -1  -6   16.51    1.70
  -1   1  -6   15.11    1.78
  -2  -1  -6    3.99    1.31
  -2   1  -6    3.46    1.25
  -5  -2   6    1.85    0.81
  -5   2   6    1.11    0.78
  -4  -2   6    2.24    0.80
  -4   2   6    1.61    0.74
  -3  -2   6   10.54    1.13
  -3   2   6    8.57    1.04
  -2  -2   6   38.92    1.78
  -2   2   6   39.51    1.73
  -1  -2   6   32.21    1.64
  -1   2   6   30.56    1.58
   0  -2  -6    0.50    0.70
   0   2   6    0.28    0.48
  -1  -2  -6   16.34    1.70
  -2  -2  -6   51.20    2.84
  -2   2  -6   47.35    2.74
  -5  -3   6    7.59    1.14
  -5   3   6    8.91    1.23
  -4  -3   6   61.02    2.49
  -4   3   6   55.95    2.36
  -3  -3   6    5.20    0.90
  -3   3   6    4.85    0.86
  -2  -3   6    6.63    0.91
  -2   3   6    6.50    0.82
  -1  -3   6   63.49    2.36
  -1   3   6   64.12    2.43
   0  -3   6    9.27    1.01
   0  -3  -6   10.08    1.33
   0   3   6   12.43    1.16
  -1  -3  -6   20.06    1.78
  -2  -3  -6    1.48    1.17
  -5  -4   6    1.16    0.74
  -5   4   6    1.71    0.75
  -5   4   6    2.09    0.82
  -4  -4   6    9.53    1.19
  -4   4   6    9.15    1.14
  -3  -4   6   12.25    1.24
  -3   4   6   11.71    1.17
  -2  -4   6   17.51    1.33
  -2   4   6   22.36    1.55
  -1  -4   6   50.83    2.10
  -1   4   6   50.48    2.07
   0  -4   6   -0.07    0.49
   0  -4  -6   -0.32    0.64
   0   4   6   -0.88    0.44
   1  -4   6   23.24    1.59
  -1  -4  -6   21.59    1.82
  -2  -4  -6   42.18    2.64
  -5  -5   6   18.82    1.61
  -5   5   6   14.86    1.42
  -4  -5   6   54.90    2.35
  -4   5   6   50.49    2.20
  -3  -5   6    4.72    0.86
  -3   5   6    5.73    0.98
  -3   5   6    4.14    0.84
  -2  -5   6    3.35    0.74
  -2   5   6    4.11    0.82
  -1  -5   6   49.23    2.13
  -1   5   6   50.48    2.20
   0  -5  -6   10.36    1.33
   0  -5   6   11.16    1.18
   0   5   6   10.26    1.05
  -1  -5  -6   32.98    2.16
   1  -5   6   35.95    1.83
  -2  -5  -6    2.39    1.20
   2  -5   6    1.38    0.80
  -5  -6   6    5.31    1.06
  -5   6   6    4.33    0.92
  -5   6   6    3.76    0.93
  -4  -6   6    4.78    0.94
  -4   6   6    5.06    0.98
  -4   6   6    3.79    0.86
  -3  -6   6    6.75    0.98
  -3   6   6    5.43    0.95
  -2  -6   6   12.04    1.19
  -2   6   6   13.48    1.31
  -1  -6   6   52.22    2.17
  -1   6   6   50.99    2.15
   0  -6   6    3.40    0.76
   0  -6  -6    2.14    0.83
   0   6   6    3.11    0.69
  -1  -6  -6   20.36    1.80
   1  -6   6   21.49    1.49
   2  -6   6   60.85    2.61
  -2  -6  -6   48.48    2.93
  -5   7   6   16.42    1.46
  -5   7   6   14.56    1.40
  -4  -7   6   36.81    1.98
  -4   7   6   40.47    2.13
  -3  -7   6    2.95    0.75
  -3   7   6    4.72    0.92
  -2  -7   6    1.47    0.64
  -2   7   6    0.29    0.58
  -1  -7   6   73.86    2.78
  -1   7   6   70.56    2.54
   0  -7   6   19.09    1.31
   0   7   6   17.78    1.28
  -1  -7  -6   28.72    2.09
   1  -7   6   34.37    1.81
  -2  -7  -6    1.74    1.13
   2  -7   6    2.06    0.83
  -5   8   6    6.40    1.06
  -4  -8   6    5.39    0.97
  -4   8   6    3.92    0.90
  -3  -8   6    7.92    1.05
  -3   8   6    7.63    1.05
  -2  -8   6   29.57    1.66
  -2   8   6   25.10    1.60
  -1  -8   6   45.65    2.15
  -1   8   6   41.07    1.90
   0  -8   6   14.32    1.22
   0   8   6   14.82    1.22
  -1  -8  -6   19.83    1.81
   1  -8   6   20.66    1.46
   2  -8   6   55.37    2.60
  -4  -9   6   37.50    1.98
  -4   9   6   36.44    2.02
  -3  -9   6    5.73    0.89
  -3   9   6    7.28    1.01
  -2  -9   6    1.90    0.70
  -2   9   6    2.33    0.72
  -1  -9   6   38.81    2.04
  -1   9   6   37.48    1.81
   0  -9   6    4.59    0.87
   0   9   6    6.33    1.01
   1  -9   6   13.38    1.27
  -1  -9  -6   11.15    1.54
   2  -9   6    0.99    0.77
  -2  -9  -6    1.28    1.11
  -4 -10   6    2.17    0.74
  -4  10   6    0.39    0.62
  -3 -10   6    6.04    0.94
  -3  10   6    4.86    0.88
  -2 -10   6   35.51    1.86
  -2  10   6   35.54    1.82
  -1 -10   6   26.89    1.74
  -1  10   6   24.49    1.54
   0 -10   6    1.15    0.65
   0  10   6    2.54    0.73
  -1 -10  -6    7.34    1.33
   1 -10   6   11.48    1.22
   2 -10   6   51.09    2.40
  -4 -11   6   32.59    1.88
  -4  11   6   35.05    2.00
  -3 -11   6    2.89    0.75
  -3  11   6    2.15    0.72
  -2 -11   6    9.80    1.17
  -2  11   6   10.17    1.18
  -1 -11   6   52.00    2.42
  -1  11   6   51.26    2.34
   0 -11   6   14.53    1.28
   0  11   6   15.91    1.34
  -1 -11  -6    7.77    1.36
  -2 -11  -6    2.94    1.16
   2 -11   6    6.28    1.30
  -4 -12   6    2.95    0.80
  -4  12   6    2.90    0.80
  -3 -12   6    6.12    0.94
  -3  12   6    5.05    0.89
  -2 -12   6   30.30    1.80
  -2  12   6   31.99    1.76
  -1 -12   6   28.91    1.71
  -1  12   6   26.35    1.64
   0 -12   6    4.43    0.89
   0  12   6    3.42    0.89
  -1 -12  -6   10.53    1.52
   1 -12   6   14.27    1.30
  -3 -13   6    5.09    0.87
  -3  13   6    2.81    0.80
  -2 -13   6   12.97    1.30
  -2  13   6   12.84    1.30
  -1 -13   6   23.42    1.62
  -1  13   6   26.21    1.69
   0 -13   6    6.16    1.05
   0  13   6    5.16    0.96
   1 -13   6   14.55    1.37
  -1 -13  -6   10.27    1.54
  -3 -14   6    7.58    1.06
  -3  14   6    7.47    1.05
  -2 -14   6   18.24    1.51
  -2  14   6   17.81    1.43
  -1 -14   6   23.08    1.64
  -1  14   6   22.74    1.67
   0 -14   6    7.47    1.21
   0  14   6   10.65    1.29
  -1 -14  -6   11.45    1.57
  -3 -15   6    4.54    0.89
  -3  15   6    6.50    1.02
  -2 -15   6    8.66    1.16
  -2  15   6    8.54    1.15
  -1 -15   6   34.25    1.98
  -1  15   6   34.54    1.95
   0 -15   6    4.85    1.05
   0  15   6    4.79    1.01
  -1 -15  -6   10.15    1.62
   1 -15   6   12.96    1.35
  -2 -16   6    9.49    1.23
  -2  16   6   10.21    1.24
  -1 -16   6   18.41    1.55
  -1  16   6   19.65    1.65
   0 -16   6   11.09    1.36
   0  16   6   11.61    1.43
  -1 -16  -6    6.84    1.41
  -1 -17   6   22.62    1.71
  -1  17   6   25.04    1.78
   0 -17   6    1.42    0.86
   0  17   6    2.28    0.89
  -4   0   7    6.85    1.13
  -3   0   7   10.52    1.25
  -2   0   7    2.27    0.81
  -4  -1   7    2.52    0.85
  -4   1   7    2.79    0.88
  -3  -1   7   46.24    2.17
  -3   1   7   43.80    2.11
  -2  -1   7   17.73    1.45
  -1  -1  -7    9.20    1.57
  -4  -2   7    1.01    0.73
  -4   2   7    0.98    0.74
  -3  -2   7    1.46    0.75
  -2  -2   7    4.61    0.87
  -1  -2   7    3.00    0.79
  -1  -2  -7    3.81    1.30
  -4  -3   7    1.34    0.75
  -3  -3   7   28.64    1.82
  -2  -3   7   17.30    1.41
  -1  -3   7    2.18    0.75
  -1   3   7    2.17    0.77
  -1  -3  -7   10.05    1.62
  -4  -4   7    1.17    0.77
  -3  -4   7    1.49    0.76
  -3   4   7    2.94    0.99
  -2  -4   7    2.49    0.78
  -1  -4   7    8.64    1.15
  -1   4   7   10.03    1.27
   0  -4   7   50.09    2.38
  -1  -4  -7    6.41    1.53
   1  -4   7    8.53    1.37
  -3  -5   7   24.83    1.72
  -2  -5   7   22.16    1.60
  -2   5   7   29.05    1.91
  -1  -5   7    4.68    0.94
   1  -5   7   12.94    1.58
  -3  -6   7    4.30    0.92
  -3   6   7    6.80    1.18
  -2  -6   7    2.90    0.82
  -1  -6   7   19.67    1.58
  -1   6   7   21.86    1.63
   1  -6   7    8.99    1.44
  -3  -7   7   44.55    2.19
  -2  -7   7   21.48    1.63
  -2   7   7   22.62    1.71
  -1  -7   7    7.88    1.16
  -1   7   7    7.47    1.13
   1  -7   7   10.67    1.30
  -3  -8   7    3.44    0.87
  -3   8   7    5.87    1.09
  -2  -8   7    5.72    1.01
  -2   8   7    6.05    1.09
  -1  -8   7    4.76    1.00
  -1   8   7    6.56    1.07
   1  -8   7    7.20    1.38
  -3  -9   7   36.74    2.03
  -2  -9   7   11.29    1.33
  -2   9   7   14.22    1.42
  -1  -9   7    2.68    0.90
  -1   9   7    1.50    0.76
   1  -9   7    7.93    1.23
  -2 -10   7    1.97    0.82
  -2  10   7    1.84    0.82
  -1 -10   7    1.30    0.77
   0  10   7   28.66    1.85
  -2 -11   7   15.52    1.51
  -1 -11   7    3.37    0.95
  -1  11   7    3.02    0.92
   0  11   7    1.30    0.75
  -1  12   7    6.14    1.14
   0  12   7   39.83    2.25
   0   0   0    0.00    0.00
;
_shelx_hkl_checksum              60481
#END Tags that were not found in dictionaries
loop_
_space_group_symop_operation_xyz
'x, y, z'
'-x, y+1/2, -z'
loop_
_atom_site_type_symbol
_atom_site_label
_atom_site_fract_x
_atom_site_fract_y
_atom_site_fract_z
_atom_site_U_iso_or_equiv
_atom_site_adp_type
_atom_site_calc_flag
_atom_site_refinement_flags_adp
_atom_site_refinement_flags_posn
_atom_site_occupancy
Ag Ag1 0.21340(9) 0.85794(2) 0.42615(8) 0.01630(11) Uani d . . 1
Ag Ag2 -0.44091(9) 0.86676(2) -0.00931(8) 0.01766(11) Uani d . . 1
C C1 -0.0223(13) 0.7561(3) 0.0223(11) 0.0135(12) Uani d . . 1
C C2 0.1410(14) 0.6945(3) 0.1417(12) 0.0160(12) Uani d . . 1
H H2A 0.0174 0.6545 0.1004 0.019 Uiso calc U R 1
H H2B 0.3097 0.6878 0.0704 0.019 Uiso calc U R 1
C C3 0.2386(12) 0.7007(3) 0.4245(11) 0.0126(12) Uani d . . 1
H H3 0.0676 0.7048 0.4974 0.015 Uiso calc U R 1
C C4 0.4059(12) 0.6375(3) 0.5287(11) 0.0112(11) Uani d . . 1
C C5 0.3891(13) 0.5249(3) 0.6941(12) 0.0136(12) Uani d . . 1
H H5 0.5687 0.5205 0.6338 0.016 Uiso calc U R 1
C C6 0.4711(15) 0.5256(3) 0.9803(13) 0.0149(13) Uani d . . 1
H H6A 0.5848 0.5663 1.0387 0.018 Uiso calc U R 1
H H6B 0.2962 0.5272 1.0455 0.018 Uiso calc U R 1
C C7 0.1978(12) 0.4648(3) 0.5929(12) 0.0126(11) Uani d . . 1
N N1 0.4197(11) 0.7604(3) 0.4921(10) 0.0124(10) Uani d . . 1
H H1A 0.5719 0.7588 0.3984 0.015 Uiso calc U R 1
H H1B 0.5134 0.7573 0.672 0.015 Uiso calc U R 1
N N2 0.2534(10) 0.5877(3) 0.5975(10) 0.0130(10) Uani d . . 1
H H2 0.0692 0.593 0.5841 0.016 Uiso calc U R 1
N N3 0.6384(12) 0.4655(3) 1.0779(10) 0.0161(11) Uani d . . 1
H H3A 0.7043 0.4709 1.2611 0.019 Uiso calc U R 1
H H3B 0.8106 0.4652 1.0086 0.019 Uiso calc U R 1
O O1 0.0601(10) 0.7894(3) -0.1369(9) 0.0240(11) Uani d . . 1
O O2 -0.2456(10) 0.7708(3) 0.1033(9) 0.0216(10) Uani d . . 1
O O3 0.6635(9) 0.6332(2) 0.5419(10) 0.0241(11) Uani d . . 1
O O4 0.2661(11) 0.4294(3) 0.4316(10) 0.0296(12) Uani d . . 1
O O5 -0.0206(9) 0.4563(2) 0.6812(9) 0.0190(10) Uani d . . 1
loop_
_atom_site_aniso_label
_atom_site_aniso_U_11
_atom_site_aniso_U_22
_atom_site_aniso_U_33
_atom_site_aniso_U_12
_atom_site_aniso_U_13
_atom_site_aniso_U_23
Ag1 0.0182(2) 0.0094(2) 0.0197(2) 0.00319(18) 0.00099(16) -0.00150(18)
Ag2 0.0203(2) 0.0132(2) 0.0183(2) 0.00371(19) 0.00212(16) -0.00179(19)
C1 0.013(3) 0.015(3) 0.012(3) -0.004(2) -0.001(2) -0.003(2)
C2 0.015(3) 0.015(3) 0.016(3) -0.001(2) 0.000(2) -0.003(2)
C3 0.007(3) 0.012(3) 0.020(3) 0.001(2) 0.005(2) 0.003(2)
C4 0.011(3) 0.010(3) 0.013(3) 0.002(2) 0.003(2) 0.002(2)
C5 0.012(3) 0.009(3) 0.021(3) 0.001(2) 0.006(2) 0.004(2)
C6 0.019(3) 0.009(3) 0.017(3) -0.002(2) 0.004(3) 0.001(2)
C7 0.009(3) 0.011(3) 0.018(3) 0.001(2) 0.002(2) 0.003(2)
N1 0.011(2) 0.009(2) 0.015(3) 0.000(2) 0.000(2) 0.000(2)
N2 0.008(2) 0.013(2) 0.019(3) 0.0021(18) 0.005(2) 0.0072(19)
N3 0.015(3) 0.018(3) 0.014(3) -0.001(2) 0.001(2) 0.003(2)
O1 0.024(3) 0.033(3) 0.017(2) 0.008(2) 0.009(2) 0.011(2)
O2 0.017(2) 0.018(2) 0.032(3) 0.0044(19) 0.011(2) 0.008(2)
O3 0.010(2) 0.014(2) 0.051(3) 0.0037(17) 0.012(2) 0.011(2)
O4 0.023(3) 0.038(3) 0.031(3) -0.007(2) 0.012(2) -0.016(2)
O5 0.014(2) 0.017(2) 0.028(3) -0.0053(19) 0.009(2) -0.006(2)
loop_
_atom_type_symbol
_atom_type_description
_atom_type_scat_dispersion_real
_atom_type_scat_dispersion_imag
_atom_type_scat_source
C C 0.0033 0.0016 'International Tables Vol C Tables 4.2.6.8 and 6.1.1.4'
H H 0.0000 0.0000 'International Tables Vol C Tables 4.2.6.8 and 6.1.1.4'
N N 0.0061 0.0033 'International Tables Vol C Tables 4.2.6.8 and 6.1.1.4'
O O 0.0106 0.0060 'International Tables Vol C Tables 4.2.6.8 and 6.1.1.4'
Ag Ag -0.8971 1.1015 'International Tables Vol C Tables 4.2.6.8 and 6.1.1.4'
loop_
_geom_angle_atom_site_label_1
_geom_angle_atom_site_label_2
_geom_angle_atom_site_label_3
_geom_angle_site_symmetry_1
_geom_angle_site_symmetry_3
_geom_angle
N1 Ag1 O5 . 2_556 173.42(19)
N1 Ag1 Ag2 . 1_656 76.71(14)
O5 Ag1 Ag2 2_556 1_656 107.93(13)
N1 Ag1 Ag2 . 1_655 83.00(14)
O5 Ag1 Ag2 2_556 1_655 90.61(12)
Ag2 Ag1 Ag2 1_656 1_655 118.66(2)
O2 Ag2 N3 . 2_556 173.4(2)
O2 Ag2 Ag1 . 1_454 109.08(14)
N3 Ag2 Ag1 2_556 1_454 76.79(14)
O2 Ag2 Ag1 . 1_455 90.25(12)
N3 Ag2 Ag1 2_556 1_455 84.15(15)
Ag1 Ag2 Ag1 1_454 1_455 118.66(2)
O1 C1 O2 . . 123.6(6)
O1 C1 C2 . . 121.4(6)
O2 C1 C2 . . 115.0(5)
C3 C2 C1 . . 112.4(5)
C3 C2 H2A . . 109.1
C1 C2 H2A . . 109.1
C3 C2 H2B . . 109.1
C1 C2 H2B . . 109.1
H2A C2 H2B . . 107.9
N1 C3 C2 . . 110.4(5)
N1 C3 C4 . . 110.0(5)
C2 C3 C4 . . 109.1(5)
N1 C3 H3 . . 109.1
C2 C3 H3 . . 109.1
C4 C3 H3 . . 109.1
O3 C4 N2 . . 122.9(6)
O3 C4 C3 . . 121.0(5)
N2 C4 C3 . . 116.1(5)
N2 C5 C6 . . 110.7(5)
N2 C5 C7 . . 111.0(5)
C6 C5 C7 . . 111.8(5)
N2 C5 H5 . . 107.7
C6 C5 H5 . . 107.7
C7 C5 H5 . . 107.7
N3 C6 C5 . . 110.8(5)
N3 C6 H6A . . 109.5
C5 C6 H6A . . 109.5
N3 C6 H6B . . 109.5
C5 C6 H6B . . 109.5
H6A C6 H6B . . 108.1
O4 C7 O5 . . 125.4(6)
O4 C7 C5 . . 118.0(5)
O5 C7 C5 . . 116.6(5)
C3 N1 Ag1 . . 117.4(4)
C3 N1 H1A . . 107.9
Ag1 N1 H1A . . 107.9
C3 N1 H1B . . 107.9
Ag1 N1 H1B . . 107.9
H1A N1 H1B . . 107.2
C4 N2 C5 . . 120.8(5)
C4 N2 H2 . . 119.6
C5 N2 H2 . . 119.6
C6 N3 Ag2 . 2_546 119.5(4)
C6 N3 H3A . . 107.5
Ag2 N3 H3A 2_546 . 107.5
C6 N3 H3B . . 107.5
Ag2 N3 H3B 2_546 . 107.5
H3A N3 H3B . . 107.0
C1 O2 Ag2 . . 116.4(4)
C7 O5 Ag1 . 2_546 110.8(4)
loop_
_geom_bond_atom_site_label_1
_geom_bond_atom_site_label_2
_geom_bond_site_symmetry_2
_geom_bond_distance
Ag1 N1 . 2.178(5)
Ag1 O5 2_556 2.194(5)
Ag1 Ag2 1_656 3.1717(7)
Ag1 Ag2 1_655 3.2235(6)
Ag2 O2 . 2.162(5)
Ag2 N3 2_556 2.183(6)
Ag2 Ag1 1_454 3.1717(7)
Ag2 Ag1 1_455 3.2235(6)
C1 O1 . 1.236(7)
C1 O2 . 1.291(7)
C1 C2 . 1.525(9)
C2 C3 . 1.523(9)
C2 H2A . 0.99
C2 H2B . 0.99
C3 N1 . 1.474(8)
C3 C4 . 1.534(8)
C3 H3 . 1.0
C4 O3 . 1.230(7)
C4 N2 . 1.342(8)
C5 N2 . 1.457(7)
C5 C6 . 1.532(9)
C5 C7 . 1.536(9)
C5 H5 . 1.0
C6 N3 . 1.477(9)
C6 H6A . 0.99
C6 H6B . 0.99
C7 O4 . 1.238(8)
C7 O5 . 1.269(7)
N1 H1A . 0.99
N1 H1B . 0.99
N2 H2 . 0.88
N3 Ag2 2_546 2.183(6)
N3 H3A . 0.99
N3 H3B . 0.99
O5 Ag1 2_546 2.194(5)
