#------------------------------------------------------------------------------
#$Date: 2016-03-24 14:28:49 +0200 (Thu, 24 Mar 2016) $
#$Revision: 179665 $
#$URL: svn://www.crystallography.net/cod/cif/4/51/18/4511869.cif $
#------------------------------------------------------------------------------
#
# This file is available in the Crystallography Open Database (COD),
# http://www.crystallography.net/
#
# All data on this site have been placed in the public domain by the
# contributors.
#
data_4511869
loop_
_publ_author_name
'Miyake, Ryosuke'
'Nakagawa, Yuki'
'Hase, Mariko'
_publ_section_title
;
 Selective Thermal Elongation of Metal--Metal Distances in the
 Two-Dimensional Assembly of Ag(I) Ions Templated by Assembled Peptide
 Ligands
;
_journal_issue                   10
_journal_name_full               'Crystal Growth &amp; Design'
_journal_page_first              4882
_journal_paper_doi               10.1021/cg5009347
_journal_volume                  14
_journal_year                    2014
_chemical_absolute_configuration ad
_chemical_formula_sum            'C7 H11 Ag2 N3 O5'
_chemical_formula_weight         432.93
_space_group_crystal_system      monoclinic
_space_group_IT_number           4
_space_group_name_Hall           'P 2yb'
_space_group_name_H-M_alt        'P 1 21 1'
_symmetry_space_group_name_Hall  'P 2yb'
_symmetry_space_group_name_H-M   'P 1 21 1'
_atom_sites_solution_hydrogens   geom
_cell_angle_alpha                90
_cell_angle_beta                 103.221(2)
_cell_angle_gamma                90
_cell_formula_units_Z            2
_cell_length_a                   4.8117(7)
_cell_length_b                   19.917(3)
_cell_length_c                   5.5101(8)
_cell_measurement_temperature    173
_cell_volume                     514.06(13)
_computing_cell_refinement       'SAINT V8.32B (Bruker AXS)'
_computing_data_collection       'Bruker SMART APEXII ULTRA'
_computing_data_reduction        'SAINT V8.32B (Bruker AXS)'
_computing_molecular_graphics    'XSHELL V6.3.1 (Bruker AXS)'
_computing_publication_material  'Generate Report (Bruker AXS)'
_computing_structure_refinement  'SHELXL-2013 (Sheldrick, 2013)'
_computing_structure_solution    'SHELXS-97 (Sheldrick, 1997)'
_diffrn_ambient_temperature      173
_diffrn_detector_area_resol_mean 8.333
_diffrn_measured_fraction_theta_full 0.989
_diffrn_measured_fraction_theta_max 0.989
_diffrn_measurement_device_type  'Bruker D8 goniometer'
_diffrn_measurement_method       'omega scans'
_diffrn_radiation_monochromator  'multilayered conforcal mirror'
_diffrn_radiation_type           MoK\a
_diffrn_radiation_wavelength     0.71073
_diffrn_reflns_av_R_equivalents  0.0172
_diffrn_reflns_limit_h_max       6
_diffrn_reflns_limit_h_min       -5
_diffrn_reflns_limit_k_max       22
_diffrn_reflns_limit_k_min       -27
_diffrn_reflns_limit_l_max       6
_diffrn_reflns_limit_l_min       -7
_diffrn_reflns_number            3571
_diffrn_reflns_theta_full        29.12
_diffrn_reflns_theta_max         29.12
_diffrn_reflns_theta_min         2.04
_diffrn_source                   'rotating-anode X-ray tube'
_diffrn_source_type              'Bruker Tourbo X-ray Source'
_exptl_absorpt_coefficient_mu    3.824
_exptl_absorpt_correction_T_max  0.96
_exptl_absorpt_correction_T_min  0.82
_exptl_absorpt_correction_type   empirical
_exptl_absorpt_process_details   'SADABS V2012/1 (Bruker AXS)'
_exptl_crystal_colour            colorless
_exptl_crystal_density_diffrn    2.797
_exptl_crystal_density_method    'not measured'
_exptl_crystal_description       plate
_exptl_crystal_F_000             416
_exptl_crystal_size_max          0.055
_exptl_crystal_size_mid          0.023
_exptl_crystal_size_min          0.010
_refine_diff_density_max         1.194
_refine_diff_density_min         -0.744
_refine_ls_abs_structure_details
;
Flack x determined using 876 quotients [(I+)-(I-)]/[(I+)+(I-)]
(Parsons and Flack (2004), Acta Cryst. A60, s61).
;
_refine_ls_abs_structure_Flack   0.02(3)
_refine_ls_extinction_method     none
_refine_ls_goodness_of_fit_ref   1.056
_refine_ls_hydrogen_treatment    constr
_refine_ls_matrix_type           full
_refine_ls_number_parameters     154
_refine_ls_number_reflns         2230
_refine_ls_number_restraints     1
_refine_ls_restrained_S_all      1.056
_refine_ls_R_factor_all          0.0262
_refine_ls_R_factor_gt           0.0239
_refine_ls_shift/su_max          0.000
_refine_ls_shift/su_mean         0.000
_refine_ls_structure_factor_coef Fsqd
_refine_ls_weighting_details
'w=1/[\s^2^(Fo^2^)+(0.0191P)^2^+0.5027P] where P=(Fo^2^+2Fc^2^)/3'
_refine_ls_weighting_scheme      calc
_refine_ls_wR_factor_gt          0.0501
_refine_ls_wR_factor_ref         0.0509
_reflns_number_gt                2109
_reflns_number_total             2230
_reflns_threshold_expression     'I > 2\s(I)'
_cod_data_source_file            cg5009347_si_001.cif
_cod_data_source_block           p21_173K_again
_cod_depositor_comments
'Adding full bibliography for 4511859--4511871.cif.'
_cod_database_code               4511869
#BEGIN Tags that were not found in dictionaries:
_shelx_res_file
;
TITL p21(-100) in P2(1)
CELL 0.71073   4.81170  19.91740   5.51010  90.0000 103.2210  90.0000
ZERR    2.00   0.00070   0.00280   0.00080   0.0000   0.0022   0.0000
LATT -1
SYMM -X, 0.5+Y, -Z
SFAC C  H  N  O  Ag
UNIT 14  22  6  10  4
L.S. 10
SHEL 20 0.73
ACTA
BOND $h
FMAP 2
PLAN 20
size 0.055 0.023 0.010
TEMP -100
WGHT    0.019100    0.502700
FVAR       0.18766
AG1   5    0.212723    0.857733    0.429469    11.00000    0.02302    0.01190 =
         0.02697   -0.00228   -0.00116    0.00471
AG2   5   -0.437541    0.866934   -0.008397    11.00000    0.02506    0.01585 =
         0.02455   -0.00289    0.00028    0.00505
C1    1   -0.023412    0.755959    0.026135    11.00000    0.01302    0.01955 =
         0.01359   -0.00254   -0.00300    0.00005
C2    1    0.141882    0.694204    0.144164    11.00000    0.01755    0.01297 =
         0.02017   -0.00079    0.00223    0.00213
AFIX  23
H2A   2    0.019414    0.653977    0.102431    11.00000   -1.20000
H2B   2    0.311409    0.687972    0.073120    11.00000   -1.20000
AFIX   0
C3    1    0.238088    0.700410    0.426510    11.00000    0.00865    0.01021 =
         0.01969    0.00259    0.00365    0.00114
AFIX  13
H3    2    0.066713    0.704561    0.499460    11.00000   -1.20000
AFIX   0
C4    1    0.403727    0.637240    0.527689    11.00000    0.01181    0.01226 =
         0.01957    0.00197    0.00448    0.00131
C5    1    0.387829    0.524869    0.694823    11.00000    0.01307    0.01067 =
         0.02034    0.00281    0.00325    0.00093
AFIX  13
H5    2    0.568138    0.520234    0.635122    11.00000   -1.20000
AFIX   0
C6    1    0.468946    0.525775    0.978051    11.00000    0.02038    0.01269 =
         0.02325   -0.00061    0.00259    0.00196
AFIX  23
H6A   2    0.581712    0.566672    1.035742    11.00000   -1.20000
H6B   2    0.293598    0.527224    1.043198    11.00000   -1.20000
AFIX   0
C7    1    0.195746    0.465101    0.591475    11.00000    0.01255    0.01194 =
         0.01827    0.00031    0.00482    0.00006
N1    3    0.419604    0.760241    0.492269    11.00000    0.01364    0.00790 =
         0.02067   -0.00013   -0.00172    0.00092
AFIX  23
H1A   2    0.570312    0.758650    0.396534    11.00000   -1.20000
H1B   2    0.515647    0.757048    0.671081    11.00000   -1.20000
AFIX   0
N2    3    0.253549    0.587963    0.596245    11.00000    0.01043    0.01510 =
         0.02659    0.01074    0.00830    0.00505
AFIX  43
H2    2    0.069009    0.593355    0.582098    11.00000   -1.20000
AFIX   0
N3    3    0.637673    0.465803    1.076670    11.00000    0.01973    0.02180 =
         0.01533    0.00257    0.00042   -0.00143
AFIX  23
H3A   2    0.703151    0.471455    1.259351    11.00000   -1.20000
H3B   2    0.810191    0.465462    1.007342    11.00000   -1.20000
AFIX   0
O1    4    0.060400    0.789069   -0.133477    11.00000    0.03368    0.04246 =
         0.02373    0.01567    0.01290    0.01130
O2    4   -0.244427    0.771088    0.105625    11.00000    0.02553    0.02033 =
         0.04858    0.01533    0.02089    0.00951
O3    4    0.662750    0.632680    0.540220    11.00000    0.00859    0.01909 =
         0.06184    0.01808    0.01128    0.00476
O4    4    0.262639    0.429061    0.432580    11.00000    0.03507    0.04932 =
         0.04370   -0.02479    0.01892   -0.01614
O5    4   -0.020633    0.456336    0.679849    11.00000    0.01747    0.02274 =
         0.03616   -0.00743    0.01207   -0.00829
HKLF 4

REM  p21(-100) in P2(1)
REM R1 =  0.0239 for    2109 Fo > 4sig(Fo)  and  0.0262 for all    2230 data
REM    154 parameters refined using      1 restraints

END

WGHT      0.0191      0.5002

REM Highest difference peak  1.194,  deepest hole -0.744,  1-sigma level  0.111
Q1    1   0.1280  0.8485  0.5321  11.00000  0.05    1.19
Q2    1  -0.3342  0.8775 -0.1085  11.00000  0.05    0.99
Q3    1  -0.4373  0.8704  0.1415  11.00000  0.05    0.46
Q4    1   0.3048  0.8521  0.2729  11.00000  0.05    0.46
Q5    1   0.3259  0.8620  0.4720  11.00000  0.05    0.44
Q6    1   0.0818  0.3629  0.2891  11.00000  0.05    0.44
Q7    1   0.1456  0.8517  0.2341  11.00000  0.05    0.43
Q8    1   0.8890  0.3898  1.1402  11.00000  0.05    0.43
Q9    1  -0.2645  0.8417 -0.0628  11.00000  0.05    0.43
Q10   1  -0.4861  0.8286 -0.0267  11.00000  0.05    0.42
Q11   1   0.0139  0.3624  0.3497  11.00000  0.05    0.41
Q12   1   0.0586  0.8604  0.3066  11.00000  0.05    0.39
Q13   1  -0.5739  0.8599 -0.2080  11.00000  0.05    0.39
Q14   1   0.7021  0.6487  0.4794  11.00000  0.05    0.38
Q15   1  -0.3926  0.9157  0.0157  11.00000  0.05    0.36
Q16   1   0.6500  0.4533  1.1993  11.00000  0.05    0.36
Q17   1  -0.6105  0.8610 -0.0664  11.00000  0.05    0.35
Q18   1  -0.0712  0.7778  0.2304  11.00000  0.05    0.35
Q19   1  -0.0905  0.4617  0.8299  11.00000  0.05    0.34
Q20   1   0.0854  0.8483 -0.1592  11.00000  0.05    0.34
;
_shelx_res_checksum              64637
_shelx_hkl_file
;
   1   0   0  141.48    2.35
   1   0   0  138.67    2.22
   2   0   0   16.48    0.65
   2   0   0   16.17    0.58
   3   0   0   41.25    1.26
   3   0   0   39.59    1.13
   4   0   0   28.55    1.11
   4   0   0   30.28    1.28
   5   0   0   67.82    2.21
   6   0   0   14.43    1.37
   0  -1   0   -1.35    0.02
   0   1   0   -1.35    0.02
   1  -1   0   94.29    1.62
   1  -1   0   92.06    1.52
   1   1   0   91.09    1.61
   1   1   0   88.56    1.52
   1   1   0   87.92    1.60
   2  -1   0  218.57    3.77
   2  -1   0  215.95    3.55
   2   1   0  220.49    3.78
   2   1   0  217.61    3.55
   3  -1   0  137.93    2.83
   3  -1   0  139.32    2.63
   3   1   0  137.96    2.62
   3   1   0  139.83    2.86
   4  -1   0    9.76    0.85
   4  -1   0   10.74    0.77
   4   1   0   10.85    0.85
   5  -1   0   11.54    1.08
   5   1   0   11.23    1.05
   6  -1   0   36.90    1.83
   6   1   0   35.11    1.83
   0  -2   0  905.85   13.46
   1  -2   0   44.45    0.91
  -1  -2   0   43.34    0.88
   1   2   0   48.72    0.93
   1   2   0   48.55    0.95
   2  -2   0    1.53    0.28
   2  -2   0    1.27    0.27
   2   2   0    1.29    0.27
   2   2   0    0.90    0.15
   3  -2   0  101.53    2.09
   3  -2   0  100.83    2.25
   3   2   0   98.89    2.23
   4  -2   0   28.25    1.11
   4  -2   0   26.54    1.21
   4   2   0   25.31    1.20
   5  -2   0   42.01    1.71
   5   2   0   41.85    1.71
   6  -2   0    7.61    1.04
   6   2   0    9.01    1.14
   0  -3   0   -0.51    0.10
  -1  -3   0   63.98    1.18
   1  -3   0   63.33    1.22
   1  -3   0   63.09    1.21
   1   3   0   65.30    1.28
   1   3   0   64.02    1.23
   2  -3   0  169.37    3.00
  -2  -3   0  169.59    2.83
   2  -3   0  167.54    2.86
   2   3   0  158.44    3.00
   2   3   0  165.27    2.99
  -3  -3   0  232.53    3.97
   3  -3   0  235.99    4.28
   3  -3   0  236.89    4.05
   3   3   0  227.78    4.26
   4  -3   0    3.91    0.62
  -4  -3   0    3.37    0.45
   4  -3   0    4.32    0.60
   4   3   0    3.63    0.57
   5  -3   0    6.28    0.87
   5   3   0    5.23    0.83
   6  -3   0   32.67    1.76
   6   3   0   33.52    1.79
   0  -4   0  405.89    6.17
   1  -4   0  146.18    2.47
  -1  -4   0  147.04    2.45
   1  -4   0  143.65    2.48
   1   4   0  146.66    2.50
   1   4   0  149.49    2.71
   2  -4   0   23.24    0.79
   2  -4   0   23.76    0.80
  -2  -4   0   23.97    0.73
   2   4   0   24.74    0.69
   2   4   0   25.28    0.81
  -3  -4   0   81.28    1.76
   3  -4   0   81.65    1.96
   3  -4   0   81.66    1.83
   3   4   0   78.96    1.93
  -4  -4   0    8.83    0.68
   4  -4   0    9.53    0.79
   4  -4   0    9.94    0.86
   4   4   0    9.37    0.83
   5  -4   0   22.27    1.34
   5   4   0   21.45    1.34
   6  -4   0   10.56    1.17
   6   4   0    8.18    1.10
   0  -5   0   -1.00    0.17
   1  -5   0   77.98    1.57
  -1  -5   0   80.94    1.54
   1  -5   0   79.43    1.49
   1   5   0   81.72    1.68
   1   5   0   82.01    1.52
   2  -5   0  294.80    4.96
  -2  -5   0  293.53    4.77
   2  -5   0  302.75    4.85
   2   5   0  289.83    5.26
   2   5   0  300.36    4.99
  -3  -5   0  316.35    5.24
   3  -5   0  324.90    5.55
   3  -5   0  319.30    5.29
   3   5   0  298.13    5.63
   3   5   0  319.83    5.57
  -4  -5   0    0.98    0.36
   4  -5   0    0.52    0.43
   4  -5   0    1.24    0.47
   4   5   0    1.67    0.49
   5  -5   0    6.72    0.90
   5   5   0    7.30    0.92
   6  -5   0   32.72    1.74
   6   5   0   31.86    1.79
   0  -6   0  325.98    5.17
  -1  -6   0  146.82    2.58
   1  -6   0  147.54    2.63
   1  -6   0  147.01    2.54
   1   6   0  149.29    2.86
   1   6   0  149.76    2.57
   2  -6   0    4.73    0.47
  -2  -6   0    5.72    0.43
   2  -6   0    4.91    0.44
   2   6   0    5.24    0.45
   2   6   0    4.94    0.38
   3  -6   0  156.47    2.98
   3  -6   0  152.84    3.06
  -3  -6   0  151.72    2.88
   3   6   0  155.91    3.10
   3   6   0  143.53    2.97
  -4  -6   0    7.12    0.66
   4  -6   0    6.71    0.74
   4  -6   0    7.51    0.74
   4   6   0    9.47    0.85
   5  -6   0   24.87    1.37
   5   6   0   25.26    1.44
   6  -6   0    8.69    1.09
   6   6   0   10.89    1.24
   0  -7   0   -0.05    0.21
   1  -7   0  233.08    3.92
  -1  -7   0  244.09    4.01
   1  -7   0  243.07    4.03
   2  -7   0  175.28    3.19
   2  -7   0  172.31    3.14
  -2  -7   0  171.51    3.12
   2   7   0  178.30    3.20
   2   7   0  172.40    3.38
  -3  -7   0  352.03    5.86
   3  -7   0  353.94    6.09
   3  -7   0  358.79    5.97
   3   7   0  342.22    6.36
   3   7   0  356.28    6.15
  -4  -7   0    2.22    0.44
   4  -7   0    2.91    0.55
   4  -7   0    2.35    0.53
   4   7   0    2.20    0.51
   5  -7   0    5.44    0.82
   5   7   0    5.43    0.86
   6  -7   0   26.29    1.56
   6   7   0   26.96    1.68
   0  -8   0  661.12   10.15
  -1  -8   0  189.17    3.33
   1  -8   0  189.31    3.36
   1  -8   0  188.07    3.20
   2  -8   0   44.18    1.18
  -2  -8   0   46.96    1.25
   2  -8   0   45.91    1.29
   2   8   0   45.78    1.20
   2   8   0   44.90    1.25
   3  -8   0   60.88    1.64
  -3  -8   0   59.72    1.59
   3  -8   0   61.30    1.69
   3   8   0   57.38    1.54
   3   8   0   59.46    1.65
   4  -8   0   13.34    0.94
   4  -8   0   13.84    0.96
  -4  -8   0   14.24    0.86
   4   8   0   14.21    1.01
   5  -8   0   38.92    1.66
   5   8   0   40.93    1.77
   6  -8   0    5.55    0.94
   6   8   0    6.37    1.02
   0  -9   0   -0.49    0.22
   1  -9   0   46.59    1.10
   1  -9   0   48.84    1.32
  -1  -9   0   48.87    1.28
   2  -9   0   42.84    1.29
  -2  -9   0   42.60    1.22
   2  -9   0   39.61    1.11
   2   9   0   44.00    1.19
  -3  -9   0   96.44    2.22
   3  -9   0   96.45    2.22
   3  -9   0   97.04    2.29
   3   9   0   96.38    2.26
   4  -9   0   10.77    0.91
  -4  -9   0    8.28    0.78
   4   9   0   10.69    0.95
   5  -9   0    6.61    0.88
   5   9   0    6.85    0.92
   6  -9   0   27.27    1.63
   6   9   0   29.92    1.74
   0 -10   0  758.60   11.72
   1 -10   0   33.60    1.13
  -1 -10   0   35.63    1.10
   1 -10   0   33.98    0.91
   2 -10   0    3.27    0.50
   2 -10   0    3.05    0.37
  -2 -10   0    3.89    0.50
   2  10   0    4.00    0.45
   3 -10   0   41.58    1.43
   3 -10   0   40.68    1.31
  -3 -10   0   38.66    1.32
   3  10   0   42.55    1.35
  -4 -10   0   16.76    0.99
   4 -10   0   17.37    1.10
   4 -10   0   18.82    1.08
   4  10   0   18.31    1.07
   5 -10   0   45.96    1.83
   5  10   0   49.70    1.92
   6 -10   0    9.46    1.13
   6  10   0    8.75    1.15
   0 -11   0    0.08    0.27
  -1 -11   0   65.20    1.67
   1 -11   0   63.88    1.69
   1 -11   0   64.30    1.41
  -2 -11   0   79.22    1.95
   2 -11   0   77.82    1.99
   2 -11   0   78.65    1.76
  -3 -11   0  131.50    2.80
   3 -11   0  126.24    2.85
   3 -11   0  128.99    2.74
   3  11   0  125.56    2.79
  -4 -11   0   24.66    1.19
   4 -11   0   27.42    1.36
   4 -11   0   24.97    1.21
   4  11   0   25.65    1.25
   5 -11   0    6.60    0.87
   5  11   0    6.05    0.89
   6 -11   0   21.23    1.49
   6  11   0   24.44    1.63
   0 -12   0  728.88   11.48
   1 -12   0   47.95    1.47
   1 -12   0   44.33    1.14
  -1 -12   0   46.73    1.42
  -2 -12   0   26.44    1.09
   2 -12   0   26.16    1.17
   2 -12   0   25.65    0.92
  -3 -12   0   59.01    1.77
   3 -12   0   59.02    1.66
   3 -12   0   60.11    1.86
   3  12   0   60.48    1.72
  -4 -12   0   27.33    1.27
   4 -12   0   26.77    1.24
   4 -12   0   25.62    1.39
   4  12   0   24.12    1.23
   5 -12   0   28.28    1.45
   5  12   0   28.77    1.55
   6 -12   0    7.11    1.10
   0 -13   0    1.01    0.37
  -1 -13   0   34.07    1.26
   1 -13   0   33.67    1.28
   1 -13   0   32.40    0.96
  -2 -13   0  134.04    2.92
   2 -13   0  133.70    2.98
   2 -13   0  132.68    2.65
   3 -13   0   99.57    2.57
  -3 -13   0  105.39    2.57
   3 -13   0  101.01    2.33
   4 -13   0   33.17    1.39
   4 -13   0   34.82    1.59
  -4 -13   0   34.07    1.48
   4  13   0   32.54    1.43
   5 -13   0    2.55    0.65
   5  13   0    2.27    0.67
   0 -14   0  247.78    4.67
   1 -14   0   43.48    1.17
   1 -14   0   46.35    1.56
  -1 -14   0   44.78    1.52
   2 -14   0   47.86    1.67
   2 -14   0   49.91    1.36
  -2 -14   0   49.37    1.61
  -3 -14   0   39.36    1.53
   3 -14   0   38.89    1.58
   3 -14   0   39.26    1.31
  -4 -14   0   15.89    1.14
   4 -14   0   12.63    0.94
   4 -14   0   13.94    1.20
   5  14   0   14.11    1.27
   0 -15   0    0.11    0.38
   1 -15   0   59.54    1.46
  -1 -15   0   63.50    1.89
   1 -15   0   59.55    1.87
   2 -15   0   59.36    1.91
  -2 -15   0   59.55    1.86
   2 -15   0   58.66    1.52
   3 -15   0  100.43    2.71
  -3 -15   0  106.29    2.71
   3 -15   0  102.44    2.38
   4 -15   0   20.92    1.21
   4 -15   0   18.97    1.33
  -4 -15   0   19.09    1.26
   0 -16   0   84.50    2.30
   1 -16   0   35.49    1.48
  -1 -16   0   37.63    1.48
   1 -16   0   35.69    1.09
   2 -16   0   25.05    0.96
  -2 -16   0   26.23    1.29
   2 -16   0   24.83    1.33
   3 -16   0   41.23    1.73
  -3 -16   0   40.15    1.64
   3 -16   0   37.34    1.47
  -4 -16   0    9.58    1.03
   4 -16   0    8.56    1.03
   0 -17   0    0.12    0.37
  -1 -17   0   32.75    1.42
   1 -17   0   30.61    1.44
   1 -17   0   33.14    1.05
   2 -17   0   52.01    1.91
  -2 -17   0   55.55    1.91
  -3 -17   0   75.63    2.36
   3 -17   0   77.42    2.43
   4 -17   0    0.86    0.65
  -4 -17   0    1.94    0.64
   0 -18   0  316.03    5.99
   1 -18   0   60.84    2.04
  -1 -18   0   57.61    1.98
  -2 -18   0   16.54    1.17
   2 -18   0   15.86    1.24
  -3 -18   0   24.70    1.43
   3 -18   0   23.92    1.46
  -4 -18   0    5.84    0.91
   4 -18   0    3.93    0.83
   0 -19   0    0.62    0.44
  -1 -19   0   78.51    2.43
   1 -19   0   79.83    2.45
  -2 -19   0   23.07    1.37
   2 -19   0   22.93    1.41
  -3 -19   0   61.74    2.25
   3 -19   0   63.76    2.29
   4 -19   0   19.08    1.48
  -4 -19   0   20.10    1.44
   0 -20   0  120.81    3.16
   1 -20   0   50.42    1.97
  -1 -20   0   48.47    1.93
  -2 -20   0   17.46    1.26
   2 -20   0   17.24    1.32
   3 -20   0   21.62    1.48
  -3 -20   0   18.91    1.39
   4 -20   0   12.85    1.33
  -4 -20   0   12.80    1.31
   0 -21   0    0.60    0.50
   1 -21   0   39.81    1.80
  -1 -21   0   38.33    1.77
   2 -21   0   12.68    1.31
  -2 -21   0   12.49    1.22
  -3 -21   0   29.05    1.68
   3 -21   0   32.28    1.76
   4 -21   0   19.92    1.58
  -4 -21   0   22.52    1.58
   0 -22   0   92.40    2.82
  -1 -22   0   17.93    1.35
   1 -22   0   18.31    1.38
  -2 -22   0   14.99    1.28
   2 -22   0   15.87    1.36
   3 -22   0   10.09    1.20
  -3 -22   0   11.04    1.25
  -4 -22   0    9.06    1.20
   4 -22   0    8.22    1.18
   0 -23   0    0.92    0.59
  -1 -23   0   23.03    1.52
   1 -23   0   24.08    1.58
  -2 -23   0   17.43    1.40
   2 -23   0   20.71    1.54
   3 -23   0   29.90    1.81
  -3 -23   0   29.57    1.77
  -4 -23   0   27.00    1.78
   4 -23   0   22.71    1.75
   0 -24   0   43.92    2.06
   1 -24   0   11.17    1.31
  -1 -24   0   12.43    1.36
  -2 -24   0   19.71    1.52
   2 -24   0   20.88    1.63
  -3 -24   0   24.25    1.67
   3 -24   0   23.57    1.71
   0 -25   0    0.24    0.62
   1 -25   0   26.45    1.75
  -1 -25   0   28.69    1.73
  -2 -25   0   21.68    1.60
   2 -25   0   22.49    1.71
  -3 -25   0   46.89    2.29
   3 -25   0   46.07    2.31
   0 -26   0   42.10    2.17
  -1 -26   0   28.80    1.79
   1 -26   0   30.19    1.89
  -2 -26   0   46.35    2.25
   2 -26   0   44.62    2.27
   0 -27   0    0.53    0.69
  -1 -27   0   21.38    1.66
   1 -27   0   20.74    1.73
   6   0  -1   -0.09    0.54
   5   0  -1    9.16    0.98
   4   0  -1   36.78    1.40
   3   0  -1    4.05    0.48
   2   0  -1  707.61   11.07
   1   0  -1   70.08    1.33
   0   0   1   11.31    0.37
   1   0   1  243.66    3.93
   1   0   1  244.08    3.97
   2   0   1  327.30    5.49
   2   0   1  330.30    5.38
   3   0   1   17.37    0.89
   3   0   1   16.39    0.87
   4   0   1    1.15    0.52
   4   0   1    1.73    0.53
   5   0   1   17.38    1.29
   5   0   1   16.30    1.19
   6   0   1    1.83    0.76
   6  -1  -1    1.36    0.70
   6   1  -1    2.29    0.74
   5  -1  -1  109.10    2.88
   5   1  -1  107.13    2.89
   4  -1  -1  101.58    2.46
   4   1  -1   98.43    2.43
   4   1  -1   93.43    2.18
   3  -1  -1   12.19    0.71
   3   1  -1   12.76    0.73
   2  -1  -1  102.64    2.02
   2   1  -1  100.02    2.00
   1  -1  -1  438.62    6.81
   1   1  -1  432.20    6.76
   0  -1   1   87.26    1.49
   0   1   1   87.69    1.48
   1  -1   1  193.02    3.12
   1  -1   1  191.17    3.15
   1   1   1  181.20    3.14
   1   1   1  187.12    3.12
   2  -1   1    3.82    0.45
   2  -1   1    2.52    0.35
   2   1   1    3.26    0.42
   2   1   1    3.39    0.39
   3  -1   1   26.66    1.07
   3  -1   1   26.62    1.05
   3   1   1   26.45    1.06
   3   1   1   25.22    1.04
   4  -1   1  200.72    4.10
   4  -1   1  198.76    3.96
   4   1   1  195.68    3.93
   4   1   1  194.95    4.08
   5  -1   1   24.31    1.38
   5  -1   1   23.35    1.40
   5   1   1   23.55    1.42
   6  -1   1    2.40    0.77
   6   1   1    2.68    0.78
   6  -2  -1    1.75    0.68
   6   2  -1    1.73    0.72
   5  -2  -1    4.07    0.75
   5   2  -1    2.85    0.69
   4  -2  -1   49.29    1.64
   4   2  -1   48.29    1.61
   4   2  -1   47.49    1.37
   3  -2  -1    2.38    0.40
   3   2  -1    3.32    0.46
   3   2  -1    3.19    0.36
   2  -2  -1  303.30    5.15
   2   2  -1  314.90    5.13
   1  -2  -1  294.01    4.77
   1   2  -1  299.25    4.68
   0  -2  -1   43.58    0.86
   0  -2   1   43.85    0.89
   1  -2   1  551.41    8.56
   1  -2   1  539.17    8.41
   1   2   1  563.10    8.41
   1   2   1  564.86    8.66
   2  -2   1  232.94    3.94
   2  -2   1  221.79    3.92
   2   2   1  227.12    4.00
   2   2   1  225.22    3.89
   3  -2   1   43.35    1.36
   3  -2   1   44.13    1.40
   3   2   1   44.63    1.37
   3   2   1   44.44    1.38
   4  -2   1   10.38    0.93
   4  -2   1   10.06    0.92
   4   2   1   10.84    0.91
   4   2   1   10.11    0.94
   5  -2   1   12.22    1.15
   5  -2   1   13.01    1.18
   5   2   1   12.13    1.15
   6  -2   1   14.03    1.35
   6   2   1   15.60    1.44
   6  -3  -1    0.85    0.65
   6   3  -1    1.04    0.67
   5  -3  -1   35.07    1.57
   5   3  -1   33.24    1.51
   4  -3  -1   86.99    2.29
   4   3  -1   90.46    2.30
   3  -3  -1   10.61    0.70
   3   3  -1   10.35    0.58
   3   3  -1   11.45    0.69
   2  -3  -1  111.64    2.15
   2   3  -1  107.90    2.10
   2   3  -1  102.64    2.19
   1  -3  -1  392.99    6.19
   1   3  -1  385.61    6.77
   1   3  -1  391.33    6.12
   0  -3  -1    3.09    0.27
   0  -3   1    3.05    0.28
   0   3  -1    1.68    0.21
   1  -3   1  392.01    6.10
   1  -3   1  394.68    6.13
   1   3   1  385.69    6.25
   2  -3   1   12.32    0.70
   2  -3   1   12.98    0.60
   2   3   1   12.50    0.63
   2   3   1   12.80    0.66
   3  -3   1   18.83    0.95
   3  -3   1   15.02    0.83
   3   3   1   16.95    0.88
   4  -3   1  146.21    3.24
   4  -3   1  149.98    3.29
   4   3   1  147.93    3.36
   5  -3   1    9.37    1.04
   5  -3   1    8.81    1.00
  -5  -3  -1    7.84    0.86
   5   3   1    8.59    1.03
   6  -3   1    1.66    0.71
   6   3   1    1.24    0.75
   6  -4  -1   -0.34    0.58
   6   4  -1    0.38    0.61
   5  -4  -1    4.21    0.76
   5   4  -1    4.67    0.76
   4  -4  -1   37.99    1.44
   4   4  -1   37.90    1.43
   4   4  -1   36.55    1.19
   3  -4  -1    9.46    0.66
   3   4  -1    9.49    0.56
   3   4  -1    9.48    0.66
   2  -4  -1  361.19    6.06
   2   4  -1  367.22    6.55
   2   4  -1  374.46    6.00
   1  -4  -1   61.13    1.17
  -1  -4   1   60.25    1.17
   1  -4  -1   62.20    1.29
   1   4  -1   58.19    1.13
   1   4  -1   58.17    1.36
   0  -4  -1   34.84    0.81
   0  -4   1   33.99    0.85
   0   4  -1   34.36    0.89
  -1  -4  -1  507.97    7.62
   1  -4   1  486.06    7.65
   1  -4   1  493.37    7.68
  -2  -4  -1  290.65    4.83
   2  -4   1  289.93    4.90
   2  -4   1  296.14    4.91
   2   4   1  289.45    4.99
  -3  -4  -1    7.84    0.62
   3  -4   1    7.25    0.65
   3  -4   1   10.41    0.85
   3   4   1    7.51    0.67
  -4  -4  -1    5.92    0.66
   4  -4   1    9.47    0.87
   4  -4   1    9.09    0.91
   4   4   1    7.15    0.79
   5  -4   1    4.38    0.80
   5  -4   1    4.67    0.77
  -5  -4  -1    4.40    0.71
   5   4   1    6.52    0.90
   6  -4   1   12.45    1.25
   6   4   1   17.51    1.49
   6  -5  -1    0.42    0.59
   6   5  -1    0.37    0.61
   5  -5  -1   42.02    1.71
   5   5  -1   40.81    1.68
   4  -5  -1  125.39    2.87
   4   5  -1  125.23    2.84
   4   5  -1  119.26    2.69
   3  -5  -1   11.08    0.72
   3  -5  -1   10.67    0.60
   3   5  -1   10.64    0.60
   3   5  -1   11.25    0.70
   2  -5  -1   71.18    1.59
  -2  -5   1   64.47    1.38
   2  -5  -1   70.02    1.40
   2   5  -1   71.80    1.52
   2   5  -1   70.58    1.64
   1  -5  -1  273.34    4.51
   1  -5  -1  269.69    4.31
  -1  -5   1  267.67    4.32
   1   5  -1  277.58    4.94
   1   5  -1  275.05    4.32
   0  -5  -1   32.65    0.83
   0  -5   1   31.11    0.85
   0   5  -1   33.68    0.92
   1  -5   1  267.85    4.44
   1  -5   1  268.46    4.25
  -1  -5  -1  266.01    4.35
   2  -5   1   12.21    0.72
   2  -5   1   11.10    0.56
  -2  -5  -1   12.35    0.64
   2   5   1   12.09    0.64
   3  -5   1   21.70    0.97
   3  -5   1   21.71    1.04
  -3  -5  -1   20.93    0.96
   3   5   1   21.77    0.98
   4  -5   1  149.71    3.27
  -4  -5  -1  146.75    3.16
   4  -5   1  142.58    3.23
   4   5   1  142.90    3.33
   5  -5   1   15.85    1.18
   5  -5   1   15.01    1.25
  -5  -5  -1   13.32    1.07
   5   5   1   14.46    1.24
   6  -5   1    2.37    0.79
   6   5   1    2.92    0.84
   6  -6  -1    1.35    0.66
   6   6  -1   -0.15    0.60
   5  -6  -1    2.43    0.66
   5   6  -1    4.03    0.71
   4  -6  -1   44.39    1.56
  -4  -6   1   41.56    1.22
   4   6  -1   41.46    1.32
   4   6  -1   45.80    1.55
  -3  -6   1    6.55    0.47
   3  -6  -1    5.67    0.56
   3  -6  -1    6.08    0.51
   3   6  -1    6.66    0.58
   3   6  -1    6.01    0.50
  -2  -6   1  407.43    6.58
   2  -6  -1  413.27    6.58
   2  -6  -1  434.59    6.95
   2   6  -1  434.57    6.84
   2   6  -1  426.13    7.54
  -1  -6   1   89.67    1.74
   1  -6  -1   92.13    1.74
   1  -6  -1   89.62    1.78
   1   6  -1   85.28    1.57
   1   6  -1   89.68    1.95
   0  -6  -1   45.75    1.06
   0  -6   1   45.07    1.10
   0   6  -1   42.74    1.15
   1  -6   1  688.11   10.55
  -1  -6  -1  691.98   10.47
   1  -6   1  687.04   10.57
  -2  -6  -1  152.82    2.89
   2  -6   1  153.97    3.01
   2  -6   1  153.02    2.82
   2   6   1  154.51    2.97
  -3  -6  -1   18.73    0.92
   3  -6   1   19.52    1.04
   3  -6   1   17.58    0.89
   3   6   1   20.74    0.97
   4  -6   1    1.56    0.49
   4  -6   1    1.42    0.56
  -4  -6  -1    1.78    0.53
   4   6   1    1.76    0.54
   5  -6   1   16.28    1.19
  -5  -6  -1   15.34    1.14
   5  -6   1   14.16    1.24
   5   6   1   16.84    1.28
   6  -6   1    5.31    0.96
   6   6   1    6.39    1.04
   6  -7  -1    0.84    0.65
   6   7  -1    1.18    0.70
   5  -7  -1   62.16    2.10
   5   7  -1   60.65    2.08
   4  -7  -1   79.65    1.94
   4  -7  -1   84.57    2.26
  -4  -7   1   78.96    1.86
   4   7  -1   83.42    2.09
   4   7  -1   86.36    2.21
  -3  -7   1   21.11    0.81
   3  -7  -1   23.02    0.90
   3  -7  -1   23.02    0.99
   3   7  -1   22.56    0.93
   3   7  -1   22.69    0.90
  -2  -7   1   57.38    1.34
   2  -7  -1   59.13    1.46
   2  -7  -1   57.73    1.35
   2   7  -1   59.09    1.34
   2   7  -1   59.34    1.53
   1  -7  -1  424.96    6.53
  -1  -7   1  412.57    6.53
   1  -7  -1  413.33    6.69
   1   7  -1  410.96    6.45
   1   7  -1  410.85    7.39
   0  -7   1   55.44    1.32
   0  -7  -1   55.24    1.29
   0   7  -1   55.98    1.41
   1  -7   1  354.57    5.84
   1  -7   1  358.01    5.60
  -1  -7  -1  360.60    5.77
   2  -7   1   15.36    0.64
  -2  -7  -1   14.88    0.73
   2  -7   1   15.99    0.85
   2   7   1   15.19    0.76
  -3  -7  -1   11.40    0.77
   3  -7   1   10.40    0.85
   3  -7   1   10.94    0.73
   3   7   1   12.08    0.82
   4  -7   1   88.61    2.33
   4  -7   1   88.63    2.42
  -4  -7  -1   90.95    2.33
   4   7   1   88.45    2.44
  -5  -7  -1   20.60    1.26
   5  -7   1   19.94    1.29
   5  -7   1   20.35    1.40
   5   7   1   21.69    1.41
   6  -7   1    0.44    0.58
   6   7   1    1.07    0.71
   6  -8  -1    2.94    0.78
   6   8  -1    2.36    0.75
   5  -8  -1    2.33    0.66
   5   8  -1    2.03    0.62
   4  -8  -1   42.25    1.34
  -4  -8   1   42.99    1.29
   4  -8  -1   42.74    1.55
   4   8  -1   38.53    1.47
   4   8  -1   39.64    1.36
   3  -8  -1   12.19    0.79
  -3  -8   1   11.29    0.66
   3  -8  -1   11.29    0.72
   3   8  -1   11.35    0.69
   3   8  -1   12.06    0.71
   2  -8  -1  266.40    4.49
   2  -8  -1  271.55    4.68
   2   8  -1  264.72    5.08
   2   8  -1  265.78    4.51
  -1  -8   1   81.13    1.76
   1  -8  -1   80.73    1.72
   1  -8  -1   87.30    1.78
   1   8  -1   77.46    1.49
   1   8  -1   81.47    1.93
   0  -8   1   59.04    1.45
   0  -8  -1   62.11    1.44
   0   8  -1   62.41    1.57
   1  -8   1  315.63    5.03
  -1  -8  -1  322.05    5.30
   1  -8   1  319.99    5.35
   2  -8   1  137.49    2.59
  -2  -8  -1  138.02    2.76
   2  -8   1  143.82    2.90
   3  -8   1   20.32    0.91
  -3  -8  -1   20.90    0.98
   3  -8   1   17.87    1.07
   3   8   1   18.46    0.98
   4  -8   1   13.22    0.97
  -4  -8  -1   13.08    0.96
   4  -8   1   12.26    1.05
   4   8   1   13.05    1.06
   5  -8   1   14.59    1.18
  -5  -8  -1   14.89    1.16
   5  -8   1   14.38    1.28
   5   8   1   15.15    1.28
   6  -8   1    7.31    1.05
   6  -9  -1    1.23    0.66
   6   9  -1    2.50    0.76
   5  -9  -1   57.39    2.03
   5   9  -1   55.43    1.99
   4  -9  -1   42.60    1.41
  -4  -9   1   40.87    1.33
   4  -9  -1   44.23    1.58
   4   9  -1   42.58    1.52
   4   9  -1   42.02    1.43
   3  -9  -1   10.63    0.75
   3  -9  -1   11.29    0.77
  -3  -9   1   10.10    0.67
   3   9  -1    8.61    0.64
   3   9  -1    9.66    0.68
   2  -9  -1   84.43    1.88
   2  -9  -1   83.66    1.93
  -2  -9   1   80.90    1.87
   2   9  -1   87.67    2.10
   2   9  -1   86.96    1.78
  -1  -9   1  305.46    5.09
   1  -9  -1  304.31    5.07
   1  -9  -1  298.51    5.09
   1   9  -1  301.56    5.68
   0  -9  -1   19.99    0.80
   0  -9   1   19.99    0.83
   0   9  -1   21.38    0.86
  -1  -9  -1   78.68    1.79
   1  -9   1   78.15    1.86
   2  -9   1   14.10    0.63
  -2  -9  -1   16.38    0.82
   2  -9   1   16.42    0.90
   3  -9   1   31.52    1.13
  -3  -9  -1   31.40    1.22
   3  -9   1   31.28    1.36
   3   9   1   32.51    1.27
  -4  -9  -1  160.68    3.49
   4  -9   1  163.39    3.50
   4  -9   1  159.12    3.62
   4   9   1  154.90    3.63
  -5  -9  -1   18.88    1.25
   5  -9   1   19.29    1.44
   5  -9   1   19.67    1.32
   5   9   1   20.72    1.44
   6  -9   1    0.46    0.68
   6 -10  -1    0.72    0.63
   6  10  -1    0.86    0.69
   5 -10  -1    4.33    0.78
   5  10  -1    4.29    0.75
   4 -10  -1   21.75    1.16
  -4 -10   1   18.57    0.96
   4 -10  -1   20.18    1.07
   4  10  -1   21.84    1.04
   4  10  -1   24.29    1.16
  -3 -10   1    8.79    0.67
   3 -10  -1    9.20    0.74
   3 -10  -1    8.56    0.76
   3  10  -1    8.74    0.65
   3  10  -1   10.16    0.71
  -2 -10   1  166.08    3.23
   2 -10  -1  171.75    3.22
   2 -10  -1  171.90    3.27
   2  10  -1  166.50    3.08
   2  10  -1  173.07    3.61
   1 -10  -1   92.87    1.97
   1 -10  -1   93.04    2.07
  -1 -10   1   93.34    2.07
   1  10  -1   94.22    2.25
   0 -10   1  100.91    2.21
   0 -10  -1  103.77    2.17
   0  10  -1   98.80    2.37
   1 -10   1  199.52    3.73
  -1 -10  -1  193.25    3.59
  -2 -10  -1  110.14    2.42
   2 -10   1  105.58    2.11
   2 -10   1  103.60    2.47
  -3 -10  -1   22.26    1.08
   3 -10   1   21.56    1.20
   3 -10   1   21.62    0.94
   4 -10   1    2.75    0.57
   4 -10   1    3.00    0.72
  -4 -10  -1    2.07    0.57
   4  10   1    3.67    0.70
  -5 -10  -1   19.54    1.31
   5 -10   1   17.86    1.39
   5 -10   1   18.49    1.27
   5  10   1   19.79    1.45
   6 -11  -1    2.18    0.76
   6  11  -1    1.89    0.71
   5 -11  -1   65.94    2.22
   5  11  -1   68.35    2.24
  -4 -11   1   43.39    1.46
   4 -11  -1   40.61    1.55
   4 -11  -1   44.40    1.55
   4  11  -1   39.41    1.46
   4  11  -1   43.92    1.55
   3 -11  -1    1.88    0.47
  -3 -11   1    3.36    0.51
   3 -11  -1    2.39    0.46
   3  11  -1    3.60    0.53
   3  11  -1    5.23    0.58
   2 -11  -1   60.01    1.62
  -2 -11   1   58.10    1.63
   2 -11  -1   60.53    1.59
   2  11  -1   60.47    1.42
   2  11  -1   63.24    1.77
   1 -11  -1  291.87    5.07
  -1 -11   1  297.42    5.15
   1 -11  -1  297.81    5.14
   1  11  -1  296.27    5.71
   0 -11   1   40.32    1.30
   0 -11  -1   41.40    1.27
   1 -11   1  158.21    3.20
  -1 -11  -1  155.22    3.11
   2 -11   1    6.40    0.48
  -2 -11  -1    8.01    0.74
   2 -11   1    6.13    0.69
   3 -11   1    6.38    0.80
  -3 -11  -1    7.86    0.84
   3 -11   1    6.13    0.60
  -4 -11  -1   89.03    2.48
   4 -11   1   88.17    2.55
   4 -11   1   90.02    2.35
  -5 -11  -1   18.80    1.34
   5 -11   1   19.89    1.46
   5  11   1   19.11    1.46
   6 -12  -1    4.70    0.89
   6  12  -1    4.85    0.88
   5 -12  -1    7.63    0.92
   5  12  -1   10.58    1.05
  -4 -12   1   22.64    1.12
   4 -12  -1   22.35    1.21
   4 -12  -1   24.89    1.24
   4  12  -1   25.72    1.18
   4  12  -1   24.02    1.18
   3 -12  -1    9.08    0.82
   3 -12  -1    8.50    0.74
  -3 -12   1    8.33    0.73
   3  12  -1    9.57    0.75
   3  12  -1    8.57    0.64
   2 -12  -1  227.01    4.20
   2 -12  -1  227.12    4.22
  -2 -12   1  230.56    4.29
   2  12  -1  227.42    4.01
   2  12  -1  226.71    4.69
   1 -12  -1   62.88    1.72
   1 -12  -1   62.20    1.56
  -1 -12   1   63.78    1.72
   1  12  -1   63.04    1.80
   0 -12   1   42.94    1.39
   0 -12  -1   43.97    1.38
   1 -12   1  227.56    4.28
  -1 -12  -1  221.22    4.18
  -2 -12  -1   98.65    2.35
   2 -12   1   98.61    2.48
   2 -12   1   96.92    1.99
  -3 -12  -1   17.09    1.06
   3 -12   1   17.00    1.15
   3 -12   1   16.15    0.82
   4 -12   1    0.87    0.45
   4 -12   1    2.87    0.74
  -4 -12  -1    1.75    0.61
   5 -12   1   10.72    1.18
  -5 -12  -1   13.13    1.25
   6 -13  -1    2.38    0.75
   6  13  -1    3.49    0.83
   5 -13  -1   44.80    1.83
   5  13  -1   46.11    1.82
  -4 -13   1   66.84    1.95
   4 -13  -1   66.75    2.02
   4 -13  -1   68.55    2.06
   4  13  -1   65.55    2.05
   4  13  -1   64.99    1.94
  -3 -13   1   30.62    1.26
   3 -13  -1   29.76    1.20
   3 -13  -1   29.11    1.26
   3  13  -1   29.39    1.27
   3  13  -1   28.93    1.08
   2 -13  -1   41.67    1.41
  -2 -13   1   39.86    1.39
   2 -13  -1   40.11    1.28
   2  13  -1   36.81    1.41
   1 -13  -1  121.75    2.71
  -1 -13   1  119.94    2.70
   1 -13  -1  121.28    2.53
   1  13  -1  124.61    2.96
   0 -13   1   23.20    1.07
   0 -13  -1   24.21    1.07
   1 -13   1  101.83    2.49
  -1 -13  -1  104.16    2.44
  -2 -13  -1   38.13    1.41
   2 -13   1   36.73    1.49
   2 -13   1   37.54    1.05
  -3 -13  -1   11.70    0.96
   3 -13   1   12.21    1.07
  -4 -13  -1  113.97    2.97
   4 -13   1  112.56    3.05
  -5 -13  -1    8.76    1.06
   5 -13   1    8.35    1.07
   6 -14  -1    2.11    0.71
   5 -14  -1    8.57    0.96
   5  14  -1    8.33    0.93
   4 -14  -1   21.31    1.28
   4 -14  -1   24.76    1.27
  -4 -14   1   24.70    1.25
   4  14  -1   25.12    1.19
   4  14  -1   25.44    1.26
   3 -14  -1    8.25    0.77
   3 -14  -1    8.26    0.81
  -3 -14   1    8.48    0.84
   3  14  -1    6.68    0.76
   3  14  -1    6.74    0.65
  -2 -14   1  148.07    3.22
   2 -14  -1  145.21    3.03
   2 -14  -1  145.36    3.16
   2  14  -1  150.33    3.47
   1 -14  -1   69.85    1.95
  -1 -14   1   72.34    1.98
   1 -14  -1   70.24    1.76
   0 -14   1   66.97    1.94
   0 -14  -1   71.81    1.97
  -1 -14  -1  161.10    3.38
   1 -14   1  161.33    3.47
  -2 -14  -1  133.43    3.03
   2 -14   1  127.43    3.06
   3 -14   1   13.40    1.14
  -3 -14  -1   12.82    1.02
  -4 -14  -1    3.67    0.72
   4 -14   1    3.05    0.80
  -5 -14  -1    6.60    0.95
   5 -14   1    4.48    0.89
   5 -15  -1    8.57    0.98
   5  15  -1   10.80    1.05
   4 -15  -1   43.78    1.65
  -4 -15   1   42.80    1.65
   4 -15  -1   39.14    1.72
   4  15  -1   40.83    1.52
  -3 -15   1   44.84    1.65
   3 -15  -1   46.58    1.66
   3 -15  -1   44.44    1.53
  -2 -15   1   26.68    1.23
   2 -15  -1   27.92    1.11
   2 -15  -1   26.29    1.25
   1 -15  -1   92.30    2.38
  -1 -15   1   94.01    2.39
   1 -15  -1   92.60    2.15
   0 -15  -1    0.77    0.43
   0 -15   1    0.66    0.42
   1 -15   1   95.23    2.50
  -1 -15  -1   94.66    2.41
   2 -15   1   36.57    1.56
  -2 -15  -1   38.31    1.53
  -3 -15  -1   13.63    1.20
   3 -15   1   13.61    1.25
   4 -15   1   58.17    2.23
  -4 -15  -1   54.75    2.07
  -5 -15  -1    3.83    0.86
   5 -15   1    3.76    0.91
   5 -16  -1    5.58    0.82
   5  16  -1    5.75    0.83
   4 -16  -1   22.35    1.25
  -4 -16   1   24.27    1.30
   3 -16  -1    6.24    0.70
  -3 -16   1    5.49    0.75
   3 -16  -1    5.46    0.77
   2 -16  -1  108.31    2.68
   2 -16  -1  104.40    2.43
  -2 -16   1  100.01    2.64
   1 -16  -1   17.07    1.05
  -1 -16   1   17.23    1.03
   1 -16  -1   17.38    0.86
   0 -16  -1   32.33    1.38
   0 -16   1   32.11    1.39
  -1 -16  -1  135.87    3.16
   1 -16   1  137.64    3.25
  -2 -16  -1   87.27    2.47
   2 -16   1   92.00    2.57
  -3 -16  -1   23.87    1.39
   3 -16   1   22.98    1.41
   4 -16   1    0.05    0.65
  -4 -16  -1    1.24    0.62
  -5 -16  -1    9.20    1.17
   5 -16   1    6.58    1.18
  -4 -17   1   42.82    1.78
   4 -17  -1   44.41    1.70
   3 -17  -1   27.16    1.41
   3 -17  -1   25.59    1.20
  -3 -17   1   27.34    1.37
   2 -17  -1   30.13    1.19
   2 -17  -1   30.70    1.44
  -2 -17   1   30.30    1.41
   1 -17  -1   50.92    1.78
  -1 -17   1   51.21    1.78
   1 -17  -1   52.29    1.54
   0 -17  -1    9.73    0.96
   0 -17   1   13.38    1.02
  -1 -17  -1   35.03    1.50
   1 -17   1   34.34    1.55
  -2 -17  -1   32.04    1.50
   2 -17   1   35.49    1.62
  -3 -17  -1   22.29    1.39
   3 -17   1   25.42    1.49
  -4 -17  -1   58.49    2.28
   4 -17   1   58.36    2.33
  -5 -17  -1   19.91    1.60
  -4 -18   1   11.57    1.11
   3 -18  -1    3.69    0.73
  -3 -18   1    3.94    0.69
   3 -18  -1    2.05    0.51
   2 -18  -1  149.95    3.53
   2 -18  -1  151.96    3.23
  -2 -18   1  149.98    3.57
  -1 -18   1   14.13    1.04
   1 -18  -1   13.67    0.83
   1 -18  -1   12.79    1.04
   0 -18   1   46.45    1.78
   0 -18  -1   45.05    1.74
  -1 -18  -1   72.73    2.28
   1 -18   1   73.96    2.34
  -2 -18  -1   67.30    2.21
   2 -18   1   68.74    2.29
   3 -18   1   15.14    1.31
  -3 -18  -1   15.74    1.27
   4 -18   1    1.19    0.75
  -4 -18  -1    1.28    0.69
  -5 -18  -1   16.38    1.58
  -4 -19   1   21.65    1.39
   3 -19  -1   33.28    1.64
  -3 -19   1   31.04    1.56
   2 -19  -1   26.37    1.46
   2 -19  -1   25.35    1.15
  -2 -19   1   27.43    1.44
  -1 -19   1   78.79    2.40
   1 -19  -1   80.79    2.09
   1 -19  -1   82.28    2.44
   0 -19  -1   16.13    1.16
   0 -19   1   16.23    1.18
   1 -19   1   39.98    1.77
  -1 -19  -1   37.50    1.68
  -2 -19  -1   18.61    1.28
   2 -19   1   17.82    1.31
   3 -19   1   15.41    1.36
  -3 -19  -1   15.31    1.28
   4 -19   1   42.10    2.13
  -4 -19  -1   40.65    2.01
  -4 -20   1   13.20    1.27
   3 -20  -1    4.00    0.82
  -3 -20   1    5.94    0.89
  -2 -20   1   58.81    2.14
   2 -20  -1   60.82    2.18
   1 -20  -1   46.53    1.86
   1 -20  -1   43.70    1.49
  -1 -20   1   44.29    1.82
   0 -20  -1   52.73    2.01
   0 -20   1   48.95    1.94
  -1 -20  -1   63.78    2.25
   1 -20   1   63.87    2.29
   2 -20   1   29.27    1.62
  -2 -20  -1   27.76    1.55
   3 -20   1   21.77    1.57
  -3 -20  -1   24.67    1.54
  -4 -20  -1    0.61    0.61
   4 -20   1    0.59    0.74
   3 -21  -1   15.34    1.38
  -3 -21   1   17.98    1.35
   2 -21  -1   12.90    1.23
  -2 -21   1   14.97    1.20
   1 -21  -1   70.85    2.38
  -1 -21   1   65.14    2.30
   0 -21   1   10.07    1.09
   0 -21  -1    8.44    1.03
   1 -21   1   26.63    1.59
  -1 -21  -1   29.57    1.58
   2 -21   1   24.39    1.55
  -2 -21  -1   20.72    1.45
  -3 -21  -1   16.26    1.53
   3 -21   1   14.76    1.52
  -4 -21  -1   46.43    2.20
   4 -21   1   40.79    2.18
   3 -22  -1    1.53    0.74
  -3 -22   1    1.18    0.56
  -2 -22   1   34.60    1.73
   2 -22  -1   34.68    1.78
   1 -22  -1   26.47    1.57
  -1 -22   1   22.63    1.45
   0 -22   1   47.11    2.01
   0 -22  -1   45.48    1.98
   1 -22   1   41.34    1.95
  -1 -22  -1   38.18    1.84
   2 -22   1   24.82    1.61
  -2 -22  -1   22.07    1.55
   3 -22   1   11.85    1.38
  -3 -22  -1   12.04    1.34
   4 -22   1    3.21    1.05
   3 -23  -1   16.34    1.45
  -3 -23   1   16.04    1.36
  -2 -23   1   17.90    1.37
   2 -23  -1   19.11    1.48
  -1 -23   1   47.89    2.07
   1 -23  -1   47.69    2.10
   0 -23  -1    6.87    1.04
   0 -23   1    8.37    1.09
   1 -23   1   30.98    1.80
  -1 -23  -1   31.85    1.75
   2 -23   1   17.22    1.46
  -2 -23  -1   15.05    1.35
  -3 -23  -1    8.43    1.20
   3 -23   1    6.43    1.12
   3 -24  -1    4.46    0.95
  -3 -24   1    5.54    0.95
  -2 -24   1   43.88    2.03
   2 -24  -1   42.57    2.09
   1 -24  -1   20.28    1.57
  -1 -24   1   19.95    1.53
   0 -24  -1   38.72    1.95
   0 -24   1   37.62    1.95
  -1 -24  -1   52.20    2.28
   1 -24   1   52.72    2.31
  -2 -24  -1   16.70    1.44
   2 -24   1   13.24    1.39
  -3 -24  -1   10.43    1.34
   3 -24   1    9.45    1.34
  -3 -25   1   36.26    1.96
   3 -25  -1   34.89    1.97
   2 -25  -1   10.16    1.36
  -2 -25   1   10.17    1.23
   1 -25  -1   25.28    1.76
  -1 -25   1   25.69    1.72
   0 -25   1    7.04    1.04
   0 -25  -1    9.16    1.21
  -1 -25  -1   26.59    1.74
   1 -25   1   28.51    1.83
   2 -25   1   28.26    1.87
  -2 -25  -1   31.85    1.89
   2 -26  -1   34.73    2.03
  -2 -26   1   40.14    2.06
   1 -26  -1    8.46    1.24
  -1 -26   1    6.86    1.07
   0 -26  -1   39.53    2.06
   0 -26   1   38.43    2.10
   1 -26   1   22.72    1.74
  -1 -26  -1   17.06    1.54
   1 -27  -1   10.76    1.35
   0 -27  -1    1.07    0.77
   0 -27   1    2.17    0.87
   6   0  -2   43.22    1.96
   5   0  -2    4.57    0.78
   4   0  -2   17.99    1.02
   3   0  -2    0.28    0.33
   2   0  -2   18.45    0.74
   1   0  -2  697.85   10.83
   0   0   2 1000.00   15.08
   1   0   2    6.47    0.55
   2   0   2   14.27    0.71
   2   0   2   14.10    0.80
   3   0   2  118.91    2.69
   3   0   2  120.80    2.75
   4   0   2    1.18    0.61
   4   0   2    0.87    0.52
   5   0   2   38.14    1.83
   5   0   2   39.83    1.83
   6   0   2    0.07    0.71
   6  -1  -2   14.65    1.36
   6   1  -2   17.04    1.41
   5  -1  -2    1.50    0.60
   5   1  -2    1.81    0.63
   4  -1  -2   22.35    1.12
   4   1  -2   23.47    1.15
   3  -1  -2  194.48    3.67
   3   1  -2  187.59    3.63
   2  -1  -2   28.99    0.92
   2   1  -2   26.57    0.87
   1  -1  -2   28.52    0.83
   1   1  -2   29.42    0.79
   0  -1   2  236.98    3.90
   0   1   2  244.17    3.89
   1  -1   2    0.30    0.28
  -1   1  -2    0.32    0.17
   1   1   2   -0.12    0.24
   2  -1   2  155.22    3.10
   2  -1   2  153.61    2.98
   2   1   2  162.16    3.09
   2   1   2  158.18    3.05
   3  -1   2   39.74    1.50
   3  -1   2   42.64    1.43
   3   1   2   43.83    1.46
   3   1   2   42.84    1.52
   4  -1   2    5.58    0.79
   4  -1   2    4.94    0.79
   4   1   2    6.28    0.86
   4   1   2    4.71    0.75
   5  -1   2   56.80    2.18
   5  -1   2   56.92    2.23
   5   1   2   60.89    2.23
   6  -1   2   21.46    1.61
   6  -2  -2   34.72    1.78
   6   2  -2   34.53    1.78
   5  -2  -2    5.88    0.85
   5   2  -2    6.42    0.85
   4  -2  -2   31.44    1.29
   4   2  -2   30.74    1.29
   4   2  -2   29.41    1.18
   3  -2  -2   18.32    0.91
   3   2  -2   19.96    0.91
   2  -2  -2   20.90    0.81
   2   2  -2   21.96    0.78
   1  -2  -2  453.74    7.20
   1   2  -2  445.16    7.06
   0  -2   2  353.92    5.55
   0   2   2  352.20    5.53
   0   2  -2  356.32    6.24
   1  -2   2   25.98    0.92
  -1   2  -2   26.78    0.74
   1   2   2   27.80    0.92
   2  -2   2   39.53    1.28
   2  -2   2   38.23    1.11
   2   2   2   36.97    1.25
   2   2   2   37.75    1.19
   3  -2   2  137.09    3.07
   3  -2   2  135.42    2.94
   3   2   2  138.05    3.02
   3   2   2  139.05    3.02
   4  -2   2    1.67    0.62
   4  -2   2    0.66    0.47
   4   2   2   -0.31    0.48
   4   2   2    0.04    0.47
   5  -2   2   39.09    1.82
   5  -2   2   38.09    1.85
   5   2   2   38.49    1.85
   6  -2   2    0.21    0.66
   6  -3  -2   14.24    1.33
   6   3  -2   16.02    1.35
   5  -3  -2    0.78    0.57
   5   3  -2    1.23    0.57
   4  -3  -2   30.83    1.30
   4   3  -2   31.09    1.22
   4   3  -2   32.67    1.30
   3  -3  -2  296.42    5.28
   3   3  -2  295.42    5.19
   3   3  -2  294.60    5.61
   2  -3  -2   57.33    1.45
   2   3  -2   57.19    1.34
   1  -3  -2   25.48    0.81
  -1  -3   2   25.32    0.65
   1   3  -2   25.27    0.85
   1   3  -2   23.40    0.66
   0  -3   2  102.38    1.99
   0   3  -2  106.60    2.17
   1  -3   2    5.02    0.50
   1   3   2    4.42    0.44
  -1   3  -2    3.69    0.33
   2  -3   2  235.39    4.20
   2  -3   2  245.94    4.39
   2   3   2  240.44    4.30
   3  -3   2   38.01    1.30
   3  -3   2   36.51    1.46
   3   3   2   37.15    1.41
   3   3   2   37.58    1.39
   4  -3   2    3.00    0.73
   4  -3   2    2.29    0.60
   4   3   2    1.92    0.63
   5  -3   2   30.80    1.61
   5  -3   2   24.11    1.57
   5   3   2   28.41    1.65
   6  -3   2   12.99    1.39
   6  -4  -2   24.60    1.56
   6   4  -2   23.03    1.46
   5  -4  -2   21.30    1.33
   5   4  -2   21.39    1.26
   4  -4  -2   32.77    1.34
   4   4  -2   29.87    1.28
   4   4  -2   33.24    1.27
   3  -4  -2    5.62    0.59
   3   4  -2    7.11    0.62
   3   4  -2    6.28    0.63
   2  -4  -2   17.48    0.76
   2   4  -2   18.47    0.80
   2   4  -2   18.00    0.70
  -1  -4   2  235.97    3.84
   1  -4  -2  240.61    3.82
   1  -4  -2  237.40    4.14
   1   4  -2  239.69    3.89
   1   4  -2  250.54    4.54
   0  -4   2  382.28    6.12
   0  -4  -2  387.34    6.03
   0   4  -2  389.27    6.85
   1  -4   2   15.94    0.76
  -1   4  -2   14.69    0.59
   2  -4   2   44.62    1.41
   2  -4   2   43.40    1.18
   3  -4   2   93.12    2.24
   3  -4   2   96.11    2.43
   3   4   2   94.89    2.38
   4  -4   2    4.57    0.70
   4  -4   2    5.83    0.90
  -4  -4  -2    5.00    0.72
   4   4   2    6.56    0.86
  -5  -4  -2    8.79    1.03
   5  -4   2   12.18    1.26
   5  -4   2   10.35    1.11
   5   4   2   13.23    1.29
   6  -4   2    0.55    0.67
   6  -5  -2   10.25    1.16
   6   5  -2   10.35    1.12
   5  -5  -2    2.06    0.62
   5   5  -2    0.81    0.54
   4  -5  -2   66.75    2.01
   4   5  -2   70.14    1.97
   4   5  -2   72.66    2.00
   3  -5  -2  298.33    5.37
   3   5  -2  298.80    5.72
   3   5  -2  295.46    5.21
   2  -5  -2    5.47    0.51
   2   5  -2    4.65    0.48
   2   5  -2    4.65    0.40
   1  -5  -2   21.96    0.79
   1  -5  -2   21.49    0.65
  -1  -5   2   22.33    0.69
   1   5  -2   21.29    0.84
   0  -5  -2   74.90    1.55
   0  -5   2   74.74    1.62
   0   5  -2   74.45    1.74
  -1  -5  -2    8.97    0.57
   1  -5   2    8.82    0.64
  -1   5  -2    8.54    0.49
   2  -5   2  350.52    5.83
   2  -5   2  358.54    6.06
  -2  -5  -2  345.81    5.90
  -3  -5  -2   39.89    1.40
   3  -5   2   37.70    1.29
   3  -5   2   38.70    1.52
   3   5   2   39.73    1.46
  -4  -5  -2    1.23    0.54
   4  -5   2    1.55    0.68
   4  -5   2    1.41    0.51
   4   5   2    2.98    0.67
   5  -5   2   23.61    1.46
  -5  -5  -2   24.96    1.49
   5  -5   2   25.08    1.63
   5   5   2   26.22    1.63
   6  -5   2   38.67    1.96
   6  -6  -2   20.83    1.48
   6   6  -2   19.65    1.40
   5  -6  -2    5.07    0.81
   5   6  -2    3.45    0.69
   4  -6  -2   71.60    2.09
   4   6  -2   74.93    2.07
   4   6  -2   75.83    2.05
   3  -6  -2    1.76    0.45
   3   6  -2    1.10    0.37
   3   6  -2    0.86    0.36
   2  -6  -2    6.59    0.57
   2   6  -2    6.52    0.57
   2   6  -2    5.57    0.43
  -1  -6   2  124.86    2.30
   1  -6  -2  127.55    2.27
   1  -6  -2  128.53    2.48
   1   6  -2  114.53    2.09
   1   6  -2  127.06    2.68
   0  -6   2  230.50    4.04
   0  -6  -2  237.34    3.96
   0   6  -2  240.99    4.48
   1  -6   2    6.64    0.61
  -1  -6  -2    7.59    0.55
  -1   6  -2    6.37    0.47
   2  -6   2   40.81    1.38
   2  -6   2   40.10    1.10
  -2  -6  -2   39.87    1.31
   3  -6   2  164.85    3.25
   3  -6   2  161.52    3.52
  -3  -6  -2  154.99    3.37
   4  -6   2    0.73    0.61
   4  -6   2    0.06    0.43
  -4  -6  -2    0.42    0.51
   4   6   2    0.46    0.54
   5  -6   2   18.78    1.52
  -5  -6  -2   19.35    1.39
   5  -6   2   19.93    1.37
   5   6   2   19.89    1.52
   6  -7  -2   10.84    1.20
   6   7  -2   11.82    1.16
   5  -7  -2    5.54    0.88
   5   7  -2    4.98    0.74
   4  -7  -2   47.94    1.66
   4   7  -2   47.65    1.59
   4   7  -2   43.40    1.54
   3  -7  -2  259.25    4.84
   3   7  -2  261.58    5.17
   3   7  -2  260.18    4.65
   2  -7  -2   15.75    0.79
   2  -7  -2   13.78    0.60
  -2  -7   2   14.28    0.61
   2   7  -2   17.23    0.84
   2   7  -2   16.59    0.62
   1  -7  -2   28.76    0.97
  -1  -7   2   26.66    0.87
   1  -7  -2   28.04    0.86
   1   7  -2   26.87    1.01
   0  -7   2  134.36    2.60
   0  -7  -2  130.81    2.50
   0   7  -2  131.48    2.80
   1  -7   2   40.93    1.28
  -1  -7  -2   37.74    1.15
  -1   7  -2   37.66    1.15
   2  -7   2  267.44    4.87
   2  -7   2  258.17    4.48
  -2  -7  -2  266.41    4.71
   3  -7   2   54.73    1.54
   3  -7   2   53.76    1.84
  -3  -7  -2   51.47    1.67
   4  -7   2    6.85    0.93
  -4  -7  -2    7.01    0.86
   4  -7   2    6.69    0.78
   5  -7   2   33.87    1.87
  -5  -7  -2   33.71    1.73
   5  -7   2   34.49    1.66
   6  -8  -2   21.27    1.53
   6   8  -2   20.05    1.43
   5  -8  -2   21.87    1.35
   5   8  -2   20.97    1.26
   4  -8  -2   20.97    1.15
   4   8  -2   20.78    1.06
   4   8  -2   21.71    1.08
   3  -8  -2    7.28    0.71
   3   8  -2    7.36    0.72
   3   8  -2    7.42    0.63
  -2  -8   2   14.91    0.66
   2  -8  -2   15.09    0.66
   2  -8  -2   15.42    0.79
   2   8  -2   14.15    0.59
   2   8  -2   16.70    0.86
   1  -8  -2  209.48    3.83
  -1  -8   2  204.46    3.67
   1  -8  -2  206.31    3.62
   1   8  -2  214.51    4.19
   0  -8  -2  361.69    5.95
   0  -8   2  363.44    6.03
   0   8  -2  370.22    6.74
  -1  -8  -2   12.98    0.71
   1  -8   2   15.09    0.81
  -1   8  -2   13.33    0.71
   2  -8   2   53.12    1.27
  -2  -8  -2   52.92    1.55
   2  -8   2   52.67    1.69
   3  -8   2   70.01    2.15
   3  -8   2   73.62    1.84
  -3  -8  -2   71.49    2.04
   4  -8   2    2.25    0.70
  -4  -8  -2    1.93    0.60
   4  -8   2    2.39    0.56
   5  -8   2   18.46    1.56
  -5  -8  -2   20.52    1.46
   6  -9  -2    7.39    1.07
   6   9  -2    7.65    1.03
   5  -9  -2    6.04    0.90
   5   9  -2    6.30    0.83
   4  -9  -2   19.14    1.13
   4   9  -2   16.57    0.99
   4   9  -2   16.68    0.99
  -3  -9   2  168.56    3.24
   3  -9  -2  179.31    3.59
   3   9  -2  171.80    3.32
   3   9  -2  176.92    3.82
  -2  -9   2    7.64    0.55
   2  -9  -2    8.54    0.66
   2  -9  -2    6.24    0.54
   2   9  -2    7.36    0.67
   2   9  -2    7.90    0.44
   1  -9  -2   22.02    0.85
   1  -9  -2   21.56    0.89
  -1  -9   2   23.11    0.89
   1   9  -2   22.95    0.98
   0  -9   2  109.55    2.37
   0  -9  -2  113.01    2.31
   0   9  -2  112.33    2.58
   1  -9   2    2.28    0.48
  -1  -9  -2    1.86    0.40
  -1   9  -2    1.93    0.37
  -2  -9  -2  162.95    3.24
   2  -9   2  157.18    3.41
   2  -9   2  155.95    2.87
   3  -9   2   16.51    0.84
  -3  -9  -2   15.09    1.01
   3  -9   2   13.93    1.10
   4  -9   2    9.97    0.95
   4  -9   2   10.45    1.13
  -4  -9  -2   11.93    1.08
   5  -9   2   27.56    1.78
  -5  -9  -2   27.81    1.64
   6 -10  -2   28.85    1.73
   6  10  -2   29.25    1.62
   5 -10  -2   14.18    1.19
   5  10  -2   13.21    1.11
   4 -10  -2   12.61    1.01
   4  10  -2   13.63    0.95
   4  10  -2   13.54    0.91
   3 -10  -2    4.38    0.50
  -3 -10   2    4.28    0.50
   3 -10  -2    4.73    0.64
   3  10  -2    4.04    0.48
   3  10  -2    4.49    0.61
  -2 -10   2   10.26    0.65
   2 -10  -2    9.69    0.65
   2 -10  -2   11.19    0.75
   2  10  -2    9.03    0.73
   2  10  -2    8.80    0.47
   1 -10  -2  247.06    4.48
   1 -10  -2  248.30    4.35
  -1 -10   2  250.84    4.38
   1  10  -2  237.84    4.90
   0 -10  -2  277.45    4.82
   0 -10   2  281.90    4.94
   0  10  -2  278.16    5.43
   1 -10   2   24.11    1.09
  -1 -10  -2   22.00    0.96
  -2 -10  -2   16.56    0.93
   2 -10   2   15.65    1.04
   2 -10   2   15.19    0.63
   3 -10   2   72.55    2.26
   3 -10   2   77.86    2.06
  -3 -10  -2   73.17    2.13
  -4 -10  -2    0.55    0.57
   4 -10   2    2.24    0.74
   5 -10   2   25.07    1.72
  -5 -10  -2   22.71    1.48
   6 -11  -2   15.63    1.44
   6  11  -2   12.27    1.20
   5 -11  -2    1.18    0.61
   5  11  -2    1.90    0.60
   4 -11  -2   34.20    1.49
   4  11  -2   36.23    1.38
   4  11  -2   37.01    1.50
   3 -11  -2  128.09    2.91
  -3 -11   2  128.47    2.72
   3 -11  -2  121.86    2.61
   3  11  -2  128.45    2.63
   3  11  -2  129.11    3.12
  -2 -11   2   17.41    0.85
   2 -11  -2   18.59    0.88
   2 -11  -2   17.48    0.91
   2  11  -2   17.47    0.95
   2  11  -2   17.08    0.63
   1 -11  -2   22.50    0.97
   1 -11  -2   22.63    0.98
  -1 -11   2   22.91    0.98
   1  11  -2   23.71    1.07
   0 -11  -2   74.99    1.88
   0 -11   2   74.83    1.95
   0  11  -2   74.85    2.03
  -1 -11  -2   12.62    0.80
   1 -11   2   11.17    0.84
   2 -11   2   77.19    2.21
  -2 -11  -2   76.97    2.07
   3 -11   2   56.80    2.01
  -3 -11  -2   54.27    1.84
   4 -11   2    5.41    0.91
  -4 -11  -2    8.45    0.98
  -5 -11  -2   33.53    1.76
   5 -11   2   35.29    1.97
   6 -12  -2   21.96    1.59
   6  12  -2   23.28    1.49
   5 -12  -2    0.47    0.54
   5  12  -2    0.08    0.46
   4 -12  -2   56.90    1.92
   4  12  -2   51.95    1.67
   4  12  -2   54.85    1.92
   3 -12  -2    0.67    0.42
  -3 -12   2    1.12    0.38
   3 -12  -2    0.80    0.43
   3  12  -2    0.86    0.31
   3  12  -2    0.72    0.42
  -2 -12   2   19.61    0.95
   2 -12  -2   19.87    0.98
   2 -12  -2   20.61    0.97
   2  12  -2   18.58    0.66
   2  12  -2   20.34    1.06
   1 -12  -2  221.80    4.21
  -1 -12   2  219.60    4.16
   1 -12  -2  217.45    4.14
   1  12  -2  230.24    4.69
   0 -12  -2  181.63    3.60
   0 -12   2  186.89    3.70
   0  12  -2  183.29    3.98
   1 -12   2   36.41    1.43
  -1 -12  -2   37.23    1.32
  -2 -12  -2   12.50    0.92
   2 -12   2   13.05    1.03
   3 -12   2  108.22    2.98
  -3 -12  -2  111.99    2.84
  -4 -12  -2    0.62    0.57
   4 -12   2   -0.28    0.57
  -5 -12  -2   23.51    1.60
   5 -12   2   20.44    1.66
   6 -13  -2    6.48    1.00
   6  13  -2    7.45    0.98
   5 -13  -2    5.83    0.92
   5  13  -2    5.11    0.77
   4 -13  -2   34.17    1.50
   4  13  -2   33.19    1.31
   4  13  -2   34.04    1.51
   3 -13  -2  109.91    2.67
   3 -13  -2  108.52    2.49
  -3 -13   2  108.22    2.55
   3  13  -2  111.31    2.91
   3  13  -2  103.88    2.32
  -2 -13   2   20.85    1.00
   2 -13  -2   18.91    0.99
   2 -13  -2   21.12    1.02
   2  13  -2   17.74    1.05
   2  13  -2   18.03    0.67
  -1 -13   2   17.27    0.96
   1 -13  -2   17.65    0.93
   1 -13  -2   18.94    1.01
   1  13  -2   18.89    1.02
   0 -13   2   51.39    1.67
   0 -13  -2   51.00    1.60
   0  13  -2   55.95    1.76
   1 -13   2    8.35    0.84
  -1 -13  -2    8.07    0.77
   2 -13   2  110.41    2.83
  -2 -13  -2  109.88    2.72
   3 -13   2   35.40    1.70
  -3 -13  -2   30.54    1.49
  -4 -13  -2   17.24    1.33
   4 -13   2   18.56    1.45
  -5 -13  -2   19.94    1.53
   5 -13   2   18.55    1.62
   6  14  -2   16.31    1.32
   5 -14  -2    4.05    0.82
   5  14  -2    2.42    0.60
   4 -14  -2   23.76    1.29
   4  14  -2   24.03    1.31
   4  14  -2   22.82    1.10
   3 -14  -2   10.50    0.89
   3 -14  -2   11.83    0.93
  -3 -14   2   11.71    0.87
   3  14  -2   10.82    0.67
   3  14  -2   11.78    0.96
   2 -14  -2   28.96    1.23
  -2 -14   2   26.86    1.19
   2 -14  -2   28.88    1.21
   2  14  -2   29.81    1.34
   1 -14  -2  138.74    2.99
   1 -14  -2  138.97    3.06
  -1 -14   2  140.93    3.07
   1  14  -2  130.49    3.29
   0 -14   2  130.94    3.01
   0 -14  -2  132.08    2.95
   0  14  -2  128.77    3.22
  -1 -14  -2   48.99    1.67
   1 -14   2   50.12    1.74
  -2 -14  -2   22.65    1.20
   2 -14   2   21.87    1.29
   3 -14   2   66.10    2.31
  -3 -14  -2   63.01    2.15
  -4 -14  -2    1.07    0.64
   4 -14   2    1.35    0.73
  -5 -14  -2   12.05    1.30
   5 -14   2   10.27    1.26
   6  15  -2    8.11    1.09
   5 -15  -2    6.39    0.95
   5  15  -2    6.72    0.83
   4 -15  -2   24.74    1.34
   4  15  -2   25.78    1.15
   4  15  -2   26.64    1.40
  -3 -15   2  117.31    2.85
   3 -15  -2  119.70    2.90
   3 -15  -2  117.68    2.81
   3  15  -2  120.63    3.19
   2 -15  -2   26.25    1.16
  -2 -15   2   21.87    1.12
   2 -15  -2   21.88    1.14
   2  15  -2   19.98    1.16
   1 -15  -2   36.74    1.35
  -1 -15   2   35.59    1.41
   1 -15  -2   33.63    1.40
   1  15  -2   36.97    1.51
   0 -15  -2   26.13    1.23
   0 -15   2   29.52    1.34
   1 -15   2    4.41    0.70
  -1 -15  -2    4.16    0.67
  -2 -15  -2   93.45    2.53
   2 -15   2   94.07    2.68
  -3 -15  -2   25.18    1.42
   3 -15   2   22.96    1.54
  -4 -15  -2   15.07    1.38
   4 -15   2   13.41    1.33
   5 -15   2    9.02    1.23
  -5 -15  -2    9.22    1.19
   5 -16  -2    3.72    0.78
   4 -16  -2   27.12    1.39
   4  16  -2   24.80    1.41
   3 -16  -2    6.43    0.79
  -3 -16   2    5.92    0.75
   3 -16  -2    6.29    0.79
   3  16  -2    6.40    0.82
   2 -16  -2   27.36    1.23
   2 -16  -2   25.98    1.27
  -2 -16   2   29.19    1.31
   2  16  -2   27.70    1.37
  -1 -16   2   77.30    2.21
   1 -16  -2   73.62    2.17
   1 -16  -2   75.20    2.05
   1  16  -2   75.89    2.34
   0 -16   2   88.63    2.46
   0 -16  -2   85.07    2.37
   1 -16   2   28.58    1.45
  -1 -16  -2   34.16    1.46
  -2 -16  -2   18.77    1.22
   2 -16   2   17.14    1.27
   3 -16   2   42.15    1.95
  -3 -16  -2   41.91    1.80
   4 -16   2    1.19    0.74
  -4 -16  -2   -0.21    0.57
   5 -17  -2    4.12    0.84
   4 -17  -2   17.96    1.19
   4  17  -2   16.85    1.22
   3 -17  -2   79.44    2.34
   3 -17  -2   84.58    2.37
  -3 -17   2   80.94    2.37
   3  17  -2   82.31    2.61
  -2 -17   2   13.63    1.01
   2 -17  -2   12.15    0.91
   2 -17  -2   12.33    1.03
   2  17  -2   13.41    1.03
   1 -17  -2   28.78    1.25
  -1 -17   2   26.48    1.34
   1 -17  -2   28.65    1.37
   0 -17  -2   57.88    1.96
   0 -17   2   58.07    2.00
  -1 -17  -2    2.38    0.59
   1 -17   2    1.86    0.60
  -2 -17  -2   88.72    2.60
   2 -17   2   88.82    2.74
  -3 -17  -2   14.02    1.25
   3 -17   2   13.35    1.32
  -4 -17  -2    4.43    0.94
   4 -17   2    4.19    0.95
   5 -18  -2    5.02    0.88
   4 -18  -2   13.04    1.10
   4  18  -2   14.77    1.20
   3 -18  -2    1.51    0.53
   3 -18  -2    1.77    0.60
  -3 -18   2    1.87    0.54
   3  18  -2    2.07    0.59
   2 -18  -2   21.15    1.28
   2 -18  -2   22.44    1.18
  -2 -18   2   22.75    1.27
   2  18  -2   20.73    1.31
   1 -18  -2   66.92    2.00
   1 -18  -2   69.30    2.21
  -1 -18   2   66.55    2.17
   0 -18   2  137.57    3.42
   0 -18  -2  140.17    3.41
  -1 -18  -2   23.78    1.35
   1 -18   2   24.35    1.42
   2 -18   2   13.23    1.29
  -2 -18  -2   14.22    1.29
  -3 -18  -2   32.85    1.74
   3 -18   2   35.98    1.90
   4 -18   2    1.63    0.81
  -4 -18  -2    1.16    0.74
   4 -19  -2   12.21    1.09
   3 -19  -2   53.85    2.02
   3 -19  -2   55.44    1.92
  -3 -19   2   57.31    2.04
  -2 -19   2   11.79    1.06
   2 -19  -2   11.30    1.13
   2 -19  -2   12.43    0.96
   1 -19  -2   39.61    1.51
  -1 -19   2   35.91    1.65
   1 -19  -2   34.89    1.64
   0 -19   2   41.35    1.80
   0 -19  -2   39.34    1.75
  -1 -19  -2    7.81    0.95
   1 -19   2    7.90    1.03
   2 -19   2   54.13    2.21
  -2 -19  -2   49.25    2.02
   3 -19   2   12.96    1.39
  -3 -19  -2   13.62    1.38
   4 -19   2   22.16    1.73
  -4 -19  -2   26.12    1.74
   4 -20  -2   15.93    1.22
   3 -20  -2    0.71    0.49
   3 -20  -2    0.29    0.60
  -3 -20   2    1.19    0.55
  -2 -20   2   17.35    1.28
   2 -20  -2   19.58    1.17
   2 -20  -2   18.87    1.36
  -1 -20   2   59.03    2.17
   1 -20  -2   63.99    2.24
   1 -20  -2   62.03    1.98
   0 -20   2   69.66    2.40
   0 -20  -2   67.66    2.34
   1 -20   2   34.76    1.74
  -1 -20  -2   33.30    1.68
   2 -20   2   10.41    1.24
  -2 -20  -2   10.58    1.23
   3 -20   2   28.78    1.85
  -3 -20  -2   32.74    1.81
  -3 -21   2   46.54    1.96
   3 -21  -2   45.79    1.99
   3 -21  -2   44.82    1.77
   2 -21  -2   16.78    1.14
  -2 -21   2   17.97    1.33
   2 -21  -2   16.86    1.39
  -1 -21   2   26.22    1.56
   1 -21  -2   25.67    1.31
   1 -21  -2   25.94    1.53
   0 -21   2   24.34    1.55
   0 -21  -2   24.07    1.49
  -1 -21  -2    7.76    1.09
   1 -21   2    5.50    0.89
  -2 -21  -2   39.56    1.89
   2 -21   2   36.38    1.96
  -3 -21  -2   10.35    1.30
   3 -21   2   10.87    1.34
  -3 -22   2    0.28    0.51
   3 -22  -2   -0.66    0.57
   2 -22  -2   17.94    1.18
   2 -22  -2   17.40    1.44
  -2 -22   2   19.87    1.43
   1 -22  -2   51.89    2.13
  -1 -22   2   52.59    2.16
   1 -22  -2   50.94    1.84
   0 -22   2   46.19    2.09
   0 -22  -2   49.04    2.09
   1 -22   2   32.62    1.80
  -1 -22  -2   35.53    1.84
   2 -22   2    3.66    0.93
  -2 -22  -2    2.74    0.81
   3 -22   2   20.74    1.73
  -3 -22  -2   20.21    1.57
   3 -23  -2   27.99    1.75
  -3 -23   2   31.36    1.76
   2 -23  -2    7.76    1.14
  -2 -23   2    8.09    1.06
   1 -23  -2   21.53    1.53
  -1 -23   2   22.77    1.59
   1 -23  -2   23.46    1.39
   0 -23   2    6.27    1.02
   0 -23  -2    5.21    0.97
   1 -23   2    8.20    1.13
  -1 -23  -2    7.19    1.08
   2 -23   2   25.32    1.81
  -2 -23  -2   24.21    1.67
  -3 -24   2    1.33    0.71
  -2 -24   2   16.69    1.42
   2 -24  -2   13.58    1.44
  -1 -24   2   30.25    1.83
   1 -24  -2   30.86    1.79
   0 -24  -2   16.50    1.62
   0 -24   2   17.07    1.51
  -1 -24  -2   30.82    1.83
   1 -24   2   29.27    1.82
  -2 -24  -2    6.59    1.12
   2 -24   2    8.09    1.25
  -3 -25   2   30.78    1.86
  -2 -25   2   11.09    1.27
   2 -25  -2   10.20    1.31
   1 -25  -2   11.84    1.33
  -1 -25   2   14.14    1.47
   0 -25   2   10.47    1.28
   0 -25  -2   10.46    1.33
  -1 -25  -2    5.68    1.02
   1 -25   2    8.27    1.19
   2 -26  -2   19.37    1.63
  -2 -26   2   20.84    1.64
   1 -26  -2   22.42    1.70
  -1 -26   2   22.08    1.75
   0 -26   2   25.52    1.85
   0 -26  -2   29.20    1.89
  -1 -26  -2   34.40    2.08
   1 -26   2   31.81    2.05
   1 -27  -2   19.17    1.73
   6   0  -3    0.52    0.66
   5   0  -3    8.03    0.96
   4   0  -3   14.25    0.99
   3   0  -3   38.13    1.31
   2   0  -3  151.89    2.97
   1   0  -3    0.15    0.23
  -1   0   3    0.00    0.20
   0   0   3   44.26    1.21
  -1   0  -3  291.09    5.26
   2   0   3   44.47    1.54
   3   0   3   13.32    1.12
   4   0   3   27.89    1.60
   5   0   3   -0.57    0.64
   6  -1  -3    2.69    0.78
   6   1  -3    4.65    0.86
   5  -1  -3   66.65    2.21
   5   1  -3   68.35    2.16
   5   1  -3   67.43    2.20
   4  -1  -3    8.18    0.87
   4   1  -3    8.23    0.84
   3  -1  -3    6.28    0.65
   3   1  -3    5.81    0.64
   2  -1  -3  227.73    4.17
   2   1  -3  233.46    4.12
   1  -1  -3  119.61    2.39
  -1  -1   3  119.13    2.15
  -1   1   3  121.29    2.15
   1   1  -3  119.41    2.33
   0  -1   3   65.32    1.55
   0   1   3   65.03    1.53
   1  -1   3    8.14    0.72
  -1   1  -3    5.40    0.50
   1   1   3    8.03    0.68
   2  -1   3   17.82    1.03
   2   1   3   16.34    1.02
   3  -1   3  119.90    3.01
   3   1   3  122.71    3.02
   4  -1   3  101.80    2.93
   4   1   3  102.02    2.93
   5  -1   3    0.61    0.70
   6  -2  -3    2.41    0.77
   6   2  -3    2.99    0.79
   5  -2  -3   18.46    1.29
   5   2  -3   20.14    1.30
   5   2  -3   20.15    1.18
   4  -2  -3   49.15    1.69
   4   2  -3   48.14    1.64
   3  -2  -3   37.51    1.33
   3   2  -3   36.34    1.26
   2  -2  -3  121.50    2.56
   2   2  -3  121.91    2.43
   1  -2  -3    5.77    0.51
  -1  -2   3    5.53    0.42
   1   2  -3    5.17    0.44
   0  -2   3  108.53    2.22
   0   2   3  111.61    2.21
   0   2  -3  108.65    2.37
   1  -2   3  325.67    5.58
   1   2   3  323.86    5.54
  -1   2  -3  324.43    5.87
   2  -2   3   25.01    1.22
   2   2   3   28.05    1.23
   3  -2   3   13.64    1.15
   3   2   3   12.03    1.08
   4  -2   3   18.54    1.26
   4  -2   3   17.94    1.39
   4   2   3   20.28    1.40
   5  -2   3    3.58    0.96
   5  -2   3    3.07    0.84
   6  -3  -3    1.15    0.70
   6   3  -3    1.31    0.68
   5  -3  -3   55.49    2.05
   5   3  -3   58.52    1.99
   5   3  -3   55.88    1.98
   4  -3  -3   22.48    1.21
   4   3  -3   25.17    1.19
   4   3  -3   26.14    1.23
   3  -3  -3    7.51    0.72
   3   3  -3    5.84    0.62
   2  -3  -3  149.12    2.99
   2   3  -3  144.66    2.79
   1  -3  -3   41.85    1.23
  -1  -3   3   41.71    1.06
   1  -3  -3   43.98    1.02
   1   3  -3   43.66    1.32
   1   3  -3   43.20    1.07
   0  -3   3   70.51    1.63
   0   3  -3   64.23    1.67
   1   3   3    9.08    0.74
  -1   3  -3    7.05    0.57
   2  -3   3   13.68    0.97
   2   3   3   12.57    0.92
   3  -3   3   42.31    1.74
   3   3   3   41.93    1.68
   4  -3   3   43.22    1.94
   4  -3   3   45.46    1.77
  -5  -3  -3   -0.88    0.54
   5  -3   3   -0.10    0.70
   5  -3   3    0.26    0.66
   6  -4  -3    1.92    0.75
   6   4  -3    1.90    0.67
   5  -4  -3    7.97    0.98
   5   4  -3    8.84    0.96
   5   4  -3    7.63    0.83
   4  -4  -3   31.95    1.39
   4   4  -3   28.82    1.29
   4   4  -3   31.88    1.36
   3  -4  -3   52.86    1.62
   3   4  -3   52.14    1.51
   3   4  -3   52.59    1.68
   2  -4  -3   77.97    1.94
   2   4  -3   82.42    2.10
   2   4  -3   82.03    1.76
   1  -4  -3   13.58    0.73
   1  -4  -3   14.30    0.58
  -1  -4   3   14.30    0.63
   1   4  -3   14.20    0.79
   0  -4  -3   30.44    0.96
   0  -4   3   30.36    1.04
   0   4  -3   30.92    1.08
   1  -4   3  340.09    5.84
  -1   4  -3  337.24    6.17
   2  -4   3   15.23    1.01
   3  -4   3    2.30    0.69
   4  -4   3   15.21    1.37
   4  -4   3   11.71    1.07
   5  -4   3    1.93    0.72
   5  -4   3    1.47    0.81
  -5  -4  -3    1.62    0.79
   6  -5  -3    4.57    0.92
   6   5  -3    4.30    0.84
   5  -5  -3   46.30    1.89
   5   5  -3   45.38    1.76
   5   5  -3   45.85    1.77
   4  -5  -3   12.40    0.99
   4   5  -3   13.67    0.99
   4   5  -3   10.56    0.90
   3  -5  -3    4.55    0.63
   3   5  -3    4.94    0.63
   3   5  -3    4.71    0.56
   2  -5  -3  158.70    3.19
   2   5  -3  158.28    3.42
   2   5  -3  152.84    2.88
  -1  -5   3  103.71    2.10
   1  -5  -3  107.52    2.05
   1   5  -3  108.37    2.50
   0  -5  -3   64.74    1.54
   0  -5   3   62.76    1.62
   0   5  -3   67.01    1.72
  -1  -5  -3    7.11    0.62
   1  -5   3    7.04    0.71
  -1   5  -3    5.52    0.54
   2  -5   3    9.84    0.92
   3  -5   3   51.92    1.94
  -3  -5  -3   52.62    1.79
   3  -5   3   51.67    1.59
   4  -5   3   71.51    2.22
  -4  -5  -3   75.33    2.44
   4  -5   3   73.26    2.56
   5  -5   3    1.21    0.77
  -5  -5  -3    1.28    0.73
   6  -6  -3    2.33    0.74
   6   6  -3    1.58    0.65
   5  -6  -3   12.98    1.19
   5   6  -3   11.71    1.08
   5   6  -3   11.28    0.97
   4  -6  -3   43.92    1.66
   4   6  -3   42.43    1.64
   4   6  -3   46.54    1.56
   3  -6  -3   37.35    1.39
   3   6  -3   37.58    1.44
   3   6  -3   38.80    1.24
   2  -6  -3  117.97    2.63
   2   6  -3  121.16    2.83
   2   6  -3  118.83    2.31
  -1  -6   3    4.52    0.44
   1  -6  -3    4.22    0.43
   1   6  -3    3.51    0.50
   0  -6   3   85.73    2.00
   0  -6  -3   85.75    1.89
   0   6  -3   83.59    2.09
  -1  -6  -3  500.79    8.28
   1  -6   3  515.61    8.41
  -1   6  -3  518.76    9.14
  -2  -6  -3   20.41    1.04
   2  -6   3   21.91    1.18
  -3  -6  -3    7.25    0.84
   3  -6   3    8.14    0.73
   3  -6   3   11.62    1.11
   4  -6   3   13.52    1.34
  -4  -6  -3   10.90    1.12
  -5  -6  -3    3.57    0.86
   5  -6   3    3.09    0.90
   6  -7  -3    3.64    0.88
   6   7  -3    2.67    0.72
   5  -7  -3   42.88    1.83
   5   7  -3   39.29    1.65
   5   7  -3   40.94    1.67
   4  -7  -3   13.18    1.02
   4   7  -3   11.50    0.94
   4   7  -3   12.05    0.92
   3  -7  -3   34.03    1.34
   3   7  -3   32.81    1.37
   3   7  -3   32.43    1.14
   2  -7  -3  148.25    3.10
   2   7  -3  150.26    3.35
   2   7  -3  143.51    2.70
  -1  -7   3   91.16    2.00
   1  -7  -3   96.13    1.98
   1   7  -3   94.53    2.35
   0  -7   3   93.00    2.15
   0  -7  -3   89.59    2.00
   0   7  -3   93.55    2.27
  -1  -7  -3    8.58    0.73
   1  -7   3    9.33    0.84
  -1   7  -3    7.84    0.68
   2  -7   3   31.11    1.41
  -2  -7  -3   30.75    1.26
  -3  -7  -3   44.59    1.70
   3  -7   3   45.20    1.86
   3  -7   3   45.91    1.54
  -4  -7  -3   59.82    2.21
   4  -7   3   61.16    2.37
   5  -7   3    3.25    0.95
  -5  -7  -3    5.43    1.00
   6  -8  -3   -0.19    0.62
   6   8  -3    1.07    0.61
   5  -8  -3    6.10    0.93
   5   8  -3    5.72    0.79
   5   8  -3    3.99    0.67
   4  -8  -3   15.48    1.12
   4   8  -3   15.10    1.04
   4   8  -3   16.61    1.02
   3  -8  -3   19.47    1.08
   3   8  -3   20.44    0.89
   3   8  -3   21.96    1.15
   2  -8  -3   95.00    2.01
  -2  -8   3   96.99    2.01
   2  -8  -3   98.81    2.34
   2   8  -3   96.65    1.93
   2   8  -3   97.94    2.51
  -1  -8   3    9.10    0.66
   1  -8  -3    9.84    0.61
   1   8  -3    9.51    0.79
   0  -8   3   53.52    1.57
   0  -8  -3   53.92    1.45
   0   8  -3   52.46    1.61
   1  -8   3  153.44    3.27
  -1  -8  -3  146.90    3.07
  -1   8  -3  152.88    3.29
  -2  -8  -3   18.78    1.05
   2  -8   3   20.19    1.18
  -3  -8  -3   12.51    1.08
   3  -8   3   13.70    1.26
   4  -8   3   18.01    1.47
  -4  -8  -3   16.23    1.33
   5  -8   3    3.74    1.01
  -5  -8  -3    4.08    0.92
   6  -9  -3    4.49    0.89
   6   9  -3    5.12    0.85
   5  -9  -3   55.74    2.12
   5   9  -3   54.04    2.01
   5   9  -3   58.06    1.92
   4  -9  -3    3.60    0.69
   4   9  -3    3.92    0.68
   4   9  -3    3.97    0.60
   3  -9  -3   24.66    1.22
   3   9  -3   26.50    0.99
   3   9  -3   29.27    1.34
   2  -9  -3  166.04    3.13
  -2  -9   3  168.38    3.15
   2  -9  -3  168.38    3.49
   2   9  -3  160.19    2.95
   2   9  -3  179.66    3.84
  -1  -9   3   79.20    1.93
   1  -9  -3   80.86    1.88
   1   9  -3   81.49    2.20
   0  -9  -3   55.72    1.56
   0  -9   3   57.22    1.66
   0   9  -3   60.11    1.76
   1  -9   3    2.29    0.53
  -1  -9  -3    1.46    0.45
  -1   9  -3    1.89    0.42
   2  -9   3   13.02    1.04
  -2  -9  -3   12.82    0.93
  -3  -9  -3   49.38    1.81
   3  -9   3   48.90    1.98
  -4  -9  -3   80.21    2.61
   4  -9   3   77.17    2.68
  -5  -9  -3    3.75    0.93
   5  -9   3    3.35    0.97
   6 -10  -3    4.95    0.95
   6  10  -3    3.76    0.78
   5 -10  -3    6.00    0.90
   5  10  -3    6.25    0.79
   5  10  -3    4.86    0.77
   4 -10  -3   14.18    1.10
   4  10  -3   14.74    1.08
   4  10  -3   14.43    0.93
   3 -10  -3   14.78    1.02
   3  10  -3   13.70    0.75
   3  10  -3   14.01    1.02
  -2 -10   3   87.92    2.03
   2 -10  -3   91.56    2.26
   2 -10  -3   84.63    1.97
   2  10  -3   82.40    1.71
   2  10  -3   86.86    2.41
   1 -10  -3   52.57    1.49
  -1 -10   3   52.40    1.53
   1  10  -3   53.36    1.73
   0 -10  -3   47.15    1.44
   0 -10   3   45.96    1.51
   0  10  -3   43.29    1.54
  -1 -10  -3   93.95    2.29
   1 -10   3   97.16    2.48
  -1  10  -3   93.55    2.42
   2 -10   3   13.32    1.08
  -2 -10  -3   13.02    0.94
   3 -10   3   10.49    1.17
  -3 -10  -3   11.54    1.08
  -4 -10  -3   15.04    1.37
   4 -10   3   14.73    1.41
   5 -10   3    1.64    0.90
  -5 -10  -3    2.03    0.82
   6 -11  -3    6.04    1.02
   6  11  -3    7.42    0.97
   5 -11  -3   35.01    1.70
   5  11  -3   34.78    1.50
   5  11  -3   30.03    1.58
   4 -11  -3    6.01    0.83
   4  11  -3    6.04    0.67
   4  11  -3    5.85    0.82
   3 -11  -3    5.16    0.72
   3  11  -3    4.31    0.46
   3  11  -3    4.89    0.74
  -2 -11   3  124.50    2.69
   2 -11  -3  124.10    2.90
   2 -11  -3  128.01    2.67
   2  11  -3  129.08    3.17
  -1 -11   3   51.51    1.58
   1 -11  -3   52.99    1.55
   1  11  -3   52.71    1.77
   0 -11   3   56.69    1.77
   0 -11  -3   54.66    1.64
   0  11  -3   59.94    1.86
   1 -11   3    5.04    0.73
  -1 -11  -3    5.13    0.66
  -1  11  -3    6.29    0.71
   2 -11   3    7.61    0.97
  -2 -11  -3    6.87    0.82
  -3 -11  -3   52.18    1.92
   3 -11   3   51.60    2.10
  -4 -11  -3   50.01    2.07
   4 -11   3   51.15    2.25
   5 -11   3    1.90    0.96
   6  12  -3    5.69    0.87
   5 -12  -3    8.80    1.04
   5  12  -3   11.99    1.11
   5  12  -3   10.83    1.00
   4 -12  -3   23.24    1.36
   4  12  -3   22.45    1.07
   4  12  -3   21.10    1.31
   3 -12  -3   20.86    1.18
   3  12  -3   22.72    1.29
   2 -12  -3   78.55    2.17
  -2 -12   3   80.22    2.05
   2 -12  -3   76.55    1.98
   2  12  -3   81.00    2.38
   1 -12  -3   16.74    0.94
  -1 -12   3   15.27    0.95
   0 -12   3   40.71    1.51
   0 -12  -3   37.82    1.37
   0  12  -3   37.98    1.51
   1 -12   3  223.84    4.57
  -1 -12  -3  227.05    4.43
  -1  12  -3  223.66    4.76
   2 -12   3   20.62    1.33
  -2 -12  -3   20.70    1.17
   3 -12   3   13.17    1.30
  -3 -12  -3   11.02    1.12
   4 -12   3   14.18    1.46
  -4 -12  -3   19.02    1.44
   5 -13  -3   36.89    1.79
   5  13  -3   36.15    1.78
   4 -13  -3    7.06    0.91
   4  13  -3    7.24    0.91
   3 -13  -3    7.52    0.87
   3  13  -3    6.06    0.82
  -2 -13   3  108.22    2.55
   2 -13  -3  103.42    2.64
   2 -13  -3  104.87    2.48
   2  13  -3  102.28    2.85
  -1 -13   3   41.13    1.48
   1 -13  -3   39.73    1.42
   1  13  -3   39.11    1.60
   0 -13  -3   57.68    1.79
   0 -13   3   58.95    1.90
   0  13  -3   56.92    1.92
  -1 -13  -3    5.52    0.77
   1 -13   3    5.67    0.80
  -2 -13  -3   28.89    1.39
   2 -13   3   27.12    1.50
  -3 -13  -3   47.08    1.90
   3 -13   3   49.15    2.07
  -4 -13  -3   53.99    2.26
   4 -13   3   51.30    2.34
   5 -14  -3    3.58    0.80
   5  14  -3    6.13    0.91
   4 -14  -3   22.03    1.34
   4  14  -3   20.03    1.36
   3 -14  -3   41.81    1.66
   3  14  -3   37.12    1.72
   2 -14  -3   37.02    1.50
  -2 -14   3   39.64    1.49
   2 -14  -3   37.84    1.43
   2  14  -3   37.26    1.65
   1 -14  -3   35.34    1.42
  -1 -14   3   37.79    1.48
   1  14  -3   35.25    1.57
   0 -14  -3   65.28    2.01
   0 -14   3   69.45    2.15
   0  14  -3   73.33    2.26
   1 -14   3  183.86    4.05
  -1 -14  -3  182.88    3.88
   2 -14   3   16.67    1.30
  -2 -14  -3   16.34    1.15
   3 -14   3   14.28    1.40
  -3 -14  -3   12.00    1.22
   4 -14   3    6.25    1.08
  -4 -14  -3    6.22    1.06
   5 -15  -3   27.41    1.61
   5  15  -3   27.44    1.72
   4 -15  -3   11.96    1.20
   4  15  -3   11.20    1.16
   3 -15  -3   19.91    1.23
   3  15  -3   19.58    1.35
   2 -15  -3   39.33    1.59
   2 -15  -3   42.47    1.57
  -2 -15   3   43.66    1.62
   2  15  -3   41.72    1.77
   1 -15  -3   12.33    1.10
  -1 -15   3   11.70    1.00
   1  15  -3   10.10    1.00
   0 -15   3   20.41    1.25
   0 -15  -3   20.17    1.19
   0  15  -3   19.95    1.24
   1 -15   3    3.40    0.72
  -1 -15  -3    2.85    0.66
   2 -15   3   19.86    1.40
  -2 -15  -3   17.79    1.22
  -3 -15  -3   14.25    1.39
   3 -15   3   14.32    1.40
  -4 -15  -3   10.79    1.29
   4 -15   3   10.55    1.35
   5 -16  -3    6.84    0.99
   4 -16  -3   21.68    1.38
   4  16  -3   22.80    1.45
   3 -16  -3   31.68    1.51
   3  16  -3   28.54    1.57
  -2 -16   3   32.34    1.44
   2 -16  -3   28.67    1.40
   2 -16  -3   30.72    1.40
   2  16  -3   31.58    1.58
  -1 -16   3    1.13    0.53
   1 -16  -3    0.52    0.51
   1 -16  -3    0.81    0.47
   1  16  -3    1.31    0.53
   0 -16  -3   20.76    1.24
   0 -16   3   20.68    1.30
   0  16  -3   17.39    1.25
  -1 -16  -3  138.15    3.39
   1 -16   3  144.45    3.56
  -2 -16  -3   13.04    1.30
   2 -16   3   11.99    1.25
   3 -16   3    4.38    0.95
  -3 -16  -3    6.45    1.04
  -4 -16  -3    6.77    1.14
   4 -16   3    3.60    1.01
   5 -17  -3   28.67    1.68
   4 -17  -3    9.28    1.06
   4  17  -3   10.91    1.20
   3 -17  -3   29.00    1.50
   3  17  -3   29.00    1.61
  -2 -17   3   43.93    1.73
   2 -17  -3   43.63    1.70
   2 -17  -3   41.16    1.67
   2  17  -3   40.38    1.84
   1 -17  -3   29.51    1.49
  -1 -17   3   29.14    1.49
   1 -17  -3   29.30    1.40
   1  17  -3   29.05    1.56
   0 -17   3   26.51    1.47
   0 -17  -3   26.36    1.41
  -1 -17  -3    1.28    0.64
   1 -17   3    1.26    0.63
   2 -17   3   19.92    1.48
  -2 -17  -3   21.18    1.35
  -3 -17  -3   27.45    1.62
   3 -17   3   28.51    1.84
   5 -18  -3    2.02    0.73
   4 -18  -3    3.97    0.80
   4  18  -3    4.57    0.84
   3 -18  -3   16.08    1.21
   3  18  -3   17.55    1.33
  -2 -18   3   40.07    1.71
   2 -18  -3   39.83    1.66
   2 -18  -3   38.83    1.68
   2  18  -3   39.67    1.86
  -1 -18   3   10.66    1.08
   1 -18  -3   12.78    1.03
   1 -18  -3   11.82    1.20
   1  18  -3   11.97    1.17
   0 -18   3   25.54    1.51
   0 -18  -3   25.47    1.43
  -1 -18  -3   83.25    2.60
   1 -18   3   84.75    2.74
  -2 -18  -3   15.45    1.46
   2 -18   3   15.56    1.52
   3 -18   3   10.22    1.31
  -3 -18  -3   12.87    1.34
   4 -19  -3    2.54    0.72
   4  19  -3    3.92    0.79
   3 -19  -3   25.76    1.47
   3  19  -3   21.81    1.49
  -2 -19   3   64.73    2.25
   2 -19  -3   63.24    2.17
   2 -19  -3   62.84    2.14
   2  19  -3   60.94    2.40
   1 -19  -3   30.54    1.48
   1 -19  -3   30.14    1.58
  -1 -19   3   30.34    1.64
   1  19  -3   28.05    1.66
   0 -19   3   32.11    1.70
   0 -19  -3   32.11    1.66
  -1 -19  -3    2.54    0.73
   1 -19   3    1.41    0.69
   2 -19   3   21.43    1.62
  -2 -19  -3   22.85    1.51
   3 -19   3   28.62    1.93
  -3 -19  -3   27.19    1.73
   4 -20  -3    9.63    1.13
   4  20  -3    7.17    1.03
   3 -20  -3    9.04    1.03
   3  20  -3    8.99    1.10
   2 -20  -3   34.33    1.68
  -2 -20   3   31.86    1.68
   2 -20  -3   33.34    1.60
   2  20  -3   32.99    1.80
   1 -20  -3   36.12    1.76
  -1 -20   3   39.41    1.87
   1 -20  -3   34.74    1.63
   0 -20  -3   32.69    1.72
   0 -20   3   33.10    1.77
   1 -20   3   40.84    2.00
  -1 -20  -3   39.39    1.88
   2 -20   3   14.03    1.42
  -2 -20  -3   13.03    1.35
  -3 -20  -3   22.34    1.60
   3 -20   3   16.85    1.68
   4 -21  -3    7.19    1.04
   4  21  -3    7.26    1.08
   3 -21  -3   14.62    1.27
   3  21  -3   15.37    1.37
   2 -21  -3   37.54    1.82
   2 -21  -3   37.66    1.73
  -2 -21   3   40.60    1.92
   1 -21  -3    6.81    0.92
  -1 -21   3    7.49    1.06
   1 -21  -3    7.18    1.05
   0 -21   3   37.85    1.92
   0 -21  -3   37.63    1.89
  -1 -21  -3    0.81    0.60
   1 -21   3    0.72    0.74
  -2 -21  -3   23.35    1.62
   2 -21   3   20.62    1.68
   4 -22  -3    2.82    0.78
   3 -22  -3    5.43    0.91
   2 -22  -3   19.69    1.34
  -2 -22   3   18.50    1.49
   2 -22  -3   20.57    1.49
   1 -22  -3   26.23    1.67
  -1 -22   3   27.93    1.73
   1 -22  -3   29.54    1.59
   0 -22   3   11.22    1.24
   0 -22  -3   14.70    1.52
   1 -22   3   24.78    1.74
  -1 -22  -3   21.46    1.61
  -2 -22  -3    5.95    1.04
   2 -22   3    9.62    1.36
   3 -23  -3    9.96    1.18
   2 -23  -3   34.72    1.89
  -2 -23   3   33.60    1.91
   2 -23  -3   32.39    1.70
  -1 -23   3    5.93    1.01
   1 -23  -3    8.89    1.06
   1 -23  -3    5.44    1.04
   0 -23   3   20.39    1.62
   0 -23  -3   17.36    1.48
  -1 -23  -3    0.89    0.68
   1 -23   3    0.32    0.70
   2 -24  -3   21.42    1.65
   2 -24  -3   21.67    1.47
  -2 -24   3   22.59    1.70
   1 -24  -3   15.32    1.51
  -1 -24   3   14.81    1.47
   1 -24  -3   17.39    1.36
   0 -24   3   18.78    1.61
   0 -24  -3   19.97    1.60
   1 -24   3   72.77    2.90
  -1 -24  -3   76.35    2.87
   2 -25  -3   15.57    1.60
  -2 -25   3   17.73    1.63
   1 -25  -3    3.99    0.99
  -1 -25   3    3.76    0.95
   1 -25  -3    5.51    0.93
   0 -25  -3   26.65    1.81
   0 -25   3   29.82    1.94
  -2 -26   3    7.88    1.25
   2 -26  -3    7.37    1.23
  -1 -26   3    9.39    1.33
   1 -26  -3   12.29    1.46
   6   0  -4   14.92    1.37
   5   0  -4   -0.21    0.53
   4   0  -4    0.53    0.53
   3   0  -4   26.96    1.24
   2   0  -4   40.45    1.35
   1   0  -4  369.65    6.35
  -1   0   4  373.48    6.01
   0   0   4   29.40    1.14
  -1   0  -4    1.17    0.35
   1   0   4    1.43    0.51
   2   0   4   99.17    2.67
   3   0   4   29.94    1.63
   4   0   4    8.72    1.21
   6  -1  -4   -0.03    0.62
   6   1  -4   -0.09    0.62
   5  -1  -4    0.05    0.54
   5   1  -4    0.91    0.56
   4  -1  -4   32.62    1.50
   4   1  -4   36.35    1.50
   3  -1  -4  120.16    2.81
   3   1  -4  126.90    2.83
   2  -1  -4    7.89    0.74
   2   1  -4    7.70    0.68
   1  -1  -4   23.84    1.01
  -1  -1   4   21.85    0.88
  -1   1   4   23.48    0.88
   1   1  -4   23.30    0.95
   0  -1   4   71.65    1.84
   0   1   4   70.16    1.82
   1  -1   4   10.54    0.91
   1   1   4   11.05    0.92
  -1   1  -4    9.71    0.68
   2  -1   4   80.29    2.38
   2   1   4   79.32    2.34
   3  -1   4    4.26    0.87
   3   1   4    2.62    0.76
   4  -1   4    4.53    1.03
   4   1   4    5.42    1.05
   6  -2  -4   17.14    1.48
   6   2  -4   17.21    1.39
   5  -2  -4    2.27    0.71
   5   2  -4    2.57    0.66
   5   2  -4    1.60    0.60
   4  -2  -4    9.24    0.96
   4   2  -4    9.96    0.97
   3  -2  -4   22.05    1.14
   3   2  -4   22.63    1.09
   2  -2  -4    5.84    0.65
   2   2  -4    7.21    0.67
  -1  -2   4  199.61    3.51
   1  -2  -4  192.15    3.78
   1   2  -4  197.06    3.64
   0  -2   4   30.58    1.20
   0   2   4   31.48    1.17
   0   2  -4   29.64    1.15
   1  -2   4    0.69    0.49
  -1   2  -4    0.83    0.33
   1   2   4    0.20    0.46
   2  -2   4   77.88    2.34
   2   2   4   73.61    2.27
   3  -2   4   42.85    1.90
   3   2   4   46.11    1.93
   4  -2   4    7.75    1.19
   6  -3  -4    1.40    0.69
   6   3  -4    0.22    0.62
   5  -3  -4    0.46    0.59
   5   3  -4    0.47    0.51
   5   3  -4    0.10    0.54
   4  -3  -4   55.40    1.91
   4   3  -4   53.00    1.95
   4   3  -4   54.06    1.81
   3  -3  -4   56.27    1.78
   3   3  -4   52.64    1.62
   2  -3  -4    9.40    0.77
   2   3  -4    8.50    0.67
  -1  -3   4   22.74    0.91
   1  -3  -4   26.85    0.92
   1  -3  -4   23.26    1.05
   1   3  -4   24.22    0.92
   1   3  -4   26.04    1.14
   0  -3   4   83.38    2.06
   0   3  -4   84.70    2.16
   1  -3   4   13.75    1.01
  -1   3  -4   13.92    0.77
   1   3   4   12.86    0.97
   2  -3   4   56.15    1.99
   2   3   4   52.72    1.88
   3  -3   4    0.80    0.67
   3   3   4    0.72    0.63
   4  -3   4    6.76    1.14
   6  -4  -4   16.36    1.46
   6   4  -4   16.05    1.36
   5  -4  -4    0.54    0.58
   5   4  -4    1.13    0.59
   5   4  -4   -0.50    0.45
   4  -4  -4    3.25    0.68
   4   4  -4    3.04    0.64
   4   4  -4    1.55    0.56
   3  -4  -4   19.14    1.12
   3   4  -4   18.65    1.14
   3   4  -4   20.38    1.00
   2  -4  -4   -0.12    0.33
   2   4  -4   -0.02    0.38
   2   4  -4    0.03    0.29
  -1  -4   4  143.19    2.79
   1  -4  -4  144.26    3.08
   1  -4  -4  146.21    2.73
   1   4  -4  145.23    3.28
   1   4  -4  140.80    2.73
   0  -4   4   43.70    1.44
   0  -4  -4   44.51    1.34
   0   4  -4   42.78    1.48
   1  -4   4    2.47    0.60
  -1   4  -4    2.46    0.44
   2  -4   4   80.12    2.43
   3  -4   4   43.40    1.96
   4  -4   4   11.18    1.31
   6  -5  -4    0.93    0.72
   6   5  -4    0.67    0.62
   5  -5  -4    0.50    0.54
   5   5  -4   -0.12    0.45
   5   5  -4    0.01    0.48
   4  -5  -4  126.68    3.18
   4   5  -4  125.18    3.32
   4   5  -4  125.94    2.94
   3  -5  -4   45.75    1.67
   3   5  -4   48.65    1.76
   3   5  -4   46.90    1.45
   2  -5  -4    0.98    0.43
   2   5  -4    1.51    0.49
   2   5  -4    1.58    0.37
   1  -5  -4    8.99    0.65
  -1  -5   4    9.15    0.71
   1   5  -4    9.68    0.84
   0  -5  -4   89.87    2.10
   0  -5   4   85.69    2.16
   0   5  -4   86.44    2.28
   1  -5   4   52.68    1.78
  -1  -5  -4   50.98    1.62
  -1   5  -4   51.15    1.56
   2  -5   4   64.69    2.16
   3  -5   4    1.12    0.70
  -3  -5  -4    0.60    0.53
   4  -5   4    4.25    0.99
  -4  -5  -4    4.52    0.90
   6  -6  -4   26.91    1.73
   6   6  -4   26.84    1.56
   5  -6  -4    1.29    0.64
   5   6  -4    1.22    0.55
   5   6  -4    1.99    0.63
   4  -6  -4   20.74    1.33
   4   6  -4   21.33    1.17
   4   6  -4   20.16    1.32
   3  -6  -4    9.25    0.89
   3   6  -4    7.62    0.69
   3   6  -4    7.07    0.80
   2  -6  -4    1.44    0.46
   2   6  -4    2.00    0.36
   2   6  -4    1.97    0.50
   1  -6  -4  164.32    3.08
  -1  -6   4  160.24    3.12
   1   6  -4  162.10    3.67
   0  -6   4   48.48    1.58
   0  -6  -4   46.98    1.45
   0   6  -4   46.53    1.58
  -1  -6  -4    2.02    0.54
   1  -6   4    2.06    0.61
  -1   6  -4    2.46    0.47
  -2  -6  -4   74.69    2.20
   2  -6   4   72.13    2.32
   3  -6   4   37.25    1.90
  -3  -6  -4   31.40    1.58
   4  -6   4    6.71    1.16
  -4  -6  -4    8.14    1.10
   6  -7  -4   -0.22    0.63
   6   7  -4    0.78    0.63
   5  -7  -4    3.29    0.77
   5   7  -4    3.07    0.68
   5   7  -4    3.66    0.70
   4  -7  -4   86.10    2.53
   4   7  -4   83.34    2.62
   4   7  -4   85.00    2.26
   3  -7  -4   35.50    1.48
   3   7  -4   35.96    1.23
   3   7  -4   35.06    1.55
   2  -7  -4   10.92    0.88
   2   7  -4   10.26    0.91
  -1  -7   4   19.55    0.96
   1  -7  -4   19.56    0.90
   1   7  -4   18.66    1.11
   0  -7  -4  105.65    2.41
   0  -7   4  108.60    2.53
   0   7  -4  104.59    2.67
   1  -7   4   27.16    1.36
  -1  -7  -4   27.77    1.23
  -1   7  -4   28.73    1.19
   2  -7   4   73.95    2.38
  -2  -7  -4   74.21    2.23
   3  -7   4    2.07    0.80
  -3  -7  -4    3.24    0.78
   4  -7   4    6.71    1.19
  -4  -7  -4    7.20    1.10
   6  -8  -4   20.55    1.71
   6   8  -4   17.59    1.34
   5  -8  -4    1.18    0.64
   5   8  -4    1.74    0.60
   5   8  -4    1.18    0.54
   4  -8  -4    6.34    0.88
   4   8  -4    5.52    0.84
   4   8  -4    5.48    0.69
   3  -8  -4   11.15    0.99
   3   8  -4    9.73    0.73
   3   8  -4    9.87    0.96
   2  -8  -4    8.78    0.84
  -2  -8   4    9.93    0.69
   2  -8  -4    9.61    0.65
   2   8  -4   10.12    0.92
  -1  -8   4  116.03    2.60
   1  -8  -4  116.87    2.52
   1   8  -4  118.79    2.99
   0  -8  -4   61.04    1.73
   0  -8   4   61.52    1.85
   0   8  -4   61.63    1.92
  -1  -8  -4   10.53    0.90
   1  -8   4   14.40    1.21
  -1   8  -4   10.22    0.82
   2  -8   4   67.32    2.31
  -2  -8  -4   68.05    2.12
  -3  -8  -4   24.09    1.44
   3  -8   4   25.90    1.64
  -4  -8  -4    7.47    1.14
   4  -8   4    5.40    1.11
   6   9  -4   -0.21    0.53
   5  -9  -4    1.28    0.63
   5   9  -4    1.83    0.61
   5   9  -4    2.65    0.64
   4  -9  -4   29.60    1.54
   4   9  -4   30.45    1.26
   4   9  -4   29.02    1.53
   3  -9  -4   52.22    1.86
   3   9  -4   52.35    1.94
  -2  -9   4    6.31    0.60
   2  -9  -4    6.77    0.75
   2  -9  -4    7.77    0.65
   2   9  -4    9.00    0.92
  -1  -9   4   10.73    0.88
   1  -9  -4    9.39    0.77
   1   9  -4    9.33    0.95
   0  -9   4   67.36    2.00
   0  -9  -4   67.36    1.87
   0   9  -4   65.95    2.05
   1  -9   4    0.07    0.48
  -1  -9  -4    0.72    0.46
  -1   9  -4    0.11    0.34
  -2  -9  -4   58.65    1.99
   2  -9   4   58.70    2.16
   3  -9   4    7.26    1.10
  -3  -9  -4    7.04    1.02
  -4  -9  -4    1.79    0.79
   4  -9   4    3.06    0.99
   5 -10  -4    1.32    0.68
   5  10  -4    1.05    0.56
   4 -10  -4    3.02    0.70
   4  10  -4    3.44    0.72
   3 -10  -4   11.43    1.04
   3  10  -4   10.35    1.05
   2 -10  -4   11.60    0.77
   2 -10  -4   11.55    0.94
   2  10  -4   12.45    1.06
  -1 -10   4  109.40    2.59
   1 -10  -4  110.59    2.48
   1  10  -4  108.21    2.89
   0 -10   4   24.73    1.28
   0 -10  -4   23.23    1.16
   0  10  -4   21.45    1.22
   1 -10   4   16.96    1.20
  -1 -10  -4   18.76    1.10
  -1  10  -4   17.75    1.07
   2 -10   4   62.16    2.29
  -2 -10  -4   60.42    2.04
  -3 -10  -4   22.11    1.40
   3 -10   4   19.24    1.55
  -4 -10  -4    6.69    1.08
   4 -10   4    6.13    1.15
   5 -11  -4    0.84    0.64
   5  11  -4   -0.19    0.48
   4 -11  -4   24.78    1.45
   4  11  -4   23.62    1.46
   3 -11  -4   57.38    2.01
   3  11  -4   56.57    2.10
  -2 -11   4    6.40    0.64
   2 -11  -4    6.66    0.79
   2 -11  -4    7.10    0.74
   2  11  -4    9.09    0.96
  -1 -11   4   29.66    1.32
   1 -11  -4   28.64    1.23
   1  11  -4   27.46    1.43
   0 -11  -4   52.14    1.75
   0 -11   4   52.97    1.87
   0  11  -4   55.82    1.96
  -1 -11  -4    6.91    0.89
   1 -11   4    4.77    0.81
  -1  11  -4    5.20    0.69
  -2 -11  -4   46.67    1.82
   2 -11   4   47.83    2.03
  -3 -11  -4   11.09    1.20
   3 -11   4    9.28    1.29
   4 -11   4    5.92    1.14
  -4 -11  -4    7.56    1.19
   5 -12  -4    2.69    0.78
   5  12  -4    1.69    0.66
   4 -12  -4    9.27    1.03
   4  12  -4   11.78    1.17
   3 -12  -4   13.12    1.12
   3  12  -4   12.19    1.17
  -2 -12   4   10.37    0.85
   2 -12  -4   10.40    1.00
   2 -12  -4   10.05    0.82
   2  12  -4   10.02    1.02
   1 -12  -4  166.25    3.50
  -1 -12   4  169.26    3.59
   1  12  -4  162.85    4.00
   0 -12   4   16.40    1.15
   0 -12  -4   14.15    1.05
   0  12  -4   15.27    1.13
   1 -12   4   18.95    1.32
  -1 -12  -4   19.52    1.21
  -1  12  -4   21.75    1.23
   2 -12   4   51.20    2.12
  -2 -12  -4   52.36    1.95
  -3 -12  -4   24.81    1.51
   3 -12   4   25.92    1.78
   4 -12   4    9.94    1.40
   5 -13  -4    7.79    1.08
   5  13  -4    8.00    1.06
   4 -13  -4   52.06    2.05
   4  13  -4   54.53    2.21
   3 -13  -4   53.55    2.02
   3  13  -4   54.68    2.15
   2 -13  -4   14.25    1.09
   2 -13  -4   12.48    0.95
  -2 -13   4   13.79    0.98
   2  13  -4   13.31    1.14
  -1 -13   4    6.79    0.78
   1 -13  -4    6.91    0.83
   1  13  -4    8.00    0.93
   0 -13   4   33.96    1.57
   0 -13  -4   34.90    1.48
   0  13  -4   30.46    1.54
   1 -13   4   15.69    1.26
  -1 -13  -4   15.30    1.15
  -1  13  -4   18.43    1.18
   2 -13   4   40.51    1.90
  -2 -13  -4   36.43    1.70
   3 -13   4   11.32    1.37
  -3 -13  -4   11.10    1.32
   5 -14  -4    2.22    0.74
   5  14  -4    2.61    0.74
   4 -14  -4    4.69    0.86
   4  14  -4    3.34    0.77
   3 -14  -4   22.15    1.39
   3  14  -4   18.31    1.38
   2 -14  -4    5.35    0.78
   2 -14  -4    6.81    0.87
  -2 -14   4    5.65    0.72
   2  14  -4    5.01    0.81
   1 -14  -4   93.75    2.51
  -1 -14   4   93.96    2.60
   1  14  -4   94.01    2.86
   0 -14  -4   15.65    1.12
   0 -14   4   14.91    1.19
   0  14  -4   16.31    1.22
  -1 -14  -4   20.82    1.29
   1 -14   4   24.08    1.50
  -1  14  -4   22.09    1.33
   2 -14   4   36.36    1.88
  -2 -14  -4   37.88    1.74
   3 -14   4   29.67    1.90
  -3 -14  -4   31.36    1.73
   5 -15  -4    4.97    0.93
   5  15  -4    5.36    0.97
   4 -15  -4   35.41    1.74
   4  15  -4   36.30    1.90
   3 -15  -4   18.32    1.33
   3  15  -4   20.57    1.46
   2 -15  -4   13.32    1.14
   2 -15  -4   12.63    1.02
  -2 -15   4   13.89    1.07
   2  15  -4   13.58    1.23
   1 -15  -4   16.12    1.14
  -1 -15   4   16.89    1.24
   1  15  -4   16.12    1.31
   0 -15   4   33.54    1.66
   0 -15  -4   33.25    1.59
   0  15  -4   35.29    1.70
   1 -15   4   10.14    1.21
  -1 -15  -4   11.81    1.20
  -2 -15  -4   20.13    1.40
   2 -15   4   18.47    1.50
   3 -15   4   10.03    1.38
  -3 -15  -4    9.09    1.23
   5  16  -4    4.19    0.87
   4 -16  -4    8.14    1.03
   4  16  -4   10.20    1.21
   3 -16  -4    6.26    0.90
   3  16  -4    8.74    1.13
   2 -16  -4    0.34    0.51
   2 -16  -4    0.63    0.56
  -2 -16   4    0.93    0.50
   2  16  -4    1.71    0.68
   1 -16  -4   57.27    2.10
   1 -16  -4   58.43    2.02
  -1 -16   4   59.27    2.12
   1  16  -4   58.33    2.29
   0 -16   4   26.99    1.53
   0 -16  -4   24.37    1.44
   0  16  -4   24.41    1.51
   1 -16   4   13.65    1.39
  -1 -16  -4   14.25    1.35
  -2 -16  -4   24.73    1.54
   2 -16   4   28.26    1.75
  -3 -16  -4   18.79    1.49
   3 -16   4   18.23    1.74
   5  17  -4    1.83    0.67
   4 -17  -4   31.41    1.69
   4  17  -4   29.07    1.75
   3 -17  -4   23.12    1.49
   3  17  -4   22.10    1.56
   2 -17  -4   13.39    1.18
  -2 -17   4   15.33    1.21
   2  17  -4   12.75    1.29
  -1 -17   4    7.93    1.00
   1 -17  -4    7.36    0.96
   1 -17  -4    8.96    1.06
   1  17  -4   10.11    1.15
   0 -17   4   31.16    1.66
   0 -17  -4   28.36    1.57
   0  17  -4   31.54    1.70
  -1 -17  -4   17.46    1.54
   1 -17   4   15.87    1.53
  -2 -17  -4   29.84    1.64
   2 -17   4   25.62    1.76
   3 -17   4    1.00    0.85
  -3 -17  -4    1.74    0.80
   4 -18  -4    5.38    0.90
   4  18  -4    7.74    1.07
   3 -18  -4    4.77    0.88
   3  18  -4    4.77    0.91
  -2 -18   4   12.04    1.14
   2 -18  -4   13.02    1.21
   2  18  -4   13.40    1.38
  -1 -18   4   87.78    2.73
   1 -18  -4   79.54    2.62
   1 -18  -4   83.28    2.63
   1  18  -4   83.02    2.89
   0 -18   4   22.22    1.50
   0 -18  -4   21.97    1.45
   0  18  -4   19.63    1.50
  -1 -18  -4   13.17    1.41
   1 -18   4    9.29    1.19
  -2 -18  -4   31.23    1.80
   2 -18   4   33.26    1.99
   4 -19  -4   21.40    1.49
   4  19  -4   24.28    1.69
   3 -19  -4   17.54    1.39
   3  19  -4   17.67    1.52
   2 -19  -4   31.37    1.70
  -2 -19   4   31.83    1.68
   2  19  -4   31.47    1.85
   1 -19  -4    7.61    1.11
   1 -19  -4    6.08    0.94
  -1 -19   4    6.91    1.01
   1  19  -4    6.25    1.01
   0 -19  -4   27.75    1.63
   0 -19   4   28.49    1.71
  -1 -19  -4    9.05    1.18
   1 -19   4    9.65    1.27
  -2 -19  -4   26.88    1.73
   2 -19   4   24.58    1.84
   4 -20  -4    6.84    1.00
   4  20  -4    8.76    1.19
   3 -20  -4    7.08    1.06
   3  20  -4    7.02    1.11
   2 -20  -4   12.52    1.31
  -2 -20   4   10.25    1.14
   2  20  -4   13.84    1.43
   1 -20  -4   42.68    1.96
   1 -20  -4   42.60    2.02
  -1 -20   4   44.18    2.09
   1  20  -4   45.22    2.20
   0 -20   4   20.32    1.56
   0 -20  -4   18.32    1.44
  -1 -20  -4   21.80    1.57
   1 -20   4   19.13    1.61
   2 -20   4   13.10    1.48
  -2 -20  -4   18.28    1.74
   3 -21  -4   12.34    1.32
   3  21  -4   13.50    1.46
  -2 -21   4   23.57    1.78
   2 -21  -4   24.06    1.55
   2  21  -4   23.18    1.71
  -1 -21   4    5.66    1.03
   1 -21  -4    6.55    1.09
   1 -21  -4    8.39    1.10
   0 -21   4   21.23    1.63
   0 -21  -4   19.86    1.57
   1 -21   4    1.05    0.75
  -1 -21  -4   -0.03    0.64
   3 -22  -4    3.86    0.88
   2 -22  -4    4.78    0.89
   2  22  -4    4.91    1.01
   1 -22  -4   28.41    1.72
   1 -22  -4   28.37    1.78
  -1 -22   4   27.24    1.81
   0 -22   4    6.11    1.18
   0 -22  -4    5.05    1.06
  -1 -22  -4   19.60    1.57
   1 -22   4   15.71    1.61
   2 -23  -4   10.81    1.23
   1 -23  -4   12.19    1.49
  -1 -23   4    8.00    1.19
   1 -23  -4   11.65    1.32
   0 -23   4    7.87    1.25
   0 -23  -4   10.04    1.34
   2 -24  -4    1.46    0.73
   1 -24  -4   37.86    1.98
   1 -24  -4   35.87    2.05
  -1 -24   4   33.84    2.08
   0 -24  -4    6.22    1.24
   6   0  -5    0.02    0.63
   6   0  -5   -0.94    0.57
   5   0  -5   15.87    1.35
   4   0  -5    1.28    0.58
   3   0  -5   61.01    1.93
   2   0  -5    1.30    0.48
  -1   0   5    1.64    0.41
   1   0  -5    2.04    0.50
   0   0   5   72.28    2.05
   1   0   5   69.23    2.19
   2   0   5    0.74    0.66
   3   0   5    3.68    0.93
   6  -1  -5    7.34    1.05
   6  -1  -5    5.89    1.05
   6   1  -5    5.74    1.01
   6   1  -5    7.19    1.02
   5  -1  -5   18.05    1.41
   5   1  -5   16.20    1.35
   5   1  -5   17.33    1.44
   4  -1  -5    1.38    0.62
   4   1  -5    1.37    0.61
   3  -1  -5   35.28    1.52
   3   1  -5   32.62    1.41
   2  -1  -5   81.61    2.21
   2   1  -5   78.92    2.13
   1  -1  -5    7.56    0.78
  -1  -1   5    7.59    0.66
   1   1  -5    8.16    0.76
   0  -1   5   10.30    0.90
   0   1  -5   10.19    0.89
   0   1   5    9.62    0.89
   1  -1   5   15.14    1.17
   1   1   5   13.88    1.16
   2  -1   5   -0.60    0.58
   2   1   5    0.37    0.66
   3  -1   5   61.81    2.47
   3   1   5   61.30    2.50
   6  -2  -5    1.95    0.81
   6   2  -5    1.38    0.76
   6   2  -5    1.90    0.73
   5  -2  -5   28.34    1.64
   5   2  -5   25.11    1.64
   5   2  -5   25.26    1.55
   4  -2  -5   11.28    1.11
   4   2  -5   10.45    1.00
   3  -2  -5   25.37    1.36
   3   2  -5   26.18    1.27
   2  -2  -5    5.15    0.72
   2   2  -5    6.09    0.69
   1  -2  -5    3.44    0.62
  -1  -2   5    2.35    0.46
   1   2  -5    2.43    0.58
   1   2  -5    2.59    0.50
   0  -2   5   72.57    2.08
   0   2  -5   72.64    2.12
   0   2   5   72.64    2.03
   1  -2   5   94.62    2.64
   1   2   5   91.21    2.57
   2  -2   5    0.29    0.64
   2   2   5    0.31    0.62
   3  -2   5    6.38    1.09
   3   2   5    6.38    1.01
   6   3  -5    6.15    0.95
   6   3  -5    3.74    0.89
   5  -3  -5   10.24    1.15
   5   3  -5   13.84    1.24
   5   3  -5   11.98    1.27
   4  -3  -5    2.55    0.73
   4   3  -5    3.22    0.76
   4   3  -5    3.02    0.65
   3  -3  -5   24.81    1.38
   3   3  -5   22.26    1.39
   3   3  -5   22.45    1.15
   2  -3  -5   92.30    2.45
   2   3  -5   90.13    2.63
   2   3  -5   92.01    2.25
   1  -3  -5    2.87    0.61
  -1  -3   5    1.92    0.46
   1  -3  -5    2.88    0.49
   1   3  -5    3.04    0.60
   1   3  -5    3.16    0.51
   0  -3   5   21.58    1.20
   0   3  -5   18.82    1.15
   1  -3   5   16.73    1.25
   2  -3   5   -0.51    0.63
   3  -3   5   40.22    2.09
   6   4  -5    2.99    0.83
   6   4  -5    2.45    0.73
   5  -4  -5   15.38    1.38
   5   4  -5   14.50    1.21
   5   4  -5   15.04    1.34
   4  -4  -5    1.23    0.67
   4   4  -5    1.77    0.60
   4   4  -5    0.77    0.61
   3  -4  -5   17.07    1.20
   3   4  -5   19.52    1.30
   3   4  -5   20.82    1.07
   2  -4  -5    6.71    0.80
   2   4  -5    5.98    0.78
   2   4  -5    4.97    0.59
  -1  -4   5    1.18    0.42
   1  -4  -5    2.23    0.45
   1  -4  -5    1.34    0.55
   1   4  -5    1.44    0.55
   1   4  -5    1.17    0.38
   0  -4  -5   89.57    2.27
   0  -4   5   86.27    2.36
   0   4  -5   86.88    2.46
   1  -4   5   94.49    2.69
   2  -4   5   -0.57    0.60
   3  -4   5    1.62    0.80
   6   5  -5    8.89    1.03
   6   5  -5   14.56    1.39
   5  -5  -5   13.63    1.33
   5   5  -5   13.97    1.33
   5   5  -5   11.74    1.12
   4  -5  -5    0.43    0.63
   4   5  -5    0.72    0.60
   4   5  -5    1.09    0.52
   3  -5  -5   11.26    1.06
   3   5  -5   11.88    0.90
   3   5  -5   11.29    1.13
   2  -5  -5   95.35    2.57
   2   5  -5   93.56    2.72
   1  -5  -5    0.66    0.50
  -1  -5   5    0.48    0.39
   1  -5  -5    0.81    0.36
   1   5  -5    0.93    0.51
   0  -5   5    7.20    0.85
   0  -5  -5    7.93    0.81
   0   5  -5    7.39    0.83
   1  -5   5   17.29    1.27
  -1  -5  -5   17.40    1.15
  -2  -5  -5    0.78    0.57
   2  -5   5    0.17    0.67
   3  -5   5   38.52    2.08
  -3  -5  -5   41.23    2.03
   6   6  -5    1.21    0.66
   6   6  -5    1.15    0.65
   5  -6  -5   19.26    1.53
   5   6  -5   15.92    1.42
   5   6  -5   17.06    1.26
   4  -6  -5    1.58    0.68
   4   6  -5    1.37    0.66
   4   6  -5    2.22    0.60
   3  -6  -5   29.32    1.48
   3   6  -5   25.02    1.47
   2  -6  -5    4.42    0.74
   2   6  -5    3.80    0.76
   1  -6  -5   -0.01    0.51
  -1  -6   5    1.18    0.44
   1  -6  -5    0.62    0.36
   1   6  -5    0.88    0.50
   0  -6   5   89.85    2.43
   0  -6  -5   89.63    2.32
   0   6  -5   87.71    2.52
  -1  -6  -5   77.32    2.33
   1  -6   5   79.60    2.47
  -2  -6  -5    4.23    0.87
   2  -6   5    4.27    0.92
  -3  -6  -5    2.27    0.78
   3  -6   5    2.19    0.84
   6   7  -5    7.02    0.99
   5  -7  -5   10.54    1.20
   5   7  -5    9.32    1.10
   4  -7  -5    2.26    0.70
   4   7  -5    2.83    0.75
   3  -7  -5   23.87    1.41
   3   7  -5   25.70    1.49
   2  -7  -5   89.50    2.53
   2   7  -5   84.86    2.64
   1  -7  -5    0.61    0.54
   1  -7  -5    1.78    0.45
  -1  -7   5    0.70    0.42
   1   7  -5    2.02    0.59
   0  -7   5   11.57    1.03
   0  -7  -5   10.98    0.96
   0   7  -5   12.17    1.05
   1  -7   5   12.87    1.23
  -1  -7  -5   12.15    1.13
  -2  -7  -5    4.39    0.86
   2  -7   5    4.88    0.95
   3  -7   5   36.80    2.09
  -3  -7  -5   41.98    2.05
   6   8  -5    1.07    0.71
   5  -8  -5   12.01    1.29
   5   8  -5   10.69    1.20
   4  -8  -5    3.14    0.78
   4   8  -5    2.73    0.74
   3  -8  -5   26.08    1.48
   3   8  -5   28.16    1.55
   2  -8  -5    6.97    0.89
   2   8  -5   10.31    1.04
   1  -8  -5    0.95    0.43
  -1  -8   5    0.96    0.48
   1   8  -5    1.53    0.56
   0  -8  -5   68.38    2.00
   0  -8   5   67.68    2.13
   0   8  -5   68.62    2.22
   1  -8   5   43.82    1.87
  -1  -8  -5   44.76    1.76
  -2  -8  -5    9.34    1.13
   2  -8   5    9.50    1.20
  -3  -8  -5    2.91    0.87
   3  -8   5    1.55    0.86
   5  -9  -5   11.11    1.21
   5   9  -5    9.99    1.20
   4  -9  -5    1.94    0.72
   4   9  -5    1.87    0.67
   3  -9  -5   21.30    1.41
   3   9  -5   23.01    1.45
   2  -9  -5   94.22    2.67
   2   9  -5   89.77    2.77
  -1  -9   5   11.32    0.90
   1  -9  -5   13.02    0.94
   1   9  -5   11.32    1.09
   0  -9  -5    6.87    0.82
   0  -9   5    6.10    0.86
   0   9  -5    7.04    0.88
   1  -9   5    6.08    0.95
  -1  -9  -5    6.93    0.91
   2  -9   5    3.69    0.87
  -2  -9  -5    4.70    0.90
  -3  -9  -5   43.41    2.08
   3  -9   5   45.41    2.34
   5 -10  -5   15.87    1.44
   5  10  -5   14.42    1.37
   4 -10  -5    5.43    0.95
   4  10  -5    6.38    1.00
   3 -10  -5   27.01    1.55
   3  10  -5   24.26    1.53
   2 -10  -5    2.49    0.67
   2  10  -5    3.13    0.74
   1 -10  -5   10.08    0.91
  -1 -10   5    7.43    0.84
   1  10  -5    8.59    0.98
   0 -10   5   51.32    1.93
   0 -10  -5   52.91    1.83
   0  10  -5   56.36    2.05
  -1 -10  -5   33.52    1.55
   1 -10   5   33.97    1.71
  -2 -10  -5    3.17    0.84
   2 -10   5    3.73    0.91
   3 -10   5    4.37    1.02
  -3 -10  -5    3.72    0.91
   5 -11  -5    6.45    1.02
   5  11  -5    7.77    1.09
   4 -11  -5    1.47    0.70
   4  11  -5    1.39    0.67
   3 -11  -5   28.76    1.60
   3  11  -5   26.67    1.60
   2 -11  -5   57.89    2.12
   2  11  -5   55.00    2.16
   1 -11  -5    3.58    0.66
  -1 -11   5    3.14    0.65
   1  11  -5    4.13    0.77
   0 -11  -5   13.56    1.09
   0 -11   5   15.11    1.18
   0  11  -5   13.58    1.22
  -1 -11  -5    7.39    1.03
   1 -11   5    7.42    1.03
  -2 -11  -5    0.49    0.66
   2 -11   5    1.28    0.78
   3 -11   5   38.50    2.16
  -3 -11  -5   35.43    1.94
   5 -12  -5   13.08    1.42
   5  12  -5   11.67    1.30
   4 -12  -5    0.52    0.64
   4  12  -5    0.35    0.60
   3 -12  -5   27.50    1.62
   3  12  -5   28.60    1.64
   2 -12  -5    1.89    0.67
   2  12  -5    1.75    0.67
  -1 -12   5   11.54    1.09
   1 -12  -5   10.39    0.98
   1 -12  -5   12.09    1.19
   1  12  -5   11.58    1.20
   0 -12   5   42.05    1.79
   0 -12  -5   42.98    1.73
   0  12  -5   43.50    1.93
   1 -12   5   53.83    2.19
  -1 -12  -5   52.52    2.02
  -2 -12  -5    3.69    0.89
   2 -12   5    1.64    0.81
   3 -12   5    3.81    1.01
  -3 -12  -5    4.21    0.99
   5  13  -5    8.58    1.16
   4 -13  -5    2.61    0.77
   4  13  -5    5.43    0.95
   3 -13  -5   10.53    1.16
   3  13  -5    9.87    1.18
   2 -13  -5   43.28    1.91
   2  13  -5   45.63    2.03
   1 -13  -5    7.05    1.03
   1 -13  -5    4.85    0.81
  -1 -13   5    6.23    0.90
   1  13  -5    6.30    0.96
   0 -13   5   11.37    1.20
   0 -13  -5   10.31    1.06
   0  13  -5   11.99    1.23
  -1 -13  -5   13.46    1.31
   1 -13   5   10.54    1.26
   2 -13   5   -0.03    0.69
  -2 -13  -5    0.45    0.69
   4 -14  -5    0.96    0.68
   4  14  -5   -0.01    0.59
   3 -14  -5   12.46    1.23
   3  14  -5   12.87    1.28
   2 -14  -5    1.95    0.72
   2  14  -5    1.99    0.70
   1 -14  -5   14.55    1.31
  -1 -14   5   14.84    1.22
   1 -14  -5   14.99    1.19
   1  14  -5   14.44    1.36
   0 -14   5   48.04    2.02
   0 -14  -5   48.53    1.90
   0  14  -5   50.55    2.13
   1 -14   5   58.40    2.33
  -1 -14  -5   59.23    2.21
  -2 -14  -5    4.08    0.97
   2 -14   5    4.32    1.05
   4 -15  -5    2.98    0.80
   4  15  -5    4.36    0.94
   3 -15  -5    9.86    1.17
   3  15  -5   11.16    1.24
   2 -15  -5   37.47    1.85
   2  15  -5   37.74    1.93
   1 -15  -5    2.62    0.73
   1 -15  -5    3.24    0.80
  -1 -15   5    2.43    0.72
   1  15  -5    3.50    0.84
   0 -15  -5   11.91    1.25
   0 -15   5   12.99    1.34
   0  15  -5    9.53    1.14
  -1 -15  -5   12.09    1.26
   1 -15   5   13.63    1.40
  -2 -15  -5    1.95    0.82
   2 -15   5    0.63    0.81
   4 -16  -5    2.46    0.80
   4  16  -5    2.14    0.79
   3 -16  -5    9.77    1.19
   3  16  -5   10.77    1.26
   2 -16  -5    3.03    0.82
   2  16  -5    2.03    0.80
   1 -16  -5    6.38    1.01
   1 -16  -5    6.84    1.02
  -1 -16   5    6.85    0.99
   1  16  -5    6.47    1.04
   0 -16  -5   40.43    1.89
   0 -16   5   36.67    1.88
   0  16  -5   40.39    2.01
   1 -16   5   41.04    2.07
  -1 -16  -5   40.22    1.92
  -2 -16  -5   13.32    1.53
   2 -16   5   11.28    1.40
   4  17  -5    3.07    0.96
   3 -17  -5   21.43    1.62
   3  17  -5   20.43    1.61
   2 -17  -5   29.64    1.75
   2  17  -5   31.64    1.87
   1 -17  -5    2.87    0.80
  -1 -17   5    4.17    0.89
   1 -17  -5    2.33    0.75
   1  17  -5    2.44    0.82
   0 -17   5    7.71    1.12
   0 -17  -5   10.82    1.27
   0  17  -5    9.93    1.24
  -1 -17  -5    4.12    0.90
   1 -17   5    3.91    0.94
   3 -18  -5   27.74    1.78
   3  18  -5   25.65    1.80
   2 -18  -5    0.07    0.60
   2  18  -5    1.07    0.73
  -1 -18   5    4.91    0.97
   1 -18  -5    3.97    0.91
   1 -18  -5    5.34    0.97
   1  18  -5    5.78    1.04
   0 -18  -5   35.44    1.88
   0 -18   5   28.98    1.81
   0  18  -5   35.05    1.95
   1 -18   5   15.77    1.59
  -1 -18  -5   18.16    1.55
   3 -19  -5   11.17    1.30
   3  19  -5   11.46    1.43
   2 -19  -5   31.20    1.85
   2  19  -5   29.26    1.90
   1 -19  -5    1.76    0.78
  -1 -19   5    2.48    0.85
   1 -19  -5    2.03    0.78
   1  19  -5    3.30    0.91
   0 -19  -5    7.79    1.20
   0 -19   5    7.15    1.16
   0  19  -5    7.23    1.14
  -1 -19  -5    5.99    1.13
   1 -19   5    3.68    0.95
   2 -20  -5    3.51    0.88
   2  20  -5    3.55    0.95
   1 -20  -5    5.72    1.13
   1 -20  -5    9.03    1.23
  -1 -20   5    7.50    1.17
   1  20  -5    7.94    1.20
   0 -20   5   16.89    1.68
   0 -20  -5   17.88    1.57
   1 -21  -5    3.64    0.95
  -1 -21   5    4.89    1.08
   1  21  -5    2.27    0.89
   0 -21   5   14.93    1.61
   0 -21  -5   13.83    1.53
  -1 -22   5   14.10    1.57
   5   0  -6   -0.19    0.71
   5   0  -6    0.41    0.66
   4   0  -6    5.84    0.91
   3   0  -6   13.12    1.16
   2   0  -6   44.68    1.73
   1   0  -6   41.89    1.64
   0   0  -6    0.13    0.48
   0   0   6    0.97    0.57
   1   0   6    7.86    1.05
   2   0   6   78.96    2.80
   5  -1  -6    2.96    0.82
   5   1  -6    2.35    0.75
   5   1  -6    1.11    0.80
   4  -1  -6   25.65    1.57
   4   1  -6   27.49    1.56
   3  -1  -6    7.37    0.95
   3   1  -6    7.09    0.89
   2  -1  -6    3.52    0.73
   2   1  -6    3.11    0.65
   1  -1  -6   36.73    1.58
   1   1  -6   38.91    1.77
   0  -1   6   12.81    1.12
   0   1  -6    9.85    1.00
   1  -1   6    9.65    1.21
   1   1   6   12.52    1.23
   2  -1   6    7.17    1.15
   2   1   6    6.88    1.16
   5  -2  -6    0.77    0.70
   5   2  -6    0.78    0.76
   5   2  -6    1.20    0.70
   4  -2  -6    0.81    0.68
   4   2  -6    1.81    0.76
   4   2  -6    0.10    0.61
   3  -2  -6    7.69    1.00
   3   2  -6    5.53    0.79
   3   2  -6    7.76    1.09
   2  -2  -6   23.47    1.38
   2   2  -6   24.46    1.58
   1  -2  -6   27.31    1.44
   1   2  -6   29.79    1.57
   0  -2   6    0.39    0.56
   0   2  -6    0.18    0.50
   1  -2   6    8.62    1.14
   2  -2   6   41.56    2.11
   5  -3  -6    2.10    0.82
   5   3  -6    2.75    0.86
   4  -3  -6   40.71    1.95
   4   3  -6   40.79    2.11
   3  -3  -6    5.95    0.92
   3   3  -6    5.93    1.00
   2  -3  -6    5.44    0.86
   2   3  -6    5.76    0.89
   1  -3  -6   37.22    1.65
   1   3  -6   36.34    1.73
   0  -3   6    8.19    0.96
   0  -3  -6    8.01    0.86
   0   3  -6    9.97    1.02
   1  -3   6   13.14    1.34
   2  -3   6    2.08    0.87
   5  -4  -6    0.39    0.73
   5   4  -6    0.83    0.75
   4  -4  -6    5.36    0.97
   4   4  -6    6.09    1.04
   3  -4  -6   10.35    1.10
   3   4  -6    8.89    1.19
   2  -4  -6    9.66    1.03
   2   4  -6   11.27    1.29
   1  -4  -6   38.35    1.71
   1   4  -6   37.49    1.77
   0  -4  -6   -0.05    0.48
   0  -4   6    0.77    0.59
   0   4  -6    0.06    0.47
  -1  -4  -6   14.28    1.29
   1  -4   6   13.93    1.35
   2  -4   6   32.52    2.01
   5  -5  -6    7.32    1.10
   5   5  -6    6.68    1.12
   4  -5  -6   36.88    1.91
   4   5  -6   34.23    1.98
   3  -5  -6    4.25    0.83
   3   5  -6    4.43    0.94
   2  -5  -6    3.43    0.76
   2   5  -6    1.93    0.68
   1  -5  -6   26.59    1.51
   1   5  -6   30.07    1.68
   0  -5  -6    9.97    1.00
   0  -5   6   11.71    1.12
   0   5  -6    9.80    1.03
   1  -5   6   25.70    1.64
  -1  -5  -6   27.81    1.58
   2  -5   6    1.64    0.84
  -2  -5  -6    1.49    0.78
   5  -6  -6    1.83    0.81
   5   6  -6    1.86    0.82
   4  -6  -6    2.18    0.79
   4   6  -6    3.54    0.88
   3  -6  -6    3.20    0.80
   3   6  -6    2.75    0.82
   2  -6  -6    5.10    0.88
   2   6  -6    5.75    1.04
   1  -6  -6   40.25    1.82
   1   6  -6   40.97    1.90
   0  -6   6    3.63    0.76
   0  -6  -6    3.10    0.71
   0   6  -6    2.26    0.67
   1  -6   6   10.11    1.27
  -1  -6  -6   13.78    1.31
   2  -6   6   41.23    2.26
  -2  -6  -6   43.87    2.18
   5  -7  -6    6.19    1.12
   5   7  -6    6.68    1.18
   4  -7  -6   22.72    1.66
   4   7  -6   23.49    1.70
   3  -7  -6    2.27    0.76
   3   7  -6    3.03    0.80
   2  -7  -6    0.37    0.61
   2   7  -6    0.73    0.60
   1  -7  -6   43.31    1.88
   1   7  -6   40.97    1.90
   0  -7  -6   16.68    1.18
   0  -7   6   17.89    1.31
   0   7  -6   16.60    1.29
   1  -7   6   23.54    1.64
  -1  -7  -6   25.76    1.51
   2  -7   6    5.18    1.12
  -2  -7  -6    5.61    1.08
   4  -8  -6    2.56    0.82
   4   8  -6    2.10    0.80
   3  -8  -6    5.57    0.97
   3   8  -6    5.34    0.95
   2  -8  -6   14.81    1.33
   2   8  -6   14.61    1.33
   1  -8  -6   32.90    1.68
   1   8  -6   31.64    1.72
   0  -8   6   10.59    1.12
   0  -8  -6   10.51    1.04
   0   8  -6   11.72    1.21
  -1  -8  -6   14.51    1.29
   1  -8   6   12.12    1.31
   2  -8   6   40.29    2.23
  -2  -8  -6   44.35    2.19
   4  -9  -6   20.73    1.64
   4   9  -6   21.51    1.65
   3  -9  -6    5.71    0.96
   3   9  -6    7.46    1.11
   2  -9  -6    1.65    0.71
   2   9  -6    1.75    0.70
   1  -9  -6   19.94    1.42
   1   9  -6   19.51    1.46
   0  -9   6    5.91    0.93
   0  -9  -6    4.85    0.82
   0   9  -6    5.19    0.90
   1  -9   6    6.98    1.12
  -1  -9  -6   13.43    1.34
   2  -9   6    1.54    0.92
  -2  -9  -6    1.13    0.78
   4 -10  -6    1.23    0.74
   4  10  -6    0.61    0.68
   3 -10  -6    2.77    0.81
   3  10  -6    4.31    0.97
   2 -10  -6   21.13    1.54
   2  10  -6   21.98    1.53
   1 -10  -6   20.34    1.49
   1  10  -6   18.49    1.48
   0 -10  -6    2.04    0.67
   0 -10   6    1.26    0.67
   0  10  -6    1.15    0.66
   1 -10   6    5.11    1.00
  -1 -10  -6    6.05    1.01
   2 -10   6   35.38    2.19
  -2 -10  -6   39.49    1.99
   4 -11  -6   19.39    1.60
   4  11  -6   20.29    1.65
   3 -11  -6    2.50    0.80
   3  11  -6    1.68    0.76
   2 -11  -6    7.49    1.11
   2  11  -6    8.35    1.12
   1 -11  -6   29.32    1.73
   1  11  -6   27.23    1.71
   0 -11  -6   13.52    1.18
   0 -11   6   12.62    1.30
   0  11  -6   16.52    1.46
   1 -11   6    7.50    1.16
  -1 -11  -6    8.14    1.08
  -2 -11  -6    5.98    1.10
   2 -11   6    6.68    1.20
   4 -12  -6    0.69    0.69
   4  12  -6    0.38    0.65
   3 -12  -6    3.93    0.92
   3  12  -6    5.03    0.99
   2 -12  -6   17.65    1.51
   2  12  -6   17.90    1.48
   1 -12  -6   26.70    1.68
   1  12  -6   25.34    1.70
   0 -12   6    3.69    0.85
   0 -12  -6    3.85    0.85
   0  12  -6    3.20    0.88
   1 -12   6    7.13    1.12
  -1 -12  -6    7.26    1.05
   3 -13  -6    3.02    0.89
   3  13  -6    1.56    0.74
   2 -13  -6    9.56    1.23
   2  13  -6    9.97    1.28
   1 -13  -6   17.62    1.48
   1  13  -6   15.99    1.53
   0 -13  -6    5.10    0.91
   0 -13   6    4.53    0.94
   0  13  -6    5.44    0.97
  -1 -13  -6   11.27    1.29
   1 -13   6   11.31    1.34
   3 -14  -6    5.84    1.02
   3  14  -6    4.89    0.94
   2 -14  -6    9.88    1.27
   2  14  -6    8.81    1.25
   1 -14  -6   18.82    1.58
   1  14  -6   16.35    1.59
   0 -14   6    4.64    0.95
   0 -14  -6    5.30    0.94
   0  14  -6    6.18    1.04
  -1 -14  -6   10.38    1.26
   1 -14   6   13.33    1.50
   3 -15  -6    4.21    0.95
   3  15  -6    2.80    0.85
   2 -15  -6    5.53    1.05
   2  15  -6    8.47    1.23
   1 -15  -6   21.64    1.67
   1  15  -6   22.67    1.79
   0 -15  -6    3.46    0.87
   0 -15   6    3.75    0.93
   0  15  -6    4.04    0.92
   1 -15   6    9.99    1.32
  -1 -15  -6   11.38    1.39
   2 -16  -6    5.35    1.04
   2  16  -6    5.20    1.04
   1 -16  -6   15.78    1.55
   1  16  -6   19.05    1.70
   0 -16  -6    6.86    1.12
   0 -16   6    7.37    1.18
   0  16  -6    9.90    1.27
   2  17  -6    2.77    0.94
   1 -17  -6   15.78    1.65
   1  17  -6   15.75    1.62
   0 -17   6    1.21    0.80
   0 -17  -6    1.92    0.88
   0  17  -6    1.23    0.77
   1  18  -6   22.90    1.83
   0 -18   6    4.28    1.00
   0 -18  -6    3.80    0.96
   0  18  -6    5.59    1.07
   4   0  -7    3.09    1.10
   3   0  -7   10.45    1.43
   2   0  -7    0.98    0.82
   1   0  -7    0.62    0.67
   4   1  -7    1.00    0.89
   3   1  -7   27.95    1.96
   2   1  -7   15.92    1.61
   1  -1  -7   -0.37    0.63
   1   1  -7   -0.37    0.61
   1  -1   7    7.28    1.12
   4  -2  -7   -0.46    0.68
   3  -2  -7    1.64    0.78
   3   2  -7    2.13    0.85
   2  -2  -7    1.36    0.80
   2   2  -7    1.47    0.77
   1   2  -7    1.74    0.76
  -1  -2  -7    5.39    0.98
   1  -2   7    5.62    1.05
   4  -3  -7    0.40    0.75
   3  -3  -7   11.54    1.27
   3   3  -7   12.61    1.47
   2  -3  -7   11.22    1.19
   2   3  -7   15.40    1.59
   1  -3  -7    1.08    0.72
   1   3  -7    2.31    0.79
   1  -3   7    7.68    1.24
  -1  -3  -7    6.48    1.02
   4  -4  -7    0.14    0.71
   3  -4  -7    2.71    0.85
   3   4  -7    3.70    1.08
   2  -4  -7    2.06    0.77
   2   4  -7    1.82    0.86
   1  -4  -7    4.21    0.91
   1   4  -7    5.38    0.97
  -1  -4  -7    8.10    1.16
   1  -4   7    4.70    1.03
   4  -5  -7    0.32    0.72
   3  -5  -7   12.64    1.33
   3   5  -7   13.78    1.52
   2  -5  -7   19.81    1.55
   2   5  -7   19.79    1.71
   1  -5  -7    1.95    0.77
   1   5  -7    3.03    0.86
  -1  -5  -7    8.02    1.18
   1  -5   7    8.49    1.22
   4  -6  -7   -0.01    0.71
   3  -6  -7    1.62    0.78
   3   6  -7    4.84    1.07
   2  -6  -7    1.41    0.75
   2   6  -7    1.41    0.80
   1  -6  -7   10.68    1.25
   1   6  -7    9.12    1.23
  -1  -6  -7    6.40    1.15
   1  -6   7    5.91    1.11
   3   7  -7   24.70    1.85
   2  -7  -7   17.14    1.48
   2   7  -7   16.63    1.61
   1  -7  -7    3.84    0.95
   1   7  -7    4.43    0.95
   1  -7   7    5.72    1.16
  -1  -7  -7    7.56    1.20
   3  -8  -7    3.42    0.92
   3   8  -7    4.02    0.99
   2  -8  -7    3.83    0.92
   2   8  -7    2.56    0.86
   1  -8  -7    3.22    0.90
   1   8  -7    2.25    0.81
  -1  -8  -7    3.45    0.93
   1  -8   7    4.56    1.10
   3  -9  -7   20.47    1.74
   3   9  -7   19.55    1.78
   2  -9  -7    6.49    1.10
   2   9  -7    9.18    1.26
   1  -9  -7    1.89    0.85
   1   9  -7    1.03    0.76
  -1  -9  -7    4.38    1.01
   3 -10  -7    3.27    1.03
   2 -10  -7    0.91    0.76
   2  10  -7    1.05    0.74
   1 -10  -7    0.66    0.77
   1  10  -7    0.12    0.66
   2 -11  -7    8.77    1.27
   2  11  -7   10.04    1.35
   1 -11  -7    1.97    0.89
   1  11  -7    2.63    0.86
   2  12  -7    1.04    0.77
   1 -12  -7    1.89    0.90
   1  12  -7    2.09    0.85
   1  13  -7    5.37    1.13
   0   0   0    0.00    0.00
;
_shelx_hkl_checksum              27646
#END Tags that were not found in dictionaries
loop_
_space_group_symop_operation_xyz
'x, y, z'
'-x, y+1/2, -z'
loop_
_atom_site_type_symbol
_atom_site_label
_atom_site_fract_x
_atom_site_fract_y
_atom_site_fract_z
_atom_site_U_iso_or_equiv
_atom_site_adp_type
_atom_site_calc_flag
_atom_site_refinement_flags_adp
_atom_site_refinement_flags_posn
_atom_site_occupancy
Ag Ag1 0.21272(9) 0.85773(2) 0.42947(8) 0.02174(11) Uani d . . 1
Ag Ag2 -0.43754(9) 0.86693(2) -0.00840(8) 0.02269(11) Uani d . . 1
C C1 -0.0234(12) 0.7560(3) 0.0261(11) 0.0164(11) Uani d . . 1
C C2 0.1419(13) 0.6942(3) 0.1442(12) 0.0172(12) Uani d . . 1
H H2A 0.0194 0.654 0.1024 0.021 Uiso calc U R 1
H H2B 0.3114 0.688 0.0731 0.021 Uiso calc U R 1
C C3 0.2381(11) 0.7004(3) 0.4265(10) 0.0128(11) Uani d . . 1
H H3 0.0667 0.7046 0.4995 0.015 Uiso calc U R 1
C C4 0.4037(11) 0.6372(3) 0.5277(11) 0.0144(10) Uani d . . 1
C C5 0.3878(12) 0.5249(3) 0.6948(11) 0.0148(11) Uani d . . 1
H H5 0.5681 0.5202 0.6351 0.018 Uiso calc U R 1
C C6 0.4689(14) 0.5258(3) 0.9781(13) 0.0192(13) Uani d . . 1
H H6A 0.5817 0.5667 1.0357 0.023 Uiso calc U R 1
H H6B 0.2936 0.5272 1.0432 0.023 Uiso calc U R 1
C C7 0.1957(11) 0.4651(3) 0.5915(11) 0.0140(11) Uani d . . 1
N N1 0.4196(10) 0.7602(2) 0.4923(10) 0.0150(10) Uani d . . 1
H H1A 0.5703 0.7586 0.3965 0.018 Uiso calc U R 1
H H1B 0.5156 0.757 0.6711 0.018 Uiso calc U R 1
N N2 0.2535(10) 0.5880(3) 0.5962(10) 0.0167(10) Uani d . . 1
H H2 0.069 0.5934 0.5821 0.02 Uiso calc U R 1
N N3 0.6377(11) 0.4658(3) 1.0767(10) 0.0195(11) Uani d . . 1
H H3A 0.7032 0.4715 1.2594 0.023 Uiso calc U R 1
H H3B 0.8102 0.4655 1.0073 0.023 Uiso calc U R 1
O O1 0.0604(10) 0.7891(3) -0.1335(9) 0.0323(12) Uani d . . 1
O O2 -0.2444(10) 0.7711(3) 0.1056(10) 0.0295(11) Uani d . . 1
O O3 0.6627(8) 0.6327(2) 0.5402(10) 0.0293(11) Uani d . . 1
O O4 0.2626(11) 0.4291(3) 0.4326(10) 0.0411(14) Uani d . . 1
O O5 -0.0206(9) 0.4563(2) 0.6798(9) 0.0245(10) Uani d . . 1
loop_
_atom_site_aniso_label
_atom_site_aniso_U_11
_atom_site_aniso_U_22
_atom_site_aniso_U_33
_atom_site_aniso_U_12
_atom_site_aniso_U_13
_atom_site_aniso_U_23
Ag1 0.02302(19) 0.0119(2) 0.0270(2) 0.00471(18) -0.00116(16) -0.00228(19)
Ag2 0.0251(2) 0.0158(2) 0.0245(2) 0.00505(19) 0.00028(16) -0.0029(2)
C1 0.013(3) 0.020(3) 0.014(3) 0.000(2) -0.003(2) -0.003(2)
C2 0.018(3) 0.013(3) 0.020(3) 0.002(2) 0.002(2) -0.001(2)
C3 0.009(2) 0.010(3) 0.020(3) 0.0011(19) 0.004(2) 0.003(2)
C4 0.012(2) 0.012(3) 0.020(3) 0.001(2) 0.004(2) 0.002(2)
C5 0.013(2) 0.011(3) 0.020(3) 0.001(2) 0.003(2) 0.003(2)
C6 0.020(3) 0.013(3) 0.023(3) 0.002(2) 0.003(3) -0.001(2)
C7 0.013(3) 0.012(3) 0.018(3) 0.000(2) 0.005(2) 0.000(2)
N1 0.014(2) 0.008(2) 0.021(3) 0.0009(19) -0.0017(19) -0.0001(19)
N2 0.010(2) 0.015(2) 0.027(3) 0.0050(17) 0.008(2) 0.0107(19)
N3 0.020(2) 0.022(3) 0.015(3) -0.001(2) 0.000(2) 0.003(2)
O1 0.034(3) 0.042(3) 0.024(2) 0.011(2) 0.013(2) 0.016(2)
O2 0.026(2) 0.020(3) 0.049(3) 0.010(2) 0.021(2) 0.015(2)
O3 0.0086(18) 0.019(2) 0.062(3) 0.0048(17) 0.011(2) 0.018(2)
O4 0.035(3) 0.049(4) 0.044(3) -0.016(2) 0.019(3) -0.025(3)
O5 0.017(2) 0.023(3) 0.036(3) -0.0083(19) 0.012(2) -0.007(2)
loop_
_atom_type_symbol
_atom_type_description
_atom_type_scat_dispersion_real
_atom_type_scat_dispersion_imag
_atom_type_scat_source
C C 0.0033 0.0016 'International Tables Vol C Tables 4.2.6.8 and 6.1.1.4'
H H 0.0000 0.0000 'International Tables Vol C Tables 4.2.6.8 and 6.1.1.4'
N N 0.0061 0.0033 'International Tables Vol C Tables 4.2.6.8 and 6.1.1.4'
O O 0.0106 0.0060 'International Tables Vol C Tables 4.2.6.8 and 6.1.1.4'
Ag Ag -0.8971 1.1015 'International Tables Vol C Tables 4.2.6.8 and 6.1.1.4'
loop_
_geom_angle_atom_site_label_1
_geom_angle_atom_site_label_2
_geom_angle_atom_site_label_3
_geom_angle_site_symmetry_1
_geom_angle_site_symmetry_3
_geom_angle
N1 Ag1 O5 . 2_556 172.62(19)
N1 Ag1 Ag2 . 1_656 76.99(13)
O5 Ag1 Ag2 2_556 1_656 108.18(13)
N1 Ag1 Ag2 . 1_655 82.67(14)
O5 Ag1 Ag2 2_556 1_655 90.16(11)
Ag2 Ag1 Ag2 1_656 1_655 118.20(2)
O2 Ag2 N3 . 2_556 173.0(2)
O2 Ag2 Ag1 . 1_454 109.31(15)
N3 Ag2 Ag1 2_556 1_454 76.69(14)
O2 Ag2 Ag1 . 1_455 89.75(12)
N3 Ag2 Ag1 2_556 1_455 84.03(14)
Ag1 Ag2 Ag1 1_454 1_455 118.20(2)
O1 C1 O2 . . 123.4(6)
O1 C1 C2 . . 120.6(6)
O2 C1 C2 . . 116.0(5)
C3 C2 C1 . . 112.1(5)
C3 C2 H2A . . 109.2
C1 C2 H2A . . 109.2
C3 C2 H2B . . 109.2
C1 C2 H2B . . 109.2
H2A C2 H2B . . 107.9
N1 C3 C2 . . 110.0(5)
N1 C3 C4 . . 110.3(4)
C2 C3 C4 . . 108.5(5)
N1 C3 H3 . . 109.3
C2 C3 H3 . . 109.3
C4 C3 H3 . . 109.3
O3 C4 N2 . . 122.6(5)
O3 C4 C3 . . 121.1(5)
N2 C4 C3 . . 116.2(5)
N2 C5 C6 . . 111.1(5)
N2 C5 C7 . . 110.6(5)
C6 C5 C7 . . 112.4(5)
N2 C5 H5 . . 107.5
C6 C5 H5 . . 107.5
C7 C5 H5 . . 107.5
N3 C6 C5 . . 111.0(5)
N3 C6 H6A . . 109.4
C5 C6 H6A . . 109.4
N3 C6 H6B . . 109.4
C5 C6 H6B . . 109.4
H6A C6 H6B . . 108.0
O4 C7 O5 . . 124.7(6)
O4 C7 C5 . . 118.9(5)
O5 C7 C5 . . 116.5(5)
C3 N1 Ag1 . . 117.4(3)
C3 N1 H1A . . 108.0
Ag1 N1 H1A . . 108.0
C3 N1 H1B . . 108.0
Ag1 N1 H1B . . 108.0
H1A N1 H1B . . 107.2
C4 N2 C5 . . 121.4(5)
C4 N2 H2 . . 119.3
C5 N2 H2 . . 119.3
C6 N3 Ag2 . 2_546 118.8(4)
C6 N3 H3A . . 107.6
Ag2 N3 H3A 2_546 . 107.6
C6 N3 H3B . . 107.6
Ag2 N3 H3B 2_546 . 107.6
H3A N3 H3B . . 107.0
C1 O2 Ag2 . . 116.6(4)
C7 O5 Ag1 . 2_546 110.6(4)
loop_
_geom_bond_atom_site_label_1
_geom_bond_atom_site_label_2
_geom_bond_site_symmetry_2
_geom_bond_distance
Ag1 N1 . 2.173(5)
Ag1 O5 2_556 2.195(5)
Ag1 Ag2 1_656 3.1742(7)
Ag1 Ag2 1_655 3.2471(7)
Ag2 O2 . 2.153(5)
Ag2 N3 2_556 2.187(6)
Ag2 Ag1 1_454 3.1742(7)
Ag2 Ag1 1_455 3.2471(7)
C1 O1 . 1.238(7)
C1 O2 . 1.275(7)
C1 C2 . 1.527(8)
C2 C3 . 1.523(8)
C2 H2A . 0.99
C2 H2B . 0.99
C3 N1 . 1.473(7)
C3 C4 . 1.525(8)
C3 H3 . 1.0
C4 O3 . 1.236(6)
C4 N2 . 1.324(7)
C5 N2 . 1.460(7)
C5 C6 . 1.520(8)
C5 C7 . 1.535(8)
C5 H5 . 1.0
C6 N3 . 1.476(8)
C6 H6A . 0.99
C6 H6B . 0.99
C7 O4 . 1.231(7)
C7 O5 . 1.258(7)
N1 H1A . 0.99
N1 H1B . 0.99
N2 H2 . 0.88
N3 Ag2 2_546 2.186(5)
N3 H3A . 0.99
N3 H3B . 0.99
O5 Ag1 2_546 2.195(5)
