#------------------------------------------------------------------------------
#$Date: 2016-03-24 14:28:49 +0200 (Thu, 24 Mar 2016) $
#$Revision: 179665 $
#$URL: svn://www.crystallography.net/cod/cif/4/51/18/4511863.cif $
#------------------------------------------------------------------------------
#
# This file is available in the Crystallography Open Database (COD),
# http://www.crystallography.net/
#
# All data on this site have been placed in the public domain by the
# contributors.
#
data_4511863
loop_
_publ_author_name
'Miyake, Ryosuke'
'Nakagawa, Yuki'
'Hase, Mariko'
_publ_section_title
;
 Selective Thermal Elongation of Metal--Metal Distances in the
 Two-Dimensional Assembly of Ag(I) Ions Templated by Assembled Peptide
 Ligands
;
_journal_issue                   10
_journal_name_full               'Crystal Growth &amp; Design'
_journal_page_first              4882
_journal_paper_doi               10.1021/cg5009347
_journal_volume                  14
_journal_year                    2014
_chemical_absolute_configuration ad
_chemical_formula_sum            'C7 H11 Ag2 N3 O5'
_chemical_formula_weight         432.93
_space_group_crystal_system      monoclinic
_space_group_IT_number           4
_space_group_name_Hall           'P 2yb'
_space_group_name_H-M_alt        'P 1 21 1'
_symmetry_space_group_name_Hall  'P 2yb'
_symmetry_space_group_name_H-M   'P 1 21 1'
_atom_sites_solution_hydrogens   geom
_cell_angle_alpha                90
_cell_angle_beta                 103.104(3)
_cell_angle_gamma                90
_cell_formula_units_Z            2
_cell_length_a                   4.8387(9)
_cell_length_b                   19.991(4)
_cell_length_c                   5.5464(10)
_cell_measurement_temperature    273
_cell_volume                     522.54(17)
_computing_cell_refinement       'SAINT V8.32B (Bruker AXS)'
_computing_data_collection       'Bruker SMART APEXII ULTRA'
_computing_data_reduction        'SAINT V8.32B (Bruker AXS)'
_computing_molecular_graphics    'XSHELL V6.3.1 (Bruker AXS)'
_computing_publication_material  'Generate Report (Bruker AXS)'
_computing_structure_refinement  'SHELXL-2013 (Sheldrick, 2013)'
_computing_structure_solution    'SHELXS-97 (Sheldrick, 1997)'
_diffrn_ambient_temperature      273
_diffrn_detector_area_resol_mean 8.333
_diffrn_measured_fraction_theta_full 0.962
_diffrn_measured_fraction_theta_max 0.962
_diffrn_measurement_device_type  'Bruker D8 goniometer'
_diffrn_measurement_method       'omega scans'
_diffrn_radiation_monochromator  'multilayered conforcal mirror'
_diffrn_radiation_type           MoK\a
_diffrn_radiation_wavelength     0.71073
_diffrn_reflns_av_R_equivalents  0.0173
_diffrn_reflns_limit_h_max       5
_diffrn_reflns_limit_h_min       -6
_diffrn_reflns_limit_k_max       24
_diffrn_reflns_limit_k_min       -27
_diffrn_reflns_limit_l_max       7
_diffrn_reflns_limit_l_min       -7
_diffrn_reflns_number            3724
_diffrn_reflns_theta_full        30.49
_diffrn_reflns_theta_max         30.49
_diffrn_reflns_theta_min         2.04
_diffrn_source                   'rotating-anode X-ray tube'
_diffrn_source_type              'Bruker Tourbo X-ray Source'
_exptl_absorpt_coefficient_mu    3.762
_exptl_absorpt_correction_T_max  0.96
_exptl_absorpt_correction_T_min  0.82
_exptl_absorpt_correction_type   empirical
_exptl_absorpt_process_details   'SADABS V2012/1 (Bruker AXS)'
_exptl_crystal_colour            colorless
_exptl_crystal_density_diffrn    2.752
_exptl_crystal_density_method    'not measured'
_exptl_crystal_description       plate
_exptl_crystal_F_000             416
_exptl_crystal_size_max          0.055
_exptl_crystal_size_mid          0.023
_exptl_crystal_size_min          0.010
_refine_diff_density_max         2.038
_refine_diff_density_min         -1.330
_refine_ls_abs_structure_details
;
Flack x determined using 876 quotients [(I+)-(I-)]/[(I+)+(I-)]
(Parsons and Flack (2004), Acta Cryst. A60, s61).
;
_refine_ls_abs_structure_Flack   0.01(3)
_refine_ls_extinction_method     none
_refine_ls_goodness_of_fit_ref   1.054
_refine_ls_hydrogen_treatment    constr
_refine_ls_matrix_type           full
_refine_ls_number_parameters     154
_refine_ls_number_reflns         2560
_refine_ls_number_restraints     1
_refine_ls_restrained_S_all      1.054
_refine_ls_R_factor_all          0.0374
_refine_ls_R_factor_gt           0.0315
_refine_ls_shift/su_max          0.000
_refine_ls_shift/su_mean         0.000
_refine_ls_structure_factor_coef Fsqd
_refine_ls_weighting_details
'w=1/[\s^2^(Fo^2^)+(0.0246P)^2^+0.9725P] where P=(Fo^2^+2Fc^2^)/3'
_refine_ls_weighting_scheme      calc
_refine_ls_wR_factor_gt          0.0666
_refine_ls_wR_factor_ref         0.0690
_reflns_number_gt                2295
_reflns_number_total             2560
_reflns_threshold_expression     'I > 2\s(I)'
_cod_data_source_file            cg5009347_si_001.cif
_cod_data_source_block           p21_273K
_cod_depositor_comments
'Adding full bibliography for 4511859--4511871.cif.'
_cod_database_code               4511863
#BEGIN Tags that were not found in dictionaries:
_shelx_res_file
;
TITL p21(0) in P2(1)
CELL 0.71073   4.83870  19.99120   5.54640  90.0000 103.1042  90.0000
ZERR    2.00   0.00090   0.00370   0.00100   0.0000   0.0030   0.0000
LATT -1
SYMM -X, 0.5+Y, -Z
SFAC C  H  N  O  Ag
UNIT 14  22  6  10  4
L.S. 10
SHEL 20 0.7
ACTA
BOND $h
FMAP 2
PLAN 20
size 0.055 0.023 0.010
TEMP 0
WGHT    0.024600    0.972500
FVAR       0.18605
AG1   5    0.210385    0.857422    0.435531    11.00000    0.03831    0.01616 =
         0.04138   -0.00407   -0.00311    0.00770
AG2   5   -0.432129    0.867351   -0.007674    11.00000    0.04043    0.02179 =
         0.03687   -0.00442   -0.00093    0.00781
C1    1   -0.024745    0.756644    0.031720    11.00000    0.02290    0.02370 =
         0.02382   -0.00552   -0.00027   -0.00120
C2    1    0.139477    0.695012    0.145246    11.00000    0.03065    0.01936 =
         0.02760   -0.00337    0.00299    0.00320
AFIX  23
H2A   2    0.303729    0.689153    0.074475    11.00000   -1.20000
H2B   2    0.019893    0.655816    0.104207    11.00000   -1.20000
AFIX   0
C3    1    0.237644    0.700606    0.427137    11.00000    0.01676    0.01056 =
         0.02532    0.00251    0.00530   -0.00161
AFIX  13
H3    2    0.070505    0.704448    0.498288    11.00000   -1.20000
AFIX   0
C4    1    0.400676    0.636981    0.527052    11.00000    0.01554    0.01884 =
         0.02754    0.00450    0.00716    0.00253
C5    1    0.385453    0.524693    0.692105    11.00000    0.01884    0.01150 =
         0.02969    0.00432    0.00742    0.00299
AFIX  13
H5    2    0.560393    0.520074    0.632646    11.00000   -1.20000
AFIX   0
C6    1    0.466511    0.526099    0.972603    11.00000    0.02881    0.01766 =
         0.02891    0.00065    0.00181    0.00060
AFIX  23
H6A   2    0.579191    0.565704    1.027164    11.00000   -1.20000
H6B   2    0.295970    0.528583    1.036380    11.00000   -1.20000
AFIX   0
C7    1    0.192005    0.465485    0.590338    11.00000    0.02416    0.01689 =
         0.02367    0.00074    0.00211    0.00191
N1    3    0.415442    0.760148    0.494609    11.00000    0.02159    0.01401 =
         0.02952   -0.00050    0.00093    0.00152
AFIX  23
H1A   2    0.563211    0.759042    0.402159    11.00000   -1.20000
H1B   2    0.507929    0.756631    0.668625    11.00000   -1.20000
AFIX   0
N2    3    0.250202    0.587492    0.594592    11.00000    0.01718    0.01627 =
         0.03803    0.00897    0.00887    0.00350
AFIX  43
H2    2    0.070764    0.592553    0.580633    11.00000   -1.20000
AFIX   0
N3    3    0.630696    0.465720    1.073342    11.00000    0.03397    0.02414 =
         0.02585    0.00504    0.00297    0.00251
AFIX  23
H3A   2    0.692160    0.471550    1.251080    11.00000   -1.20000
H3B   2    0.800355    0.464876    1.007928    11.00000   -1.20000
AFIX   0
O1    4    0.059162    0.789372   -0.128083    11.00000    0.05285    0.06234 =
         0.03434    0.02163    0.01977    0.01530
O2    4   -0.241809    0.771540    0.109598    11.00000    0.03558    0.03105 =
         0.06293    0.02321    0.02898    0.01792
O3    4    0.657486    0.632298    0.537983    11.00000    0.01485    0.02833 =
         0.09369    0.02632    0.01888    0.00551
O4    4    0.259202    0.429008    0.435514    11.00000    0.05430    0.06975 =
         0.05941   -0.03688    0.02728   -0.02402
O5    4   -0.023924    0.456403    0.676013    11.00000    0.02500    0.03046 =
         0.05690   -0.00819    0.01319   -0.01057
HKLF 4

REM  p21(0) in P2(1)
REM R1 =  0.0315 for    2295 Fo > 4sig(Fo)  and  0.0374 for all    2560 data
REM    154 parameters refined using      1 restraints

END

WGHT      0.0246      0.9725

REM Highest difference peak  2.038,  deepest hole -1.330,  1-sigma level  0.125
Q1    1   0.0858  0.8498  0.5034  11.00000  0.05    2.04
Q2    1  -0.2993  0.8770 -0.0737  11.00000  0.05    1.62
Q3    1   0.1739  0.8615  0.3545  11.00000  0.05    0.77
Q4    1   0.3060  0.8587  0.4648  11.00000  0.05    0.57
Q5    1  -0.3823  0.8629  0.0772  11.00000  0.05    0.56
Q6    1   0.8785  0.3804  0.9293  11.00000  0.05    0.56
Q7    1  -0.6168  0.8603 -0.0314  11.00000  0.05    0.55
Q8    1   0.5881  0.8405  0.6455  11.00000  0.05    0.49
Q9    1   0.8695  0.4127  1.0445  11.00000  0.05    0.49
Q10   1   0.2159  0.8888  0.4195  11.00000  0.05    0.48
Q11   1   0.2056  0.8645  0.0944  11.00000  0.05    0.47
Q12   1   0.3790  0.8528  0.2974  11.00000  0.05    0.44
Q13   1  -0.1223  0.8677 -0.1304  11.00000  0.05    0.44
Q14   1   0.0653  0.8578  0.2133  11.00000  0.05    0.44
Q15   1   0.4976  0.8535  0.6236  11.00000  0.05    0.44
Q16   1  -0.4625  0.8370 -0.0316  11.00000  0.05    0.43
Q17   1   0.1975  0.8166  0.4340  11.00000  0.05    0.43
Q18   1  -0.4054  0.9095  0.0013  11.00000  0.05    0.43
Q19   1   0.0772  0.8689 -0.1428  11.00000  0.05    0.42
Q20   1  -0.2542  0.8434 -0.0602  11.00000  0.05    0.42
;
_shelx_res_checksum              60948
_shelx_hkl_file
;
  -1   0   0  119.49    2.17
  -1   0   0  116.46    2.25
  -2   0   0   16.70    0.60
  -2   0   0   17.02    0.62
  -3   0   0   25.23    0.93
  -3   0   0   25.10    0.93
  -4   0   0    8.35    0.74
  -4   0   0    9.86    0.79
  -5   0   0   50.21    1.83
  -5   0   0   52.84    1.86
  -6   0   0    7.74    1.00
   0  -1   0   -1.38    0.02
   0   1   0   -1.35    0.02
   0   1   0   -1.37    0.01
  -1  -1   0   85.48    1.54
  -1  -1   0   82.06    1.58
  -1   1   0   77.22    1.60
  -1   1   0   77.59    1.55
  -2  -1   0  211.79    4.08
  -2  -1   0  212.07    3.94
  -2   1   0  210.79    3.98
  -2   1   0  215.08    4.12
  -3  -1   0  101.47    2.25
  -3  -1   0  101.87    2.32
  -3   1   0  100.29    2.34
  -3   1   0  101.73    2.29
  -4  -1   0    8.15    0.72
  -4  -1   0    7.35    0.70
  -4   1   0    8.12    0.74
  -4   1   0    8.25    0.75
  -5  -1   0    4.45    0.74
  -5  -1   0    5.79    0.75
  -5   1   0    4.80    0.78
  -5   1   0    5.45    0.77
  -6  -1   0   13.71    1.27
  -6   1   0   12.08    1.18
   0  -2   0  916.15   15.82
  -1  -2   0   38.17    0.85
  -1  -2   0   37.90    0.86
  -1   2   0   42.49    0.92
  -1   2   0   41.66    0.92
  -2  -2   0    1.63    0.24
  -2  -2   0    2.05    0.26
  -2   2   0    2.54    0.33
  -2   2   0    1.99    0.29
  -3  -2   0   70.41    1.72
  -3  -2   0   70.27    1.75
  -3   2   0   69.82    1.82
  -3   2   0   71.15    1.77
  -4  -2   0   10.25    0.79
  -4  -2   0   10.02    0.75
  -4   2   0   11.10    0.81
  -4   2   0   11.47    0.90
  -5  -2   0   27.57    1.35
  -5  -2   0   28.13    1.38
  -5   2   0   30.75    1.45
  -5   2   0   25.74    1.41
  -6  -2   0    4.18    0.81
  -6   2   0    3.35    0.79
   0  -3   0   -0.46    0.07
  -1  -3   0   53.83    1.11
   1  -3   0   54.68    1.11
  -1   3   0   53.02    1.18
  -2  -3   0  165.89    3.27
  -2  -3   0  167.85    3.19
  -2   3   0  166.44    3.37
  -2   3   0  169.94    3.29
  -3  -3   0  179.38    3.59
  -3  -3   0  177.26    3.69
  -3   3   0  184.44    3.72
  -3   3   0  181.47    3.81
  -4  -3   0    2.28    0.48
  -4  -3   0    1.78    0.44
  -4   3   0    1.31    0.50
  -4   3   0    2.81    0.51
  -5  -3   0    3.58    0.71
  -5  -3   0    4.89    0.69
  -5   3   0    3.26    0.74
  -5   3   0    2.28    0.58
  -6  -3   0   11.54    1.12
  -6   3   0   13.73    1.32
   0  -4   0  397.11    6.93
  -1  -4   0  126.09    2.38
   1  -4   0  129.84    2.37
  -1  -4   0  127.72    2.37
  -1   4   0  123.30    2.44
  -1   4   0  126.11    2.49
  -2  -4   0   24.58    0.75
  -2  -4   0   23.97    0.73
  -2   4   0   26.10    0.84
  -3  -4   0   55.48    1.46
  -3  -4   0   56.15    1.47
  -3   4   0   54.32    1.57
  -3   4   0   54.97    1.56
  -4  -4   0    2.76    0.47
  -4  -4   0    3.24    0.53
  -4   4   0    2.62    0.51
  -4   4   0    1.92    0.52
  -5  -4   0   15.21    1.04
  -5  -4   0   14.97    1.08
  -5   4   0   14.84    1.12
  -6  -4   0    4.06    0.76
  -6   4   0    3.79    0.81
   0  -5   0   -0.91    0.12
  -1  -5   0   67.79    1.39
  -1  -5   0   65.51    1.35
   1  -5   0   65.91    1.39
  -1   5   0   67.84    1.42
  -1   5   0   68.52    1.48
  -2  -5   0  298.78    5.35
  -2  -5   0  289.02    5.44
   2  -5   0  289.21    5.31
  -2   5   0  290.65    5.59
  -3  -5   0  249.98    4.89
  -3  -5   0  250.80    4.80
  -3   5   0  244.77    5.04
  -4  -5   0   -0.06    0.35
  -4  -5   0    0.50    0.35
  -4   5   0    0.92    0.42
  -5  -5   0    4.22    0.65
  -5  -5   0    2.29    0.62
  -5   5   0    3.29    0.68
  -6  -5   0   10.68    1.07
  -6   5   0   10.41    1.21
   0  -6   0  318.78    5.69
  -1  -6   0  128.47    2.47
   1  -6   0  128.20    2.47
  -1  -6   0  127.20    2.44
  -1   6   0  130.86    2.60
  -1   6   0  129.07    2.59
  -2  -6   0    5.43    0.36
   2  -6   0    4.96    0.35
  -2  -6   0    6.06    0.42
  -2   6   0    6.24    0.47
  -3  -6   0  108.38    2.38
   3  -6   0  104.24    2.29
  -3  -6   0  109.60    2.39
  -3   6   0  106.95    2.55
  -4  -6   0    1.95    0.47
  -4  -6   0    2.81    0.46
   4  -6   0    2.17    0.36
  -4   6   0    3.31    0.58
  -5  -6   0   14.19    1.06
  -5  -6   0   15.32    1.01
  -5   6   0   13.73    1.19
  -6  -6   0    4.93    0.79
  -6   6   0    5.89    0.95
   0  -7   0   -0.22    0.15
  -1  -7   0  215.66    3.96
  -1  -7   0  219.74    3.98
   1  -7   0  211.91    3.96
  -1   7   0  211.04    4.18
  -1   7   0  213.81    4.14
  -2  -7   0  164.31    3.32
   2  -7   0  169.90    3.31
  -2  -7   0  175.48    3.35
  -2   7   0  176.16    3.56
  -3  -7   0  266.58    5.14
  -3  -7   0  271.23    5.21
   3  -7   0  262.53    5.05
  -3   7   0  270.08    5.46
  -4  -7   0    2.08    0.47
   4  -7   0    1.15    0.33
  -4  -7   0    0.82    0.36
  -4   7   0    1.17    0.48
  -5  -7   0    2.38    0.53
  -5  -7   0    1.19    0.56
  -5   7   0    2.71    0.68
  -6  -7   0    9.92    1.01
  -6   7   0   10.08    1.14
   0  -8   0  620.22   10.88
  -1  -8   0  174.56    3.35
   1  -8   0  174.80    3.35
  -1  -8   0  173.23    3.29
  -1   8   0  176.23    3.54
  -1   8   0  178.49    3.51
   2  -8   0   36.92    1.03
  -2  -8   0   38.60    1.07
  -2  -8   0   36.73    0.96
  -2   8   0   36.76    1.15
  -3  -8   0   44.58    1.23
  -3  -8   0   43.20    1.30
   3  -8   0   42.43    1.21
  -3   8   0   43.40    1.45
   4  -8   0    6.76    0.59
  -4  -8   0    6.38    0.60
  -4  -8   0    7.39    0.70
  -4   8   0    5.71    0.74
  -5  -8   0   25.08    1.31
  -5  -8   0   27.49    1.24
  -5   8   0   27.30    1.50
  -6   8   0    2.92    0.81
   0  -9   0   -0.09    0.17
  -1  -9   0   46.90    1.16
   1  -9   0   45.50    1.15
  -1  -9   0   45.16    1.03
  -2  -9   0   40.81    1.13
   2  -9   0   41.50    1.12
  -2  -9   0   39.40    1.02
  -2   9   0   41.06    1.24
  -2   9   0   38.09    1.06
   3  -9   0   65.20    1.64
  -3  -9   0   65.49    1.62
  -3  -9   0   65.24    1.72
  -3   9   0   66.69    1.90
  -4  -9   0    6.46    0.69
   4  -9   0    6.69    0.60
  -4  -9   0    6.43    0.60
  -4   9   0    7.23    0.81
  -5  -9   0    2.34    0.60
  -5  -9   0    2.73    0.54
  -5   9   0    2.53    0.71
  -6   9   0   12.38    1.29
   0 -10   0  684.52   12.07
  -1 -10   0   25.83    0.71
  -1 -10   0   26.27    0.84
   1 -10   0   27.97    0.85
  -2 -10   0    1.89    0.33
  -2 -10   0    2.20    0.27
   2 -10   0    2.88    0.36
  -2  10   0    1.98    0.29
  -2  10   0    2.55    0.41
  -3 -10   0   26.89    1.04
   3 -10   0   26.24    0.96
  -3 -10   0   27.69    0.93
  -3  10   0   28.27    1.17
   4 -10   0    7.14    0.63
  -4 -10   0    6.75    0.61
  -4 -10   0    6.17    0.69
  -4  10   0    8.99    0.91
  -5 -10   0   27.86    1.36
  -5  10   0   29.85    1.61
  -6  10   0    4.28    0.94
   0 -11   0    0.42    0.21
  -1 -11   0   53.44    1.23
   1 -11   0   55.28    1.39
  -1 -11   0   54.91    1.39
   2 -11   0   69.82    1.70
  -2 -11   0   69.45    1.57
  -2 -11   0   69.32    1.73
  -2  11   0   70.95    1.88
  -3 -11   0   98.70    2.31
   3 -11   0   91.64    2.19
  -3 -11   0   94.62    2.16
  -3  11   0   94.00    2.49
   4 -11   0   16.92    0.86
  -4 -11   0   16.29    0.97
  -4 -11   0   17.60    0.86
  -4  11   0   15.31    1.07
  -5 -11   0    1.79    0.57
  -5  11   0    2.53    0.72
   0 -12   0  623.48   11.13
   1 -12   0   40.49    1.18
  -1 -12   0   40.45    1.01
  -1 -12   0   41.00    1.17
  -2 -12   0   22.18    0.87
  -2 -12   0   20.04    0.68
   2 -12   0   21.65    0.86
  -2  12   0   19.59    0.92
   3 -12   0   40.38    1.29
  -3 -12   0   43.10    1.37
  -3 -12   0   42.77    1.21
  -3  12   0   42.58    1.54
   4 -12   0   13.87    0.80
  -4 -12   0   14.64    0.94
  -4  12   0   12.00    1.02
  -5 -12   0   17.33    1.17
  -5  12   0   22.11    1.46
   0 -13   0    0.77    0.24
  -1 -13   0   35.90    1.11
  -1 -13   0   35.07    0.94
   1 -13   0   35.33    1.12
  -2 -13   0  110.56    2.31
  -2 -13   0  110.58    2.51
   2 -13   0  113.64    2.51
  -2  13   0  107.16    2.65
   3 -13   0   77.03    1.97
  -3 -13   0   78.57    1.85
  -3 -13   0   78.16    2.05
  -3  13   0   76.40    2.25
   4 -13   0   20.89    0.98
  -4 -13   0   21.98    1.12
  -4  13   0   22.97    1.32
  -5 -13   0    0.77    0.52
  -5  13   0    0.07    0.57
   0 -14   0  207.68    4.16
  -1 -14   0   38.75    1.20
  -1 -14   0   37.06    1.00
   1 -14   0   38.75    1.21
  -2 -14   0   38.03    1.26
  -2 -14   0   38.72    1.05
   2 -14   0   42.30    1.28
   3 -14   0   30.34    1.13
  -3 -14   0   28.72    1.16
  -3  14   0   27.56    1.28
  -4 -14   0    5.81    0.71
   4 -14   0    6.07    0.65
  -4  14   0    7.81    1.01
  -5 -14   0    5.94    0.84
  -5  14   0   10.00    1.17
   0 -15   0    0.09    0.23
  -1 -15   0   55.43    1.35
   1 -15   0   57.49    1.58
  -1 -15   0   54.56    1.55
  -2 -15   0   49.89    1.52
   2 -15   0   51.21    1.51
   3 -15   0   75.23    1.99
  -3 -15   0   73.08    2.04
  -3  15   0   71.51    2.21
  -4 -15   0   13.23    0.96
   4 -15   0   12.92    0.84
  -4  15   0   12.29    1.06
  -5 -15   0    1.35    0.59
  -5  15   0    2.22    0.74
   0 -16   0   68.13    1.82
   1 -16   0   34.18    1.19
  -1 -16   0   31.47    1.14
  -2 -16   0   20.06    0.96
   2 -16   0   19.84    0.94
   3 -16   0   29.17    1.17
  -3 -16   0   30.64    1.25
  -4 -16   0    4.97    0.72
   4 -16   0    5.49    0.66
  -4  16   0    3.44    0.72
  -5 -16   0    2.12    0.62
  -5  16   0    3.53    0.81
   0 -17   0    0.23    0.28
   1 -17   0   29.34    1.13
  -1 -17   0   27.73    1.10
   2 -17   0   41.96    1.41
  -2 -17   0   40.31    1.41
  -3 -17   0   48.94    1.67
   3 -17   0   52.68    1.64
   4 -17   0    0.79    0.40
  -4 -17   0    1.27    0.51
  -5 -17   0    0.53    0.56
  -5  17   0    1.34    0.63
   0 -18   0  258.75    5.23
  -1 -18   0   44.57    1.46
   1 -18   0   44.35    1.47
   2 -18   0    9.63    0.75
  -2 -18   0   11.35    0.81
   3 -18   0   15.03    0.93
  -3 -18   0   16.78    1.01
   4 -18   0    1.99    0.50
  -4 -18   0    2.84    0.64
  -5 -18   0    7.46    0.95
   0 -19   0    0.68    0.32
  -1 -19   0   69.53    1.97
   1 -19   0   67.83    1.96
   2 -19   0   16.26    0.93
  -2 -19   0   17.97    1.00
  -3 -19   0   40.85    1.57
   3 -19   0   40.81    1.52
   4 -19   0   13.94    0.96
  -4 -19   0   12.41    1.04
  -5 -19   0    1.87    0.67
   0 -20   0   98.40    2.54
   1 -20   0   39.99    1.45
  -1 -20   0   41.64    1.49
  -2 -20   0   12.90    0.91
   2 -20   0   11.16    0.84
   3 -20   0   15.45    0.97
  -3 -20   0   13.93    1.01
  -4 -20   0    6.91    0.88
   0 -21   0    0.51    0.35
   1 -21   0   34.71    1.38
  -1 -21   0   34.21    1.38
  -2 -21   0    8.31    0.87
   2 -21   0    7.29    0.78
  -3 -21   0   17.96    1.15
   3 -21   0   17.53    1.05
  -4 -21   0   14.27    1.15
   0 -22   0   63.24    1.98
  -1 -22   0   15.07    0.97
   1 -22   0   12.51    0.91
  -2 -22   0    9.93    0.92
   2 -22   0    9.98    0.92
  -3 -22   0    6.52    0.84
   3 -22   0    6.90    0.80
  -4 -22   0    5.72    0.83
   0 -23   0    0.60    0.40
  -1 -23   0   20.92    1.15
   1 -23   0   19.69    1.12
   2 -23   0   11.34    0.91
  -2 -23   0   13.12    1.01
  -3 -23   0   18.11    1.22
   3 -23   0   18.38    1.12
   0 -24   0   31.54    1.43
  -1 -24   0   10.11    0.94
   1 -24   0    8.66    0.86
   2 -24   0   11.18    0.92
  -2 -24   0   12.44    1.02
  -3 -24   0   16.08    1.20
   3 -24   0   15.68    1.07
   0 -25   0    0.90    0.45
  -1 -25   0   23.00    1.27
   1 -25   0   23.58    1.25
  -2 -25   0   15.32    1.13
   2 -25   0   14.87    1.05
   3 -25   0   30.11    1.45
   0 -26   0   29.66    1.46
   1 -26   0   19.52    1.21
  -1 -26   0   19.44    1.23
  -2 -26   0   31.08    1.55
   2 -26   0   30.92    1.50
   3 -26   0   10.15    1.07
   0 -27   0    1.00    0.51
   1 -27   0   18.77    1.22
  -1 -27   0   20.47    1.28
   2 -27   0    0.34    0.43
  -6   0   1    0.39    0.55
  -5   0   1    4.97    0.72
  -4   0   1   21.55    0.93
  -4   0   1   20.40    0.97
  -3   0   1   -0.04    0.21
  -2   0   1  584.98   10.62
  -1   0   1   80.02    1.61
   0   0  -1   13.87    0.43
  -1   0  -1  226.79    4.29
  -1   0  -1  230.78    4.22
  -2   0  -1  263.80    5.19
  -2   0  -1  276.43    5.12
  -3   0  -1   18.56    0.86
  -3   0  -1   18.67    0.95
  -4   0  -1    2.58    0.64
  -4   0  -1    2.50    0.55
  -5   0  -1    6.43    0.85
  -5   0  -1    6.81    0.93
  -6   0  -1    1.59    0.65
  -6  -1   1    1.47    0.64
  -6   1   1    1.66    0.65
  -5  -1   1   51.00    1.77
  -5   1   1   49.86    1.77
  -4  -1   1   69.00    1.88
  -4   1   1   65.28    1.87
  -3  -1   1   10.52    0.60
  -3   1   1   12.22    0.65
  -2  -1   1   81.70    1.78
  -2   1   1   81.29    1.79
  -1  -1   1  435.52    7.81
  -1   1   1  430.85    7.80
   0  -1  -1   78.58    1.48
   0   1  -1   76.20    1.53
  -1  -1  -1  198.25    3.62
  -1  -1  -1  198.66    3.65
  -1   1  -1  186.35    3.71
  -1   1  -1  192.26    3.66
  -2  -1  -1    2.63    0.37
  -2  -1  -1    2.33    0.31
  -2   1  -1    1.98    0.33
  -2   1  -1    2.09    0.38
  -3  -1  -1   23.26    0.94
  -3  -1  -1   24.04    1.02
  -3   1  -1   22.64    1.05
  -3   1  -1   22.04    0.97
  -4  -1  -1  127.78    3.18
  -4  -1  -1  129.97    3.11
  -4   1  -1  130.19    3.18
  -4   1  -1  128.31    3.17
  -5  -1  -1   10.00    0.98
  -5  -1  -1   12.55    1.15
  -5   1  -1   10.94    1.09
  -5   1  -1   10.42    1.10
  -6  -1  -1    1.12    0.65
  -6   1  -1    1.51    0.66
  -6  -2   1    1.81    0.65
  -6   2   1    1.54    0.63
  -5  -2   1    2.14    0.57
  -5   2   1    1.93    0.56
  -4  -2   1   37.44    1.32
  -4   2   1   36.51    1.32
  -3  -2   1    6.77    0.51
  -3   2   1    7.60    0.55
  -2  -2   1  241.75    4.67
  -2   2   1  250.16    4.69
  -1  -2   1  274.59    5.20
  -1   2   1  293.45    5.19
   0  -2  -1   42.42    0.88
   0  -2   1   42.41    0.90
  -1  -2  -1  496.72    9.13
  -1  -2  -1  505.99    8.95
  -1   2  -1  519.01    9.29
  -1   2  -1  513.90    9.04
  -2  -2  -1  177.09    3.60
  -2  -2  -1  183.80    3.60
  -2   2  -1  183.80    3.72
  -2   2  -1  186.39    3.67
  -3  -2  -1   45.43    1.36
  -3  -2  -1   45.06    1.41
  -3   2  -1   42.20    1.40
  -3   2  -1   45.80    1.47
  -4  -2  -1    8.68    0.86
  -4  -2  -1    8.32    0.78
  -4   2  -1   11.23    0.96
  -4   2  -1   12.54    1.07
  -5  -2  -1    3.17    0.67
  -5  -2  -1    4.13    0.78
  -5   2  -1    3.16    0.69
  -5   2  -1    2.31    0.78
  -6  -2  -1    8.72    1.08
  -6   2  -1    8.98    1.12
  -6  -3   1    0.50    0.56
  -6   3   1    0.99    0.59
  -5  -3   1   12.90    0.96
  -5   3   1   14.18    1.06
  -4  -3   1   60.44    1.61
  -4  -3   1   60.94    1.76
  -4   3   1   60.09    1.78
  -3  -3   1    7.57    0.53
  -3   3   1    7.43    0.56
  -2  -3   1   86.22    1.85
  -2  -3   1   85.07    1.66
  -2   3   1   82.28    1.86
  -1  -3   1  367.29    6.48
  -1  -3   1  371.51    6.78
  -1   3   1  379.46    6.85
   0  -3  -1    3.54    0.21
   0   3   1    2.72    0.24
  -1  -3  -1  373.53    6.53
  -1  -3  -1  378.44    6.47
   1   3   1  349.37    6.74
  -1   3  -1  352.48    6.56
  -1   3  -1  352.68    6.72
  -2  -3  -1   11.02    0.59
  -2  -3  -1   10.89    0.52
  -2   3  -1   12.08    0.62
  -2   3  -1   11.01    0.69
  -3  -3  -1   14.24    0.83
  -3  -3  -1   14.50    0.75
  -3   3  -1   15.29    0.94
  -3   3  -1   14.18    0.82
  -4  -3  -1  100.57    2.59
  -4  -3  -1   97.01    2.49
  -4   3  -1   95.52    2.63
  -4   3  -1   97.06    2.71
  -5  -3  -1    3.00    0.66
  -5  -3  -1    2.79    0.71
  -5   3  -1    2.81    0.82
  -5   3  -1    3.28    0.72
  -6  -3  -1   -0.16    0.50
  -6   3  -1    0.67    0.63
  -6  -4   1    0.54    0.51
  -6   4   1    0.20    0.56
  -5  -4   1    3.01    0.60
  -5   4   1    2.49    0.62
  -4  -4   1   28.23    1.14
  -4  -4   1   28.45    1.03
  -4   4   1   30.40    1.21
  -3  -4   1    3.27    0.38
  -3  -4   1    2.43    0.31
  -3   4   1    2.66    0.40
  -2  -4   1  269.38    5.17
  -2  -4   1  269.92    4.90
  -2   4   1  280.79    5.21
  -2   4   1  275.02    5.26
  -1  -4   1   64.14    1.40
  -1  -4   1   63.93    1.30
  -1   4   1   65.59    1.36
  -1   4   1   65.03    1.43
   0  -4  -1   29.95    0.72
   0  -4   1   31.03    0.77
   0   4   1   31.99    0.81
  -1  -4  -1  439.87    7.89
   1   4   1  450.76    8.32
  -2  -4  -1  234.57    4.55
  -2  -4  -1  243.56    4.59
  -2   4  -1  239.33    4.72
  -2   4  -1  240.97    4.78
  -3  -4  -1    8.75    0.70
  -3  -4  -1    8.59    0.61
  -3   4  -1   10.35    0.86
  -3   4  -1    8.15    0.69
  -4  -4  -1    6.85    0.70
  -4  -4  -1    6.51    0.76
  -4   4  -1    6.24    0.88
  -4   4  -1    7.21    0.81
  -5  -4  -1    0.52    0.60
  -5  -4  -1    1.05    0.50
  -5   4  -1    1.08    0.58
  -6  -4  -1    6.61    0.95
  -6   4  -1    8.60    1.15
  -6  -5   1    0.27    0.48
  -6   5   1   -0.33    0.51
  -5  -5   1   16.39    1.03
  -5   5   1   15.86    1.11
  -4  -5   1   94.63    2.33
  -4  -5   1   91.61    2.16
  -4   5   1   90.90    2.43
  -3  -5   1    8.68    0.50
  -3  -5   1    9.25    0.58
  -3   5   1    8.49    0.62
  -2  -5   1   56.58    1.25
  -2  -5   1   57.95    1.37
  -2   5   1   57.32    1.35
  -2   5   1   57.36    1.40
  -1  -5   1  264.79    4.79
  -1  -5   1  268.47    4.98
   1  -5  -1  260.70    4.72
  -1   5   1  271.70    4.92
  -1   5   1  272.09    5.14
   0  -5   1   23.72    0.67
   0  -5  -1   24.56    0.64
   0   5   1   25.74    0.72
   1  -5   1  268.50    4.88
  -1  -5  -1  268.53    4.87
   1   5   1  259.61    5.10
  -2  -5  -1   10.16    0.48
  -2  -5  -1   10.25    0.57
  -2   5  -1   10.50    0.64
  -3  -5  -1   21.35    0.94
  -3  -5  -1   20.11    0.84
  -3   5  -1   19.84    0.98
  -3   5  -1   18.99    1.05
  -4  -5  -1   93.16    2.55
  -4  -5  -1   98.29    2.47
  -4   5  -1   97.89    2.67
  -5  -5  -1    5.38    0.84
  -5  -5  -1    4.75    0.71
  -5   5  -1    4.79    0.84
  -6   5  -1    1.51    0.78
  -6  -6   1    0.45    0.50
  -6   6   1    0.18    0.57
  -5  -6   1    2.47    0.57
  -5   6   1    2.45    0.60
  -4  -6   1   36.51    1.22
  -4  -6   1   37.74    1.30
  -4   6   1   38.66    1.43
  -3  -6   1    0.99    0.28
  -3  -6   1    1.00    0.28
  -3   6   1    1.14    0.22
  -3   6   1    1.61    0.36
  -2  -6   1  338.98    6.35
  -2  -6   1  335.06    6.08
  -2   6   1  336.99    6.48
  -2   6   1  345.27    6.39
  -1  -6   1   91.63    1.91
   1  -6  -1   91.71    1.78
  -1  -6   1   90.96    1.84
  -1   6   1   92.14    1.96
  -1   6   1   90.52    1.85
   0  -6   1   41.84    1.00
   0  -6  -1   40.94    0.95
   0   6   1   40.71    1.05
   1  -6   1  603.35   10.67
  -1  -6  -1  607.02   10.66
   1   6   1  607.86   11.32
   2  -6   1  118.77    2.49
  -2  -6  -1  119.61    2.52
  -2  -6  -1  113.82    2.38
  -2   6  -1  119.34    2.70
  -3  -6  -1   21.99    0.86
  -3  -6  -1   24.14    1.00
  -3   6  -1   21.08    1.03
  -4  -6  -1    2.53    0.47
  -4  -6  -1    2.78    0.59
  -4   6  -1    2.40    0.58
  -5  -6  -1    7.17    0.80
  -5  -6  -1    6.64    0.88
  -5   6  -1    6.20    0.90
  -6   6  -1    2.29    0.85
  -6  -7   1    1.06    0.53
  -6   7   1    0.99    0.62
  -5  -7   1   27.86    1.27
  -5   7   1   28.20    1.44
  -4  -7   1   60.73    1.71
  -4  -7   1   57.76    1.63
  -4   7   1   59.14    1.85
  -3  -7   1   17.86    0.72
  -3  -7   1   17.82    0.76
  -3   7   1   17.39    0.85
  -3   7   1   17.61    0.64
  -2  -7   1   48.98    1.18
   2  -7  -1   46.68    1.11
  -2  -7   1   50.82    1.26
  -2   7   1   49.62    1.29
  -2   7   1   48.78    1.22
  -1  -7   1  387.41    7.12
  -1  -7   1  390.88    6.92
   1  -7  -1  380.59    6.85
  -1   7   1  394.75    7.38
  -1   7   1  384.92    7.07
   0  -7  -1   44.83    1.04
   0  -7   1   43.75    1.09
   0   7   1   44.54    1.15
   1  -7   1  339.47    6.33
  -1  -7  -1  347.04    6.32
   1   7   1  359.52    6.73
   2  -7   1   16.37    0.70
  -2  -7  -1   16.54    0.73
  -2   7  -1   15.40    0.80
  -3  -7  -1   10.56    0.75
   3  -7   1    9.90    0.65
  -3  -7  -1   10.26    0.61
  -3   7  -1   11.48    0.83
  -4  -7  -1   55.01    1.65
   4  -7   1   53.31    1.63
  -4  -7  -1   56.46    1.81
  -4   7  -1   57.61    1.97
   5  -7   1    6.98    0.73
  -5  -7  -1    9.09    0.99
  -5   7  -1   11.95    1.18
  -6  -7  -1    0.09    0.69
  -6   7  -1    0.84    0.75
  -6  -8   1    1.19    0.57
  -6   8   1    0.65    0.67
  -5  -8   1    1.76    0.52
  -5   8   1    1.75    0.64
  -4  -8   1   29.22    1.13
  -4  -8   1   30.37    1.10
  -4   8   1   26.96    1.26
   3  -8  -1   12.19    0.54
  -3  -8   1   13.04    0.67
  -3  -8   1   12.62    0.63
  -3   8   1   12.37    0.55
  -3   8   1   12.89    0.76
  -2  -8   1  209.45    4.01
   2  -8  -1  200.74    3.81
  -2  -8   1  205.90    3.87
  -2   8   1  198.37    4.10
  -2   8   1  206.68    4.07
   1  -8  -1   82.32    1.67
  -1  -8   1   81.12    1.73
  -1   8   1   78.17    1.81
  -1   8   1   77.08    1.69
   0  -8   1   65.05    1.49
   0  -8  -1   64.65    1.44
   0   8   1   68.04    1.60
   1  -8   1  281.46    5.27
  -1  -8  -1  284.54    5.24
   2  -8   1  108.43    2.41
  -2  -8  -1  113.86    2.46
  -2   8  -1  111.82    2.66
   3  -8   1   18.65    0.84
  -3  -8  -1   20.02    0.95
  -3  -8  -1   19.95    0.78
  -3   8  -1   17.35    1.01
  -4  -8  -1    7.87    0.66
  -4  -8  -1    7.83    0.79
   4  -8   1    6.44    0.65
  -4   8  -1    6.59    0.83
  -5  -8  -1    5.68    0.85
   5  -8   1    6.15    0.73
  -5   8  -1    5.89    0.95
  -6  -8  -1    3.17    0.87
  -6   8  -1    6.38    1.10
  -6  -9   1    0.22    0.50
  -6   9   1    0.69    0.65
  -5  -9   1   22.78    1.17
  -5   9   1   22.93    1.37
  -4  -9   1   23.79    1.01
  -4  -9   1   25.05    1.06
  -4   9   1   26.10    1.22
  -3  -9   1    9.40    0.58
  -3  -9   1    8.38    0.58
   3  -9  -1    9.23    0.50
  -3   9   1    8.78    0.68
  -3   9   1    7.54    0.48
  -2  -9   1   75.73    1.70
  -2  -9   1   74.61    1.73
   2  -9  -1   71.65    1.63
  -2   9   1   76.05    1.78
  -2   9   1   75.25    1.79
   1  -9  -1  276.97    5.13
  -1  -9   1  281.97    5.19
  -1   9   1  284.94    5.52
  -1   9   1  277.72    5.25
   0  -9   1   14.61    0.60
   0  -9  -1   14.55    0.56
   0   9   1   15.14    0.66
  -1  -9  -1   78.97    1.77
   1  -9   1   75.90    1.77
   2  -9   1   16.24    0.72
  -2  -9  -1   15.28    0.73
  -2   9  -1   14.73    0.82
  -3  -9  -1   26.53    0.91
   3  -9   1   28.85    1.05
  -3  -9  -1   26.54    1.09
  -3   9  -1   27.71    1.24
  -4  -9  -1   93.01    2.51
   4  -9   1   90.71    2.34
  -4   9  -1   94.14    2.76
   5  -9   1    7.56    0.77
  -5  -9  -1    8.02    0.94
  -5   9  -1   10.28    1.19
  -6  -9  -1    0.59    0.69
  -6 -10   1    0.15    0.49
  -6  10   1    0.08    0.61
  -5 -10   1    4.12    0.62
  -5  10   1    4.51    0.79
  -4 -10   1   16.31    0.87
  -4 -10   1   14.87    0.85
  -4  10   1   17.61    1.04
   3 -10  -1   12.48    0.60
  -3 -10   1   12.03    0.68
  -3 -10   1   12.62    0.68
  -3  10   1   14.47    0.81
  -3  10   1   12.81    0.61
   2 -10  -1  129.94    2.63
  -2 -10   1  132.01    2.73
  -2 -10   1  127.16    2.67
  -2  10   1  130.24    2.81
  -2  10   1  128.76    2.82
   1 -10  -1   87.29    1.88
  -1 -10   1   85.02    1.92
  -1  10   1   88.94    2.06
  -1  10   1   87.31    1.89
   0 -10  -1  103.99    2.16
   0 -10   1  100.88    2.20
   0  10   1  101.02    2.35
   1 -10   1  182.01    3.61
  -1 -10  -1  179.65    3.58
   2 -10   1   82.55    1.99
  -2 -10  -1   83.89    2.01
  -3 -10  -1   20.94    0.78
   3 -10   1   20.42    0.91
  -3 -10  -1   21.61    0.99
  -3  10  -1   21.07    1.12
   4 -10   1    5.74    0.64
  -4 -10  -1    4.88    0.70
  -4  10  -1    4.34    0.79
  -5 -10  -1    7.64    0.92
   5 -10   1    8.13    0.79
  -5  10  -1    9.65    1.15
  -6 -10  -1    3.43    0.86
  -6  11   1    2.27    0.78
  -5 -11   1   32.78    1.38
  -5  11   1   32.42    1.64
  -4 -11   1   28.83    1.13
  -4 -11   1   28.30    1.13
  -4  11   1   28.20    1.33
  -3 -11   1    1.01    0.31
  -3 -11   1    0.99    0.34
   3 -11  -1    1.08    0.28
  -3  11   1    1.60    0.30
  -3  11   1    2.00    0.45
  -2 -11   1   52.30    1.36
   2 -11  -1   51.03    1.32
  -2 -11   1   52.93    1.38
  -2  11   1   51.89    1.44
  -2  11   1   51.51    1.42
  -1 -11   1  261.66    5.02
   1 -11  -1  272.20    4.98
  -1  11   1  255.96    5.05
  -1  11   1  270.74    5.36
   0 -11  -1   33.74    0.99
   0 -11   1   33.57    1.05
   0  11   1   36.13    1.13
   1 -11   1  150.41    3.11
  -1 -11  -1  149.88    3.08
   2 -11   1    8.23    0.60
  -2 -11  -1    7.90    0.61
  -3 -11  -1    5.32    0.62
   3 -11   1    6.78    0.66
  -3  11  -1    5.58    0.74
  -4 -11  -1   48.26    1.74
   4 -11   1   50.79    1.62
  -4  11  -1   50.52    1.98
   5 -11   1    8.23    0.81
  -5 -11  -1    6.97    0.92
  -5  11  -1   10.28    1.20
  -6 -11  -1    0.33    0.67
  -6  12   1    2.92    0.82
  -5 -12   1    4.06    0.63
  -5  12   1    5.13    0.84
  -4 -12   1   15.53    0.86
  -4 -12   1   15.52    0.91
  -4  12   1   15.07    1.05
  -3 -12   1    5.43    0.55
  -3 -12   1    5.35    0.52
   3 -12  -1    5.70    0.47
  -3  12   1    4.36    0.46
  -3  12   1    5.66    0.65
  -2 -12   1  173.26    3.51
  -2 -12   1  176.29    3.51
   2 -12  -1  172.96    3.45
  -2  12   1  170.49    3.69
  -2  12   1  167.97    3.61
   1 -12  -1   57.96    1.42
  -1 -12   1   54.03    1.45
  -1  12   1   55.39    1.55
   0 -12   1   48.59    1.35
   0 -12  -1   50.32    1.30
   0  12   1   46.71    1.43
  -1 -12  -1  184.54    3.74
   1 -12   1  187.92    3.79
   2 -12   1   72.52    1.87
  -2 -12  -1   74.37    1.90
   3 -12   1   13.96    0.82
  -3 -12  -1   14.20    0.89
  -3  12  -1   13.95    0.98
   4 -12   1    4.39    0.63
  -4 -12  -1    3.99    0.66
  -4  12  -1    2.75    0.69
   5 -12   1    5.51    0.75
  -5 -12  -1    4.67    0.78
  -5  12  -1    5.64    0.97
  -6 -12  -1    1.43    0.81
  -5  13   1   21.46    1.40
  -4 -13   1   44.16    1.49
  -4 -13   1   43.60    1.43
  -4  13   1   42.88    1.69
  -3 -13   1   20.01    0.87
   3 -13  -1   20.23    0.83
  -3 -13   1   21.73    0.93
  -3  13   1   20.59    0.88
  -3  13   1   21.43    1.02
   2 -13  -1   31.89    1.03
  -2 -13   1   33.30    1.09
  -2 -13   1   33.30    1.03
  -2  13   1   30.81    1.11
  -2  13   1   32.21    1.13
  -1 -13   1  111.64    2.48
   1 -13  -1  112.03    2.42
  -1  13   1  107.96    2.62
   0 -13   1   21.11    0.86
   0 -13  -1   21.05    0.81
   0  13   1   20.10    0.91
   1 -13   1   96.52    2.26
  -1 -13  -1   95.91    2.23
   2 -13   1   39.58    1.29
  -2 -13  -1   37.43    1.27
  -3 -13  -1   10.09    0.85
   3 -13   1    9.79    0.74
  -4 -13  -1   66.94    2.15
   4 -13   1   69.56    2.04
  -4  13  -1   71.39    2.42
  -5 -13  -1    2.48    0.67
   5 -13   1    3.62    0.67
  -5  13  -1    5.40    1.03
  -5  14   1    8.18    1.05
  -4 -14   1   15.78    0.96
  -4 -14   1   17.30    0.89
  -4  14   1   17.83    1.13
   3 -14  -1    3.74    0.46
  -3 -14   1    2.33    0.39
  -3 -14   1    2.73    0.47
  -3  14   1    2.80    0.42
  -3  14   1    2.95    0.52
   2 -14  -1  105.23    2.39
  -2 -14   1  106.31    2.45
  -2 -14   1  105.63    2.38
  -2  14   1  107.68    2.59
  -2  14   1  104.98    2.53
   1 -14  -1   57.41    1.54
  -1 -14   1   59.08    1.60
  -1  14   1   59.54    1.70
   0 -14  -1   68.05    1.73
   0 -14   1   70.61    1.81
  -1 -14  -1  128.66    2.84
   1 -14   1  127.51    2.86
  -2 -14  -1   95.94    2.35
   2 -14   1   92.51    2.31
  -3 -14  -1    9.22    0.81
   3 -14   1    8.92    0.74
   4 -14   1    5.33    0.70
  -4 -14  -1    3.03    0.65
   5 -14   1    2.71    0.59
  -5 -14  -1    4.11    0.80
  -5  15   1    3.65    0.79
  -4 -15   1   25.97    1.18
  -4  15   1   26.52    1.38
  -3 -15   1   32.10    1.11
   3 -15  -1   32.39    1.13
  -3 -15   1   32.21    1.21
  -3  15   1   32.05    1.32
  -3  15   1   33.49    1.20
   2 -15  -1   22.56    0.90
  -2 -15   1   22.24    0.96
  -2 -15   1   22.62    0.86
  -2  15   1   22.21    0.98
  -2  15   1   22.59    0.97
   1 -15  -1   80.42    1.96
  -1 -15   1   78.27    2.00
  -1  15   1   79.32    2.15
   0 -15  -1    0.98    0.30
   0 -15   1    1.24    0.35
   1 -15   1   86.63    2.16
  -1 -15  -1   84.96    2.14
   2 -15   1   36.54    1.32
  -2 -15  -1   37.58    1.33
  -3 -15  -1    7.03    0.77
   3 -15   1    7.33    0.75
   4 -15   1   31.56    1.34
  -4 -15  -1   30.83    1.44
  -5 -15  -1    0.61    0.55
  -5 -16   1    3.07    0.70
  -5  16   1    3.49    0.77
  -4 -16   1   13.21    0.95
  -4  16   1   16.89    1.15
   3 -16  -1    3.40    0.48
  -3 -16   1    3.11    0.52
  -3 -16   1    3.05    0.42
  -3  16   1    3.90    0.62
  -3  16   1    4.04    0.53
  -2 -16   1   73.49    1.82
   2 -16  -1   71.44    1.87
  -2 -16   1   72.18    1.93
  -2  16   1   71.09    2.03
   1 -16  -1   16.03    0.78
  -1 -16   1   15.76    0.82
   0 -16   1   33.47    1.23
   0 -16  -1   35.33    1.18
  -1 -16  -1  105.20    2.53
   1 -16   1  104.68    2.56
   2 -16   1   65.92    1.87
  -2 -16  -1   60.98    1.84
  -3 -16  -1   15.13    1.00
   3 -16   1   15.69    0.94
   4 -16   1    1.01    0.47
  -4 -16  -1    0.67    0.50
  -5 -16  -1    3.30    0.74
  -5 -17   1    7.36    0.95
  -5  17   1   10.90    1.21
  -4 -17   1   23.30    1.19
  -4  17   1   23.94    1.33
   3 -17  -1   17.82    0.87
  -3 -17   1   18.59    0.99
  -3  17   1   17.79    1.04
   2 -17  -1   28.04    1.09
  -2 -17   1   31.05    1.19
  -2 -17   1   32.03    1.06
  -1 -17   1   44.02    1.43
   1 -17  -1   44.51    1.38
   0 -17   1    9.53    0.72
   0 -17  -1   10.23    0.68
   1 -17   1   31.26    1.22
  -1 -17  -1   30.20    1.19
  -2 -17  -1   32.75    1.31
   2 -17   1   33.14    1.31
   3 -17   1   13.13    0.94
  -3 -17  -1   14.73    1.01
   4 -17   1   29.94    1.35
  -4 -17  -1   27.09    1.42
  -5 -17  -1    6.45    0.95
  -5 -18   1    3.38    0.75
  -5  18   1    6.31    0.99
  -4 -18   1    6.91    0.78
  -4  18   1    8.74    1.06
   3 -18  -1    1.45    0.36
  -3 -18   1    1.63    0.47
  -2 -18   1  107.51    2.67
   2 -18  -1  110.26    2.63
   1 -18  -1   11.78    0.74
  -1 -18   1   10.91    0.77
   0 -18   1   49.92    1.58
   0 -18  -1   46.22    1.50
  -1 -18  -1   50.95    1.64
   1 -18   1   51.91    1.67
  -2 -18  -1   46.36    1.61
   2 -18   1   47.38    1.60
  -3 -18  -1   10.88    0.92
   3 -18   1    9.15    0.88
  -4 -18  -1    1.70    0.61
   4 -18   1    1.26    0.52
  -5  19   1   16.94    1.33
  -4 -19   1   10.55    0.97
  -4  19   1   12.46    1.22
   3 -19  -1   21.50    1.00
  -3 -19   1   18.30    1.05
  -2 -19   1   26.54    1.18
   2 -19  -1   25.33    1.09
   1 -19  -1   65.49    1.85
  -1 -19   1   61.36    1.87
   0 -19  -1   12.82    0.82
   0 -19   1   12.53    0.83
   1 -19   1   33.02    1.33
  -1 -19  -1   31.27    1.29
  -2 -19  -1   19.16    1.07
   2 -19   1   18.61    1.06
   3 -19   1   10.66    0.91
  -3 -19  -1    9.77    0.96
  -4 -19  -1   20.72    1.32
   4 -19   1   20.47    1.21
  -4 -20   1    7.53    0.85
   3 -20  -1    4.86    0.63
  -3 -20   1    3.69    0.65
  -2 -20   1   40.96    1.53
   2 -20  -1   43.40    1.48
  -1 -20   1   28.97    1.26
   1 -20  -1   32.90    1.25
   0 -20  -1   51.12    1.65
   0 -20   1   49.01    1.67
  -1 -20  -1   47.16    1.63
   1 -20   1   45.45    1.63
  -2 -20  -1   22.37    1.17
   2 -20   1   20.91    1.15
   3 -20   1   15.66    1.04
  -3 -20  -1   16.10    1.12
  -4 -20  -1    1.21    0.60
   4 -20   1    1.05    0.55
  -4 -21   1    5.16    0.77
   3 -21  -1   11.41    0.79
  -3 -21   1    8.98    0.89
   2 -21  -1   12.77    0.84
  -2 -21   1   11.36    0.89
   1 -21  -1   46.00    1.57
  -1 -21   1   45.94    1.63
   0 -21  -1    6.55    0.70
   0 -21   1    7.39    0.77
  -1 -21  -1   22.46    1.16
   1 -21   1   23.58    1.20
   2 -21   1   17.98    1.09
  -2 -21  -1   18.18    1.10
  -3 -21  -1    8.07    0.95
   3 -21   1    8.88    0.93
  -4 -21  -1   18.09    1.32
   4 -21   1   20.50    1.24
  -4 -22   1    2.59    0.64
   3 -22  -1    1.29    0.42
  -3 -22   1    0.63    0.49
   2 -22  -1   25.67    1.18
  -2 -22   1   24.84    1.25
   1 -22  -1   16.06    0.97
  -1 -22   1   15.93    1.03
   0 -22  -1   42.62    1.57
   0 -22   1   43.27    1.63
  -1 -22  -1   22.83    1.22
   1 -22   1   25.57    1.27
  -2 -22  -1   16.37    1.10
   2 -22   1   16.02    1.07
   3 -22   1    8.65    0.98
  -3 -22  -1    8.54    0.99
   4 -22   1    3.52    0.70
  -4 -23   1    6.78    0.89
  -3 -23   1    8.30    0.92
   3 -23  -1   11.49    0.89
  -2 -23   1   17.78    1.12
   2 -23  -1   17.62    1.02
   1 -23  -1   30.84    1.35
  -1 -23   1   31.84    1.43
   0 -23  -1    4.17    0.65
   0 -23   1    5.75    0.73
  -1 -23  -1   23.42    1.25
   1 -23   1   23.46    1.26
   2 -23   1   14.65    1.06
  -2 -23  -1   14.94    1.11
  -3 -23  -1    4.98    0.81
   3 -23   1    6.28    0.84
  -3 -24   1    5.25    0.80
  -2 -24   1   30.29    1.44
   2 -24  -1   28.61    1.33
  -1 -24   1   11.80    0.99
   1 -24  -1   11.34    0.90
   0 -24   1   32.59    1.48
   0 -24  -1   31.99    1.44
   1 -24   1   30.48    1.45
  -1 -24  -1   32.58    1.48
   2 -24   1   11.75    1.10
  -2 -24  -1    8.72    0.95
   3 -24   1    7.31    0.92
  -3 -25   1   24.48    1.41
   2 -25  -1    7.30    0.82
  -2 -25   1    6.87    0.88
   1 -25  -1   16.26    1.06
  -1 -25   1   15.76    1.14
   0 -25  -1    4.46    0.69
   0 -25   1    6.53    0.81
  -1 -25  -1   20.55    1.25
   1 -25   1   22.62    1.31
   2 -25   1   23.79    1.35
  -2 -25  -1   22.88    1.39
  -2 -26   1   23.15    1.36
   2 -26  -1   23.38    1.27
  -1 -26   1    4.25    0.74
   1 -26  -1    4.03    0.65
   0 -26  -1   30.78    1.50
   0 -26   1   32.02    1.53
   1 -26   1   11.51    1.08
  -1 -26  -1   11.06    1.08
   2 -26   1   15.27    1.15
   2 -27  -1   10.70    1.02
  -1 -27   1    8.44    0.98
   1 -27  -1    8.14    0.90
   0 -27   1    1.14    0.53
   0 -27  -1    1.43    0.56
   1 -27   1    4.66    0.79
  -1 -27  -1    4.72    0.81
  -6   0   2   15.80    1.20
  -5   0   2    5.77    0.74
  -4   0   2    5.42    0.59
  -3   0   2   -0.39    0.24
  -2   0   2   22.67    0.77
  -1   0   2  561.05   10.15
   0   0  -2 1000.00   17.51
  -1   0  -2    7.35    0.55
  -2   0  -2    8.58    0.71
  -2   0  -2    7.99    0.63
  -3   0  -2   73.23    2.06
  -3   0  -2   74.07    2.15
  -4   0  -2   -0.78    0.52
  -4   0  -2   -0.05    0.45
  -5   0  -2   26.58    1.52
  -5   0  -2   27.28    1.66
  -6   0  -2   -0.60    0.78
  -6   0  -2    0.30    0.67
  -6  -1   2    5.09    0.82
  -6   1   2    5.13    0.80
  -5  -1   2    1.23    0.51
  -5   1   2    1.16    0.50
  -4  -1   2    8.40    0.69
  -4   1   2    8.45    0.70
  -3  -1   2  135.03    2.89
  -3   1   2  129.35    2.87
  -2  -1   2   38.57    1.07
  -2   1   2   38.03    1.05
  -1  -1   2   30.56    0.84
  -1   1   2   28.99    0.80
   0  -1  -2  200.94    3.76
   0   1  -2  203.00    3.82
  -1  -1  -2    1.25    0.30
  -1   1  -2    1.29    0.32
  -2  -1  -2  146.95    3.16
  -2  -1  -2  141.23    3.11
  -2   1  -2  147.99    3.22
  -2   1  -2  144.02    3.17
  -3  -1  -2   36.56    1.33
  -3  -1  -2   32.91    1.39
  -3   1  -2   34.61    1.43
  -3   1  -2   37.65    1.38
  -4  -1  -2    3.41    0.63
  -4  -1  -2    3.62    0.76
  -4   1  -2    3.13    0.74
  -4   1  -2    3.99    0.69
  -5  -1  -2   24.74    1.46
  -5  -1  -2   25.47    1.58
  -5   1  -2   28.37    1.59
  -5   1  -2   28.45    1.73
  -6  -1  -2    4.96    1.10
  -6  -1  -2    6.21    1.06
  -6   1  -2    5.62    1.01
  -6   1  -2    5.95    1.18
  -6  -2   2   13.73    1.15
  -6   2   2   14.15    1.16
  -5  -2   2    4.38    0.69
  -5   2   2    3.87    0.67
  -4  -2   2   13.77    0.82
  -4   2   2   14.41    0.86
  -3  -2   2   16.44    0.77
  -3   2   2   16.35    0.77
  -2  -2   2   24.18    0.82
  -2   2   2   25.09    0.80
  -1  -2   2  351.23    6.43
  -1   2   2  340.48    6.33
   0  -2  -2  372.88    6.55
   0   2  -2  360.28    6.64
  -1  -2  -2   24.94    0.87
   1   2   2   26.06    0.73
  -1   2  -2   26.23    0.95
  -2  -2  -2   24.17    0.91
  -2  -2  -2   24.78    0.99
  -2   2  -2   22.65    1.04
  -3  -2  -2   88.31    2.39
  -3  -2  -2   91.35    2.32
  -3   2  -2   93.96    2.46
  -3   2  -2   89.13    2.48
  -4  -2  -2    2.20    0.68
  -4  -2  -2    1.44    0.53
  -4   2  -2    2.38    0.73
  -4   2  -2    2.65    0.63
  -5  -2  -2   21.27    1.35
  -5  -2  -2   20.32    1.46
  -5   2  -2   20.88    1.58
  -5   2  -2   22.04    1.45
  -6  -2  -2    0.55    0.82
  -6   2  -2    0.53    0.85
  -6   2  -2    0.84    0.72
  -6  -3   2    3.78    0.73
  -6   3   2    5.23    0.85
  -5  -3   2    0.33    0.45
  -5   3   2    0.15    0.47
  -4  -3   2   14.45    0.84
  -4   3   2   14.26    0.87
  -3  -3   2  211.83    4.27
  -3   3   2  206.40    4.24
  -2  -3   2   68.91    1.65
  -2   3   2   71.01    1.62
  -1  -3   2   25.91    0.78
  -1   3   2   24.24    0.68
   0  -3   2   85.90    1.76
   0  -3  -2   82.92    1.75
   0   3   2   85.19    1.87
  -1  -3  -2    5.27    0.45
   1   3   2    4.37    0.34
  -1   3  -2    4.49    0.52
  -2  -3  -2  210.43    4.26
  -2  -3  -2  216.21    4.34
  -2   3  -2  214.57    4.45
  -3  -3  -2   31.17    1.31
  -3  -3  -2   32.41    1.20
  -3   3  -2   31.26    1.42
  -3   3  -2   32.52    1.35
  -4  -3  -2    0.96    0.46
  -4  -3  -2    1.65    0.62
  -4   3  -2    1.30    0.55
  -4   3  -2    0.78    0.65
  -5  -3  -2   10.49    1.03
  -5  -3  -2   10.19    1.16
  -5   3  -2   13.32    1.38
  -5   3  -2    9.22    1.11
  -6  -3  -2    2.32    0.88
  -6   3  -2    2.54    0.88
  -6  -4   2    8.97    0.99
  -6   4   2    8.92    1.04
  -5  -4   2   19.86    1.12
  -5   4   2   17.15    1.12
  -4  -4   2   16.25    0.87
  -4   4   2   13.86    0.88
  -3  -4   2    6.73    0.57
  -3   4   2    6.24    0.55
  -2  -4   2   18.77    0.72
  -2   4   2   19.78    0.70
  -1  -4   2  180.89    3.59
  -1   4   2  189.12    3.71
  -1   4   2  178.57    3.45
   0  -4  -2  380.48    6.88
   0  -4   2  383.25    6.92
   0   4   2  396.22    7.36
  -1  -4  -2   16.92    0.69
   1   4   2   14.95    0.58
  -1   4  -2   16.20    0.79
  -2  -4  -2   25.80    0.90
  -2  -4  -2   28.04    1.03
  -2   4  -2   25.99    1.16
  -3  -4  -2   61.14    1.86
  -3  -4  -2   59.62    1.70
  -3   4  -2   62.80    1.95
  -3   4  -2   56.94    1.98
  -4  -4  -2    5.15    0.66
  -4  -4  -2    6.18    0.82
  -4   4  -2    6.67    0.95
  -4   4  -2    7.01    0.87
  -5  -4  -2    7.68    1.06
  -5   4  -2    8.21    1.10
  -5   4  -2    8.98    1.22
  -6  -4  -2    0.56    0.74
  -6   4  -2   -0.11    0.72
  -6  -5   2    4.03    0.78
  -6   5   2    4.18    0.78
  -5  -5   2    0.36    0.44
  -5   5   2    0.62    0.50
  -4  -5   2   38.82    1.35
  -4   5   2   35.71    1.15
  -4   5   2   38.85    1.39
  -3  -5   2  219.75    4.42
  -3   5   2  212.53    4.40
  -2  -5   2    9.26    0.53
  -2  -5   2    8.74    0.38
  -2   5   2    9.71    0.49
  -2   5   2    8.68    0.50
  -1  -5   2   26.17    0.72
  -1   5   2   23.34    0.66
  -1   5   2   26.46    0.84
   0  -5   2   56.80    1.34
   0  -5  -2   59.37    1.32
   0   5   2   58.31    1.43
  -1  -5  -2    7.81    0.53
   1  -5   2    8.46    0.50
   1   5   2    8.48    0.46
  -2  -5  -2  314.56    5.99
  -2  -5  -2  300.46    5.91
  -2   5  -2  321.67    6.20
  -3  -5  -2   33.33    1.18
  -3  -5  -2   33.09    1.34
  -3   5  -2   35.44    1.44
  -3   5  -2   34.96    1.51
  -4  -5  -2   -0.23    0.49
  -4  -5  -2    0.71    0.41
  -4   5  -2    1.99    0.71
  -4   5  -2    1.61    0.65
  -5  -5  -2   10.51    1.16
  -5   5  -2   10.03    1.18
  -6  -5  -2    9.51    1.27
  -6  -6   2    7.42    0.91
  -6   6   2    8.30    0.99
  -5  -6   2    1.47    0.53
  -5   6   2    3.47    0.67
  -4  -6   2   41.81    1.41
  -4   6   2   42.52    1.47
  -4   6   2   39.85    1.25
  -3  -6   2    2.54    0.30
  -3  -6   2    2.93    0.42
  -3   6   2    2.41    0.36
  -3   6   2    2.45    0.41
  -2  -6   2    6.34    0.48
  -2  -6   2    6.02    0.35
  -2   6   2    5.75    0.43
  -2   6   2    6.47    0.47
   1  -6  -2   90.90    1.77
  -1  -6   2   90.90    1.87
  -1   6   2   87.33    1.82
  -1   6   2   92.04    2.07
   0  -6   2  236.28    4.40
   0  -6  -2  229.40    4.34
   0   6   2  239.13    4.66
  -1  -6  -2    9.08    0.54
   1  -6   2    8.85    0.55
   1   6   2    8.54    0.49
  -2  -6  -2   22.67    0.95
  -3  -6  -2  109.80    2.77
  -3  -6  -2  111.58    2.60
  -3   6  -2  118.56    2.99
  -4  -6  -2    0.38    0.53
  -4   6  -2    0.89    0.59
  -5  -6  -2   10.77    1.17
  -5   6  -2   12.82    1.30
   6  -6   2    1.34    0.58
  -6  -6  -2   -0.29    0.75
  -6  -7   2    4.07    0.74
  -6   7   2    5.37    0.88
  -5  -7   2    3.02    0.62
  -5   7   2    2.09    0.63
  -4  -7   2   23.03    1.02
  -4   7   2   19.31    0.82
  -4   7   2   22.20    1.09
  -3  -7   2  184.61    3.55
  -3  -7   2  187.82    3.89
  -3   7   2  188.16    3.90
  -3   7   2  183.26    3.90
  -2  -7   2   14.33    0.67
  -2  -7   2   13.87    0.54
  -2   7   2   14.78    0.66
  -2   7   2   14.74    0.61
  -1  -7   2   30.21    0.86
   1  -7  -2   30.55    0.77
  -1   7   2   28.78    0.76
  -1   7   2   32.39    0.99
   0  -7  -2  102.44    2.13
   0  -7   2  105.51    2.21
   0   7   2  102.37    2.32
  -1  -7  -2   34.55    1.06
   1  -7   2   36.04    1.08
   1   7   2   36.24    1.07
  -2  -7  -2  224.01    4.50
   2  -7   2  219.60    4.42
  -3  -7  -2   45.21    1.54
   3  -7   2   42.28    1.40
  -4  -7  -2    5.11    0.77
   4  -7   2    3.34    0.55
  -4   7  -2    4.82    0.83
  -5  -7  -2   14.97    1.29
   5  -7   2   14.54    1.06
  -5   7  -2   17.15    1.46
  -6  -8   2    8.49    1.00
  -6   8   2    8.03    1.03
  -5  -8   2   15.24    1.00
  -5   8   2   16.28    1.16
  -4  -8   2    8.99    0.62
  -4  -8   2    9.59    0.75
  -4   8   2    8.47    0.58
  -4   8   2   10.18    0.85
  -3  -8   2   10.72    0.55
  -3  -8   2   11.07    0.69
  -3   8   2   10.50    0.70
  -3   8   2    9.75    0.61
  -2  -8   2   13.83    0.66
  -2  -8   2   13.96    0.57
  -2   8   2   12.81    0.66
  -2   8   2   13.11    0.60
   1  -8  -2  160.08    3.06
  -1  -8   2  160.10    3.17
  -1   8   2  157.10    3.08
  -1   8   2  168.30    3.42
   0  -8  -2  334.60    6.25
   0  -8   2  347.70    6.33
   0   8   2  350.92    6.74
  -1  -8  -2   16.73    0.72
   1  -8   2   16.29    0.71
   1   8   2   15.63    0.71
   2  -8   2   37.64    1.23
  -2  -8  -2   38.17    1.27
   3  -8   2   42.84    1.44
  -3  -8  -2   45.47    1.55
   4  -8   2    3.08    0.57
  -4  -8  -2    2.44    0.65
  -4   8  -2    1.99    0.65
   5  -8   2   12.03    1.00
  -5  -8  -2   12.94    1.24
  -5   8  -2   15.68    1.52
  -6  -9   2    2.34    0.66
  -6   9   2    2.91    0.78
  -5  -9   2    3.38    0.62
  -5   9   2    2.92    0.67
  -4  -9   2    7.91    0.72
  -4  -9   2    7.30    0.61
  -4   9   2    8.82    0.82
  -4   9   2    6.51    0.53
  -3  -9   2  124.03    2.58
  -3  -9   2  127.01    2.84
  -3   9   2  125.16    2.84
  -3   9   2  121.47    2.82
  -2  -9   2    6.70    0.53
  -2  -9   2    6.53    0.45
  -2   9   2    6.85    0.53
  -2   9   2    7.00    0.47
   1  -9  -2   25.58    0.75
  -1  -9   2   25.49    0.85
  -1   9   2   25.33    0.92
   0  -9  -2   86.55    1.92
   0  -9   2   88.88    2.00
   0   9   2   87.25    2.09
   1  -9   2    3.23    0.40
  -1  -9  -2    3.83    0.42
   1   9   2    3.75    0.45
  -2  -9  -2  123.90    2.84
   2  -9   2  126.52    2.81
  -3  -9  -2   11.75    0.88
   3  -9   2   13.53    0.84
  -4  -9  -2    5.56    0.81
   4  -9   2    6.50    0.75
  -5  -9  -2   12.62    1.22
   5  -9   2   12.56    1.02
  -6 -10   2   11.21    1.11
  -6  10   2   14.13    1.30
  -5 -10   2   10.07    0.92
  -5  10   2    9.45    1.00
  -4 -10   2    5.02    0.60
  -4 -10   2    4.96    0.52
  -4  10   2    3.89    0.47
  -4  10   2    6.35    0.75
  -3 -10   2    2.37    0.38
  -3 -10   2    2.36    0.43
  -3  10   2    3.60    0.51
  -3  10   2    3.23    0.45
  -2 -10   2    9.63    0.54
   2 -10  -2    8.38    0.43
  -2 -10   2    8.63    0.59
  -2  10   2    8.95    0.59
  -2  10   2    9.23    0.54
  -1 -10   2  188.24    3.68
   1 -10  -2  185.84    3.56
  -1  10   2  183.81    3.94
   0 -10  -2  252.48    4.77
   0 -10   2  255.15    4.85
   0  10   2  249.26    5.14
  -1 -10  -2   22.71    0.88
   1 -10   2   22.66    0.90
   1  10   2   21.50    0.91
  -2 -10  -2    8.06    0.67
   2 -10   2    8.25    0.64
  -3 -10  -2   39.86    1.52
   3 -10   2   42.57    1.44
   4 -10   2    1.77    0.51
  -4 -10  -2    1.84    0.58
  -5 -10  -2   14.28    1.32
   5 -10   2   14.81    1.08
  -6 -11   2    7.20    0.92
  -6  11   2    6.80    1.01
  -5 -11   2    0.04    0.41
  -5  11   2   -0.06    0.49
  -4 -11   2   19.77    0.99
  -4 -11   2   18.91    0.88
  -4  11   2   18.87    1.10
  -4  11   2   18.33    0.85
  -3 -11   2   87.10    2.21
  -3 -11   2   89.90    2.06
  -3  11   2   91.25    2.25
  -3  11   2   86.99    2.22
  -2 -11   2   17.54    0.74
  -2 -11   2   20.48    0.83
   2 -11  -2   16.84    0.64
  -2  11   2   18.08    0.74
  -2  11   2   18.60    0.85
   1 -11  -2   25.88    0.82
  -1 -11   2   24.51    0.91
  -1  11   2   27.10    1.00
   0 -11   2   53.18    1.49
   0 -11  -2   55.80    1.43
   0  11   2   56.28    1.58
  -1 -11  -2   13.00    0.70
   1 -11   2   13.27    0.74
   1  11   2   13.77    0.76
  -2 -11  -2   64.72    1.82
   2 -11   2   64.72    1.79
   3 -11   2   39.90    1.42
  -3 -11  -2   43.30    1.58
   4 -11   2    6.33    0.74
  -4 -11  -2    4.75    0.77
  -5 -11  -2   14.06    1.32
   5 -11   2   16.08    1.10
  -6 -12   2    9.14    1.04
  -6  12   2    9.90    1.16
  -5 -12   2   -0.10    0.41
  -5  12   2    0.04    0.50
  -4 -12   2   32.99    1.18
  -4 -12   2   32.68    1.28
  -4  12   2   34.30    1.40
  -4  12   2   30.86    1.15
  -3 -12   2    0.27    0.30
  -3 -12   2    0.28    0.32
  -3  12   2    0.34    0.29
  -3  12   2    0.09    0.32
   2 -12  -2   18.55    0.69
  -2 -12   2   17.76    0.78
  -2 -12   2   17.29    0.81
  -2  12   2   17.62    0.74
  -2  12   2   18.86    0.87
   1 -12  -2  167.88    3.36
  -1 -12   2  167.42    3.47
  -1  12   2  171.95    3.73
   0 -12  -2  171.05    3.45
   0 -12   2  168.69    3.51
   0  12   2  167.66    3.74
  -1 -12  -2   32.70    1.14
   1 -12   2   36.22    1.20
   1  12   2   32.92    1.22
   2 -12   2    7.93    0.70
  -2 -12  -2    8.53    0.74
   3 -12   2   70.40    2.01
  -3 -12  -2   67.00    2.08
   4 -12   2    0.18    0.39
  -4 -12  -2    0.04    0.46
  -5 -12  -2   12.44    1.24
   5 -12   2   14.18    1.08
  -6  13   2    3.43    0.86
  -5 -13   2    1.36    0.51
  -5  13   2    1.38    0.62
  -4 -13   2   18.08    0.91
  -4 -13   2   18.61    0.98
  -4  13   2   18.53    1.11
  -4  13   2   18.48    0.89
  -3 -13   2   71.94    1.85
  -3 -13   2   74.60    1.97
  -3  13   2   70.57    1.96
  -3  13   2   71.56    1.98
  -2 -13   2   18.82    0.82
  -2 -13   2   17.59    0.83
   2 -13  -2   17.76    0.71
  -2  13   2   16.96    0.76
  -2  13   2   18.69    0.90
   1 -13  -2   20.71    0.79
  -1 -13   2   21.08    0.90
  -1  13   2   19.91    0.93
   0 -13  -2   37.16    1.17
   0 -13   2   37.18    1.23
   0  13   2   40.31    1.36
  -1 -13  -2    9.41    0.66
   1 -13   2    8.37    0.68
   1  13   2    9.90    0.75
  -2 -13  -2   87.04    2.30
   2 -13   2   89.06    2.28
  -3 -13  -2   27.91    1.31
   3 -13   2   29.90    1.28
  -4 -13  -2   10.26    1.04
   4 -13   2   12.40    0.97
  -5 -13  -2    6.02    0.95
   5 -13   2    6.12    0.81
  -5 -14   2    4.18    0.70
  -5  14   2    3.10    0.75
  -4 -14   2   12.86    0.86
  -4 -14   2   11.88    0.80
  -4  14   2   13.75    0.80
  -4  14   2   13.69    1.00
  -3 -14   2    4.85    0.55
  -3 -14   2    3.95    0.51
  -3  14   2    5.32    0.62
  -3  14   2    5.16    0.60
  -2 -14   2   23.92    0.95
  -2 -14   2   23.01    0.95
   2 -14  -2   20.70    0.81
  -2  14   2   22.00    0.87
  -2  14   2   23.81    1.03
  -1 -14   2  100.62    2.35
   1 -14  -2   96.54    2.21
  -1  14   2   94.46    2.48
   0 -14   2  111.53    2.59
   0 -14  -2  114.73    2.53
   0  14   2  107.70    2.76
   1 -14   2   44.62    1.44
  -1 -14  -2   44.59    1.41
   2 -14   2   14.44    0.88
  -2 -14  -2   13.51    0.87
  -3 -14  -2   43.29    1.63
   3 -14   2   41.19    1.55
  -4 -14  -2    1.53    0.60
   4 -14   2    1.49    0.56
  -5 -14  -2    3.25    0.82
   5 -14   2    5.47    0.79
  -5 -15   2    1.71    0.58
  -5  15   2    1.90    0.67
  -4 -15   2   15.57    0.90
  -4 -15   2   13.37    0.89
  -4  15   2   15.29    1.04
  -4  15   2   13.11    0.91
  -3 -15   2   77.80    2.01
  -3 -15   2   78.45    2.06
  -3  15   2   74.49    2.12
  -3  15   2   73.73    2.09
  -2 -15   2   20.80    0.92
   2 -15  -2   20.67    0.82
  -2 -15   2   21.09    0.92
  -2  15   2   19.13    0.99
  -2  15   2   17.42    0.82
  -1 -15   2   36.98    1.29
   1 -15  -2   36.99    1.18
  -1  15   2   39.29    1.41
   0 -15  -2   18.66    0.85
   0 -15   2   17.34    0.90
   0  15   2   18.57    0.97
   1 -15   2    6.71    0.70
  -1 -15  -2    6.98    0.64
   2 -15   2   73.38    2.10
  -2 -15  -2   75.65    2.13
  -3 -15  -2   19.65    1.17
   3 -15   2   22.18    1.16
   4 -15   2    8.68    0.90
  -4 -15  -2    6.12    0.87
   5 -15   2    3.04    0.67
  -5  16   2    2.17    0.65
  -4 -16   2   15.63    0.94
  -4 -16   2   14.80    0.94
  -4  16   2   15.37    1.05
  -3 -16   2    9.42    0.75
  -3 -16   2   10.55    0.74
  -3  16   2    9.63    0.75
  -3  16   2    9.86    0.79
  -2 -16   2   20.43    0.93
  -2 -16   2   21.27    0.97
   2 -16  -2   20.34    0.85
  -2  16   2   21.16    1.06
  -1 -16   2   52.39    1.62
   1 -16  -2   55.86    1.54
  -1  16   2   55.41    1.78
   0 -16  -2   70.61    1.89
   0 -16   2   71.96    2.00
   0  16   2   72.94    2.14
  -1 -16  -2   32.13    1.24
   1 -16   2   31.27    1.25
  -2 -16  -2   10.57    0.90
   2 -16   2   11.02    0.87
  -3 -16  -2   25.54    1.32
   3 -16   2   24.73    1.26
  -4 -16  -2    0.38    0.54
   4 -16   2    0.69    0.50
   5 -16   2    4.65    0.76
  -5  17   2    0.97    0.57
  -4 -17   2   10.01    0.83
  -4 -17   2    7.98    0.76
  -4  17   2   10.68    1.01
  -3 -17   2   53.36    1.65
  -3 -17   2   53.66    1.67
  -3  17   2   51.75    1.77
  -3  17   2   52.90    1.72
  -2 -17   2    7.80    0.66
  -2 -17   2    7.98    0.72
   2 -17  -2    7.72    0.59
  -2  17   2    9.47    0.86
  -1 -17   2   30.00    1.18
   1 -17  -2   27.18    1.06
  -1  17   2   27.30    1.25
   0 -17   2   41.66    1.47
   0 -17  -2   42.70    1.40
   0  17   2   38.84    1.54
  -1 -17  -2    4.04    0.56
   1 -17   2    4.21    0.62
   2 -17   2   65.21    2.00
  -2 -17  -2   64.24    2.01
  -3 -17  -2   11.99    1.08
   3 -17   2   11.73    0.96
  -4 -17  -2    1.99    0.67
   4 -17   2    3.24    0.68
  -5  18   2    2.96    0.71
  -4 -18   2    5.96    0.70
  -4  18   2    8.89    0.96
  -3 -18   2    4.29    0.61
  -3 -18   2    3.47    0.53
  -3  18   2    3.66    0.61
   2 -18  -2   15.54    0.82
  -2 -18   2   15.44    0.86
  -2 -18   2   17.07    0.94
  -2  18   2   16.16    1.01
   1 -18  -2   46.48    1.46
  -1 -18   2   46.11    1.55
  -1  18   2   43.52    1.65
   0 -18  -2  113.02    2.73
   0 -18   2  113.05    2.83
   1 -18   2   21.59    1.11
  -1 -18  -2   21.69    1.09
  -2 -18  -2    9.58    0.91
   2 -18   2    7.54    0.82
   3 -18   2   19.75    1.18
  -3 -18  -2   18.48    1.22
  -4 -18  -2    0.16    0.55
   4 -18   2    0.61    0.49
  -5  19   2    3.74    0.76
  -4 -19   2    6.23    0.76
  -3 -19   2   34.16    1.37
  -3  19   2   34.54    1.45
   2 -19  -2    6.10    0.61
  -2 -19   2    6.82    0.67
  -2 -19   2    7.06    0.72
  -2  19   2    9.02    0.91
  -1 -19   2   36.66    1.40
   1 -19  -2   36.62    1.31
  -1  19   2   35.78    1.53
   0 -19   2   27.26    1.24
   0 -19  -2   25.20    1.14
  -1 -19  -2    8.40    0.79
   1 -19   2   10.96    0.96
   2 -19   2   34.43    1.46
  -2 -19  -2   31.19    1.43
   3 -19   2   10.41    1.00
  -3 -19  -2   10.09    1.04
  -4 -19  -2   11.46    1.18
   4 -19   2   14.02    1.11
  -4 -20   2    8.69    0.87
  -3 -20   2    1.86    0.52
  -3  20   2    0.98    0.48
  -2 -20   2   12.44    0.80
   2 -20  -2   12.90    0.79
  -2 -20   2   12.69    0.92
  -2  20   2   11.65    0.96
  -1 -20   2   41.63    1.56
   1 -20  -2   43.59    1.49
   0 -20  -2   58.52    1.81
   0 -20   2   53.82    1.86
  -1 -20  -2   30.51    1.36
   1 -20   2   31.25    1.41
   2 -20   2    5.79    0.77
  -2 -20  -2    5.72    0.76
   3 -20   2   20.68    1.26
  -3 -20  -2   18.80    1.28
   4 -20   2    0.42    0.53
  -4 -21   2    3.79    0.66
  -3 -21   2   27.14    1.30
  -3  21   2   26.18    1.36
   2 -21  -2   10.13    0.76
  -2 -21   2   10.94    0.92
  -1 -21   2   22.46    1.19
   1 -21  -2   23.42    1.11
   0 -21  -2   15.71    0.99
   0 -21   2   15.49    1.05
   1 -21   2    7.62    0.87
  -1 -21  -2    7.60    0.80
  -2 -21  -2   25.40    1.36
   2 -21   2   24.52    1.32
  -3 -21  -2    6.58    0.92
   3 -21   2   11.66    1.09
  -4 -22   2    7.34    0.85
  -3 -22   2    0.48    0.47
  -2 -22   2   11.88    0.96
   2 -22  -2   12.32    0.85
  -1 -22   2   34.48    1.48
   1 -22  -2   33.43    1.37
   0 -22  -2   34.69    1.44
   0 -22   2   34.52    1.51
   1 -22   2   26.31    1.36
  -1 -22  -2   25.98    1.33
   2 -22   2    1.02    0.54
  -2 -22  -2    1.11    0.52
   3 -22   2   11.74    1.12
  -3 -22  -2   10.61    1.12
  -4 -23   2   16.97    1.19
  -3 -23   2   17.25    1.15
  -2 -23   2    6.51    0.80
   2 -23  -2    3.96    0.61
   1 -23  -2   22.29    1.17
  -1 -23   2   21.02    1.20
   0 -23  -2    3.79    0.63
   0 -23   2    4.56    0.70
   1 -23   2    8.48    0.94
  -1 -23  -2    6.46    0.81
   2 -23   2   14.42    1.15
  -2 -23  -2   14.71    1.17
   3 -23   2   14.21    1.17
  -3 -24   2    0.74    0.53
  -2 -24   2   10.60    1.03
   2 -24  -2    8.84    0.85
   1 -24  -2   19.14    1.14
  -1 -24   2   19.93    1.22
   0 -24   2    9.35    0.98
   0 -24  -2    9.13    0.92
   1 -24   2   24.41    1.40
  -1 -24  -2   26.64    1.43
   2 -24   2    4.50    0.77
  -2 -24  -2    2.71    0.68
  -3 -25   2   15.42    1.17
  -2 -25   2    7.09    0.89
   2 -25  -2    6.05    0.77
   1 -25  -2   12.51    1.03
  -1 -25   2   13.16    1.09
   0 -25  -2    6.36    0.81
   0 -25   2    5.81    0.85
   1 -25   2    7.19    0.90
  -1 -25  -2    7.42    0.90
  -2 -26   2   10.78    1.08
   1 -26  -2   12.60    1.06
  -1 -26   2   15.26    1.17
   0 -26  -2   15.02    1.16
   0 -26   2   15.02    1.20
  -1 -26  -2   23.83    1.44
   1 -26   2   22.55    1.40
   1 -27  -2   17.06    1.21
   0 -27  -2    7.67    0.92
  -6   0   3    0.76    0.54
  -5   0   3    1.29    0.52
  -4   0   3   10.19    0.78
  -3   0   3   16.35    0.84
  -2   0   3  124.15    2.69
  -1   0   3    1.00    0.26
   0   0  -3   23.37    0.89
  -1   0  -3  256.12    5.12
  -2   0  -3   38.25    1.48
  -3   0  -3   14.38    1.15
  -4   0  -3   12.83    1.28
  -5   0  -3    0.38    0.80
  -6  -1   3    1.02    0.55
  -6   1   3    0.79    0.57
  -5  -1   3   25.29    1.28
  -5   1   3   26.74    1.31
  -4  -1   3    5.70    0.64
  -4   1   3    5.92    0.64
  -3  -1   3    3.44    0.47
  -3   1   3    3.86    0.47
  -2  -1   3  167.42    3.48
  -2   1   3  169.32    3.47
  -1  -1   3  129.96    2.47
  -1  -1   3  128.59    2.71
  -1   1   3  124.18    2.64
   0  -1  -3   51.98    1.42
   0   1  -3   53.56    1.46
  -1  -1  -3   14.43    0.84
   1   1   3   11.39    0.58
  -1   1  -3   13.26    0.84
  -2  -1  -3   11.03    0.90
  -2   1  -3   10.86    0.90
  -3  -1  -3   79.34    2.46
  -3   1  -3   81.99    2.51
  -4  -1  -3   60.38    2.30
  -4   1  -3   61.99    2.37
  -5  -1  -3    0.02    0.73
  -5   1  -3    0.03    0.77
  -6  -2   3    0.57    0.53
  -6   2   3    1.07    0.59
  -5  -2   3   10.60    0.97
  -5   2   3   10.28    0.94
  -4  -2   3   33.08    1.30
  -4   2   3   36.70    1.33
  -3  -2   3   14.58    0.79
  -3   2   3   14.46    0.78
  -2  -2   3   99.88    2.30
  -2   2   3  101.78    2.26
  -1  -2   3    4.33    0.35
  -1  -2   3    4.81    0.43
  -1   2   3    4.86    0.38
   0  -2  -3   79.88    1.88
   0   2  -3   82.17    1.99
  -1  -2  -3  279.80    5.40
  -1   2  -3  268.99    5.49
   1   2   3  276.44    5.38
  -2  -2  -3   25.14    1.17
  -2   2  -3   23.57    1.21
  -3  -2  -3   13.63    1.12
  -3   2  -3   13.53    1.21
  -4  -2  -3    7.64    1.05
  -4   2  -3    9.21    1.22
  -5  -2  -3    0.27    0.71
  -5   2  -3    1.51    0.87
  -6  -3   3    1.04    0.55
  -6   3   3    0.10    0.51
  -5  -3   3   23.55    1.22
  -5   3   3   19.52    1.19
  -4  -3   3   17.46    0.97
  -4   3   3   17.34    0.96
  -3  -3   3    3.76    0.48
  -3   3   3    3.41    0.45
  -2  -3   3   95.38    2.20
  -2   3   3   92.21    2.12
  -1  -3   3   46.31    1.11
  -1  -3   3   46.35    1.28
  -1   3   3   47.27    1.18
   0  -3  -3   48.93    1.30
   0   3   3   45.59    1.28
  -1  -3  -3   13.68    0.80
   1   3   3   11.99    0.63
  -1   3  -3   10.62    0.85
  -2  -3  -3   10.73    0.89
  -2   3  -3   11.11    0.97
  -3  -3  -3   27.96    1.42
  -3   3  -3   30.50    1.58
  -4  -3  -3   26.25    1.56
  -4   3  -3   23.84    1.65
  -5  -3  -3   -0.17    0.69
  -5   3  -3   -0.40    0.75
  -6  -4   3    0.32    0.49
  -6   4   3    0.36    0.55
  -5  -4   3    5.01    0.71
  -5   4   3    5.27    0.76
  -4  -4   3   18.49    0.98
  -4   4   3   17.98    0.99
  -3  -4   3   22.05    0.95
  -3   4   3   22.16    0.92
  -2  -4   3   62.03    1.65
  -2   4   3   64.99    1.58
  -1  -4   3   10.66    0.50
  -1   4   3   10.48    0.48
   0  -4  -3   17.23    0.73
   0  -4   3   16.79    0.70
   0   4   3   16.69    0.73
  -1  -4  -3  279.55    5.42
   1   4   3  278.04    5.45
  -1   4  -3  272.62    5.57
  -2  -4  -3   13.14    0.89
  -2   4  -3   12.40    1.00
  -3  -4  -3    3.15    0.66
  -3   4  -3    2.72    0.76
  -4  -4  -3    5.07    0.88
  -4   4  -3    5.05    1.04
  -5  -4  -3   -0.74    0.62
  -6  -5   3    0.95    0.57
  -6   5   3    1.12    0.60
  -5  -5   3   19.54    1.17
  -5   5   3   17.76    1.16
  -4  -5   3    7.81    0.74
  -4   5   3    9.42    0.80
  -3  -5   3    2.70    0.46
  -3   5   3    3.86    0.47
  -2  -5   3  105.46    2.43
  -2   5   3  104.41    2.29
   1  -5  -3  104.23    2.10
  -1  -5   3  103.34    2.15
  -1   5   3  104.41    2.41
  -1   5   3  102.94    2.14
   0  -5   3   49.66    1.33
   0  -5  -3   49.57    1.32
   0   5   3   51.38    1.39
  -1  -5  -3   15.33    0.82
   1   5   3   13.56    0.70
  -2  -5  -3    6.62    0.73
  -2   5  -3    8.23    0.89
  -3  -5  -3   37.01    1.58
  -3   5  -3   38.39    1.76
  -4  -5  -3   41.91    1.88
  -5  -5  -3    0.21    0.70
  -6  -6   3    0.41    0.53
  -6   6   3    0.01    0.51
  -5  -6   3    6.50    0.78
  -5   6   3    7.46    0.85
  -4  -6   3   30.46    1.27
  -4   6   3   30.49    1.27
  -4   6   3   30.39    1.15
  -3  -6   3   15.22    0.82
  -3   6   3   14.50    0.77
  -3   6   3   15.22    0.80
  -2  -6   3   85.85    1.86
  -2  -6   3   90.36    2.16
  -2   6   3   91.67    2.22
  -2   6   3   90.30    2.02
  -1  -6   3    3.66    0.37
  -1   6   3    3.22    0.44
  -1   6   3    2.68    0.27
   0  -6   3   58.97    1.49
   0  -6  -3   58.46    1.49
   0   6   3   57.30    1.57
  -1  -6  -3  441.30    8.16
   1  -6   3  430.88    8.10
   1   6   3  443.39    8.47
  -2  -6  -3   16.39    0.96
  -3  -6  -3   10.15    0.99
  -4  -6  -3    4.23    0.80
   5  -6   3    0.48    0.49
  -5  -6  -3    0.24    0.70
  -6  -7   3    0.18    0.51
  -6   7   3    0.50    0.57
  -5  -7   3   16.41    1.10
  -5   7   3   18.46    1.17
  -4  -7   3    9.36    0.81
  -4   7   3    7.95    0.68
  -4   7   3   10.11    0.85
  -3  -7   3   23.00    1.01
  -3   7   3   24.91    0.98
  -3   7   3   25.22    1.02
  -2  -7   3   96.94    2.25
  -2  -7   3   89.65    1.96
  -2   7   3   90.63    2.07
  -2   7   3   94.93    2.32
   1  -7  -3   97.54    2.03
  -1  -7   3   98.34    2.12
  -1   7   3   97.52    2.34
   0  -7  -3   70.24    1.74
   0  -7   3   73.03    1.76
   0   7   3   74.71    1.87
   1  -7   3   14.58    0.80
  -1  -7  -3   15.93    0.83
   1   7   3   13.72    0.75
  -2  -7  -3   25.12    1.14
   2  -7   3   25.58    1.08
   2   7   3   24.92    0.94
  -3  -7  -3   31.85    1.47
   3  -7   3   31.27    1.29
   4  -7   3   33.99    1.48
  -4  -7  -3   33.72    1.67
   5  -7   3    2.40    0.66
  -5  -7  -3    1.83    0.82
  -6  -8   3    0.32    0.49
  -6   8   3    0.24    0.58
  -5  -8   3    2.64    0.62
  -5   8   3    2.41    0.63
  -4  -8   3   10.49    0.84
  -4   8   3    8.80    0.70
  -4   8   3   10.90    0.87
  -3  -8   3    7.82    0.66
  -3   8   3    7.60    0.65
  -3   8   3    8.13    0.64
  -2  -8   3   78.02    1.73
  -2  -8   3   76.49    1.95
  -2   8   3   75.55    2.00
  -2   8   3   74.11    1.77
   1  -8  -3    6.46    0.43
  -1  -8   3    6.12    0.52
  -1   8   3    6.89    0.60
   0  -8  -3   35.75    1.10
   0  -8   3   35.92    1.14
   0   8   3   34.55    1.17
  -1  -8  -3  124.37    2.82
   1  -8   3  122.72    2.77
   1   8   3  123.01    2.83
  -2  -8  -3   14.68    0.92
   2  -8   3   14.48    0.88
   2   8   3   15.65    0.79
  -3  -8  -3   10.56    1.02
   3  -8   3   11.20    0.89
   4  -8   3    6.13    0.75
  -4  -8  -3    6.52    0.93
  -5  -8  -3    1.22    0.78
   5  -8   3    1.83    0.63
  -6  -9   3    1.03    0.56
  -6   9   3    1.16    0.63
  -5  -9   3   24.25    1.27
  -5   9   3   24.20    1.31
  -4  -9   3    3.85    0.59
  -4   9   3    3.35    0.59
  -4   9   3    3.11    0.51
  -3  -9   3   17.06    0.89
  -3   9   3   18.75    0.87
  -3   9   3   17.84    0.90
  -2  -9   3  114.01    2.44
  -2  -9   3  115.01    2.67
  -2   9   3  112.64    2.47
  -2   9   3  118.61    2.78
   1  -9  -3   81.52    1.82
  -1  -9   3   82.42    1.93
  -1   9   3   83.39    2.13
   0  -9  -3   45.84    1.31
   0  -9   3   46.47    1.36
   0   9   3   45.84    1.42
   1  -9   3    2.25    0.41
  -1  -9  -3    1.57    0.42
   1   9   3    2.76    0.45
  -2  -9  -3   12.01    0.87
   2  -9   3   11.36    0.80
   2   9   3   13.05    0.77
  -3  -9  -3   29.24    1.40
   3  -9   3   29.92    1.31
  -4  -9  -3   41.94    1.88
   4  -9   3   43.90    1.71
  -5  -9  -3    2.16    0.82
   5  -9   3    1.37    0.61
  -6 -10   3    2.00    0.67
  -6  10   3    1.31    0.65
  -5 -10   3    2.96    0.62
  -5  10   3    3.00    0.68
  -4 -10   3   10.61    0.92
  -4  10   3   11.84    0.93
  -4  10   3    9.19    0.74
  -3 -10   3    6.61    0.64
  -3 -10   3    4.61    0.43
  -3  10   3    6.78    0.61
  -3  10   3    6.04    0.67
  -2 -10   3   68.67    1.84
  -2 -10   3   68.57    1.66
  -2  10   3   66.41    1.89
  -2  10   3   65.86    1.63
  -1 -10   3   36.88    1.16
   1 -10  -3   37.31    1.06
  -1  10   3   36.77    1.27
   0 -10   3   32.24    1.12
   0 -10  -3   30.93    1.05
   0  10   3   29.52    1.13
  -1 -10  -3   77.50    2.02
   1 -10   3   75.32    1.99
   1  10   3   76.96    2.06
  -2 -10  -3   12.49    0.89
   2 -10   3   11.69    0.81
   2  10   3   10.49    0.78
  -3 -10  -3    8.08    0.90
   3 -10   3    7.76    0.80
  -4 -10  -3    5.92    0.91
   4 -10   3    6.11    0.82
  -5 -10  -3    0.45    0.74
   5 -10   3    0.56    0.56
  -6 -11   3    1.42    0.59
  -6  11   3    1.74    0.69
  -5 -11   3   13.45    1.01
  -5  11   3   13.77    1.11
  -4 -11   3    5.09    0.66
  -4  11   3    4.06    0.67
  -4  11   3    4.17    0.59
  -3 -11   3    3.40    0.53
  -3 -11   3    2.03    0.35
  -3  11   3    2.94    0.52
  -3  11   3    2.81    0.44
  -2 -11   3   79.12    2.09
  -2 -11   3   84.22    1.95
  -2  11   3   79.47    2.15
  -2  11   3   78.16    1.86
   1 -11  -3   46.59    1.28
  -1 -11   3   48.09    1.39
  -1  11   3   51.25    1.57
   0 -11   3   44.25    1.39
   0 -11  -3   44.60    1.34
   0  11   3   44.69    1.45
   1 -11   3    8.09    0.71
  -1 -11  -3    7.58    0.69
   1  11   3    7.93    0.73
  -2 -11  -3    3.70    0.62
   2 -11   3    4.75    0.61
  -3 -11  -3   27.61    1.38
   3 -11   3   32.84    1.37
  -4 -11  -3   26.97    1.56
   4 -11   3   26.77    1.38
   5 -11   3    0.63    0.57
  -6 -12   3    1.76    0.62
  -6  12   3    2.50    0.76
  -5 -12   3    5.91    0.82
  -5  12   3    6.07    0.83
  -4 -12   3   15.35    0.97
  -4  12   3   12.80    0.85
  -4  12   3   12.89    0.96
  -3 -12   3    9.45    0.61
  -3 -12   3    9.75    0.76
  -3  12   3    9.04    0.71
  -3  12   3    8.78    0.78
  -2 -12   3   59.91    1.74
  -2 -12   3   61.03    1.61
   2 -12  -3   61.81    1.47
  -2  12   3   60.61    1.82
  -2  12   3   57.05    1.51
  -1 -12   3   11.40    0.73
   1 -12  -3   10.87    0.61
  -1  12   3   10.25    0.75
   0 -12  -3   29.15    1.07
   0 -12   3   28.03    1.12
   0  12   3   29.88    1.19
   1 -12   3  175.08    3.84
  -1 -12  -3  184.08    3.88
   1  12   3  175.93    4.04
   2 -12   3   13.90    0.91
  -2 -12  -3   16.23    1.02
  -3 -12  -3    8.55    0.92
   3 -12   3   11.00    0.93
   4 -12   3    7.42    0.87
  -4 -12  -3    6.01    0.94
  -6 -13   3    0.89    0.58
  -5 -13   3   14.85    1.05
  -5  13   3   14.39    1.17
  -4 -13   3    2.56    0.55
  -4  13   3    4.55    0.67
  -4  13   3    3.66    0.61
  -3 -13   3    3.55    0.56
  -3 -13   3    2.75    0.42
  -3  13   3    3.99    0.62
  -3  13   3    4.35    0.54
   2 -13  -3   69.78    1.66
  -2 -13   3   70.34    1.83
  -2 -13   3   73.39    1.98
  -2  13   3   69.24    2.03
  -2  13   3   68.04    1.83
  -1 -13   3   35.84    1.25
   1 -13  -3   35.20    1.12
  -1  13   3   34.45    1.32
   0 -13   3   44.96    1.46
   0 -13  -3   44.36    1.38
   0  13   3   43.98    1.53
  -1 -13  -3    7.78    0.74
   1 -13   3    8.86    0.77
   1  13   3    9.48    0.83
   2 -13   3   22.69    1.14
  -2 -13  -3   22.94    1.19
   3 -13   3   27.85    1.34
  -3 -13  -3   27.56    1.41
  -4 -13  -3   29.07    1.61
   4 -13   3   31.69    1.52
  -5 -14   3    4.43    0.74
  -5  14   3    5.46    0.82
  -4 -14   3   13.37    0.94
  -4  14   3   12.55    0.90
  -4  14   3   13.06    0.97
  -3 -14   3   18.43    0.99
  -3  14   3   16.54    0.89
  -3  14   3   16.25    0.99
  -2 -14   3   28.13    1.19
   2 -14  -3   30.45    0.98
  -2 -14   3   30.92    1.13
  -2  14   3   30.81    1.28
  -1 -14   3   24.71    1.07
   1 -14  -3   26.27    0.96
  -1  14   3   23.77    1.14
   0 -14   3   59.24    1.78
   0 -14  -3   59.81    1.71
   0  14   3   63.15    1.94
   1 -14   3  134.26    3.17
  -1 -14  -3  137.42    3.19
   1  14   3  134.90    3.35
  -2 -14  -3   11.27    0.94
   2 -14   3   12.19    0.95
  -3 -14  -3    7.98    0.92
   3 -14   3    8.22    0.88
   4 -14   3    3.91    0.77
  -4 -14  -3    3.23    0.76
  -5 -15   3   11.93    1.00
  -5  15   3   13.12    1.20
  -4 -15   3    5.68    0.73
  -4  15   3    5.94    0.74
  -4  15   3    4.97    0.69
  -3 -15   3   12.12    0.87
  -3 -15   3   13.10    0.80
  -3  15   3   14.07    0.94
  -2 -15   3   25.30    1.06
   2 -15  -3   25.22    0.92
  -2 -15   3   24.03    1.12
  -2  15   3   24.39    1.19
  -1 -15   3    8.61    0.77
   1 -15  -3    9.55    0.65
  -1  15   3    9.68    0.82
   0 -15   3   15.24    0.91
   0 -15  -3   15.87    0.86
   0  15   3   13.30    0.97
  -1 -15  -3    5.05    0.65
   1 -15   3    4.54    0.65
   1  15   3    5.43    0.72
  -2 -15  -3   18.31    1.12
   2 -15   3   17.01    1.06
   3 -15   3    5.92    0.81
  -3 -15  -3    5.56    0.82
  -4 -15  -3    5.59    0.90
   4 -15   3    6.09    0.87
  -5 -16   3    5.00    0.77
  -5  16   3    3.61    0.76
  -4 -16   3   12.18    0.93
  -4  16   3   11.08    0.91
  -3 -16   3   15.48    0.95
  -3 -16   3   14.67    0.86
  -3  16   3   15.48    1.01
  -2 -16   3   22.47    1.10
  -2 -16   3   23.52    1.07
   2 -16  -3   23.60    0.93
  -2  16   3   23.81    1.19
  -1 -16   3    0.56    0.41
   1 -16  -3   -0.05    0.26
  -1  16   3   -0.10    0.37
   0 -16  -3   15.37    0.88
   0 -16   3   13.76    0.91
   0  16   3   14.08    1.02
   1 -16   3   97.21    2.57
  -1 -16  -3   97.45    2.58
   1  16   3   96.23    2.76
   2 -16   3    9.95    0.94
  -2 -16  -3    7.54    0.86
  -3 -16  -3    4.41    0.78
   3 -16   3    5.35    0.79
  -4 -16  -3    1.71    0.68
   4 -16   3    2.23    0.71
  -5 -17   3   13.96    1.07
  -4 -17   3    3.15    0.62
  -4  17   3    4.24    0.69
  -3 -17   3   20.11    1.08
  -3 -17   3   19.33    1.00
  -3  17   3   21.08    1.17
  -2 -17   3   22.98    1.11
  -2 -17   3   25.51    1.18
  -2  17   3   24.94    1.27
  -1 -17   3   24.54    1.15
   1 -17  -3   23.19    1.00
  -1  17   3   20.75    1.19
   0 -17   3   21.63    1.12
   0 -17  -3   23.30    1.07
   0  17   3   21.29    1.25
   1 -17   3    2.64    0.59
  -1 -17  -3    3.37    0.60
  -2 -17  -3   16.37    1.13
   2 -17   3   16.00    1.09
  -3 -17  -3   13.63    1.16
   3 -17   3   14.66    1.13
   4 -17   3   16.15    1.22
  -4 -18   3    2.25    0.58
  -4  18   3    2.50    0.59
  -3 -18   3    9.85    0.89
  -3 -18   3   10.26    0.82
  -3  18   3    9.66    0.97
  -2 -18   3   26.71    1.21
  -2 -18   3   27.93    1.26
  -2  18   3   27.95    1.38
   1 -18  -3    6.21    0.64
  -1 -18   3    7.85    0.84
  -1  18   3    6.74    0.83
   0 -18  -3   18.45    1.02
   0 -18   3   19.01    1.12
   0  18   3   19.19    1.22
   1 -18   3   55.14    1.90
  -1 -18  -3   58.96    1.94
  -2 -18  -3    8.08    0.91
   2 -18   3    8.17    0.90
   3 -18   3    8.39    0.96
  -3 -18  -3    8.39    1.01
  -4 -19   3    0.71    0.47
  -4  19   3    0.60    0.46
  -3 -19   3   15.56    1.01
  -3 -19   3   15.11    0.97
  -3  19   3   16.26    1.12
  -2 -19   3   40.53    1.50
  -2 -19   3   37.17    1.50
  -2  19   3   37.47    1.65
  -1 -19   3   23.02    1.21
   1 -19  -3   23.29    1.09
  -1  19   3   23.80    1.35
   0 -19  -3   25.10    1.18
   0 -19   3   23.20    1.26
   0  19   3   26.71    1.46
  -1 -19  -3    2.06    0.55
   1 -19   3    2.13    0.57
   2 -19   3   18.84    1.25
  -2 -19  -3   19.60    1.25
  -3 -19  -3   14.64    1.33
   3 -19   3   16.05    1.22
  -4  20   3    4.89    0.75
  -3 -20   3    4.99    0.69
  -3 -20   3    4.21    0.66
  -3  20   3    4.37    0.75
  -2 -20   3   24.99    1.23
  -2 -20   3   24.50    1.23
  -2  20   3   23.79    1.38
   1 -20  -3   23.35    1.14
  -1 -20   3   23.20    1.25
  -1  20   3   24.73    1.40
   0 -20   3   23.67    1.29
   0 -20  -3   24.63    1.20
   0  20   3   26.16    1.48
   1 -20   3   26.00    1.34
  -1 -20  -3   25.79    1.34
  -2 -20  -3    9.54    1.03
   2 -20   3   11.37    1.09
   3 -20   3   12.85    1.17
  -3 -20  -3   11.20    1.20
  -3 -21   3    9.65    0.91
  -3 -21   3   10.36    0.91
  -3  21   3   11.73    1.15
  -2 -21   3   19.57    1.16
  -2 -21   3   19.84    1.14
  -2  21   3   20.56    1.33
   1 -21  -3    4.91    0.63
  -1 -21   3    4.57    0.71
  -1  21   3    4.54    0.80
   0 -21  -3   30.15    1.36
   0 -21   3   26.99    1.40
  -1 -21  -3    1.42    0.54
   1 -21   3    0.04    0.49
   2 -21   3   15.60    1.21
  -2 -21  -3   18.97    1.29
  -3 -22   3    2.26    0.59
  -3  22   3    2.65    0.68
  -2 -22   3   12.67    1.02
  -2 -22   3   11.73    0.97
  -2  22   3   13.34    1.17
   1 -22  -3   14.31    0.99
  -1 -22   3   15.94    1.13
  -1  22   3   15.77    1.26
   0 -22  -3   11.81    0.97
   0 -22   3   11.80    1.10
  -1 -22  -3   11.42    1.05
   1 -22   3   13.33    1.18
   2 -22   3    4.17    0.76
  -2 -22  -3    3.44    0.74
  -3 -23   3    3.89    0.69
  -3  23   3    6.05    0.91
  -2 -23   3   18.39    1.18
  -2  23   3   17.63    1.35
   1 -23  -3    4.38    0.66
  -1 -23   3    3.41    0.67
   0 -23   3   13.18    1.19
   0 -23  -3   12.17    1.02
   1 -23   3    1.16    0.58
  -1 -23  -3    1.31    0.56
   2 -23   3    4.97    0.87
  -2 -23  -3    5.54    0.90
  -3 -24   3    3.69    0.70
  -3  24   3    4.02    0.84
  -2 -24   3   13.79    1.10
  -1 -24   3    7.23    0.90
   1 -24  -3    9.50    0.90
   0 -24  -3   14.27    1.11
   0 -24   3   13.82    1.18
   1 -24   3   46.57    2.00
  -1 -24  -3   47.30    1.95
  -2 -25   3    8.35    0.97
  -1 -25   3    2.16    0.65
   1 -25  -3    1.74    0.55
   0 -25  -3   17.63    1.23
   0 -25   3   16.75    1.27
  -1 -25  -3    2.22    0.66
   1 -26  -3    6.82    0.85
   0 -26  -3   15.06    1.20
  -6   0   4    5.56    0.87
  -5   0   4    1.30    0.54
  -4   0   4    0.51    0.44
  -3   0   4   13.30    0.86
  -2   0   4   16.21    0.82
  -1   0   4  276.16    5.45
   0   0  -4   32.27    1.26
  -1   0  -4    1.31    0.51
   1   0   4    0.71    0.30
  -2   0  -4   58.19    2.08
  -3   0  -4   15.20    1.38
  -4   0  -4    6.31    1.18
  -6  -1   4   -0.07    0.52
  -6   1   4   -0.21    0.54
  -5  -1   4   -0.16    0.45
  -5   1   4    0.40    0.47
  -4  -1   4   10.92    0.90
  -4   1   4   11.16    0.90
  -3  -1   4   83.25    2.20
  -3   1   4   84.14    2.20
  -2  -1   4    4.50    0.53
  -2   1   4    4.67    0.50
  -1  -1   4    9.35    0.69
  -1   1   4    8.80    0.64
   0  -1  -4   54.08    1.64
   0   1  -4   56.50    1.73
  -1  -1  -4    4.83    0.69
  -1   1  -4    4.66    0.73
   1   1   4    4.16    0.49
  -2  -1  -4   67.95    2.26
  -2   1  -4   69.92    2.34
  -3  -1  -4    2.67    0.79
  -3   1  -4    2.72    0.84
  -4  -1  -4    1.94    0.89
  -4   1  -4    1.27    0.85
  -6  -2   4    5.13    0.84
  -6   2   4    6.51    0.92
  -5  -2   4   -0.50    0.45
  -5   2   4    0.92    0.52
  -4  -2   4    4.00    0.65
  -4   2   4    4.57    0.65
  -3  -2   4   12.62    0.85
  -3   2   4   11.47    0.84
  -2  -2   4    4.14    0.52
  -2   2   4    3.80    0.47
   1  -2  -4  134.06    2.90
  -1  -2   4  144.02    2.84
  -1  -2   4  140.00    3.07
  -1   2   4  137.31    2.97
   0  -2  -4   36.43    1.30
   0   2  -4   35.18    1.36
  -1  -2  -4    0.62    0.48
   1   2   4    0.44    0.30
  -1   2  -4    0.85    0.52
  -2  -2  -4   45.31    1.79
  -2   2  -4   37.29    1.76
  -3  -2  -4   24.37    1.54
  -3   2  -4   26.19    1.67
  -4  -2  -4    5.43    1.05
  -4   2  -4    5.07    1.11
  -6  -3   4    0.13    0.53
  -6   3   4   -0.26    0.50
  -5  -3   4    0.26    0.47
  -5   3   4    0.31    0.49
  -4  -3   4   21.01    1.13
  -4   3   4   19.32    1.08
  -3  -3   4   37.80    1.36
  -3   3   4   35.52    1.30
  -2  -3   4    9.08    0.69
  -2   3   4    9.53    0.67
   1  -3  -4   12.74    0.69
  -1  -3   4   13.02    0.76
  -1  -3   4   12.79    0.65
  -1   3   4   12.79    0.69
   0  -3  -4   63.02    1.77
   0   3   4   62.51    1.71
  -1  -3  -4    7.35    0.80
   1   3   4    6.81    0.59
  -1   3  -4    8.35    0.90
  -2  -3  -4   46.87    1.84
  -2   3  -4   46.56    1.95
  -3  -3  -4    1.10    0.65
  -3   3  -4    1.17    0.77
  -4  -3  -4    4.64    1.01
  -4   3  -4    2.78    0.96
  -6  -4   4    4.43    0.80
  -6   4   4    4.84    0.83
  -5  -4   4    0.11    0.46
  -5   4   4    1.07    0.53
  -4  -4   4    1.44    0.51
  -4   4   4    1.10    0.47
  -3  -4   4   11.42    0.81
  -3   4   4   13.72    0.86
  -2  -4   4    0.98    0.38
  -2   4   4    1.46    0.36
   1  -4  -4   95.66    2.13
  -1  -4   4   91.05    2.06
  -1   4   4   92.98    2.11
   0  -4   4   47.85    1.40
   0  -4  -4   48.15    1.48
   0   4   4   48.14    1.47
   0   4   4   48.27    1.29
  -1  -4  -4    1.77    0.51
   1   4   4    1.57    0.38
  -2  -4  -4   49.23    1.86
  -2   4  -4   46.95    1.96
  -3  -4  -4   26.12    1.55
  -3   4  -4   26.75    1.69
  -4  -4  -4    6.05    1.07
  -4   4  -4    7.07    1.20
  -6  -5   4   -0.01    0.52
  -6   5   4    0.76    0.61
  -5  -5   4    0.34    0.48
  -5   5   4    0.47    0.49
  -5   5   4   -0.09    0.36
  -4  -5   4   61.83    1.97
  -4   5   4   60.27    1.88
  -3  -5   4   32.06    1.25
  -3   5   4   30.48    1.19
  -2  -5   4    0.92    0.36
  -2   5   4    0.86    0.32
  -1  -5   4    5.88    0.50
   1  -5  -4    6.60    0.54
  -1   5   4    7.29    0.64
  -1   5   4    7.07    0.51
   0  -5  -4   59.52    1.72
   0  -5   4   62.27    1.69
   0   5   4   64.78    1.78
   0   5   4   64.08    1.52
  -1  -5  -4   32.44    1.33
   1   5   4   31.05    1.11
  -2  -5  -4   55.03    1.95
  -3  -5  -4    1.19    0.69
  -4  -5  -4    2.67    0.85
  -6  -6   4    9.17    1.02
  -6   6   4    9.45    1.04
  -5  -6   4   -0.14    0.44
  -5   6   4    0.17    0.47
  -5   6   4    0.06    0.39
  -4  -6   4   13.13    0.97
  -4   6   4   12.23    0.88
  -4   6   4   12.36    0.94
  -3  -6   4    3.98    0.58
  -3   6   4    2.24    0.48
  -3   6   4    4.20    0.52
  -2  -6   4    1.36    0.40
  -2   6   4    0.76    0.36
  -2   6   4    0.79    0.32
  -1  -6   4  112.44    2.45
   1  -6  -4  110.54    2.43
  -1   6   4  110.16    2.71
   0  -6   4   48.92    1.46
   0  -6  -4   47.69    1.49
   0   6   4   48.07    1.51
   1  -6   4    3.32    0.53
  -1  -6  -4    3.37    0.60
   1   6   4    4.04    0.52
  -2  -6  -4   44.94    1.76
  -3  -6  -4   21.37    1.39
  -4  -6  -4    4.44    0.98
   4  -6   4    3.62    0.71
  -6  -7   4    0.08    0.54
  -6   7   4    0.24    0.56
  -5  -7   4    0.78    0.52
  -5   7   4    0.51    0.44
  -5   7   4    0.80    0.51
  -4  -7   4   39.13    1.53
  -4   7   4   38.76    1.47
  -4   7   4   38.56    1.46
  -3  -7   4   24.54    1.11
  -3   7   4   24.18    1.02
  -3   7   4   23.89    1.12
  -2  -7   4    5.68    0.63
  -2  -7   4    5.90    0.51
  -2   7   4    6.38    0.53
  -2   7   4    4.97    0.60
   1  -7  -4   10.39    0.63
  -1  -7   4   10.52    0.67
  -1   7   4    8.86    0.74
   0  -7   4   76.92    1.94
   0  -7  -4   73.50    1.95
   0   7   4   73.50    2.03
   1  -7   4   16.32    0.93
  -1  -7  -4   16.50    1.01
   1   7   4   16.53    0.89
   2  -7   4   56.27    1.82
  -2  -7  -4   54.71    1.95
   3  -7   4    1.18    0.52
  -3  -7  -4    1.85    0.67
   4  -7   4    2.15    0.64
  -4  -7  -4    3.46    0.90
  -6  -8   4    5.75    0.89
  -6   8   4    6.25    0.92
  -5  -8   4    1.80    0.60
  -5   8   4    0.61    0.50
  -5   8   4    1.04    0.45
  -4  -8   4    3.42    0.59
  -4   8   4    4.90    0.67
  -4   8   4    4.48    0.66
  -3  -8   4    5.84    0.66
  -3   8   4    5.88    0.58
  -3   8   4    5.80    0.68
  -2  -8   4    3.46    0.53
  -2  -8   4    3.39    0.44
  -2   8   4    4.89    0.61
  -2   8   4    4.06    0.41
   1  -8  -4   75.76    1.82
  -1  -8   4   76.31    1.90
  -1   8   4   75.58    2.09
   0  -8   4   52.01    1.57
   0  -8  -4   53.42    1.57
   0   8   4   55.14    1.66
  -1  -8  -4    9.90    0.83
   1  -8   4   10.05    0.81
   1   8   4    8.85    0.72
   2  -8   4   37.96    1.50
  -2  -8  -4   39.33    1.64
   3  -8   4   13.51    1.06
  -3  -8  -4   13.94    1.19
  -4  -8  -4    3.65    0.91
   4  -8   4    4.49    0.80
  -6  -9   4    0.53    0.56
  -6   9   4    0.10    0.59
  -5  -9   4    1.37    0.54
  -5   9   4    0.90    0.54
  -5   9   4    1.00    0.44
  -4  -9   4    9.66    0.89
  -4   9   4   10.21    0.84
  -4   9   4   11.19    0.89
  -3  -9   4   33.53    1.33
  -3   9   4   35.29    1.23
  -3   9   4   34.74    1.36
  -2  -9   4    4.35    0.48
  -2  -9   4    3.17    0.53
  -2   9   4    3.61    0.39
  -2   9   4    4.05    0.58
   1  -9  -4    5.39    0.51
  -1  -9   4    4.27    0.51
  -1   9   4    5.03    0.63
   0  -9   4   44.10    1.45
   0  -9  -4   46.04    1.45
   0   9   4   46.87    1.55
   1  -9   4    0.57    0.40
  -1  -9  -4    0.11    0.39
   1   9   4    0.44    0.38
  -2  -9  -4   46.90    1.78
   2  -9   4   43.88    1.64
  -3  -9  -4    3.53    0.78
   3  -9   4    4.14    0.70
   4  -9   4    1.50    0.62
  -4  -9  -4    1.07    0.69
  -6  10   4    3.94    0.83
  -5 -10   4    0.55    0.52
  -5  10   4   -0.03    0.48
  -5  10   4    0.71    0.46
  -4 -10   4    2.38    0.56
  -4  10   4    2.17    0.53
  -4  10   4    1.25    0.49
  -3 -10   4    4.28    0.60
  -3  10   4    4.27    0.63
  -3  10   4    3.94    0.50
  -2 -10   4    4.98    0.52
  -2 -10   4    4.77    0.61
  -2  10   4    5.36    0.65
  -2  10   4    3.55    0.39
  -1 -10   4   70.80    1.86
   1 -10  -4   71.50    1.78
  -1  10   4   67.04    2.01
   0 -10  -4   25.36    1.08
   0 -10   4   25.08    1.11
   0  10   4   23.55    1.14
   1 -10   4   14.64    0.92
  -1 -10  -4   15.41    0.99
   1  10   4   14.20    0.90
  -2 -10  -4   31.39    1.48
   2 -10   4   30.96    1.37
   2  10   4   33.23    1.33
  -3 -10  -4   10.53    1.13
   3 -10   4   12.56    1.05
   4 -10   4    4.24    0.80
  -4 -10  -4    3.08    0.87
  -6  11   4    0.39    0.64
  -5 -11   4    0.51    0.51
  -5  11   4    0.40    0.51
  -5  11   4    0.11    0.42
  -4 -11   4    8.81    0.87
  -4  11   4    8.55    0.84
  -4  11   4   10.85    0.90
  -3 -11   4   34.63    1.39
  -3  11   4   35.47    1.24
  -3  11   4   34.45    1.42
  -2 -11   4    4.03    0.59
  -2 -11   4    2.91    0.46
  -2  11   4    3.92    0.58
  -1 -11   4   18.14    0.95
   1 -11  -4   17.40    0.82
  -1  11   4   17.59    1.00
   0 -11   4   35.20    1.33
   0 -11  -4   34.38    1.30
   0  11   4   39.53    1.45
  -1 -11  -4    1.20    0.49
   1 -11   4    2.86    0.56
   1  11   4    2.64    0.54
   2 -11   4   35.55    1.46
  -2 -11  -4   35.25    1.57
   2  11   4   37.58    1.45
  -3 -11  -4    6.62    0.95
   3 -11   4    6.59    0.85
  -4 -11  -4    3.26    0.85
   4 -11   4    2.73    0.71
  -5 -12   4    1.43    0.55
  -5  12   4    1.06    0.57
  -5  12   4    1.18    0.48
  -4 -12   4    5.23    0.72
  -4  12   4    6.53    0.76
  -4  12   4    6.02    0.70
  -3 -12   4    6.10    0.73
  -3  12   4    6.19    0.74
  -2 -12   4    4.31    0.62
  -2 -12   4    4.07    0.53
  -2  12   4    4.58    0.64
  -1 -12   4  109.61    2.63
   1 -12  -4  111.10    2.52
  -1  12   4  108.49    2.85
   0 -12  -4   13.98    0.87
   0 -12   4   14.75    0.94
   0  12   4   15.33    0.98
   1 -12   4   18.47    1.07
  -1 -12  -4   17.16    1.07
   1  12   4   17.96    1.08
  -2 -12  -4   26.51    1.39
   2 -12   4   25.91    1.30
   2  12   4   25.61    1.27
  -3 -12  -4   12.78    1.24
   3 -12   4   12.43    1.09
   4 -12   4    4.82    0.80
  -4 -12  -4    4.23    0.95
  -5 -13   4    2.88    0.66
  -5  13   4    3.43    0.72
  -5  13   4    2.47    0.63
  -4 -13   4   23.89    1.28
  -4  13   4   24.10    1.23
  -4  13   4   21.40    1.22
  -3 -13   4   33.27    1.41
  -3  13   4   32.32    1.40
  -2 -13   4    8.84    0.83
  -2 -13   4    8.75    0.73
  -2  13   4   10.92    0.94
  -1 -13   4    5.33    0.66
   1 -13  -4    5.60    0.55
  -1  13   4    5.35    0.70
   0 -13   4   22.30    1.13
   0 -13  -4   21.98    1.05
   0  13   4   19.72    1.14
   1 -13   4    9.61    0.89
  -1 -13  -4   10.10    0.93
   1  13   4    9.61    0.93
   2 -13   4   31.69    1.45
  -2 -13  -4   32.19    1.52
   2  13   4   31.75    1.44
  -3 -13  -4    6.15    0.93
   3 -13   4    7.72    0.95
  -5 -14   4    1.42    0.57
  -4 -14   4    1.57    0.53
  -4  14   4    1.83    0.53
  -3 -14   4    7.68    0.81
  -3  14   4    8.66    0.89
  -2 -14   4    5.46    0.62
  -2 -14   4    4.18    0.64
  -2  14   4    6.56    0.80
  -1 -14   4   55.58    1.74
   1 -14  -4   56.76    1.63
  -1  14   4   52.56    1.84
   0 -14  -4   12.99    0.90
   0 -14   4   13.50    0.97
   0  14   4   13.39    1.01
   1 -14   4   18.88    1.11
  -1 -14  -4   18.19    1.13
   1  14   4   18.04    1.18
  -2 -14  -4   18.10    1.23
   2 -14   4   18.58    1.20
   3 -14   4   15.52    1.19
  -3 -14  -4   16.76    1.29
  -5 -15   4    1.38    0.60
  -4 -15   4   14.76    1.07
  -4  15   4   13.93    1.08
  -3 -15   4   10.54    0.95
  -3  15   4   10.79    0.99
  -2 -15   4    9.47    0.78
  -2 -15   4    8.76    0.88
  -2  15   4    6.70    0.80
   1 -15  -4   11.94    0.78
  -1 -15   4   11.51    0.91
  -1  15   4   12.10    1.04
   0 -15  -4   24.60    1.16
   0 -15   4   22.64    1.21
   0  15   4   21.30    1.27
  -1 -15  -4    5.58    0.75
   1 -15   4    7.95    0.89
   1  15   4    5.71    0.81
  -2 -15  -4   13.37    1.13
   2 -15   4   15.54    1.14
  -3 -15  -4    5.14    0.88
   3 -15   4    8.58    1.01
  -5 -16   4    2.25    0.64
  -4 -16   4    4.96    0.73
  -4  16   4    6.23    0.82
  -3 -16   4    3.19    0.62
  -3  16   4    4.14    0.72
  -2 -16   4    1.46    0.51
  -2 -16   4    0.35    0.42
  -2  16   4    1.46    0.55
   1 -16  -4   33.77    1.28
  -1 -16   4   35.45    1.44
  -1  16   4   35.21    1.56
   0 -16   4   17.73    1.12
   0 -16  -4   17.76    1.06
   0  16   4   20.41    1.28
   1 -16   4   13.23    1.11
  -1 -16  -4   10.76    1.01
   1  16   4   11.94    1.12
   2 -16   4   13.00    1.08
  -2 -16  -4   11.09    1.08
  -3 -16  -4   10.94    1.19
   3 -16   4   12.10    1.17
  -5 -17   4    0.16    0.51
  -4 -17   4    9.79    0.98
  -4  17   4   11.90    1.04
  -3 -17   4   11.55    0.96
  -3  17   4   13.65    1.09
  -2 -17   4    6.65    0.73
  -2 -17   4    7.13    0.84
  -2  17   4    5.40    0.81
   1 -17  -4    8.97    0.77
  -1 -17   4    8.39    0.86
  -1  17   4    8.39    0.94
   0 -17   4   20.25    1.22
   0 -17  -4   20.44    1.14
   0  17   4   21.54    1.39
   1 -17   4   10.19    1.00
  -1 -17  -4    9.68    0.98
   1  17   4    9.13    1.02
   2 -17   4   17.48    1.24
  -2 -17  -4   18.89    1.31
  -3 -17  -4    1.74    0.68
   3 -17   4    1.58    0.64
  -4 -18   4    4.42    0.74
  -4  18   4    2.99    0.68
  -3 -18   4    2.35    0.60
  -3  18   4    2.34    0.64
  -2 -18   4    7.93    0.88
  -2 -18   4    6.62    0.77
  -2  18   4    6.54    0.87
  -1 -18   4   52.84    1.87
   1 -18  -4   51.65    1.71
  -1  18   4   50.20    2.00
   0 -18   4   13.88    1.08
   0 -18  -4   14.75    1.04
   0  18   4   15.79    1.28
  -1 -18  -4    9.66    0.98
   1 -18   4   11.38    1.08
   1  18   4   13.11    1.28
   2 -18   4   16.01    1.22
  -2 -18  -4   12.72    1.20
  -4 -19   4    8.18    0.92
  -4  19   4    8.43    1.00
  -3 -19   4    8.46    0.89
  -3  19   4   10.31    1.05
  -2 -19   4   17.69    1.17
  -2 -19   4   17.10    1.10
  -2  19   4   18.17    1.27
  -1 -19   4    5.25    0.76
  -1  19   4    4.22    0.84
   0 -19  -4   15.16    1.09
   0 -19   4   16.17    1.18
   0  19   4   15.89    1.32
  -1 -19  -4    4.33    0.74
   1 -19   4    4.56    0.79
   1  19   4    4.48    0.84
   2 -19   4   17.62    1.26
  -2 -19  -4   19.23    1.38
  -4 -20   4    5.26    0.82
  -4  20   4    4.65    0.82
  -3 -20   4    3.26    0.67
  -3  20   4    1.63    0.64
  -2 -20   4    8.34    0.88
  -2 -20   4   10.04    1.03
  -2  20   4    8.66    1.06
  -1 -20   4   29.89    1.48
  -1  20   4   27.19    1.61
   0 -20  -4   11.40    1.01
   0 -20   4   12.37    1.14
   0  20   4   13.88    1.30
  -1 -20  -4   16.32    1.21
   1 -20   4   15.77    1.22
  -2 -20  -4    6.32    0.93
   2 -20   4    6.36    0.97
  -4 -21   4    3.38    0.69
  -3 -21   4    4.82    0.76
  -3  21   4    6.37    0.95
  -2 -21   4   14.07    1.08
  -2 -21   4   12.81    1.09
  -2  21   4   13.68    1.28
  -1 -21   4    5.92    0.86
  -1  21   4    4.13    0.89
   0 -21  -4   12.87    1.08
   0 -21   4   11.69    1.13
   0  21   4   13.33    1.33
  -1 -21  -4    0.17    0.51
   1 -21   4    0.46    0.54
  -3 -22   4    0.51    0.51
  -3  22   4    2.27    0.70
  -2 -22   4    3.33    0.68
  -2 -22   4    2.62    0.66
  -2  22   4    2.10    0.75
  -1 -22   4   16.82    1.22
  -1  22   4   15.56    1.44
   0 -22  -4    4.37    0.77
   0 -22   4    4.78    0.83
   0  22   4    3.58    0.88
  -1 -22  -4   12.95    1.21
   1 -22   4   12.65    1.20
  -3 -23   4    5.17    0.81
  -2 -23   4    5.01    0.80
  -2 -23   4    5.85    0.81
  -2  23   4    6.00    0.97
  -1 -23   4    8.08    1.01
  -1  23   4    9.48    1.24
   0 -23   4    4.21    0.81
   0 -23  -4    3.74    0.74
  -1 -23  -4    3.02    0.74
  -2 -24   4    1.51    0.59
  -2 -24   4    1.41    0.63
  -1 -24   4   22.84    1.45
  -1 -24   4   18.56    1.35
   0 -24  -4    2.92    0.71
  -1 -25   4    4.54    0.88
   0 -25  -4    5.90    1.03
  -5   0   5    4.28    0.77
  -4   0   5    0.27    0.48
  -3   0   5   35.27    1.41
  -2   0   5    0.97    0.42
  -1   0   5    1.68    0.43
   0   0  -5   37.69    1.58
   1   0   5   52.65    1.66
  -1   0  -5   49.61    1.98
  -2   0  -5    0.14    0.63
  -3   0  -5   -0.50    0.66
  -6   1   5    0.19    0.66
  -5  -1   5    6.86    0.90
  -5   1   5    6.25    0.87
  -4  -1   5    0.39    0.51
  -4   1   5    0.28    0.49
  -3  -1   5   19.92    1.11
  -3   1   5   16.28    1.03
  -2  -1   5   42.84    1.50
  -2   1   5   44.14    1.49
  -1  -1   5   10.63    0.67
  -1  -1   5   10.39    0.83
  -1   1   5    9.85    0.74
   0  -1  -5    8.72    0.95
   0   1  -5    8.24    0.92
  -1  -1  -5    4.31    0.81
   1   1   5    4.71    0.60
  -1   1  -5    5.00    0.87
  -2  -1  -5    0.71    0.65
  -2   1  -5   -0.26    0.63
  -3  -1  -5   36.29    2.00
  -3   1  -5   33.93    2.00
  -6   2   5    1.22    0.70
  -5  -2   5    9.74    1.01
  -5   2   5    9.34    1.01
  -4  -2   5    7.48    0.85
  -4   2   5    5.97    0.75
  -3  -2   5    8.59    0.81
  -3   2   5   10.88    0.92
  -2  -2   5    6.65    0.70
  -2   2   5    6.97    0.66
  -1  -2   5    2.16    0.41
   1  -2  -5    0.71    0.40
  -1  -2   5    1.72    0.47
  -1   2   5    0.62    0.35
   0  -2  -5   36.78    1.50
   0   2   5   39.63    1.40
  -1  -2  -5   70.29    2.27
   1   2   5   67.34    1.89
  -1   2  -5   64.49    2.32
  -2  -2  -5   -0.12    0.58
  -2   2  -5   -0.07    0.65
  -3  -2  -5    1.69    0.81
  -3   2  -5    1.67    0.86
  -5  -3   5    5.54    0.85
  -5   3   5    5.28    0.80
  -4  -3   5    2.77    0.63
  -4   3   5    2.33    0.58
  -3  -3   5    9.09    0.84
  -3   3   5   10.26    0.87
  -2  -3   5   54.42    1.76
  -2   3   5   56.42    1.68
  -1  -3   5    4.01    0.49
  -1  -3   5    4.42    0.60
   1  -3  -5    4.26    0.58
  -1   3   5    4.23    0.51
   0  -3   5   16.11    0.90
   0  -3  -5   15.40    1.03
   0   3   5   15.33    0.83
   0   3   5   14.53    0.92
  -1  -3  -5    5.97    0.86
   1   3   5    4.73    0.62
  -2  -3  -5    0.13    0.61
  -2   3  -5    0.01    0.68
  -3  -3  -5   23.92    1.65
  -3   3  -5   21.01    1.74
  -5  -4   5    5.41    0.85
  -5   4   5    4.30    0.76
  -4  -4   5    2.17    0.60
  -4   4   5    1.52    0.53
  -3  -4   5    5.54    0.70
  -3   4   5    6.55    0.69
  -2  -4   5    7.52    0.75
  -2   4   5    5.27    0.59
  -1  -4   5    0.95    0.36
   1  -4  -5    0.57    0.37
  -1  -4   5    0.43    0.42
  -1   4   5    1.40    0.35
  -1   4   5    1.20    0.47
   0  -4   5   49.24    1.56
   0  -4  -5   47.19    1.68
   0   4   5   46.49    1.59
  -1  -4  -5   64.88    2.20
   1   4   5   66.08    1.90
  -2  -4  -5   -0.25    0.59
  -3  -4  -5   -0.35    0.65
  -5  -5   5    3.42    0.72
  -5   5   5    4.19    0.71
  -5   5   5    5.71    0.82
  -4  -5   5    0.24    0.45
  -4   5   5    0.24    0.45
  -3  -5   5    3.68    0.61
  -3   5   5    3.50    0.57
  -2  -5   5   54.69    1.79
  -2   5   5   54.59    1.83
  -2   5   5   61.08    1.66
  -1  -5   5    0.69    0.34
  -1  -5   5    0.56    0.41
  -1   5   5    0.77    0.45
  -1   5   5    0.49    0.31
   0  -5  -5    7.19    0.82
   0  -5   5    8.22    0.76
   0   5   5    7.68    0.78
  -1  -5  -5    4.32    0.78
   1  -5   5    4.78    0.66
   1   5   5    4.06    0.60
  -2  -5  -5    0.70    0.67
  -3  -5  -5   19.53    1.56
  -5  -6   5    5.47    0.82
  -5   6   5    6.52    0.88
  -5   6   5    3.54    0.68
  -4  -6   5    1.22    0.54
  -4   6   5    1.68    0.57
  -4   6   5    1.95    0.57
  -3  -6   5   10.39    0.90
  -3   6   5    9.97    0.83
  -3   6   5   11.00    0.92
  -2  -6   5    4.60    0.65
  -2   6   5    3.68    0.51
  -2   6   5    3.66    0.61
  -1  -6   5    0.52    0.36
  -1   6   5    0.58    0.46
   0  -6  -5   47.37    1.66
   0  -6   5   49.20    1.59
   0   6   5   47.79    1.65
  -1  -6  -5   61.92    2.12
   1  -6   5   64.81    2.00
   1   6   5   59.66    1.86
  -2  -6  -5    4.61    0.88
   2  -6   5    2.72    0.62
   3  -6   5    0.09    0.52
  -3  -6  -5    0.24    0.67
  -5  -7   5    3.35    0.69
  -5   7   5    3.44    0.70
  -5   7   5    3.16    0.68
  -4  -7   5    0.39    0.49
  -4   7   5    1.14    0.49
  -4   7   5    0.76    0.50
  -3  -7   5    9.65    0.91
  -3   7   5    9.87    0.81
  -3   7   5   10.32    0.92
  -2  -7   5   49.40    1.69
  -2   7   5   45.94    1.69
  -1  -7   5   -0.18    0.34
  -1   7   5    0.31    0.43
   0  -7  -5    9.96    0.86
   0  -7   5   10.49    0.84
   0   7   5   12.64    0.95
  -1  -7  -5    3.98    0.74
   1  -7   5    5.20    0.75
   1   7   5    5.25    0.68
  -2  -7  -5    3.05    0.79
   2  -7   5    4.80    0.75
   3  -7   5   23.98    1.47
  -3  -7  -5   19.61    1.56
  -5  -8   5    4.95    0.78
  -5   8   5    2.91    0.66
  -5   8   5    3.05    0.67
  -4  -8   5    1.12    0.54
  -4   8   5    2.62    0.55
  -4   8   5    1.63    0.57
  -3  -8   5   10.80    0.93
  -3   8   5   10.17    0.95
  -3   8   5   10.63    0.81
  -2  -8   5    6.43    0.75
  -2   8   5    6.79    0.77
  -1  -8   5    0.19    0.37
  -1   8   5    0.77    0.46
   0  -8   5   36.12    1.37
   0  -8  -5   34.60    1.40
   0   8   5   33.67    1.42
  -1  -8  -5   31.73    1.52
   1  -8   5   32.56    1.41
   1   8   5   33.45    1.38
  -2  -8  -5    5.35    0.90
   2  -8   5    5.66    0.84
   3  -8   5    0.74    0.59
  -3  -8  -5    1.43    0.76
  -5  -9   5    3.41    0.71
  -5   9   5    3.55    0.70
  -5   9   5    3.80    0.73
  -4  -9   5    0.61    0.49
  -4   9   5    1.14    0.48
  -4   9   5    1.37    0.54
  -3  -9   5   10.68    0.93
  -3   9   5   11.04    0.98
  -2  -9   5   53.88    1.83
  -2   9   5   49.87    1.78
  -1  -9   5   12.84    0.88
  -1   9   5   13.71    0.99
   0  -9   5    7.14    0.74
   0  -9  -5    5.88    0.74
   0   9   5    7.76    0.82
   1  -9   5    2.16    0.59
  -1  -9  -5    1.66    0.58
   1   9   5    1.58    0.52
  -2  -9  -5    2.41    0.71
   2  -9   5    1.80    0.61
   3  -9   5   25.06    1.48
  -3  -9  -5   23.71    1.65
  -5 -10   5    4.66    0.78
  -5  10   5    5.19    0.79
  -5  10   5    6.27    0.84
  -4 -10   5    3.70    0.70
  -4  10   5    3.79    0.68
  -4  10   5    3.42    0.62
  -3 -10   5   10.46    0.92
  -3  10   5   10.47    0.95
  -2 -10   5    4.08    0.67
  -2  10   5    3.92    0.69
  -1 -10   5    4.22    0.59
  -1  10   5    5.72    0.76
   0 -10   5   25.96    1.26
   0 -10  -5   27.34    1.28
   0  10   5   29.90    1.38
  -1 -10  -5   26.22    1.39
   1 -10   5   23.89    1.24
   1  10   5   24.76    1.28
   2 -10   5    2.89    0.66
  -2 -10  -5    2.26    0.75
  -3 -10  -5    0.51    0.66
   3 -10   5    0.91    0.62
  -5 -11   5    1.76    0.63
  -5  11   5    2.60    0.65
  -4 -11   5    0.14    0.46
  -4  11   5    0.04    0.47
  -3 -11   5   12.65    1.00
  -3  11   5   11.14    0.99
  -2 -11   5   28.22    1.37
  -2  11   5   29.77    1.39
  -1 -11   5    1.72    0.49
  -1  11   5    2.10    0.57
   0 -11  -5   13.96    0.98
   0 -11   5   11.49    0.97
   0  11   5   13.40    1.05
   1 -11   5    2.79    0.65
  -1 -11  -5    2.04    0.60
   1  11   5    2.62    0.63
  -2 -11  -5    0.33    0.56
   2 -11   5   -0.28    0.46
   3 -11   5   18.29    1.33
  -3 -11  -5   18.84    1.51
  -5 -12   5    3.27    0.72
  -5  12   5    2.77    0.65
  -4 -12   5    0.45    0.49
  -4  12   5    0.59    0.53
  -3 -12   5   13.94    1.06
  -3  12   5   12.57    1.05
  -2 -12   5    2.46    0.60
  -2  12   5    2.59    0.63
  -1 -12   5    6.52    0.74
  -1  12   5    7.82    0.91
   0 -12  -5   21.92    1.16
   0 -12   5   20.94    1.18
   0  12   5   22.45    1.27
  -1 -12  -5   32.98    1.58
   1 -12   5   36.89    1.56
   1  12   5   35.35    1.59
   2 -12   5    1.12    0.59
  -2 -12  -5    1.24    0.62
  -3 -12  -5    1.37    0.74
   3 -12   5    2.10    0.69
  -5 -13   5    3.15    0.80
  -5  13   5    3.25    0.67
  -4 -13   5    0.61    0.50
  -4  13   5    0.27    0.48
  -3 -13   5    2.27    0.62
  -3  13   5    2.30    0.60
  -2 -13   5   22.53    1.27
  -2  13   5   19.93    1.21
  -1 -13   5    3.06    0.60
  -1  13   5    4.32    0.74
   0 -13   5    8.08    0.86
   0 -13  -5    8.86    0.87
   0  13   5   11.05    1.09
  -1 -13  -5    4.67    0.78
   1 -13   5    3.21    0.72
   1  13   5    4.08    0.75
  -2 -13  -5    0.18    0.55
   2 -13   5    0.84    0.60
  -5  14   5    1.94    0.66
  -4 -14   5   -0.22    0.47
  -4  14   5    0.42    0.52
  -3 -14   5    4.91    0.75
  -3  14   5    5.31    0.79
  -2 -14   5    2.17    0.60
  -2  14   5    1.88    0.60
  -1 -14   5   10.28    0.92
  -1  14   5   10.57    1.05
   0 -14   5   23.76    1.30
   0 -14  -5   25.19    1.28
   0  14   5   25.64    1.42
  -1 -14  -5   41.13    1.76
   1 -14   5   42.14    1.75
   1  14   5   39.09    1.76
  -2 -14  -5    1.77    0.67
   2 -14   5    1.89    0.68
  -5  15   5    2.15    0.68
  -4 -15   5    0.94    0.55
  -4  15   5    1.38    0.62
  -3 -15   5    4.23    0.75
  -3  15   5    5.51    0.82
  -2 -15   5   18.31    1.24
  -2  15   5   17.20    1.21
  -1 -15   5    1.92    0.57
  -1  15   5    1.41    0.61
   0 -15  -5    8.07    0.89
   0 -15   5    7.53    0.92
   0  15   5    8.36    1.00
   1 -15   5    3.78    0.75
  -1 -15  -5    4.89    0.83
   1  15   5    3.75    0.80
   2 -15   5    1.20    0.67
  -2 -15  -5    1.55    0.66
  -4 -16   5    1.39    0.60
  -4  16   5    0.95    0.61
  -3 -16   5    4.11    0.73
  -3  16   5    3.10    0.73
  -2 -16   5    2.47    0.64
  -2  16   5    3.55    0.72
  -1 -16   5    3.20    0.67
  -1  16   5    3.79    0.75
   0 -16   5   17.55    1.25
   0 -16  -5   18.19    1.19
   0  16   5   18.25    1.35
  -1 -16  -5   26.07    1.49
   1 -16   5   25.28    1.49
   1  16   5   28.61    1.67
  -2 -16  -5    7.36    1.06
   2 -16   5    5.31    0.87
  -4 -17   5    0.36    0.53
  -4  17   5    0.57    0.57
  -3 -17   5    9.57    1.01
  -3  17   5   11.54    1.13
  -2 -17   5   15.09    1.19
  -2  17   5   15.69    1.22
  -1 -17   5    1.53    0.60
  -1  17   5    1.21    0.63
   0 -17   5    8.06    0.97
   0 -17  -5    8.04    0.93
   0  17   5    8.29    1.13
  -1 -17  -5    0.97    0.60
   1 -17   5    0.63    0.60
   1  17   5    1.79    0.75
  -2 -17  -5    3.16    0.80
  -3 -18   5   13.78    1.16
  -3  18   5   11.23    1.14
  -2 -18   5    0.38    0.55
  -2  18   5   -0.41    0.51
  -1 -18   5    2.07    0.67
  -1  18   5    4.51    0.87
   0 -18   5   17.18    1.32
   0 -18  -5   16.86    1.22
   0  18   5   17.98    1.54
  -1 -18  -5    7.33    0.96
   1 -18   5    9.90    1.07
   1  18   5    9.27    1.17
  -3 -19   5    4.21    0.76
  -3  19   5    4.01    0.84
  -2 -19   5   13.51    1.24
  -2  19   5   13.32    1.22
  -1 -19   5    0.71    0.58
  -1  19   5    0.40    0.64
   0 -19   5    5.81    0.87
   0  19   5    7.51    1.13
   1 -19   5    2.15    0.73
  -1 -19  -5    1.35    0.68
   1  19   5    1.62    0.75
  -3 -20   5    6.62    0.93
  -2 -20   5    1.43    0.64
  -2  20   5    2.16    0.73
  -1 -20   5    3.36    0.79
  -1  20   5    4.70    0.92
   0 -20   5    8.27    1.05
   0  20   5    8.70    1.20
  -1 -20  -5    7.20    1.00
   1  20   5    8.52    1.15
  -2 -21   5   11.59    1.17
  -1 -21   5    0.71    0.61
   0 -21   5   12.60    1.24
   0  21   5    9.51    1.29
  -1 -22   5    6.80    0.98
  -5   0   6   -0.07    0.56
  -4   0   6    3.92    0.75
  -3   0   6    8.20    0.89
  -2   0   6   15.85    1.07
  -1   0   6   29.71    1.32
  -1   0  -6    2.29    0.81
  -2   0  -6   41.36    2.20
  -5  -1   6    2.20    0.69
  -5   1   6    1.28    0.65
  -4  -1   6    7.87    0.93
  -4   1   6    8.01    0.93
  -3  -1   6    5.43    0.75
  -3   1   6    5.81    0.77
  -2  -1   6    2.95    0.60
  -2   1   6    2.38    0.57
  -1  -1   6   14.64    1.06
  -1   1   6   15.12    0.99
   0  -1  -6    7.97    1.00
   0   1   6    8.33    0.85
  -1  -1  -6    4.49    0.94
  -1   1  -6    4.71    0.99
  -2  -1  -6    9.22    1.32
  -2   1  -6    5.27    1.11
  -5  -2   6    0.19    0.58
  -5   2   6    0.83    0.62
  -4  -2   6   -0.17    0.50
  -4   2   6    0.25    0.54
  -3  -2   6    2.60    0.64
  -3   2   6    3.09    0.63
  -2  -2   6    8.53    0.87
  -2   2   6    8.31    0.81
  -1  -2   6   18.82    1.18
   0  -2  -6    0.80    0.58
   0  -2   6    0.89    0.45
   0   2   6    1.29    0.51
  -1  -2  -6    1.91    0.79
  -2  -2  -6   18.22    1.73
  -5  -3   6    0.89    0.60
  -5   3   6    0.86    0.61
  -4  -3   6   13.46    1.18
  -4   3   6   13.93    1.17
  -3  -3   6    3.96    0.68
  -3   3   6    3.93    0.69
  -2  -3   6    3.53    0.65
  -2   3   6    2.74    0.55
  -1  -3   6   16.88    1.14
  -1   3   6   16.86    1.13
   0  -3  -6    7.45    0.98
   0  -3   6    7.05    0.78
   0   3   6    8.46    0.88
  -1  -3  -6    5.05    0.94
  -2  -3  -6    2.01    0.84
  -5  -4   6    0.10    0.56
  -5   4   6   -0.12    0.55
  -5   4   6   -0.34    0.53
  -4  -4   6    1.57    0.60
  -4   4   6    1.45    0.58
  -3  -4   6    3.66    0.67
  -3   4   6    4.11    0.69
  -2  -4   6    2.42    0.62
  -2   4   6    2.29    0.67
  -2   4   6    2.07    0.54
  -1  -4   6   20.41    1.24
  -1   4   6   23.18    1.31
   0  -4   6    0.58    0.46
   0  -4  -6    1.76    0.59
   0   4   6    0.64    0.50
   1  -4   6    4.97    0.76
  -1  -4  -6    3.89    0.89
  -2  -4  -6   15.17    1.55
   2  -4   6   15.78    1.26
  -5  -5   6    2.23    0.70
  -5   5   6    0.90    0.60
  -5   5   6    1.40    0.65
  -4  -5   6   10.73    1.04
  -4   5   6   11.12    1.12
  -4   5   6   12.84    1.10
  -3  -5   6    2.90    0.64
  -3   5   6    1.57    0.59
  -3   5   6    2.74    0.58
  -2  -5   6    0.44    0.50
  -2   5   6    1.55    0.55
  -1  -5   6    9.97    0.94
  -1   5   6   10.86    1.02
   0  -5  -6    7.53    0.93
   0  -5   6    7.20    0.80
   0   5   6    9.86    0.95
  -1  -5  -6   14.45    1.38
   1  -5   6   13.14    1.09
   2  -5   6    3.03    0.73
  -2  -5  -6    3.77    0.94
  -5  -6   6    0.65    0.61
  -5   6   6    0.06    0.55
  -5   6   6    0.79    0.59
  -4  -6   6    0.66    0.57
  -4   6   6    1.77    0.60
  -4   6   6    1.00    0.58
  -3  -6   6    0.79    0.52
  -3   6   6    1.75    0.61
  -2  -6   6    1.86    0.59
  -2   6   6    1.16    0.58
  -1  -6   6   23.54    1.32
  -1   6   6   26.04    1.40
   0  -6   6    1.65    0.53
   0  -6  -6    2.60    0.67
   0   6   6    2.37    0.61
   1  -6   6    2.98    0.67
  -1  -6  -6    4.15    0.86
  -2  -6  -6   18.80    1.56
   2  -6   6   19.58    1.37
  -5   7   6    1.88    0.65
  -5   7   6    1.15    0.63
  -4  -7   6    7.03    0.92
  -4   7   6    7.76    0.98
  -3  -7   6    0.72    0.52
  -3   7   6    1.40    0.58
  -2  -7   6    0.32    0.50
  -2   7   6    0.11    0.49
  -1  -7   6   16.05    1.17
  -1   7   6   18.67    1.20
   0  -7   6   12.22    0.96
   0   7   6   11.72    1.04
  -1  -7  -6    9.64    1.18
   1  -7   6   11.51    1.07
   2  -7   6    4.54    0.87
  -2  -7  -6    4.74    0.98
  -5   8   6    0.82    0.59
  -4  -8   6    0.98    0.61
  -4   8   6    0.97    0.62
  -3  -8   6    2.25    0.63
  -3   8   6    3.32    0.69
  -2  -8   6    5.35    0.80
  -2   8   6    5.28    0.82
  -1  -8   6   19.09    1.25
  -1   8   6   19.21    1.23
   0  -8   6    7.28    0.82
   0   8   6    6.90    0.85
   1  -8   6    7.67    0.91
  -1  -8  -6    8.00    1.12
  -2  -8  -6   18.17    1.70
   2  -8   6   18.76    1.37
  -4  -9   6    7.56    0.92
  -4   9   6    6.67    0.92
  -3  -9   6    4.55    0.75
  -3   9   6    4.98    0.80
  -2  -9   6    0.47    0.55
  -2   9   6    0.65    0.51
  -1  -9   6    6.54    0.88
  -1   9   6    7.46    0.89
   0  -9   6    3.60    0.66
   0   9   6    4.22    0.75
   1  -9   6    2.23    0.65
   2  -9   6    1.49    0.66
  -2  -9  -6    1.40    0.78
  -4 -10   6   -0.08    0.52
  -4  10   6    0.34    0.58
  -3 -10   6    1.73    0.62
  -3  10   6    2.90    0.71
  -2 -10   6    8.79    1.00
  -2  10   6    6.99    0.89
  -1 -10   6   13.38    1.14
  -1  10   6   11.04    1.05
   0 -10   6    0.06    0.49
   0  10   6    0.51    0.60
  -1 -10  -6    3.26    0.82
   1 -10   6    1.82    0.66
   2 -10   6   18.05    1.34
  -2 -10  -6   13.62    1.48
  -4 -11   6    5.19    0.83
  -4  11   6    5.66    0.90
  -3 -11   6    1.59    0.62
  -3  11   6    1.46    0.64
  -2 -11   6    4.39    0.81
  -2  11   6    3.22    0.71
  -1 -11   6   10.33    1.07
  -1  11   6   12.10    1.09
   0 -11   6    6.54    0.84
   0  11   6    8.48    0.98
  -1 -11  -6    3.58    0.84
   1 -11   6    4.66    0.82
   2 -11   6    5.08    0.89
  -2 -11  -6    5.74    1.07
  -4 -12   6    0.59    0.55
  -4  12   6    0.02    0.54
  -3 -12   6    1.48    0.63
  -3  12   6    2.54    0.71
  -2 -12   6    7.03    0.93
  -2  12   6    5.38    0.81
  -1  12   6   11.67    1.13
   0 -12   6    2.55    0.65
   0  12   6    1.75    0.67
   1 -12   6    2.98    0.72
  -1 -12  -6    4.01    0.87
  -2 -12  -6   15.76    1.52
  -4  13   6    6.49    0.92
  -3 -13   6    1.16    0.57
  -3  13   6    1.94    0.62
  -2 -13   6    4.99    0.87
  -2  13   6    4.04    0.80
  -1  13   6    7.34    1.02
   0 -13   6    3.86    0.76
   0  13   6    3.83    0.77
  -1 -13  -6    7.31    1.06
   1 -13   6    4.79    0.87
  -3 -14   6    3.20    0.72
  -3  14   6    2.16    0.68
  -2 -14   6    3.55    0.73
  -2  14   6    2.80    0.78
  -1  14   6   10.45    1.12
   0 -14   6    1.75    0.65
   0  14   6    1.08    0.69
   1 -14   6    5.34    0.90
  -1 -14  -6    4.59    0.94
  -3 -15   6    0.92    0.59
  -3  15   6    1.95    0.70
  -2 -15   6    3.65    0.77
  -2  15   6    3.49    0.80
  -1  15   6    8.33    1.06
   0 -15   6    1.10    0.64
   0  15   6    1.66    0.70
   1 -15   6    5.40    0.92
  -1 -15  -6    5.61    0.99
  -2 -16   6    0.66    0.61
  -2  16   6    2.58    0.75
  -1 -16   6    7.91    1.05
  -1  16   6    8.13    1.03
   0 -16   6    2.31    0.72
   0  16   6    5.27    0.93
  -1 -16  -6    4.76    0.96
  -2 -17   6    0.38    0.61
  -1 -17   6    4.27    0.83
  -1  17   6    3.26    0.85
   0 -17   6    0.54    0.63
   0  17   6    1.54    0.77
  -1 -17  -6    3.28    0.96
   0 -18   6    1.03    0.68
  -4   0   7    0.76    0.64
  -3   0   7    4.53    0.79
  -2   0   7    0.44    0.53
  -4  -1   7    0.44    0.62
  -4   1   7    0.09    0.59
  -3  -1   7    5.62    0.83
  -3   1   7    7.26    0.89
  -2  -1   7    5.43    0.77
  -1  -1   7    0.34    0.57
  -1   1   7    0.35    0.60
  -1  -1  -7    3.65    1.00
  -4  -2   7   -0.41    0.59
  -4   2   7    0.05    0.57
  -3  -2   7    0.37    0.56
  -3   2   7    0.71    0.59
  -2  -2   7    0.05    0.51
  -1  -2   7    0.15    0.53
  -1   2   7    0.00    0.62
  -1  -2  -7    4.98    1.08
   1  -2   7    4.18    0.79
  -4  -3   7    0.51    0.61
  -4   3   7   -0.27    0.56
  -3  -3   7    3.47    0.74
  -2  -3   7    6.20    0.85
  -2   3   7    6.65    0.94
  -1  -3   7    0.07    0.54
  -1   3   7    0.13    0.65
   0  -3   7    0.97    0.61
  -1  -3  -7    2.90    0.93
   1  -3   7    2.51    0.68
  -4  -4   7    0.36    0.60
  -3  -4   7    0.66    0.57
  -3   4   7    0.13    0.62
  -2  -4   7    0.37    0.54
  -2   4   7    0.19    0.59
  -1  -4   7    1.10    0.63
  -1   4   7    1.01    0.64
  -1  -4  -7    4.81    1.08
   1  -4   7    6.35    0.95
  -4  -5   7    0.88    0.61
  -3  -5   7    2.34    0.68
  -3   5   7    2.08    0.74
  -2  -5   7    7.46    0.93
  -2   5   7    9.68    1.22
  -1  -5   7    0.60    0.61
  -1   5   7    1.75    0.69
   1  -5   7    2.06    0.67
  -3  -6   7    1.85    0.66
  -3   6   7    1.81    0.74
  -2  -6   7    0.51    0.58
  -2   6   7   -0.23    0.57
  -1  -6   7    2.82    0.76
  -1   6   7    2.81    0.77
   1  -6   7    5.13    0.89
  -3  -7   7    6.42    0.90
  -3   7   7    6.92    0.99
  -2  -7   7    7.37    0.95
  -2   7   7    5.80    0.98
  -1  -7   7    1.00    0.64
  -1   7   7    1.73    0.66
   0   7   7   -0.03    0.56
   1  -7   7    1.90    0.67
  -3  -8   7    1.61    0.65
  -3   8   7    2.42    0.73
  -2  -8   7    1.31    0.65
  -2   8   7    1.23    0.65
  -1  -8   7    0.13    0.59
  -1   8   7    1.13    0.69
   0   8   7    6.55    0.98
   1  -8   7    2.89    0.76
  -3  -9   7    6.06    0.90
  -3   9   7    5.00    0.89
  -2  -9   7    4.42    0.84
  -2   9   7    4.24    0.85
  -1  -9   7    1.76    0.71
  -1   9   7    1.61    0.65
   0   9   7    0.77    0.67
   1  -9   7    0.35    0.59
  -2 -10   7    0.59    0.59
  -2  10   7    0.01    0.61
  -1 -10   7    0.47    0.62
  -1  10   7    0.05    0.58
   0  10   7    7.09    0.99
  -2 -11   7    5.81    0.93
  -2  11   7    3.28    0.75
  -1 -11   7    0.31    0.59
  -1  11   7    0.42    0.63
   0  11   7    0.78    0.64
  -1 -12   7    0.19    0.64
  -2  -4   8    1.34    0.69
   0   0   0    0.00    0.00
;
_shelx_hkl_checksum              50599
#END Tags that were not found in dictionaries
loop_
_space_group_symop_operation_xyz
'x, y, z'
'-x, y+1/2, -z'
loop_
_atom_site_type_symbol
_atom_site_label
_atom_site_fract_x
_atom_site_fract_y
_atom_site_fract_z
_atom_site_U_iso_or_equiv
_atom_site_adp_type
_atom_site_calc_flag
_atom_site_refinement_flags_adp
_atom_site_refinement_flags_posn
_atom_site_occupancy
Ag Ag1 0.21038(12) 0.85742(2) 0.43553(10) 0.03388(15) Uani d . . 1
Ag Ag2 -0.43213(12) 0.86735(3) -0.00767(10) 0.03458(15) Uani d . . 1
C C1 -0.0247(15) 0.7566(4) 0.0317(13) 0.0244(14) Uani d . . 1
C C2 0.1395(17) 0.6950(4) 0.1452(14) 0.0264(15) Uani d . . 1
H H2A 0.3037 0.6892 0.0745 0.032 Uiso calc U R 1
H H2B 0.0199 0.6558 0.1042 0.032 Uiso calc U R 1
C C3 0.2376(14) 0.7006(3) 0.4271(12) 0.0175(13) Uani d . . 1
H H3 0.0705 0.7044 0.4983 0.021 Uiso calc U R 1
C C4 0.4007(13) 0.6370(3) 0.5271(13) 0.0203(13) Uani d . . 1
C C5 0.3855(14) 0.5247(3) 0.6921(13) 0.0197(13) Uani d . . 1
H H5 0.5604 0.5201 0.6326 0.024 Uiso calc U R 1
C C6 0.4665(17) 0.5261(4) 0.9726(15) 0.0259(15) Uani d . . 1
H H6A 0.5792 0.5657 1.0272 0.031 Uiso calc U R 1
H H6B 0.296 0.5286 1.0364 0.031 Uiso calc U R 1
C C7 0.1920(15) 0.4655(4) 0.5903(13) 0.0221(14) Uani d . . 1
N N1 0.4154(12) 0.7601(3) 0.4946(12) 0.0225(12) Uani d . . 1
H H1A 0.5632 0.759 0.4022 0.027 Uiso calc U R 1
H H1B 0.5079 0.7566 0.6686 0.027 Uiso calc U R 1
N N2 0.2502(12) 0.5875(3) 0.5946(12) 0.0234(12) Uani d . . 1
H H2 0.0708 0.5926 0.5806 0.028 Uiso calc U R 1
N N3 0.6307(15) 0.4657(3) 1.0733(12) 0.0286(14) Uani d . . 1
H H3A 0.6922 0.4715 1.2511 0.034 Uiso calc U R 1
H H3B 0.8004 0.4649 1.0079 0.034 Uiso calc U R 1
O O1 0.0592(14) 0.7894(4) -0.1281(11) 0.0483(17) Uani d . . 1
O O2 -0.2418(12) 0.7715(3) 0.1096(12) 0.0403(15) Uani d . . 1
O O3 0.6575(11) 0.6323(3) 0.5380(14) 0.0446(17) Uani d . . 1
O O4 0.2592(16) 0.4290(4) 0.4355(14) 0.059(2) Uani d . . 1
O O5 -0.0239(12) 0.4564(3) 0.6760(12) 0.0368(14) Uani d . . 1
loop_
_atom_site_aniso_label
_atom_site_aniso_U_11
_atom_site_aniso_U_22
_atom_site_aniso_U_33
_atom_site_aniso_U_12
_atom_site_aniso_U_13
_atom_site_aniso_U_23
Ag1 0.0383(3) 0.0162(2) 0.0414(3) 0.0077(2) -0.0031(2) -0.0041(2)
Ag2 0.0404(3) 0.0218(3) 0.0369(3) 0.0078(2) -0.0009(2) -0.0044(2)
C1 0.023(4) 0.024(4) 0.024(4) -0.001(3) 0.000(3) -0.006(3)
C2 0.031(4) 0.019(3) 0.028(4) 0.003(3) 0.003(3) -0.003(3)
C3 0.017(3) 0.011(3) 0.025(3) -0.002(2) 0.005(3) 0.003(2)
C4 0.016(3) 0.019(3) 0.028(3) 0.003(2) 0.007(3) 0.004(2)
C5 0.019(3) 0.012(3) 0.030(4) 0.003(2) 0.007(3) 0.004(2)
C6 0.029(4) 0.018(4) 0.029(4) 0.001(3) 0.002(3) 0.001(3)
C7 0.024(3) 0.017(3) 0.024(4) 0.002(3) 0.002(3) 0.001(3)
N1 0.022(3) 0.014(3) 0.030(3) 0.002(2) 0.001(2) 0.000(2)
N2 0.017(3) 0.016(3) 0.038(4) 0.0035(19) 0.009(3) 0.009(2)
N3 0.034(3) 0.024(3) 0.026(3) 0.003(3) 0.003(3) 0.005(3)
O1 0.053(4) 0.062(4) 0.034(3) 0.015(3) 0.020(3) 0.022(3)
O2 0.036(3) 0.031(3) 0.063(4) 0.018(3) 0.029(3) 0.023(3)
O3 0.015(2) 0.028(3) 0.094(5) 0.006(2) 0.019(3) 0.026(3)
O4 0.054(4) 0.070(5) 0.059(5) -0.024(4) 0.027(4) -0.037(4)
O5 0.025(3) 0.030(3) 0.057(4) -0.011(2) 0.013(3) -0.008(3)
loop_
_atom_type_symbol
_atom_type_description
_atom_type_scat_dispersion_real
_atom_type_scat_dispersion_imag
_atom_type_scat_source
C C 0.0033 0.0016 'International Tables Vol C Tables 4.2.6.8 and 6.1.1.4'
H H 0.0000 0.0000 'International Tables Vol C Tables 4.2.6.8 and 6.1.1.4'
N N 0.0061 0.0033 'International Tables Vol C Tables 4.2.6.8 and 6.1.1.4'
O O 0.0106 0.0060 'International Tables Vol C Tables 4.2.6.8 and 6.1.1.4'
Ag Ag -0.8971 1.1015 'International Tables Vol C Tables 4.2.6.8 and 6.1.1.4'
loop_
_geom_angle_atom_site_label_1
_geom_angle_atom_site_label_2
_geom_angle_atom_site_label_3
_geom_angle_site_symmetry_1
_geom_angle_site_symmetry_3
_geom_angle
N1 Ag1 O5 . 2_556 171.5(2)
N1 Ag1 Ag2 . 1_656 77.33(16)
O5 Ag1 Ag2 2_556 1_656 108.30(17)
N1 Ag1 Ag2 . 1_655 82.43(17)
O5 Ag1 Ag2 2_556 1_655 89.27(16)
Ag2 Ag1 Ag2 1_656 1_655 117.06(3)
O2 Ag2 N3 . 2_556 172.0(3)
O2 Ag2 Ag1 . 1_454 109.7(2)
N3 Ag2 Ag1 2_556 1_454 76.86(17)
O2 Ag2 Ag1 . 1_455 88.98(15)
N3 Ag2 Ag1 2_556 1_455 83.90(18)
Ag1 Ag2 Ag1 1_454 1_455 117.06(3)
O1 C1 O2 . . 123.6(8)
O1 C1 C2 . . 119.8(7)
O2 C1 C2 . . 116.6(7)
C1 C2 C3 . . 112.0(6)
C1 C2 H2A . . 109.2
C3 C2 H2A . . 109.2
C1 C2 H2B . . 109.2
C3 C2 H2B . . 109.2
H2A C2 H2B . . 107.9
N1 C3 C2 . . 110.4(6)
N1 C3 C4 . . 110.9(5)
C2 C3 C4 . . 108.9(6)
N1 C3 H3 . . 108.9
C2 C3 H3 . . 108.9
C4 C3 H3 . . 108.9
O3 C4 N2 . . 122.6(6)
O3 C4 C3 . . 120.7(6)
N2 C4 C3 . . 116.7(5)
N2 C5 C6 . . 110.7(6)
N2 C5 C7 . . 110.0(6)
C6 C5 C7 . . 112.7(6)
N2 C5 H5 . . 107.7
C6 C5 H5 . . 107.7
C7 C5 H5 . . 107.7
N3 C6 C5 . . 111.3(6)
N3 C6 H6A . . 109.4
C5 C6 H6A . . 109.4
N3 C6 H6B . . 109.4
C5 C6 H6B . . 109.4
H6A C6 H6B . . 108.0
O4 C7 O5 . . 123.7(8)
O4 C7 C5 . . 118.7(7)
O5 C7 C5 . . 117.6(6)
C3 N1 Ag1 . . 117.8(4)
C3 N1 H1A . . 107.9
Ag1 N1 H1A . . 107.9
C3 N1 H1B . . 107.9
Ag1 N1 H1B . . 107.9
H1A N1 H1B . . 107.2
C4 N2 C5 . . 121.0(5)
C4 N2 H2 . . 119.5
C5 N2 H2 . . 119.5
C6 N3 Ag2 . 2_546 119.5(5)
C6 N3 H3A . . 107.4
Ag2 N3 H3A 2_546 . 107.4
C6 N3 H3B . . 107.4
Ag2 N3 H3B 2_546 . 107.4
H3A N3 H3B . . 107.0
C1 O2 Ag2 . . 116.0(5)
C7 O5 Ag1 . 2_546 110.3(5)
loop_
_geom_bond_atom_site_label_1
_geom_bond_atom_site_label_2
_geom_bond_site_symmetry_2
_geom_bond_distance
Ag1 N1 . 2.174(6)
Ag1 O5 2_556 2.204(6)
Ag1 Ag2 1_656 3.1853(9)
Ag1 Ag2 1_655 3.3170(9)
Ag2 O2 . 2.161(6)
Ag2 N3 2_556 2.183(7)
Ag2 Ag1 1_454 3.1853(9)
Ag2 Ag1 1_455 3.3170(9)
C1 O1 . 1.242(9)
C1 O2 . 1.259(9)
C1 C2 . 1.523(10)
C2 C3 . 1.532(10)
C2 H2A . 0.97
C2 H2B . 0.97
C3 N1 . 1.467(8)
C3 C4 . 1.533(9)
C3 H3 . 0.98
C4 O3 . 1.234(8)
C4 N2 . 1.332(9)
C5 N2 . 1.462(8)
C5 C6 . 1.516(10)
C5 C7 . 1.535(10)
C5 H5 . 0.98
C6 N3 . 1.483(10)
C6 H6A . 0.97
C6 H6B . 0.97
C7 O4 . 1.225(9)
C7 O5 . 1.255(9)
N1 H1A . 0.97
N1 H1B . 0.97
N2 H2 . 0.86
N3 Ag2 2_546 2.183(7)
N3 H3A . 0.97
N3 H3B . 0.97
O5 Ag1 2_546 2.204(6)
