#------------------------------------------------------------------------------
#$Date: 2016-03-24 14:30:41 +0200 (Thu, 24 Mar 2016) $
#$Revision: 179666 $
#$URL: svn://www.crystallography.net/cod/cif/4/51/19/4511976.cif $
#------------------------------------------------------------------------------
#
# This file is available in the Crystallography Open Database (COD),
# http://www.crystallography.net/
#
# All data on this site have been placed in the public domain by the
# contributors.
#
data_4511976
loop_
_publ_author_name
'Kinnibrugh, Tiffany L.'
'Bakhmutov, Vladimir I.'
'Clearfield, Abraham'
_publ_section_title
;
 Reversible Dehydration Behavior Reveals Coordinatively Unsaturated Metal
 Sites in Microporous Aluminum Phosphonates
;
_journal_issue                   10
_journal_name_full               'Crystal Growth &amp; Design'
_journal_page_first              4976
_journal_paper_doi               10.1021/cg5005215
_journal_volume                  14
_journal_year                    2014
_chemical_formula_moiety         'C9 H6 Al2 O9 P3'
_chemical_formula_sum            'C9 H6 Al2 O9 P3'
_chemical_formula_weight         405
_chemical_name_systematic        ' ?'
_space_group_IT_number           2
_symmetry_cell_setting           triclinic
_symmetry_Int_Tables_number      2
_symmetry_space_group_name_Hall  '-P 1'
_symmetry_space_group_name_H-M   'P -1'
_cell_angle_alpha                98.870(4)
_cell_angle_beta                 105.9332(19)
_cell_angle_gamma                89.598(3)
_cell_formula_units_Z            2
_cell_length_a                   8.5943(3)
_cell_length_b                   4.97060(14)
_cell_length_c                   19.5499(6)
_cell_measurement_temperature    453
_cell_volume                     792.91(4)
_computing_cell_refinement       JANA2006
_computing_publication_material  JANA2006
_computing_structure_refinement  JANA2006
_computing_structure_solution    'Fox (Favre-Nicolin and Cerny, 2002)'
_diffrn_ambient_temperature      453
_diffrn_detector                 '12-analyzer detector system'
_diffrn_measurement_device       'diffractometer at APS 11-BM-B'
_diffrn_radiation_monochromator  'PSL DSM Si(111)'
_diffrn_radiation_probe          x-ray
_diffrn_radiation_type           synchrotron
_diffrn_radiation_wavelength     0.41397
_diffrn_source                   synchrotron
_diffrn_source_type              synchrotron
_exptl_absorpt_coefficient_mu    0.124
_exptl_absorpt_correction_type   cylinder
_exptl_absorpt_process_details   JANA2006
_exptl_crystal_density_diffrn    1.6959
_exptl_crystal_density_method    'not measured'
_exptl_crystal_F_000             406
_pd_char_colour                  colourless
_pd_instr_location
; 
11-BM-B line diffractometer, APS, Argonne National Lab (USA)
;
_pd_meas_2theta_range_inc        0.001
_pd_meas_2theta_range_max        49.995
_pd_meas_2theta_range_min        0.500
_pd_meas_number_of_points        49496
_pd_meas_scan_method             cont
_pd_proc_2theta_range_inc        0.001
_pd_proc_2theta_range_max        24.999
_pd_proc_2theta_range_min        1.101
_pd_proc_ls_background_function  '20 Chebyshev polynoms'
_pd_proc_ls_pref_orient_corr     none
_pd_proc_ls_profile_function     Pseudo-Voigt
_pd_proc_ls_prof_R_factor        0.0888
_pd_proc_ls_prof_wR_expected     0.0748
_pd_proc_ls_prof_wR_factor       0.1140
_refine_ls_goodness_of_fit_all   1.52
_refine_ls_hydrogen_treatment    constr
_refine_ls_number_constraints    45
_refine_ls_number_parameters     104
_refine_ls_number_restraints     38
_refine_ls_R_factor_all          3.28
_refine_ls_shift/su_max          0.0346
_refine_ls_shift/su_mean         0.0060
_refine_ls_weighting_scheme      sigma
_cod_data_source_file            cg5005215_si_006.cif
_cod_data_source_block           I
_cod_depositor_comments
;
The following automatic conversions were performed:

'_diffrn_radiation_probe' value 'X-ray' changed to 'x-ray' according
to
/home/saulius/struct/COD-crude-data--automatic-downloads/rss-feeds/ACS/lib/dictionaries/cif_core.dic
dictionary named 'cif_core.dic' version 2.4.2 from 2011-04-26.

Automatic conversion script
Id: cif_fix_values 2281 2013-09-26 08:29:07Z andrius 

 Adding full bibliography for 4511976.cif.
;
_cod_database_code               4511976
loop_
_symmetry_equiv_pos_site_id
_symmetry_equiv_pos_as_xyz
1 x,y,z
2 -x,-y,-z
loop_
_atom_site_label
_atom_site_type_symbol
_atom_site_fract_x
_atom_site_fract_y
_atom_site_fract_z
_atom_site_adp_type
_atom_site_U_iso_or_equiv
_atom_site_symmetry_multiplicity
_atom_site_occupancy
_atom_site_calc_flag
Al1 Al 0.3590(9) 0.1188(17) 0.2505(5) Uiso 0.0101(8) 2 1 d
P2 P 0.3881(9) 0.3394(15) 0.6980(3) Uiso 0.0101(8) 2 1 d
O3 O 0.4776(14) 0.076(2) 0.7161(8) Uiso 0.0140(11) 2 1 d
O4 O 0.5055(15) 0.587(2) 0.7347(8) Uiso 0.0140(11) 2 1 d
P5 P 0.1455(4) 0.2294(13) 0.35548(17) Uiso 0.0101(8) 2 1 d
Al6 Al -0.0432(9) -0.2985(16) 0.2852(4) Uiso 0.0101(8) 2 1 d
O7 O 0.2422(12) 0.383(3) 0.7300(6) Uiso 0.0140(11) 2 1 d
P8 P 0.1444(8) -0.4088(17) 0.1722(4) Uiso 0.0101(8) 2 1 d
O9 O 0.2805(7) 0.119(2) 0.3212(3) Uiso 0.0140(11) 2 1 d
O10 O -0.0094(8) 0.0420(17) 0.3230(6) Uiso 0.0140(11) 2 1 d
O11 O -0.0118(10) -0.365(3) 0.1968(6) Uiso 0.0140(11) 2 1 d
O12 O 0.1939(19) -0.704(2) 0.1826(8) Uiso 0.0140(11) 2 1 d
C13 C 0.1461(6) 0.1047(16) 0.4855(3) Uiso 0.0140(11) 2 1 d
C14 C 0.2217(6) 0.2739(11) 0.4526(3) Uiso 0.0140(11) 2 1 d
C15 C 0.3444(10) 0.4572(13) 0.4941(4) Uiso 0.0140(11) 2 1 d
C16 C 0.3928(8) 0.4724(18) 0.5692(4) Uiso 0.0140(11) 2 1 d
C17 C 0.3167(7) 0.3021(16) 0.6023(3) Uiso 0.0140(11) 2 1 d
C18 C 0.1931(10) 0.1176(15) 0.5604(4) Uiso 0.0140(11) 2 1 d
C19 C 0.0620(4) -0.4620(10) 0.07448(3) Uiso 0.0140(11) 2 1 d
C20 C 0.1473(7) -0.608(2) 0.03110(17) Uiso 0.0140(11) 2 1 d
C21 C -0.0862(7) -0.356(2) 0.04342(15) Uiso 0.0140(11) 2 1 d
O22 O 0.2703(15) -0.169(3) 0.1884(7) Uiso 0.0140(11) 2 1 d
O23 O 0.1068(12) 0.5242(14) 0.3394(6) Uiso 0.0140(11) 2 1 d
H15 H 0.396267 0.573792 0.471482 Uiso 0.0168 2 1 d
H18 H 0.140801 0.000526 0.582777 Uiso 0.0168 2 1 d
H20 H 0.248477 -0.684801 0.052591 Uiso 0.0168 2 1 d
H21 H -0.146269 -0.258583 0.073424 Uiso 0.0168 2 1 d
H13 H 0.061023 -0.021898 0.456427 Uiso 0.0168 2 1 d
H16 H 0.478062 0.599174 0.597952 Uiso 0.0168 2 1 d
loop_
_atom_type_symbol
_atom_type_scat_dispersion_real
_atom_type_scat_dispersion_imag
_atom_type_scat_source
C 0.0000 0.0005 'International Tables Vol C tables 4.2.6.8 and 6.1.1.1'
H 0.0000 0.0000 'International Tables Vol C tables 4.2.6.8 and 6.1.1.1'
Al 0.0202 0.0168 'International Tables Vol C tables 4.2.6.8 and 6.1.1.1'
O 0.0019 0.0019 'International Tables Vol C tables 4.2.6.8 and 6.1.1.1'
P 0.0354 0.0313 'International Tables Vol C tables 4.2.6.8 and 6.1.1.1'
loop_
_geom_angle_atom_site_label_1
_geom_angle_atom_site_label_2
_geom_angle_atom_site_label_3
_geom_angle_site_symmetry_1
_geom_angle_site_symmetry_3
_geom_angle
O3 P2 O4 . . 108.2(6)
O3 P2 O7 . . 112.5(9)
O3 P2 C17 . . 106.8(7)
O4 P2 O7 . . 105.3(7)
O4 P2 C17 . . 115.3(8)
O7 P2 C17 . . 109.0(6)
O9 P5 O10 . . 109.6(5)
O9 P5 C14 . . 109.5(3)
O9 P5 O23 . . 109.2(6)
O10 P5 C14 . . 115.1(5)
O10 P5 O23 . . 109.5(5)
C14 P5 O23 . . 103.7(5)
P2 O7 Al6 . 2_556 143.4(8)
O11 P8 O12 . . 105.9(10)
O11 P8 C19 . . 101.2(5)
O11 P8 O22 . . 119.2(10)
O12 P8 C19 . . 99.3(7)
O12 P8 O22 . . 122.6(9)
C19 P8 O22 . . 104.3(7)
Al1 O9 P5 . . 145.1(6)
C14 C13 C18 . . 120.7(6)
C14 C13 H13 . . 119.6615
C18 C13 H13 . . 119.6424
P5 C14 C13 . . 114.6(4)
P5 C14 C15 . . 125.5(5)
C13 C14 C15 . . 119.9(6)
C14 C15 C16 . . 120.1(7)
C14 C15 H15 . . 120.0426
C16 C15 H15 . . 119.8736
C15 C16 C17 . . 120.0(6)
C15 C16 H16 . . 119.9393
C17 C16 H16 . . 120.0883
P2 C17 C16 . . 116.1(5)
P2 C17 C18 . . 124.0(7)
C16 C17 C18 . . 119.9(6)
C13 C18 C17 . . 119.4(7)
C13 C18 H18 . . 120.3515
C17 C18 H18 . . 120.2405
P8 C19 C20 . . 120.0(4)
P8 C19 C21 . . 120.0(4)
C20 C19 C21 . . 120.0(3)
C19 C20 C21 . 2_545 120.1(6)
C19 C20 H20 . . 120.0014
C21 C20 H20 2_545 . 119.9312
C19 C21 C20 . 2_545 119.9(6)
C19 C21 H21 . . 119.9735
C20 C21 H21 2_545 . 120.0946
loop_
_geom_bond_atom_site_label_1
_geom_bond_atom_site_label_2
_geom_bond_site_symmetry_2
_geom_bond_distance
Al1 O9 . 1.696(12)
P2 O3 . 1.552(12)
P2 O4 . 1.551(11)
P2 O7 . 1.550(13)
P2 C17 . 1.782(8)
P5 O9 . 1.549(8)
P5 O10 . 1.553(8)
P5 C14 . 1.809(7)
P5 O23 . 1.561(8)
Al6 O7 2_556 1.696(12)
P8 O11 . 1.551(13)
P8 O12 . 1.552(15)
P8 C19 . 1.824(7)
P8 O22 . 1.550(18)
C13 C14 . 1.395(10)
C13 C18 . 1.399(9)
C13 H13 . 0.9609
C14 C15 . 1.381(8)
C15 C16 . 1.402(11)
C15 H15 . 0.9624
C16 C17 . 1.403(13)
C16 H16 . 0.9609
C17 C18 . 1.394(9)
C18 H18 . 0.9611
C19 C20 . 1.388(7)
C19 C21 . 1.390(7)
C20 C21 2_545 1.389(5)
C20 H20 . 0.9605
C21 H21 . 0.9595
loop_
_geom_hbond_atom_site_label_D
_geom_hbond_atom_site_label_H
_geom_hbond_atom_site_label_A
_geom_hbond_site_symmetry_A
_geom_hbond_distance_DH
_geom_hbond_distance_HA
_geom_hbond_distance_DA
_geom_hbond_angle_DHA
C15 H15 C15 2_666 0.96 2.16 2.659(12) 110.93
C15 H15 C16 2_666 0.96 2.17 2.908(12) 132.67
C18 H18 O10 2_556 0.96 2.45 3.297(15) 147.58
C18 H18 C13 2_556 0.96 2.48 2.972(10) 111.89
C13 H13 C13 2_556 0.96 2.43 2.953(9) 114.07
C13 H13 C18 2_556 0.96 2.16 2.972(10) 141.07
loop_
_pd_proc_point_id
_pd_proc_2theta_corrected
_pd_proc_intensity_net
_pd_calc_intensity_net
_pd_proc_ls_weight
1 1.1060 399.11 482.44 19.98
2 1.1070 430.34 481.86 20.74
3 1.1080 391.05 481.30 19.77
4 1.1090 452.17 480.75 21.26
5 1.1100 454.36 480.21 21.32
6 1.1110 449.78 479.69 21.21
7 1.1120 425.76 479.18 20.63
8 1.1130 417.25 478.67 20.43
9 1.1140 411.45 478.19 20.28
10 1.1150 418.82 477.71 20.47
11 1.1160 415.62 477.25 20.39
12 1.1170 450.79 476.80 21.23
13 1.1180 451.36 476.37 21.25
14 1.1190 446.02 475.94 21.12
15 1.1200 419.57 475.54 20.48
16 1.1210 428.49 475.14 20.70
17 1.1220 434.26 474.77 20.84
18 1.1230 441.47 474.40 21.01
19 1.1240 436.71 474.05 20.90
20 1.1250 461.36 473.72 21.48
21 1.1260 447.32 473.40 21.15
22 1.1270 438.48 473.10 20.94
23 1.1280 450.84 472.82 21.23
24 1.1290 498.10 472.55 22.32
25 1.1300 465.51 472.30 21.58
26 1.1310 455.14 472.06 21.33
27 1.1320 422.14 471.84 20.55
28 1.1330 413.90 471.64 20.34
29 1.1340 430.39 471.46 20.75
30 1.1350 501.01 471.30 22.38
31 1.1360 442.18 471.15 21.03
32 1.1370 445.39 471.03 21.10
33 1.1380 458.89 470.93 21.42
34 1.1390 438.87 470.84 20.95
35 1.1400 439.89 470.78 20.97
36 1.1410 437.68 470.74 20.92
37 1.1420 474.35 470.72 21.78
38 1.1430 414.65 470.72 20.36
39 1.1440 460.08 470.75 21.45
40 1.1450 454.57 470.79 21.32
41 1.1460 440.58 470.87 20.99
42 1.1470 423.77 470.96 20.59
43 1.1480 447.94 471.08 21.16
44 1.1490 499.34 471.23 22.35
45 1.1500 461.87 471.41 21.49
46 1.1510 453.50 471.61 21.30
47 1.1520 489.98 471.84 22.14
48 1.1530 466.45 472.10 21.60
49 1.1540 490.45 472.38 22.15
50 1.1550 484.76 472.70 22.02
51 1.1560 453.68 473.05 21.30
52 1.1570 509.82 473.43 22.58
53 1.1580 474.86 473.84 21.79
54 1.1590 519.29 474.29 22.79
55 1.1600 497.70 474.77 22.31
56 1.1610 414.07 475.29 20.35
57 1.1620 465.26 475.84 21.57
58 1.1630 507.91 476.43 22.54
59 1.1640 481.51 477.07 21.94
60 1.1650 513.78 477.74 22.67
61 1.1660 482.13 478.45 21.96
62 1.1670 496.93 479.21 22.29
63 1.1680 497.37 480.01 22.30
64 1.1690 456.12 480.85 21.36
65 1.1700 506.53 481.75 22.51
66 1.1710 517.71 482.69 22.75
67 1.1720 523.65 483.68 22.88
68 1.1730 499.79 484.72 22.36
69 1.1740 552.27 485.82 23.50
70 1.1750 518.64 486.98 22.77
71 1.1760 573.95 488.19 23.96
72 1.1770 563.39 489.46 23.74
73 1.1780 555.45 490.79 23.57
74 1.1790 543.66 492.19 23.32
75 1.1800 519.91 493.65 22.80
76 1.1810 491.40 495.18 22.17
77 1.1820 553.75 496.78 23.53
78 1.1830 514.78 498.46 22.69
79 1.1840 546.51 500.22 23.38
80 1.1850 593.06 502.05 24.35
81 1.1860 529.24 503.97 23.01
82 1.1870 559.90 505.97 23.66
83 1.1880 589.26 508.06 24.27
84 1.1890 538.79 510.25 23.21
85 1.1900 568.19 512.54 23.84
86 1.1910 557.96 514.92 23.62
87 1.1920 553.20 517.41 23.52
88 1.1930 559.84 520.02 23.66
89 1.1940 567.24 522.73 23.82
90 1.1950 656.84 525.57 25.63
91 1.1960 636.57 528.53 25.23
92 1.1970 560.44 531.63 23.67
93 1.1980 589.27 534.86 24.27
94 1.1990 580.58 538.24 24.10
95 1.2000 634.22 541.77 25.18
96 1.2010 680.39 545.46 26.08
97 1.2020 707.09 549.32 26.59
98 1.2030 685.93 553.36 26.19
99 1.2040 635.47 557.58 25.21
100 1.2050 752.07 562.01 27.42
101 1.2060 665.51 566.65 25.80
102 1.2070 659.67 571.51 25.68
103 1.2080 641.90 576.62 25.34
104 1.2090 706.78 581.99 26.59
105 1.2100 702.64 587.64 26.51
106 1.2110 681.20 593.59 26.10
107 1.2120 695.34 599.88 26.37
108 1.2130 730.27 606.53 27.02
109 1.2140 702.55 613.58 26.51
110 1.2150 707.62 621.07 26.60
111 1.2160 733.21 629.04 27.08
112 1.2170 771.36 637.56 27.77
113 1.2180 773.63 646.69 27.81
114 1.2190 785.79 656.50 28.03
115 1.2200 762.49 667.07 27.61
116 1.2210 874.52 678.52 29.57
117 1.2220 898.59 690.94 29.98
118 1.2230 849.75 704.47 29.15
119 1.2240 898.83 719.27 29.98
120 1.2250 872.70 735.51 29.54
121 1.2260 925.04 753.37 30.41
122 1.2270 1006.89 773.08 31.73
123 1.2280 982.77 794.90 31.35
124 1.2290 1050.79 819.09 32.42
125 1.2300 1079.17 845.97 32.85
126 1.2310 1119.29 875.90 33.46
127 1.2320 1168.64 909.24 34.19
128 1.2330 1221.04 946.44 34.94
129 1.2340 1219.61 987.93 34.92
130 1.2350 1338.29 1034.23 36.58
131 1.2360 1387.94 1085.86 37.26
132 1.2370 1480.06 1143.40 38.47
133 1.2380 1587.34 1207.46 39.84
134 1.2390 1567.89 1278.66 39.60
135 1.2400 1618.46 1357.68 40.23
136 1.2410 1795.78 1445.18 42.38
137 1.2420 1965.47 1541.89 44.33
138 1.2430 1997.66 1648.50 44.70
139 1.2440 2070.01 1765.66 45.50
140 1.2450 2238.40 1894.12 47.31
141 1.2460 2287.57 2034.47 47.83
142 1.2470 2491.45 2187.33 49.91
143 1.2480 2693.77 2353.26 51.90
144 1.2490 2966.60 2532.73 54.47
145 1.2500 3036.42 2726.13 55.10
146 1.2510 3397.67 2933.77 58.29
147 1.2520 3473.90 3155.75 58.94
148 1.2530 3680.44 3392.14 60.67
149 1.2540 3797.38 3642.79 61.62
150 1.2550 4113.78 3907.43 64.14
151 1.2560 4254.18 4185.59 65.22
152 1.2570 4594.93 4476.52 67.79
153 1.2580 4823.23 4779.45 69.45
154 1.2590 5382.27 5093.16 73.36
155 1.2600 5566.32 5416.45 74.61
156 1.2610 5909.07 5747.68 76.87
157 1.2620 6282.29 6084.96 79.26
158 1.2630 6644.81 6426.36 81.52
159 1.2640 6721.26 6769.39 81.98
160 1.2650 7150.92 7111.58 84.56
161 1.2660 7442.03 7449.95 86.27
162 1.2670 7779.77 7781.40 88.20
163 1.2680 8310.55 8102.56 91.16
164 1.2690 8374.60 8409.77 91.51
165 1.2700 8403.57 8699.24 91.67
166 1.2710 8862.70 8967.08 94.14
167 1.2720 9313.71 9209.34 96.51
168 1.2730 9529.12 9422.17 97.62
169 1.2740 9655.39 9601.92 98.26
170 1.2750 9725.24 9745.27 98.62
171 1.2760 10006.70 9849.54 100.03
172 1.2770 10063.30 9912.58 100.32
173 1.2780 10065.70 9933.12 100.33
174 1.2790 9930.92 9910.70 99.65
175 1.2800 9683.04 9845.80 98.40
176 1.2810 9741.66 9739.71 98.70
177 1.2820 9696.61 9594.58 98.47
178 1.2830 9450.23 9413.11 97.21
179 1.2840 9193.65 9198.64 95.88
180 1.2850 8957.96 8954.80 94.65
181 1.2860 8681.34 8685.43 93.17
182 1.2870 8120.14 8394.56 90.11
183 1.2880 7703.61 8085.98 87.77
184 1.2890 7505.33 7763.58 86.63
185 1.2900 6838.01 7430.93 82.69
186 1.2910 6465.36 7091.41 80.41
187 1.2920 6130.12 6748.18 78.30
188 1.2930 5930.33 6404.09 77.01
189 1.2940 5654.19 6061.71 75.19
190 1.2950 5194.80 5723.49 72.07
191 1.2960 4920.86 5391.36 70.15
192 1.2970 4527.66 5067.21 67.29
193 1.2980 4240.37 4752.66 65.12
194 1.2990 3829.42 4448.91 61.88
195 1.3000 3674.40 4157.19 60.62
196 1.3010 3363.87 3878.25 58.00
197 1.3020 3058.70 3612.84 55.31
198 1.3030 3024.68 3361.42 55.00
199 1.3040 2694.87 3124.25 51.91
200 1.3050 2419.98 2901.53 49.19
201 1.3060 2353.07 2693.14 48.51
202 1.3070 2265.86 2498.97 47.60
203 1.3080 2117.74 2318.73 46.02
204 1.3090 1895.02 2152.02 43.53
205 1.3100 1813.58 1998.36 42.59
206 1.3110 1688.73 1857.20 41.09
207 1.3120 1619.02 1727.93 40.24
208 1.3130 1522.20 1609.92 39.02
209 1.3140 1582.14 1502.49 39.78
210 1.3150 1432.73 1404.92 37.85
211 1.3160 1279.68 1316.54 35.77
212 1.3170 1244.13 1236.63 35.27
213 1.3180 1212.92 1164.53 34.83
214 1.3190 1074.90 1099.55 32.79
215 1.3200 1057.50 1041.08 32.52
216 1.3210 1051.66 988.51 32.43
217 1.3220 917.56 941.26 30.29
218 1.3230 924.08 898.80 30.40
219 1.3240 826.83 860.64 28.75
220 1.3250 792.24 826.31 28.15
221 1.3260 814.61 795.39 28.54
222 1.3270 831.54 767.51 28.84
223 1.3280 763.57 742.31 27.63
224 1.3290 684.98 719.48 26.17
225 1.3300 632.36 698.74 25.15
226 1.3310 697.97 679.86 26.42
227 1.3320 656.26 662.60 25.62
228 1.3330 626.08 646.76 25.02
229 1.3340 569.45 632.19 23.86
230 1.3350 624.44 618.72 24.99
231 1.3360 578.83 606.23 24.06
232 1.3370 620.18 594.61 24.90
233 1.3380 508.96 583.75 22.56
234 1.3390 527.98 573.57 22.98
235 1.3400 536.84 563.99 23.17
236 1.3410 538.07 554.96 23.20
237 1.3420 490.85 546.40 22.16
238 1.3430 509.34 538.29 22.57
239 1.3440 462.02 530.58 21.49
240 1.3450 481.67 523.22 21.95
241 1.3460 470.07 516.20 21.68
242 1.3470 428.78 509.48 20.71
243 1.3480 443.77 503.04 21.07
244 1.3490 410.17 496.86 20.25
245 1.3500 432.65 490.92 20.80
246 1.3510 442.89 485.21 21.05
247 1.3520 461.31 479.70 21.48
248 1.3530 426.83 474.40 20.66
249 1.3540 395.55 469.28 19.89
250 1.3550 369.52 464.34 19.22
251 1.3560 360.52 459.57 18.99
252 1.3570 397.76 454.95 19.94
253 1.3580 376.66 450.49 19.41
254 1.3590 404.83 446.17 20.12
255 1.3600 371.52 441.98 19.27
256 1.3610 409.85 437.92 20.24
257 1.3620 417.59 433.99 20.43
258 1.3630 421.31 430.18 20.53
259 1.3640 349.97 426.48 18.71
260 1.3650 408.81 422.89 20.22
261 1.3660 353.64 419.41 18.81
262 1.3670 350.21 416.02 18.71
263 1.3680 350.95 412.73 18.73
264 1.3690 350.42 409.54 18.72
265 1.3700 336.87 406.43 18.35
266 1.3710 348.20 403.40 18.66
267 1.3720 352.95 400.46 18.79
268 1.3730 379.35 397.59 19.48
269 1.3740 381.76 394.80 19.54
270 1.3750 350.04 392.09 18.71
271 1.3760 320.69 389.44 17.91
272 1.3770 317.95 386.86 17.83
273 1.3780 301.68 384.34 17.37
274 1.3790 293.43 381.89 17.13
275 1.3800 321.79 379.49 17.94
276 1.3810 289.48 377.16 17.01
277 1.3820 306.99 374.88 17.52
278 1.3830 348.27 372.65 18.66
279 1.3840 321.81 370.48 17.94
280 1.3850 324.94 368.36 18.03
281 1.3860 278.75 366.28 16.70
282 1.3870 312.67 364.25 17.68
283 1.3880 309.69 362.27 17.60
284 1.3890 307.62 360.33 17.54
285 1.3900 322.29 358.43 17.95
286 1.3910 339.43 356.57 18.42
287 1.3920 341.59 354.76 18.48
288 1.3930 313.68 352.98 17.71
289 1.3940 303.14 351.23 17.41
290 1.3950 303.22 349.53 17.41
291 1.3960 316.20 347.86 17.78
292 1.3970 315.73 346.22 17.77
293 1.3980 321.35 344.61 17.93
294 1.3990 253.87 343.04 15.93
295 1.4000 315.02 341.50 17.75
296 1.4010 302.47 339.98 17.39
297 1.4020 289.05 338.50 17.00
298 1.4030 280.86 337.05 16.76
299 1.4040 304.80 335.62 17.46
300 1.4050 323.58 334.21 17.99
301 1.4060 302.09 332.84 17.38
302 1.4070 286.12 331.48 16.92
303 1.4080 290.42 330.16 17.04
304 1.4090 331.07 328.85 18.20
305 1.4100 299.59 327.57 17.31
306 1.4110 295.21 326.31 17.18
307 1.4120 307.72 325.08 17.54
308 1.4130 309.28 323.86 17.59
309 1.4140 264.05 322.66 16.25
310 1.4150 268.29 321.49 16.38
311 1.4160 280.03 320.33 16.73
312 1.4170 336.77 319.19 18.35
313 1.4180 270.96 318.07 16.46
314 1.4190 243.37 316.97 15.60
315 1.4200 222.94 315.89 14.93
316 1.4210 266.28 314.82 16.32
317 1.4220 260.40 313.77 16.14
318 1.4230 270.55 312.73 16.45
319 1.4240 271.52 311.71 16.48
320 1.4250 314.85 310.71 17.74
321 1.4260 295.75 309.72 17.20
322 1.4270 292.18 308.74 17.09
323 1.4280 289.67 307.79 17.02
324 1.4290 256.79 306.84 16.02
325 1.4300 282.47 305.91 16.81
326 1.4310 296.75 304.99 17.23
327 1.4320 279.77 304.08 16.73
328 1.4330 257.46 303.19 16.05
329 1.4340 268.58 302.30 16.39
330 1.4350 280.33 301.43 16.74
331 1.4360 270.31 300.58 16.44
332 1.4370 282.20 299.73 16.80
333 1.4380 281.31 298.89 16.77
334 1.4390 247.82 298.07 15.74
335 1.4400 289.41 297.26 17.01
336 1.4410 274.57 296.45 16.57
337 1.4420 268.73 295.66 16.39
338 1.4430 295.04 294.88 17.18
339 1.4440 266.76 294.11 16.33
340 1.4450 294.72 293.34 17.17
341 1.4460 275.83 292.59 16.61
342 1.4470 285.57 291.84 16.90
343 1.4480 268.18 291.11 16.38
344 1.4490 271.82 290.38 16.49
345 1.4500 278.23 289.66 16.68
346 1.4510 284.38 288.95 16.86
347 1.4520 274.85 288.25 16.58
348 1.4530 248.85 287.56 15.77
349 1.4540 288.85 286.87 17.00
350 1.4550 320.32 286.19 17.90
351 1.4560 302.61 285.52 17.40
352 1.4570 269.85 284.86 16.43
353 1.4580 282.10 284.20 16.80
354 1.4590 265.25 283.55 16.29
355 1.4600 289.47 282.91 17.01
356 1.4610 251.54 282.28 15.86
357 1.4620 265.10 281.65 16.28
358 1.4630 297.51 281.03 17.25
359 1.4640 285.16 280.42 16.89
360 1.4650 254.58 279.81 15.96
361 1.4660 255.98 279.21 16.00
362 1.4670 226.04 278.61 15.03
363 1.4680 288.90 278.02 17.00
364 1.4690 267.71 277.44 16.36
365 1.4700 271.42 276.86 16.47
366 1.4710 273.64 276.29 16.54
367 1.4720 250.32 275.72 15.82
368 1.4730 292.44 275.16 17.10
369 1.4740 265.18 274.60 16.28
370 1.4750 244.26 274.05 15.63
371 1.4760 283.52 273.51 16.84
372 1.4770 296.14 272.97 17.21
373 1.4780 282.87 272.43 16.82
374 1.4790 274.16 271.90 16.56
375 1.4800 287.48 271.38 16.96
376 1.4810 291.07 270.86 17.06
377 1.4820 267.34 270.34 16.35
378 1.4830 289.02 269.83 17.00
379 1.4840 247.68 269.33 15.74
380 1.4850 243.23 268.83 15.60
381 1.4860 277.42 268.33 16.66
382 1.4870 283.26 267.83 16.83
383 1.4880 244.66 267.35 15.64
384 1.4890 299.62 266.86 17.31
385 1.4900 276.67 266.38 16.63
386 1.4910 254.73 265.90 15.96
387 1.4920 258.46 265.43 16.08
388 1.4930 259.90 264.96 16.12
389 1.4940 250.81 264.50 15.84
390 1.4950 235.89 264.04 15.36
391 1.4960 271.85 263.58 16.49
392 1.4970 280.77 263.13 16.76
393 1.4980 246.39 262.68 15.70
394 1.4990 234.09 262.23 15.30
395 1.5000 253.54 261.79 15.92
396 1.5010 256.94 261.35 16.03
397 1.5020 255.82 260.91 15.99
398 1.5030 253.72 260.48 15.93
399 1.5040 241.23 260.05 15.53
400 1.5050 229.39 259.63 15.15
401 1.5060 269.58 259.20 16.42
402 1.5070 267.08 258.78 16.34
403 1.5080 270.02 258.37 16.43
404 1.5090 273.53 257.95 16.54
405 1.5100 277.08 257.55 16.65
406 1.5110 249.24 257.14 15.79
407 1.5120 247.94 256.73 15.75
408 1.5130 240.11 256.33 15.50
409 1.5140 226.95 255.93 15.06
410 1.5150 254.57 255.54 15.96
411 1.5160 311.13 255.15 17.64
412 1.5170 247.30 254.76 15.73
413 1.5180 266.66 254.37 16.33
414 1.5190 253.40 253.98 15.92
415 1.5200 245.15 253.60 15.66
416 1.5210 227.54 253.22 15.08
417 1.5220 265.69 252.85 16.30
418 1.5230 231.44 252.47 15.21
419 1.5240 239.79 252.10 15.49
420 1.5250 250.66 251.73 15.83
421 1.5260 283.30 251.36 16.83
422 1.5270 265.53 251.00 16.30
423 1.5280 249.57 250.64 15.80
424 1.5290 268.69 250.28 16.39
425 1.5300 263.27 249.92 16.23
426 1.5310 239.07 249.57 15.46
427 1.5320 251.55 249.21 15.86
428 1.5330 285.26 248.86 16.89
429 1.5340 255.49 248.51 15.98
430 1.5350 241.05 248.17 15.53
431 1.5360 232.95 247.82 15.26
432 1.5370 250.72 247.48 15.83
433 1.5380 281.32 247.14 16.77
434 1.5390 287.99 246.80 16.97
435 1.5400 251.91 246.47 15.87
436 1.5410 237.90 246.13 15.42
437 1.5420 231.06 245.80 15.20
438 1.5430 224.95 245.47 15.00
439 1.5440 258.69 245.15 16.08
440 1.5450 224.81 244.82 14.99
441 1.5460 250.44 244.49 15.83
442 1.5470 243.90 244.17 15.62
443 1.5480 244.59 243.85 15.64
444 1.5490 283.95 243.54 16.85
445 1.5500 246.67 243.22 15.71
446 1.5510 221.29 242.90 14.88
447 1.5520 258.52 242.59 16.08
448 1.5530 245.88 242.28 15.68
449 1.5540 241.47 241.97 15.54
450 1.5550 283.43 241.66 16.84
451 1.5560 279.51 241.35 16.72
452 1.5570 232.61 241.05 15.25
453 1.5580 302.02 240.75 17.38
454 1.5590 271.04 240.45 16.46
455 1.5600 249.63 240.15 15.80
456 1.5610 237.37 239.85 15.41
457 1.5620 248.92 239.55 15.78
458 1.5630 271.38 239.26 16.47
459 1.5640 223.89 238.96 14.96
460 1.5650 272.18 238.67 16.50
461 1.5660 255.67 238.38 15.99
462 1.5670 212.78 238.09 14.59
463 1.5680 276.73 237.81 16.64
464 1.5690 247.37 237.52 15.73
465 1.5700 254.96 237.24 15.97
466 1.5710 229.29 236.95 15.14
467 1.5720 244.50 236.67 15.64
468 1.5730 243.33 236.39 15.60
469 1.5740 280.97 236.11 16.76
470 1.5750 241.48 235.84 15.54
471 1.5760 235.66 235.56 15.35
472 1.5770 249.39 235.29 15.79
473 1.5780 235.33 235.01 15.34
474 1.5790 253.88 234.74 15.93
475 1.5800 261.26 221.99 16.16
476 1.5810 240.13 221.81 15.50
477 1.5820 223.57 221.62 14.95
478 1.5830 248.14 221.43 15.75
479 1.5840 255.92 221.25 16.00
480 1.5850 252.18 221.06 15.88
481 1.5860 276.01 220.88 16.61
482 1.5870 230.86 220.69 15.19
483 1.5880 268.59 220.51 16.39
484 1.5890 250.80 220.32 15.84
485 1.5900 256.64 220.14 16.02
486 1.5910 258.58 219.96 16.08
487 1.5920 241.28 219.78 15.53
488 1.5930 215.34 219.59 14.67
489 1.5940 201.45 219.41 14.19
490 1.5950 226.56 219.23 15.05
491 1.5960 241.73 219.05 15.55
492 1.5970 287.09 218.87 16.94
493 1.5980 246.58 218.69 15.70
494 1.5990 251.80 218.51 15.87
495 1.6000 245.95 218.33 15.68
496 1.6010 236.90 218.15 15.39
497 1.6020 259.44 217.98 16.11
498 1.6030 239.06 217.80 15.46
499 1.6040 239.66 217.62 15.48
500 1.6050 235.85 217.44 15.36
501 1.6060 254.24 217.27 15.94
502 1.6070 215.59 217.09 14.68
503 1.6080 212.07 216.92 14.56
504 1.6090 241.09 216.74 15.53
505 1.6100 262.30 216.57 16.20
506 1.6110 256.43 216.39 16.01
507 1.6120 222.00 216.22 14.90
508 1.6130 258.08 216.04 16.06
509 1.6140 252.66 215.87 15.90
510 1.6150 212.22 215.70 14.57
511 1.6160 206.55 215.53 14.37
512 1.6170 210.71 215.35 14.52
513 1.6180 206.72 215.18 14.38
514 1.6190 201.00 215.01 14.18
515 1.6200 239.32 214.84 15.47
516 1.6210 233.77 214.67 15.29
517 1.6220 213.52 214.50 14.61
518 1.6230 262.34 214.33 16.20
519 1.6240 233.87 214.16 15.29
520 1.6250 244.42 213.99 15.63
521 1.6260 231.40 213.82 15.21
522 1.6270 250.12 213.66 15.82
523 1.6280 269.37 213.49 16.41
524 1.6290 248.09 213.32 15.75
525 1.6300 239.05 213.15 15.46
526 1.6310 241.47 212.99 15.54
527 1.6320 223.22 212.82 14.94
528 1.6330 228.85 212.65 15.13
529 1.6340 238.03 212.49 15.43
530 1.6350 229.26 212.32 15.14
531 1.6360 214.35 212.16 14.64
532 1.6370 218.64 211.99 14.79
533 1.6380 231.45 211.83 15.21
534 1.6390 226.65 211.67 15.05
535 1.6400 236.26 211.50 15.37
536 1.6410 199.09 211.34 14.11
537 1.6420 243.14 211.18 15.59
538 1.6430 224.11 211.01 14.97
539 1.6440 252.51 210.85 15.89
540 1.6450 241.38 210.69 15.54
541 1.6460 245.76 210.53 15.68
542 1.6470 252.74 210.37 15.90
543 1.6480 224.95 210.21 15.00
544 1.6490 207.93 210.05 14.42
545 1.6500 220.58 209.89 14.85
546 1.6510 216.68 209.73 14.72
547 1.6520 244.23 209.57 15.63
548 1.6530 219.20 209.41 14.81
549 1.6540 239.84 209.25 15.49
550 1.6550 224.30 209.09 14.98
551 1.6560 230.73 208.93 15.19
552 1.6570 242.52 208.78 15.57
553 1.6580 223.84 208.62 14.96
554 1.6590 238.88 208.46 15.46
555 1.6600 249.63 208.30 15.80
556 1.6610 230.23 208.15 15.17
557 1.6620 200.88 207.99 14.17
558 1.6630 212.47 207.84 14.58
559 1.6640 177.80 207.68 13.33
560 1.6650 232.15 207.53 15.24
561 1.6660 240.73 207.37 15.52
562 1.6670 213.49 207.22 14.61
563 1.6680 225.35 207.06 15.01
564 1.6690 231.93 206.91 15.23
565 1.6700 222.65 206.75 14.92
566 1.6710 219.76 206.60 14.82
567 1.6720 211.32 206.45 14.54
568 1.6730 268.86 206.29 16.40
569 1.6740 228.44 206.14 15.11
570 1.6750 201.25 205.99 14.19
571 1.6760 213.28 205.84 14.60
572 1.6770 189.70 205.68 13.77
573 1.6780 186.84 205.53 13.67
574 1.6790 247.63 205.38 15.74
575 1.6800 219.93 205.23 14.83
576 1.6810 237.17 205.08 15.40
577 1.6820 191.52 204.93 13.84
578 1.6830 176.72 204.78 13.29
579 1.6840 195.80 204.63 13.99
580 1.6850 197.99 204.48 14.07
581 1.6860 242.16 204.33 15.56
582 1.6870 190.97 204.18 13.82
583 1.6880 212.26 204.03 14.57
584 1.6890 206.67 203.89 14.38
585 1.6900 222.54 203.74 14.92
586 1.6910 229.85 203.59 15.16
587 1.6920 215.80 203.44 14.69
588 1.6930 214.13 203.29 14.63
589 1.6940 226.86 203.15 15.06
590 1.6950 254.47 203.00 15.95
591 1.6960 193.74 202.85 13.92
592 1.6970 214.74 202.71 14.65
593 1.6980 210.56 202.56 14.51
594 1.6990 216.96 202.41 14.73
595 1.7000 199.24 202.27 14.12
596 1.7010 189.82 202.12 13.78
597 1.7020 175.05 201.98 13.23
598 1.7030 219.14 201.83 14.80
599 1.7040 227.62 201.69 15.09
600 1.7050 216.55 201.54 14.72
601 1.7060 223.86 201.40 14.96
602 1.7070 245.02 201.26 15.65
603 1.7080 226.85 201.11 15.06
604 1.7090 242.25 200.97 15.56
605 1.7100 230.84 200.83 15.19
606 1.7110 249.29 200.68 15.79
607 1.7120 226.37 200.54 15.05
608 1.7130 207.55 200.40 14.41
609 1.7140 241.34 200.26 15.54
610 1.7150 211.80 200.11 14.55
611 1.7160 205.32 199.97 14.33
612 1.7170 204.55 199.83 14.30
613 1.7180 211.38 199.69 14.54
614 1.7190 192.22 199.55 13.86
615 1.7200 191.16 199.41 13.83
616 1.7210 184.55 199.27 13.58
617 1.7220 209.68 199.13 14.48
618 1.7230 216.17 198.99 14.70
619 1.7240 211.14 198.85 14.53
620 1.7250 171.95 198.71 13.11
621 1.7260 196.42 198.57 14.02
622 1.7270 198.39 198.43 14.09
623 1.7280 202.08 198.29 14.22
624 1.7290 213.75 198.15 14.62
625 1.7300 213.79 198.01 14.62
626 1.7310 202.55 197.87 14.23
627 1.7320 185.11 197.73 13.61
628 1.7330 214.37 197.60 14.64
629 1.7340 183.48 197.46 13.55
630 1.7350 205.56 197.32 14.34
631 1.7360 217.51 197.18 14.75
632 1.7370 214.93 197.05 14.66
633 1.7380 194.41 196.91 13.94
634 1.7390 197.56 196.77 14.06
635 1.7400 179.19 196.64 13.39
636 1.7410 203.95 196.50 14.28
637 1.7420 210.88 196.36 14.52
638 1.7430 199.92 196.23 14.14
639 1.7440 186.57 196.09 13.66
640 1.7450 220.47 195.96 14.85
641 1.7460 209.46 195.82 14.47
642 1.7470 204.91 195.68 14.31
643 1.7480 176.31 195.55 13.28
644 1.7490 202.41 195.41 14.23
645 1.7500 217.82 195.28 14.76
646 1.7510 212.33 195.15 14.57
647 1.7520 214.07 195.01 14.63
648 1.7530 216.81 194.88 14.72
649 1.7540 197.64 194.74 14.06
650 1.7550 223.75 194.61 14.96
651 1.7560 192.47 194.48 13.87
652 1.7570 206.54 194.34 14.37
653 1.7580 198.87 194.21 14.10
654 1.7590 188.01 194.08 13.71
655 1.7600 184.59 193.94 13.59
656 1.7610 172.97 193.81 13.15
657 1.7620 247.01 193.68 15.72
658 1.7630 198.93 193.55 14.10
659 1.7640 207.19 193.41 14.39
660 1.7650 191.43 193.28 13.84
661 1.7660 242.77 193.15 15.58
662 1.7670 181.45 193.02 13.47
663 1.7680 153.59 192.89 12.39
664 1.7690 195.52 192.76 13.98
665 1.7700 213.55 192.63 14.61
666 1.7710 197.37 192.50 14.05
667 1.7720 220.76 192.37 14.86
668 1.7730 230.11 192.23 15.17
669 1.7740 179.67 192.10 13.40
670 1.7750 207.22 191.97 14.40
671 1.7760 191.72 191.84 13.85
672 1.7770 173.45 191.71 13.17
673 1.7780 204.59 191.59 14.30
674 1.7790 195.09 191.46 13.97
675 1.7800 191.31 191.33 13.83
676 1.7810 220.71 191.20 14.86
677 1.7820 176.74 191.07 13.29
678 1.7830 198.99 190.94 14.11
679 1.7840 161.61 190.81 12.71
680 1.7850 176.66 190.68 13.29
681 1.7860 162.23 190.55 12.74
682 1.7870 193.30 190.43 13.90
683 1.7880 179.56 190.30 13.40
684 1.7890 186.10 190.17 13.64
685 1.7900 168.86 190.04 12.99
686 1.7910 184.16 189.91 13.57
687 1.7920 180.94 189.79 13.45
688 1.7930 160.26 189.66 12.66
689 1.7940 201.74 189.53 14.20
690 1.7950 222.80 189.40 14.93
691 1.7960 199.43 189.28 14.12
692 1.7970 195.67 189.15 13.99
693 1.7980 181.74 189.03 13.48
694 1.7990 171.17 188.90 13.08
695 1.8000 198.29 188.77 14.08
696 1.8010 192.17 188.65 13.86
697 1.8020 190.67 188.52 13.81
698 1.8030 181.10 188.40 13.46
699 1.8040 186.57 188.27 13.66
700 1.8050 192.73 188.14 13.88
701 1.8060 205.85 188.02 14.35
702 1.8070 205.13 187.89 14.32
703 1.8080 183.27 187.77 13.54
704 1.8090 176.46 187.64 13.28
705 1.8100 216.76 187.52 14.72
706 1.8110 188.34 187.40 13.72
707 1.8120 166.23 187.27 12.89
708 1.8130 178.92 187.15 13.38
709 1.8140 208.55 187.02 14.44
710 1.8150 187.18 186.90 13.68
711 1.8160 193.95 186.77 13.93
712 1.8170 194.95 186.65 13.96
713 1.8180 183.69 186.53 13.55
714 1.8190 206.04 186.40 14.35
715 1.8200 202.38 186.28 14.23
716 1.8210 217.23 186.16 14.74
717 1.8220 190.15 186.03 13.79
718 1.8230 190.13 185.91 13.79
719 1.8240 178.03 185.79 13.34
720 1.8250 187.99 185.66 13.71
721 1.8260 164.00 185.54 12.81
722 1.8270 180.01 185.42 13.42
723 1.8280 216.91 185.30 14.73
724 1.8290 184.16 185.18 13.57
725 1.8300 174.15 185.05 13.20
726 1.8310 183.10 184.93 13.53
727 1.8320 232.34 184.81 15.24
728 1.8330 179.68 184.69 13.40
729 1.8340 197.80 184.57 14.06
730 1.8350 181.88 184.45 13.49
731 1.8360 185.78 184.32 13.63
732 1.8370 205.87 184.20 14.35
733 1.8380 196.84 184.08 14.03
734 1.8390 164.89 183.96 12.84
735 1.8400 186.43 183.84 13.65
736 1.8410 177.15 183.72 13.31
737 1.8420 146.18 183.60 12.09
738 1.8430 162.60 183.48 12.75
739 1.8440 162.93 183.36 12.76
740 1.8450 179.72 183.24 13.41
741 1.8460 184.06 183.12 13.57
742 1.8470 182.15 183.00 13.50
743 1.8480 168.39 182.88 12.98
744 1.8490 161.50 182.76 12.71
745 1.8500 193.92 182.64 13.93
746 1.8510 194.52 182.52 13.95
747 1.8520 191.80 182.40 13.85
748 1.8530 186.38 182.28 13.65
749 1.8540 154.77 182.16 12.44
750 1.8550 167.15 182.04 12.93
751 1.8560 180.95 181.93 13.45
752 1.8570 181.11 181.81 13.46
753 1.8580 225.85 181.69 15.03
754 1.8590 171.15 181.57 13.08
755 1.8600 167.02 181.45 12.92
756 1.8610 192.16 181.33 13.86
757 1.8620 180.68 181.21 13.44
758 1.8630 205.10 181.10 14.32
759 1.8640 188.79 180.98 13.74
760 1.8650 183.48 180.86 13.55
761 1.8660 193.03 180.74 13.89
762 1.8670 183.93 180.62 13.56
763 1.8680 208.34 180.51 14.43
764 1.8690 172.56 180.39 13.14
765 1.8700 155.93 180.27 12.49
766 1.8710 173.22 180.16 13.16
767 1.8720 191.48 180.04 13.84
768 1.8730 192.62 179.92 13.88
769 1.8740 177.07 179.80 13.31
770 1.8750 167.53 179.69 12.94
771 1.8760 184.13 179.57 13.57
772 1.8770 194.39 179.46 13.94
773 1.8780 195.54 179.34 13.98
774 1.8790 172.63 179.22 13.14
775 1.8800 172.71 179.11 13.14
776 1.8810 171.53 178.99 13.10
777 1.8820 178.96 178.87 13.38
778 1.8830 168.30 178.76 12.97
779 1.8840 191.38 178.64 13.83
780 1.8850 133.31 178.53 11.55
781 1.8860 145.14 178.41 12.05
782 1.8870 162.83 178.30 12.76
783 1.8880 153.02 178.18 12.37
784 1.8890 161.11 178.07 12.69
785 1.8900 169.12 177.95 13.00
786 1.8910 149.21 177.84 12.22
787 1.8920 208.30 177.72 14.43
788 1.8930 143.79 177.61 11.99
789 1.8940 163.83 177.49 12.80
790 1.8950 199.32 177.38 14.12
791 1.8960 197.77 177.26 14.06
792 1.8970 192.17 177.15 13.86
793 1.8980 161.92 177.03 12.72
794 1.8990 193.42 176.92 13.91
795 1.9000 165.52 176.80 12.87
796 1.9010 151.33 176.69 12.30
797 1.9020 179.88 176.58 13.41
798 1.9030 188.10 176.46 13.72
799 1.9040 208.53 176.35 14.44
800 1.9050 207.57 176.24 14.41
801 1.9060 204.24 176.12 14.29
802 1.9070 177.42 176.01 13.32
803 1.9080 182.54 175.90 13.51
804 1.9090 190.48 175.78 13.80
805 1.9100 182.43 175.67 13.51
806 1.9110 182.00 175.56 13.49
807 1.9120 167.41 175.44 12.94
808 1.9130 163.64 175.33 12.79
809 1.9140 170.35 175.22 13.05
810 1.9150 198.19 175.10 14.08
811 1.9160 152.83 174.99 12.36
812 1.9170 176.74 174.88 13.29
813 1.9180 174.55 174.77 13.21
814 1.9190 163.74 174.65 12.80
815 1.9200 159.50 174.54 12.63
816 1.9210 155.07 174.43 12.45
817 1.9220 188.96 174.32 13.75
818 1.9230 180.31 174.21 13.43
819 1.9240 151.34 174.10 12.30
820 1.9250 176.88 173.98 13.30
821 1.9260 164.85 173.87 12.84
822 1.9270 164.55 173.76 12.83
823 1.9280 171.44 173.65 13.09
824 1.9290 181.50 173.54 13.47
825 1.9300 193.28 173.43 13.90
826 1.9310 159.26 173.31 12.62
827 1.9320 163.27 173.20 12.78
828 1.9330 142.33 173.09 11.93
829 1.9340 158.04 172.98 12.57
830 1.9350 180.21 172.87 13.42
831 1.9360 175.30 172.76 13.24
832 1.9370 134.77 172.65 11.61
833 1.9380 177.88 172.54 13.34
834 1.9390 179.55 172.43 13.40
835 1.9400 164.84 172.32 12.84
836 1.9410 155.90 172.21 12.49
837 1.9420 158.31 172.10 12.58
838 1.9430 155.40 171.99 12.47
839 1.9440 174.54 171.88 13.21
840 1.9450 183.56 171.77 13.55
841 1.9460 148.87 171.66 12.20
842 1.9470 144.61 171.55 12.03
843 1.9480 172.50 171.44 13.13
844 1.9490 156.98 171.33 12.53
845 1.9500 145.32 171.22 12.05
846 1.9510 146.81 171.11 12.12
847 1.9520 173.39 171.00 13.17
848 1.9530 148.76 170.89 12.20
849 1.9540 168.35 170.78 12.98
850 1.9550 157.01 170.67 12.53
851 1.9560 193.52 170.56 13.91
852 1.9570 183.30 170.46 13.54
853 1.9580 175.47 170.35 13.25
854 1.9590 170.33 170.24 13.05
855 1.9600 175.13 170.13 13.23
856 1.9610 159.02 170.02 12.61
857 1.9620 166.34 169.91 12.90
858 1.9630 181.49 169.80 13.47
859 1.9640 148.75 169.70 12.20
860 1.9650 173.91 169.59 13.19
861 1.9660 196.11 169.48 14.00
862 1.9670 187.18 169.37 13.68
863 1.9680 152.24 169.26 12.34
864 1.9690 180.38 169.15 13.43
865 1.9700 176.63 169.05 13.29
866 1.9710 160.06 168.94 12.65
867 1.9720 190.53 168.83 13.80
868 1.9730 195.64 168.72 13.99
869 1.9740 201.69 168.62 14.20
870 1.9750 153.94 168.51 12.41
871 1.9760 148.90 168.40 12.20
872 1.9770 174.61 168.29 13.21
873 1.9780 169.36 168.19 13.01
874 1.9790 153.37 168.08 12.38
875 1.9800 168.87 167.97 12.99
876 1.9810 159.39 167.87 12.62
877 1.9820 170.73 167.76 13.07
878 1.9830 194.06 167.65 13.93
879 1.9840 175.53 167.55 13.25
880 1.9850 185.69 167.44 13.63
881 1.9860 157.40 167.33 12.55
882 1.9870 153.70 167.23 12.40
883 1.9880 137.59 167.12 11.73
884 1.9890 132.48 167.02 11.51
885 1.9900 156.23 166.91 12.50
886 1.9910 151.46 166.80 12.31
887 1.9920 144.22 166.70 12.01
888 1.9930 176.30 166.59 13.28
889 1.9940 166.11 166.49 12.89
890 1.9950 200.49 166.38 14.16
891 1.9960 154.27 166.27 12.42
892 1.9970 161.30 166.17 12.70
893 1.9980 180.00 166.06 13.42
894 1.9990 147.75 165.96 12.16
895 2.0000 142.98 165.85 11.96
896 2.0010 152.31 165.75 12.34
897 2.0020 175.92 165.64 13.26
898 2.0030 165.88 165.54 12.88
899 2.0040 151.28 165.43 12.30
900 2.0050 154.42 165.33 12.43
901 2.0060 167.50 165.22 12.94
902 2.0070 190.37 165.12 13.80
903 2.0080 189.53 165.01 13.77
904 2.0090 175.14 164.91 13.23
905 2.0100 160.90 164.80 12.68
906 2.0110 189.91 164.70 13.78
907 2.0120 173.77 164.60 13.18
908 2.0130 152.11 164.49 12.33
909 2.0140 145.42 164.39 12.06
910 2.0150 169.17 164.28 13.01
911 2.0160 188.90 164.18 13.74
912 2.0170 137.72 164.08 11.74
913 2.0180 181.02 163.97 13.45
914 2.0190 171.23 163.87 13.09
915 2.0200 152.92 163.76 12.37
916 2.0210 180.27 163.66 13.43
917 2.0220 170.36 163.56 13.05
918 2.0230 165.18 163.46 12.85
919 2.0240 150.10 163.35 12.25
920 2.0250 166.33 163.25 12.90
921 2.0260 166.57 163.15 12.91
922 2.0270 162.07 163.04 12.73
923 2.0280 155.13 162.94 12.46
924 2.0290 158.36 162.84 12.58
925 2.0300 149.18 162.73 12.21
926 2.0310 150.48 162.63 12.27
927 2.0320 170.93 162.53 13.07
928 2.0330 154.71 162.43 12.44
929 2.0340 164.29 162.32 12.82
930 2.0350 217.67 162.22 14.75
931 2.0360 168.07 162.12 12.96
932 2.0370 141.92 162.02 11.91
933 2.0380 164.66 161.91 12.83
934 2.0390 164.93 161.81 12.84
935 2.0400 150.65 161.71 12.27
936 2.0410 160.43 161.61 12.67
937 2.0420 172.13 161.51 13.12
938 2.0430 162.33 161.40 12.74
939 2.0440 175.87 161.30 13.26
940 2.0450 168.17 161.20 12.97
941 2.0460 182.49 161.10 13.51
942 2.0470 184.45 161.00 13.58
943 2.0480 170.18 160.90 13.05
944 2.0490 156.82 160.79 12.52
945 2.0500 180.50 160.69 13.44
946 2.0510 158.41 160.59 12.59
947 2.0520 149.48 160.49 12.23
948 2.0530 166.86 160.39 12.92
949 2.0540 154.25 160.29 12.42
950 2.0550 156.81 160.19 12.52
951 2.0560 140.39 160.09 11.85
952 2.0570 160.83 159.99 12.68
953 2.0580 158.06 159.89 12.57
954 2.0590 180.34 159.79 13.43
955 2.0600 170.63 159.69 13.06
956 2.0610 135.32 159.59 11.63
957 2.0620 162.12 159.49 12.73
958 2.0630 162.32 159.39 12.74
959 2.0640 140.67 159.29 11.86
960 2.0650 163.99 159.19 12.81
961 2.0660 178.60 159.09 13.36
962 2.0670 167.14 158.99 12.93
963 2.0680 164.65 158.89 12.83
964 2.0690 150.79 158.79 12.28
965 2.0700 149.97 158.69 12.25
966 2.0710 174.84 158.59 13.22
967 2.0720 187.70 158.49 13.70
968 2.0730 163.29 158.39 12.78
969 2.0740 155.66 158.29 12.48
970 2.0750 152.64 158.19 12.35
971 2.0760 161.58 158.09 12.71
972 2.0770 169.59 157.99 13.02
973 2.0780 177.66 157.90 13.33
974 2.0790 162.27 157.80 12.74
975 2.0800 164.28 157.70 12.82
976 2.0810 175.14 157.60 13.23
977 2.0820 156.02 157.50 12.49
978 2.0830 161.47 157.40 12.71
979 2.0840 164.04 157.30 12.81
980 2.0850 184.59 157.21 13.59
981 2.0860 191.45 157.11 13.84
982 2.0870 191.23 157.01 13.83
983 2.0880 152.03 156.91 12.33
984 2.0890 140.28 156.81 11.84
985 2.0900 156.52 156.71 12.51
986 2.0910 157.68 156.62 12.56
987 2.0920 165.20 156.52 12.85
988 2.0930 171.93 156.42 13.11
989 2.0940 175.20 156.32 13.24
990 2.0950 157.65 156.23 12.56
991 2.0960 163.03 156.13 12.77
992 2.0970 171.63 156.03 13.10
993 2.0980 180.51 155.93 13.44
994 2.0990 148.46 155.84 12.18
995 2.1000 181.41 155.74 13.47
996 2.1010 184.94 155.64 13.60
997 2.1020 181.78 155.55 13.48
998 2.1030 149.59 155.45 12.23
999 2.1040 164.86 155.35 12.84
1000 2.1050 160.96 155.26 12.69
1001 2.1060 177.42 155.16 13.32
1002 2.1070 169.43 155.06 13.02
1003 2.1080 144.24 154.97 12.01
1004 2.1090 157.67 154.87 12.56
1005 2.1100 139.55 154.77 11.81
1006 2.1110 158.55 154.68 12.59
1007 2.1120 166.92 154.58 12.92
1008 2.1130 156.93 154.49 12.53
1009 2.1140 155.02 154.39 12.45
1010 2.1150 157.53 154.29 12.55
1011 2.1160 165.29 154.20 12.86
1012 2.1170 139.70 154.10 11.82
1013 2.1180 125.48 154.01 11.20
1014 2.1190 158.78 153.91 12.60
1015 2.1200 157.10 153.82 12.53
1016 2.1210 159.32 153.72 12.62
1017 2.1220 160.11 153.63 12.65
1018 2.1230 141.66 153.53 11.90
1019 2.1240 141.82 153.44 11.91
1020 2.1250 144.84 153.34 12.03
1021 2.1260 133.23 153.25 11.54
1022 2.1270 138.06 153.15 11.75
1023 2.1280 137.70 153.06 11.73
1024 2.1290 113.05 152.96 10.63
1025 2.1300 151.32 152.87 12.30
1026 2.1310 164.31 152.77 12.82
1027 2.1320 156.02 152.68 12.49
1028 2.1330 161.75 152.59 12.72
1029 2.1340 161.35 152.49 12.70
1030 2.1350 139.58 152.40 11.81
1031 2.1360 128.09 152.30 11.32
1032 2.1370 145.30 152.21 12.05
1033 2.1380 166.40 152.12 12.90
1034 2.1390 142.43 152.02 11.93
1035 2.1400 133.30 151.93 11.55
1036 2.1410 159.75 151.84 12.64
1037 2.1420 172.43 151.74 13.13
1038 2.1430 161.03 151.65 12.69
1039 2.1440 151.61 151.56 12.31
1040 2.1450 161.41 151.46 12.70
1041 2.1460 170.34 151.37 13.05
1042 2.1470 173.28 151.28 13.16
1043 2.1480 148.16 151.18 12.17
1044 2.1490 159.90 151.09 12.65
1045 2.1500 162.83 151.00 12.76
1046 2.1510 140.24 150.91 11.84
1047 2.1520 137.78 150.81 11.74
1048 2.1530 158.37 150.72 12.58
1049 2.1540 160.79 150.63 12.68
1050 2.1550 178.87 150.54 13.37
1051 2.1560 165.97 150.44 12.88
1052 2.1570 161.19 150.35 12.70
1053 2.1580 143.23 150.26 11.97
1054 2.1590 189.53 150.17 13.77
1055 2.1600 175.00 150.08 13.23
1056 2.1610 154.99 149.99 12.45
1057 2.1620 148.27 149.89 12.18
1058 2.1630 159.97 149.80 12.65
1059 2.1640 159.52 149.71 12.63
1060 2.1650 179.85 149.62 13.41
1061 2.1660 181.11 149.53 13.46
1062 2.1670 164.09 149.44 12.81
1063 2.1680 160.42 149.35 12.67
1064 2.1690 142.43 149.26 11.93
1065 2.1700 146.35 149.16 12.10
1066 2.1710 143.19 149.07 11.97
1067 2.1720 150.62 148.98 12.27
1068 2.1730 161.78 148.89 12.72
1069 2.1740 164.37 148.80 12.82
1070 2.1750 158.55 148.71 12.59
1071 2.1760 157.14 148.62 12.54
1072 2.1770 129.96 148.53 11.40
1073 2.1780 163.70 148.44 12.79
1074 2.1790 156.86 148.35 12.52
1075 2.1800 142.09 148.26 11.92
1076 2.1810 167.89 148.17 12.96
1077 2.1820 153.14 148.08 12.38
1078 2.1830 165.99 147.99 12.88
1079 2.1840 145.42 147.90 12.06
1080 2.1850 143.61 147.81 11.98
1081 2.1860 168.67 147.72 12.99
1082 2.1870 176.73 147.63 13.29
1083 2.1880 165.93 147.54 12.88
1084 2.1890 173.70 147.46 13.18
1085 2.1900 151.68 147.37 12.32
1086 2.1910 163.12 147.28 12.77
1087 2.1920 153.39 147.19 12.39
1088 2.1930 158.29 147.10 12.58
1089 2.1940 153.12 147.01 12.37
1090 2.1950 147.15 146.92 12.13
1091 2.1960 172.99 146.83 13.15
1092 2.1970 185.23 146.75 13.61
1093 2.1980 142.69 146.66 11.95
1094 2.1990 161.61 146.57 12.71
1095 2.2000 147.00 146.48 12.12
1096 2.2010 127.22 146.39 11.28
1097 2.2020 151.93 146.31 12.33
1098 2.2030 146.74 146.22 12.11
1099 2.2040 175.30 146.13 13.24
1100 2.2050 182.51 146.04 13.51
1101 2.2060 152.23 145.96 12.34
1102 2.2070 152.64 145.87 12.35
1103 2.2080 140.71 145.78 11.86
1104 2.2090 162.59 145.69 12.75
1105 2.2100 154.43 145.61 12.43
1106 2.2110 165.31 145.52 12.86
1107 2.2120 176.25 145.43 13.28
1108 2.2130 167.49 145.35 12.94
1109 2.2140 151.64 145.26 12.31
1110 2.2150 141.56 145.17 11.90
1111 2.2160 132.60 145.09 11.52
1112 2.2170 178.53 145.00 13.36
1113 2.2180 166.19 144.91 12.89
1114 2.2190 160.57 144.83 12.67
1115 2.2200 157.67 144.74 12.56
1116 2.2210 135.60 144.65 11.64
1117 2.2220 140.68 144.57 11.86
1118 2.2230 147.15 144.48 12.13
1119 2.2240 130.08 144.40 11.41
1120 2.2250 150.64 144.31 12.27
1121 2.2260 149.79 144.23 12.24
1122 2.2270 171.01 144.14 13.08
1123 2.2280 175.66 144.05 13.25
1124 2.2290 155.90 143.97 12.49
1125 2.2300 145.83 143.88 12.08
1126 2.2310 136.57 143.80 11.69
1127 2.2320 152.78 143.71 12.36
1128 2.2330 167.27 143.63 12.93
1129 2.2340 141.41 143.55 11.89
1130 2.2350 174.05 143.46 13.19
1131 2.2360 144.85 143.38 12.04
1132 2.2370 150.51 143.29 12.27
1133 2.2380 171.66 143.21 13.10
1134 2.2390 172.26 143.12 13.12
1135 2.2400 178.45 143.04 13.36
1136 2.2410 142.08 142.96 11.92
1137 2.2420 135.42 142.87 11.64
1138 2.2430 151.97 142.79 12.33
1139 2.2440 125.49 142.70 11.20
1140 2.2450 125.27 142.62 11.19
1141 2.2460 151.27 142.54 12.30
1142 2.2470 156.49 142.45 12.51
1143 2.2480 128.33 142.37 11.33
1144 2.2490 137.91 142.29 11.74
1145 2.2500 114.75 142.20 10.71
1146 2.2510 170.96 142.12 13.08
1147 2.2520 161.83 142.04 12.72
1148 2.2530 154.20 141.96 12.42
1149 2.2540 187.29 141.87 13.69
1150 2.2550 137.50 141.79 11.73
1151 2.2560 145.38 141.71 12.06
1152 2.2570 162.50 141.63 12.75
1153 2.2580 144.87 141.54 12.04
1154 2.2590 134.71 141.46 11.61
1155 2.2600 160.62 141.38 12.67
1156 2.2610 151.39 141.30 12.30
1157 2.2620 157.42 141.21 12.55
1158 2.2630 157.74 141.13 12.56
1159 2.2640 141.38 141.05 11.89
1160 2.2650 144.40 140.97 12.02
1161 2.2660 159.01 140.89 12.61
1162 2.2670 150.75 140.81 12.28
1163 2.2680 164.21 140.73 12.81
1164 2.2690 164.38 140.65 12.82
1165 2.2700 149.57 140.56 12.23
1166 2.2710 146.94 140.48 12.12
1167 2.2720 155.99 140.40 12.49
1168 2.2730 171.44 140.32 13.09
1169 2.2740 162.04 140.24 12.73
1170 2.2750 149.33 140.16 12.22
1171 2.2760 131.26 140.08 11.46
1172 2.2770 145.95 140.00 12.08
1173 2.2780 135.40 139.92 11.64
1174 2.2790 149.51 139.84 12.23
1175 2.2800 144.85 139.76 12.04
1176 2.2810 155.94 139.68 12.49
1177 2.2820 137.72 139.60 11.74
1178 2.2830 131.39 139.52 11.46
1179 2.2840 154.85 139.44 12.44
1180 2.2850 157.11 139.36 12.53
1181 2.2860 159.25 139.28 12.62
1182 2.2870 145.97 139.20 12.08
1183 2.2880 163.69 139.12 12.79
1184 2.2890 151.07 139.05 12.29
1185 2.2900 154.12 138.97 12.41
1186 2.2910 149.61 138.89 12.23
1187 2.2920 153.28 138.81 12.38
1188 2.2930 127.93 138.73 11.31
1189 2.2940 153.46 138.65 12.39
1190 2.2950 121.63 138.57 11.03
1191 2.2960 129.90 138.50 11.40
1192 2.2970 158.43 138.42 12.59
1193 2.2980 130.37 138.34 11.42
1194 2.2990 165.49 138.26 12.86
1195 2.3000 157.33 138.18 12.54
1196 2.3010 155.79 153.79 12.48
1197 2.3020 119.30 153.84 10.92
1198 2.3030 132.37 153.88 11.51
1199 2.3040 134.08 153.93 11.58
1200 2.3050 144.06 153.98 12.00
1201 2.3060 160.12 154.04 12.65
1202 2.3070 135.16 154.09 11.63
1203 2.3080 152.29 154.14 12.34
1204 2.3090 146.04 154.20 12.08
1205 2.3100 127.26 154.26 11.28
1206 2.3110 140.85 154.32 11.87
1207 2.3120 140.67 154.38 11.86
1208 2.3130 165.35 154.45 12.86
1209 2.3140 150.29 154.51 12.26
1210 2.3150 123.46 154.58 11.11
1211 2.3160 144.53 154.65 12.02
1212 2.3170 155.35 154.72 12.46
1213 2.3180 159.25 154.80 12.62
1214 2.3190 167.57 154.87 12.94
1215 2.3200 140.72 154.95 11.86
1216 2.3210 155.30 155.03 12.46
1217 2.3220 139.26 155.11 11.80
1218 2.3230 133.54 155.20 11.56
1219 2.3240 169.26 155.28 13.01
1220 2.3250 150.90 155.37 12.28
1221 2.3260 163.79 155.46 12.80
1222 2.3270 160.23 155.55 12.66
1223 2.3280 169.85 155.65 13.03
1224 2.3290 162.09 155.75 12.73
1225 2.3300 143.20 155.85 11.97
1226 2.3310 148.47 155.95 12.18
1227 2.3320 144.63 156.06 12.03
1228 2.3330 176.35 156.16 13.28
1229 2.3340 162.62 156.27 12.75
1230 2.3350 137.27 156.39 11.72
1231 2.3360 152.13 156.50 12.33
1232 2.3370 151.21 156.62 12.30
1233 2.3380 145.43 156.74 12.06
1234 2.3390 157.79 156.86 12.56
1235 2.3400 185.93 156.99 13.64
1236 2.3410 150.64 157.12 12.27
1237 2.3420 128.76 157.25 11.35
1238 2.3430 174.42 157.39 13.21
1239 2.3440 203.95 157.52 14.28
1240 2.3450 155.42 157.67 12.47
1241 2.3460 154.64 157.81 12.44
1242 2.3470 160.44 157.96 12.67
1243 2.3480 143.93 158.11 12.00
1244 2.3490 158.75 158.26 12.60
1245 2.3500 161.69 158.42 12.72
1246 2.3510 174.28 158.58 13.20
1247 2.3520 144.49 158.75 12.02
1248 2.3530 172.28 158.91 13.13
1249 2.3540 153.71 159.09 12.40
1250 2.3550 161.81 159.26 12.72
1251 2.3560 154.80 159.44 12.44
1252 2.3570 158.08 159.62 12.57
1253 2.3580 180.07 159.81 13.42
1254 2.3590 159.15 160.00 12.62
1255 2.3600 143.48 160.20 11.98
1256 2.3610 182.45 160.40 13.51
1257 2.3620 165.25 160.60 12.85
1258 2.3630 177.40 160.81 13.32
1259 2.3640 151.63 161.02 12.31
1260 2.3650 154.02 161.24 12.41
1261 2.3660 176.41 161.46 13.28
1262 2.3670 161.96 161.69 12.73
1263 2.3680 196.28 161.92 14.01
1264 2.3690 171.03 162.16 13.08
1265 2.3700 178.30 162.40 13.35
1266 2.3710 129.27 162.65 11.37
1267 2.3720 163.14 162.90 12.77
1268 2.3730 180.29 163.15 13.43
1269 2.3740 133.32 163.42 11.55
1270 2.3750 133.40 163.68 11.55
1271 2.3760 179.21 163.96 13.39
1272 2.3770 169.49 164.24 13.02
1273 2.3780 161.04 164.52 12.69
1274 2.3790 169.82 164.81 13.03
1275 2.3800 160.46 165.11 12.67
1276 2.3810 165.21 165.42 12.85
1277 2.3820 164.45 165.73 12.82
1278 2.3830 179.46 166.04 13.40
1279 2.3840 168.35 166.37 12.98
1280 2.3850 179.79 166.70 13.41
1281 2.3860 186.66 167.04 13.66
1282 2.3870 183.05 167.38 13.53
1283 2.3880 176.66 167.74 13.29
1284 2.3890 163.78 168.10 12.80
1285 2.3900 155.71 168.46 12.48
1286 2.3910 191.84 168.84 13.85
1287 2.3920 175.43 169.22 13.24
1288 2.3930 163.84 169.62 12.80
1289 2.3940 193.33 170.02 13.90
1290 2.3950 208.40 170.43 14.44
1291 2.3960 169.12 170.85 13.00
1292 2.3970 180.93 171.27 13.45
1293 2.3980 184.07 171.71 13.57
1294 2.3990 196.11 172.16 14.00
1295 2.4000 165.74 172.62 12.87
1296 2.4010 164.49 173.08 12.83
1297 2.4020 165.05 173.56 12.85
1298 2.4030 170.93 174.05 13.07
1299 2.4040 169.85 174.55 13.03
1300 2.4050 175.37 175.06 13.24
1301 2.4060 153.07 175.58 12.37
1302 2.4070 172.61 176.12 13.14
1303 2.4080 175.00 176.66 13.23
1304 2.4090 165.04 177.22 12.85
1305 2.4100 162.81 177.79 12.76
1306 2.4110 168.60 178.38 12.98
1307 2.4120 174.30 178.97 13.20
1308 2.4130 154.57 179.58 12.43
1309 2.4140 186.88 180.21 13.67
1310 2.4150 172.00 180.85 13.11
1311 2.4160 180.22 181.51 13.42
1312 2.4170 193.10 182.18 13.90
1313 2.4180 190.02 182.86 13.78
1314 2.4190 168.74 183.57 12.99
1315 2.4200 180.51 184.29 13.44
1316 2.4210 169.28 185.02 13.01
1317 2.4220 162.84 185.78 12.76
1318 2.4230 204.71 186.55 14.31
1319 2.4240 221.71 187.34 14.89
1320 2.4250 203.10 188.15 14.25
1321 2.4260 178.55 188.99 13.36
1322 2.4270 169.53 189.84 13.02
1323 2.4280 190.22 190.71 13.79
1324 2.4290 146.29 191.60 12.10
1325 2.4300 164.16 192.52 12.81
1326 2.4310 163.25 193.46 12.78
1327 2.4320 173.53 194.43 13.17
1328 2.4330 210.97 195.42 14.52
1329 2.4340 195.76 196.43 13.99
1330 2.4350 226.77 197.47 15.06
1331 2.4360 180.78 198.54 13.45
1332 2.4370 207.01 199.64 14.39
1333 2.4380 165.45 200.76 12.86
1334 2.4390 186.44 201.92 13.65
1335 2.4400 197.10 203.11 14.04
1336 2.4410 188.08 204.32 13.71
1337 2.4420 203.11 205.57 14.25
1338 2.4430 211.79 206.86 14.55
1339 2.4440 181.82 208.18 13.48
1340 2.4450 181.51 209.54 13.47
1341 2.4460 202.28 210.93 14.22
1342 2.4470 200.36 212.37 14.15
1343 2.4480 198.67 213.85 14.10
1344 2.4490 191.51 215.36 13.84
1345 2.4500 202.18 216.92 14.22
1346 2.4510 233.99 218.53 15.30
1347 2.4520 235.61 220.18 15.35
1348 2.4530 201.00 221.89 14.18
1349 2.4540 200.27 223.64 14.15
1350 2.4550 209.76 225.44 14.48
1351 2.4560 222.27 227.30 14.91
1352 2.4570 197.31 229.22 14.05
1353 2.4580 216.75 231.20 14.72
1354 2.4590 249.40 233.23 15.79
1355 2.4600 230.69 235.33 15.19
1356 2.4610 217.66 237.50 14.75
1357 2.4620 267.82 239.73 16.37
1358 2.4630 231.78 242.04 15.22
1359 2.4640 224.10 244.42 14.97
1360 2.4650 220.57 246.88 14.85
1361 2.4660 239.39 249.42 15.47
1362 2.4670 234.09 252.04 15.30
1363 2.4680 231.39 254.76 15.21
1364 2.4690 211.77 257.56 14.55
1365 2.4700 243.57 260.46 15.61
1366 2.4710 226.28 263.46 15.04
1367 2.4720 230.80 266.57 15.19
1368 2.4730 264.37 269.78 16.26
1369 2.4740 250.52 273.11 15.83
1370 2.4750 242.67 276.57 15.58
1371 2.4760 293.70 280.14 17.14
1372 2.4770 276.41 283.85 16.63
1373 2.4780 301.74 287.70 17.37
1374 2.4790 277.32 291.69 16.65
1375 2.4800 246.15 295.83 15.69
1376 2.4810 268.91 300.13 16.40
1377 2.4820 292.35 304.60 17.10
1378 2.4830 275.70 309.25 16.60
1379 2.4840 291.79 314.08 17.08
1380 2.4850 274.80 319.11 16.58
1381 2.4860 319.09 324.34 17.86
1382 2.4870 270.40 329.79 16.44
1383 2.4880 317.81 335.47 17.83
1384 2.4890 309.40 341.39 17.59
1385 2.4900 302.83 347.56 17.40
1386 2.4910 319.82 354.01 17.88
1387 2.4920 296.55 360.74 17.22
1388 2.4930 323.85 367.77 18.00
1389 2.4940 340.97 375.14 18.47
1390 2.4950 328.30 382.84 18.12
1391 2.4960 316.92 390.91 17.80
1392 2.4970 372.12 399.38 19.29
1393 2.4980 393.55 408.27 19.84
1394 2.4990 364.84 417.62 19.10
1395 2.5000 384.95 427.45 19.62
1396 2.5010 398.26 437.83 19.96
1397 2.5020 445.02 448.77 21.10
1398 2.5030 461.69 460.36 21.49
1399 2.5040 426.93 472.64 20.66
1400 2.5050 482.12 485.68 21.96
1401 2.5060 462.08 499.58 21.50
1402 2.5070 467.03 514.41 21.61
1403 2.5080 496.54 530.30 22.28
1404 2.5090 525.81 547.35 22.93
1405 2.5100 490.83 565.74 22.15
1406 2.5110 558.40 585.60 23.63
1407 2.5120 584.17 607.15 24.17
1408 2.5130 607.64 630.58 24.65
1409 2.5140 668.61 656.17 25.86
1410 2.5150 675.49 684.17 25.99
1411 2.5160 673.27 714.93 25.95
1412 2.5170 801.91 748.79 28.32
1413 2.5180 822.36 786.14 28.68
1414 2.5190 902.29 827.43 30.04
1415 2.5200 863.38 873.15 29.38
1416 2.5210 933.72 923.81 30.56
1417 2.5220 1004.49 979.97 31.69
1418 2.5230 1100.81 1042.27 33.18
1419 2.5240 1120.02 1111.34 33.47
1420 2.5250 1181.41 1187.84 34.37
1421 2.5260 1297.67 1272.47 36.02
1422 2.5270 1442.78 1365.94 37.98
1423 2.5280 1572.82 1468.96 39.66
1424 2.5290 1672.72 1582.25 40.90
1425 2.5300 1688.59 1706.49 41.09
1426 2.5310 1790.84 1842.29 42.32
1427 2.5320 1970.87 1990.21 44.39
1428 2.5330 2072.10 2150.87 45.52
1429 2.5340 2261.60 2324.56 47.56
1430 2.5350 2416.70 2511.62 49.16
1431 2.5360 2720.90 2712.15 52.16
1432 2.5370 2837.39 2926.26 53.27
1433 2.5380 3084.41 3153.61 55.54
1434 2.5390 3226.72 3393.81 56.80
1435 2.5400 3467.72 3646.22 58.89
1436 2.5410 3708.55 3909.69 60.90
1437 2.5420 4014.93 4183.05 63.36
1438 2.5430 4294.08 4464.61 65.53
1439 2.5440 4560.58 4752.07 67.53
1440 2.5450 4754.26 5042.80 68.95
1441 2.5460 5080.25 5333.72 71.28
1442 2.5470 5309.00 5621.03 72.86
1443 2.5480 5599.92 5900.23 74.83
1444 2.5490 5914.83 6166.34 76.91
1445 2.5500 6099.89 6414.07 78.10
1446 2.5510 6336.70 6637.47 79.60
1447 2.5520 6617.88 6830.70 81.35
1448 2.5530 6686.54 6988.18 81.77
1449 2.5540 6998.56 7104.85 83.66
1450 2.5550 7065.56 7185.64 84.06
1451 2.5560 7108.88 7210.48 84.31
1452 2.5570 7025.31 7187.18 83.82
1453 2.5580 7080.28 7116.63 84.14
1454 2.5590 7193.98 7001.26 84.82
1455 2.5600 7049.78 6844.96 83.96
1456 2.5610 6988.76 6652.74 83.60
1457 2.5620 6742.85 6430.19 82.11
1458 2.5630 6476.78 6183.16 80.48
1459 2.5640 6402.28 5917.47 80.01
1460 2.5650 6181.29 5638.59 78.62
1461 2.5660 5938.04 5351.45 77.06
1462 2.5670 5600.79 5060.58 74.84
1463 2.5680 5305.94 4769.78 72.84
1464 2.5690 5045.57 4482.16 71.03
1465 2.5700 4889.75 4200.38 69.93
1466 2.5710 4546.14 3926.73 67.43
1467 2.5720 4125.04 3662.93 64.23
1468 2.5730 3960.28 3410.15 62.93
1469 2.5740 3761.18 3169.56 61.33
1470 2.5750 3371.43 2941.80 58.06
1471 2.5760 3113.44 2727.27 55.80
1472 2.5770 2958.16 2526.32 54.39
1473 2.5780 2764.81 2338.85 52.58
1474 2.5790 2656.32 2164.74 51.54
1475 2.5800 2388.40 2003.69 48.87
1476 2.5810 2244.00 1855.39 47.37
1477 2.5820 2078.24 1719.23 45.59
1478 2.5830 2003.24 1594.64 44.76
1479 2.5840 1794.23 1481.03 42.36
1480 2.5850 1644.93 1377.73 40.56
1481 2.5860 1588.10 1283.97 39.85
1482 2.5870 1407.79 1199.09 37.52
1483 2.5880 1290.82 1122.36 35.93
1484 2.5890 1225.03 1053.09 35.00
1485 2.5900 1221.51 990.62 34.95
1486 2.5910 1140.72 934.28 33.77
1487 2.5920 922.42 883.48 30.37
1488 2.5930 989.58 837.64 31.46
1489 2.5940 943.47 796.24 30.72
1490 2.5950 911.55 758.81 30.19
1491 2.5960 840.93 724.87 29.00
1492 2.5970 849.71 694.06 29.15
1493 2.5980 801.65 666.00 28.31
1494 2.5990 689.98 640.38 26.27
1495 2.6000 658.64 616.91 25.66
1496 2.6010 688.04 595.35 26.23
1497 2.6020 593.97 575.48 24.37
1498 2.6030 551.13 557.09 23.48
1499 2.6040 581.19 540.04 24.11
1500 2.6050 524.15 524.17 22.89
1501 2.6060 486.32 509.35 22.05
1502 2.6070 478.86 495.48 21.88
1503 2.6080 527.39 482.46 22.97
1504 2.6090 498.43 470.21 22.33
1505 2.6100 449.42 458.66 21.20
1506 2.6110 464.85 447.75 21.56
1507 2.6120 429.10 437.42 20.71
1508 2.6130 401.81 427.64 20.05
1509 2.6140 440.93 418.34 21.00
1510 2.6150 403.18 409.51 20.08
1511 2.6160 374.45 401.10 19.35
1512 2.6170 398.61 393.09 19.97
1513 2.6180 353.37 385.45 18.80
1514 2.6190 358.48 378.16 18.93
1515 2.6200 342.30 371.19 18.50
1516 2.6210 325.81 364.54 18.05
1517 2.6220 342.67 358.17 18.51
1518 2.6230 326.00 352.08 18.06
1519 2.6240 311.67 346.25 17.65
1520 2.6250 362.26 340.66 19.03
1521 2.6260 324.91 335.30 18.03
1522 2.6270 309.94 333.64 17.61
1523 2.6280 315.42 328.74 17.76
1524 2.6290 366.46 324.05 19.14
1525 2.6300 336.61 319.54 18.35
1526 2.6310 343.92 315.21 18.55
1527 2.6320 308.49 311.05 17.56
1528 2.6330 287.07 307.06 16.94
1529 2.6340 281.41 303.22 16.78
1530 2.6350 274.68 299.53 16.57
1531 2.6360 255.47 295.99 15.98
1532 2.6370 289.62 292.58 17.02
1533 2.6380 277.78 289.31 16.67
1534 2.6390 314.68 286.15 17.74
1535 2.6400 305.70 283.12 17.48
1536 2.6410 270.45 280.20 16.45
1537 2.6420 268.70 277.39 16.39
1538 2.6430 287.35 274.69 16.95
1539 2.6440 283.51 272.09 16.84
1540 2.6450 248.34 269.59 15.76
1541 2.6460 237.72 267.18 15.42
1542 2.6470 228.59 264.86 15.12
1543 2.6480 210.46 262.63 14.51
1544 2.6490 242.42 260.49 15.57
1545 2.6500 237.63 258.42 15.42
1546 2.6510 224.73 256.43 14.99
1547 2.6520 237.43 254.52 15.41
1548 2.6530 227.79 252.68 15.09
1549 2.6540 229.50 250.91 15.15
1550 2.6550 226.14 249.21 15.04
1551 2.6560 259.54 247.57 16.11
1552 2.6570 266.34 246.00 16.32
1553 2.6580 252.95 244.49 15.90
1554 2.6590 226.89 243.04 15.06
1555 2.6600 253.19 241.65 15.91
1556 2.6610 258.24 240.32 16.07
1557 2.6620 222.29 239.04 14.91
1558 2.6630 225.40 237.82 15.01
1559 2.6640 229.52 236.65 15.15
1560 2.6650 189.41 235.53 13.76
1561 2.6660 213.56 234.46 14.61
1562 2.6670 230.50 233.44 15.18
1563 2.6680 227.32 232.46 15.08
1564 2.6690 223.14 231.54 14.94
1565 2.6700 238.49 230.66 15.44
1566 2.6710 176.38 229.82 13.28
1567 2.6720 222.27 229.03 14.91
1568 2.6730 197.77 228.29 14.06
1569 2.6740 203.40 227.58 14.26
1570 2.6750 200.73 226.92 14.17
1571 2.6760 206.29 226.30 14.36
1572 2.6770 216.73 225.72 14.72
1573 2.6780 180.30 225.18 13.43
1574 2.6790 211.59 224.68 14.55
1575 2.6800 183.95 224.23 13.56
1576 2.6810 189.70 223.81 13.77
1577 2.6820 217.82 223.43 14.76
1578 2.6830 203.47 223.08 14.26
1579 2.6840 184.90 222.78 13.60
1580 2.6850 197.32 222.52 14.05
1581 2.6860 188.86 222.29 13.74
1582 2.6870 209.97 222.10 14.49
1583 2.6880 184.57 221.96 13.59
1584 2.6890 196.38 221.84 14.01
1585 2.6900 185.93 221.77 13.64
1586 2.6910 190.18 221.74 13.79
1587 2.6920 199.17 221.74 14.11
1588 2.6930 191.09 221.79 13.82
1589 2.6940 202.58 221.87 14.23
1590 2.6950 211.28 221.99 14.54
1591 2.6960 201.05 222.16 14.18
1592 2.6970 165.36 222.36 12.86
1593 2.6980 164.90 222.60 12.84
1594 2.6990 182.85 222.89 13.52
1595 2.7000 210.26 223.22 14.50
1596 2.7010 185.80 223.59 13.63
1597 2.7020 171.27 224.00 13.09
1598 2.7030 181.62 224.46 13.48
1599 2.7040 173.85 224.96 13.19
1600 2.7050 167.15 225.51 12.93
1601 2.7060 188.96 226.11 13.75
1602 2.7070 190.36 226.75 13.80
1603 2.7080 192.42 227.45 13.87
1604 2.7090 181.87 228.19 13.49
1605 2.7100 187.06 228.98 13.68
1606 2.7110 173.92 229.83 13.19
1607 2.7120 194.47 230.74 13.95
1608 2.7130 183.92 231.70 13.56
1609 2.7140 192.70 232.71 13.88
1610 2.7150 198.16 233.79 14.08
1611 2.7160 198.27 234.93 14.08
1612 2.7170 185.62 236.13 13.62
1613 2.7180 188.64 237.40 13.73
1614 2.7190 162.32 238.74 12.74
1615 2.7200 170.04 240.15 13.04
1616 2.7210 206.18 241.63 14.36
1617 2.7220 210.64 243.19 14.51
1618 2.7230 190.54 244.83 13.80
1619 2.7240 171.45 246.55 13.09
1620 2.7250 186.73 248.36 13.66
1621 2.7260 186.73 250.26 13.66
1622 2.7270 202.20 252.25 14.22
1623 2.7280 189.27 254.34 13.76
1624 2.7290 214.94 256.53 14.66
1625 2.7300 219.69 258.83 14.82
1626 2.7310 195.72 261.24 13.99
1627 2.7320 205.46 263.76 14.33
1628 2.7330 200.27 266.41 14.15
1629 2.7340 222.65 269.19 14.92
1630 2.7350 208.75 272.11 14.45
1631 2.7360 192.85 275.17 13.89
1632 2.7370 225.42 278.38 15.01
1633 2.7380 214.13 281.74 14.63
1634 2.7390 209.99 285.28 14.49
1635 2.7400 197.17 288.99 14.04
1636 2.7410 222.96 292.90 14.93
1637 2.7420 214.72 297.00 14.65
1638 2.7430 216.12 301.31 14.70
1639 2.7440 253.87 305.85 15.93
1640 2.7450 223.73 310.63 14.96
1641 2.7460 235.10 315.67 15.33
1642 2.7470 292.36 320.99 17.10
1643 2.7480 265.32 326.61 16.29
1644 2.7490 279.20 332.55 16.71
1645 2.7500 279.02 338.84 16.70
1646 2.7510 279.25 345.51 16.71
1647 2.7520 269.91 352.60 16.43
1648 2.7530 260.15 360.14 16.13
1649 2.7540 305.60 368.20 17.48
1650 2.7550 285.39 376.81 16.89
1651 2.7560 333.34 386.04 18.26
1652 2.7570 348.40 395.97 18.67
1653 2.7580 366.14 406.67 19.13
1654 2.7590 336.20 418.24 18.34
1655 2.7600 373.84 430.79 19.33
1656 2.7610 410.40 444.45 20.26
1657 2.7620 349.19 459.34 18.69
1658 2.7630 372.73 475.64 19.31
1659 2.7640 390.86 493.53 19.77
1660 2.7650 465.72 513.19 21.58
1661 2.7660 434.32 534.86 20.84
1662 2.7670 458.73 558.80 21.42
1663 2.7680 469.47 585.25 21.67
1664 2.7690 542.81 614.53 23.30
1665 2.7700 543.33 646.94 23.31
1666 2.7710 595.66 682.80 24.41
1667 2.7720 603.18 722.50 24.56
1668 2.7730 652.32 766.39 25.54
1669 2.7740 643.39 814.87 25.37
1670 2.7750 681.91 868.27 26.11
1671 2.7760 736.86 927.03 27.15
1672 2.7770 696.12 991.51 26.38
1673 2.7780 760.35 1062.05 27.57
1674 2.7790 879.42 1139.00 29.66
1675 2.7800 879.00 1222.63 29.65
1676 2.7810 1011.22 1313.21 31.80
1677 2.7820 1090.28 1410.91 33.02
1678 2.7830 1189.49 1515.88 34.49
1679 2.7840 1326.69 1628.06 36.42
1680 2.7850 1321.10 1747.45 36.35
1681 2.7860 1437.34 1873.81 37.91
1682 2.7870 1615.94 2006.82 40.20
1683 2.7880 1827.55 2145.90 42.75
1684 2.7890 1994.77 2290.30 44.66
1685 2.7900 2166.82 2439.16 46.55
1686 2.7910 2469.24 2591.14 49.69
1687 2.7920 2814.20 2744.69 53.05
1688 2.7930 3111.75 2897.94 55.78
1689 2.7940 3367.13 3048.49 58.03
1690 2.7950 3668.09 3193.78 60.56
1691 2.7960 3973.44 3330.74 63.04
1692 2.7970 4311.07 3456.11 65.66
1693 2.7980 4433.61 3566.39 66.59
1694 2.7990 4708.47 3658.27 68.62
1695 2.8000 4797.82 3728.66 69.27
1696 2.8010 4823.48 3774.97 69.45
1697 2.8020 4896.38 3795.50 69.97
1698 2.8030 4657.01 3789.46 68.24
1699 2.8040 4449.81 3757.13 66.71
1700 2.8050 4473.50 3699.82 66.88
1701 2.8060 4115.93 3619.71 64.16
1702 2.8070 3884.80 3519.71 62.33
1703 2.8080 3642.62 3403.05 60.35
1704 2.8090 3388.27 3273.17 58.21
1705 2.8100 3184.64 3133.45 56.43
1706 2.8110 2998.71 2987.12 54.76
1707 2.8120 2764.21 2821.40 52.58
1708 2.8130 2680.63 2670.00 51.77
1709 2.8140 2608.06 2519.40 51.07
1710 2.8150 2341.09 2371.31 48.38
1711 2.8160 2208.67 2227.13 47.00
1712 2.8170 2081.77 2087.95 45.63
1713 2.8180 1997.97 1954.64 44.70
1714 2.8190 1799.64 1827.81 42.42
1715 2.8200 1711.06 1707.89 41.37
1716 2.8210 1715.91 1595.24 41.42
1717 2.8220 1626.96 1489.94 40.34
1718 2.8230 1528.72 1392.03 39.10
1719 2.8240 1466.01 1301.49 38.29
1720 2.8250 1370.30 1218.20 37.02
1721 2.8260 1343.84 1141.89 36.66
1722 2.8270 1287.86 1072.39 35.89
1723 2.8280 1171.89 1009.38 34.23
1724 2.8290 1170.00 952.56 34.21
1725 2.8300 1162.44 901.58 34.09
1726 2.8310 1084.76 856.13 32.94
1727 2.8320 1012.59 815.87 31.82
1728 2.8330 1003.86 780.47 31.68
1729 2.8340 919.09 749.63 30.32
1730 2.8350 898.88 723.06 29.98
1731 2.8360 892.09 700.49 29.87
1732 2.8370 858.65 681.69 29.30
1733 2.8380 803.90 666.46 28.35
1734 2.8390 766.65 654.63 27.69
1735 2.8400 735.15 646.05 27.11
1736 2.8410 737.89 640.61 27.16
1737 2.8420 802.98 638.25 28.34
1738 2.8430 773.12 638.91 27.81
1739 2.8440 742.79 642.57 27.25
1740 2.8450 712.58 649.23 26.69
1741 2.8460 716.26 658.91 26.76
1742 2.8470 664.40 671.64 25.78
1743 2.8480 711.64 687.45 26.68
1744 2.8490 762.40 706.42 27.61
1745 2.8500 721.73 728.58 26.86
1746 2.8510 745.10 753.97 27.30
1747 2.8520 761.16 782.62 27.59
1748 2.8530 776.36 814.56 27.86
1749 2.8540 768.62 849.75 27.72
1750 2.8550 822.67 888.16 28.68
1751 2.8560 888.81 929.70 29.81
1752 2.8570 856.67 974.22 29.27
1753 2.8580 885.13 1021.54 29.75
1754 2.8590 997.69 1071.40 31.59
1755 2.8600 969.41 1123.41 31.14
1756 2.8610 1063.97 1177.10 32.62
1757 2.8620 1151.94 1231.94 33.94
1758 2.8630 1214.53 1287.16 34.85
1759 2.8640 1253.83 1341.91 35.41
1760 2.8650 1426.88 1395.14 37.77
1761 2.8660 1489.31 1445.72 38.59
1762 2.8670 1548.94 1492.31 39.36
1763 2.8680 1723.28 1533.55 41.51
1764 2.8690 1675.01 1568.07 40.93
1765 2.8700 1717.96 1594.56 41.45
1766 2.8710 1814.07 1611.93 42.59
1767 2.8720 1794.69 1619.37 42.36
1768 2.8730 1775.91 1616.45 42.14
1769 2.8740 1804.15 1603.18 42.48
1770 2.8750 1785.03 1579.96 42.25
1771 2.8760 1676.22 1547.61 40.94
1772 2.8770 1591.03 1507.21 39.89
1773 2.8780 1541.34 1460.04 39.26
1774 2.8790 1444.43 1407.48 38.01
1775 2.8800 1432.75 1350.89 37.85
1776 2.8810 1382.80 1291.54 37.19
1777 2.8820 1293.19 1230.59 35.96
1778 2.8830 1114.15 1169.06 33.38
1779 2.8840 1049.78 1107.82 32.40
1780 2.8850 1006.01 1047.51 31.72
1781 2.8860 941.80 988.74 30.69
1782 2.8870 852.61 931.95 29.20
1783 2.8880 822.82 877.47 28.68
1784 2.8890 759.12 825.52 27.55
1785 2.8900 725.89 776.31 26.94
1786 2.8910 697.91 729.91 26.42
1787 2.8920 641.49 686.38 25.33
1788 2.8930 596.73 645.75 24.43
1789 2.8940 596.83 607.96 24.43
1790 2.8950 586.68 572.95 24.22
1791 2.8960 497.62 540.64 22.31
1792 2.8970 508.79 510.91 22.56
1793 2.8980 494.09 483.64 22.23
1794 2.8990 468.56 458.69 21.65
1795 2.9000 408.00 435.91 20.20
1796 2.9010 429.70 415.16 20.73
1797 2.9020 446.47 396.28 21.13
1798 2.9030 355.16 379.12 18.85
1799 2.9040 336.66 363.53 18.35
1800 2.9050 372.16 349.37 19.29
1801 2.9060 350.62 336.52 18.72
1802 2.9070 349.40 324.83 18.69
1803 2.9080 315.02 314.20 17.75
1804 2.9090 301.57 304.50 17.37
1805 2.9100 312.31 295.65 17.67
1806 2.9110 300.68 287.54 17.34
1807 2.9120 248.76 280.10 15.77
1808 2.9130 235.42 273.25 15.34
1809 2.9140 233.07 266.93 15.27
1810 2.9150 255.41 261.08 15.98
1811 2.9160 237.88 255.65 15.42
1812 2.9170 227.85 250.59 15.09
1813 2.9180 260.92 245.85 16.15
1814 2.9190 239.50 241.42 15.48
1815 2.9200 237.79 237.26 15.42
1816 2.9210 234.36 233.34 15.31
1817 2.9220 200.61 229.63 14.16
1818 2.9230 193.82 226.13 13.92
1819 2.9240 203.60 222.81 14.27
1820 2.9250 217.96 219.65 14.76
1821 2.9260 186.20 216.65 13.65
1822 2.9270 214.98 213.79 14.66
1823 2.9280 197.13 211.06 14.04
1824 2.9290 218.51 208.46 14.78
1825 2.9300 199.09 205.96 14.11
1826 2.9310 187.14 203.58 13.68
1827 2.9320 162.60 201.29 12.75
1828 2.9330 179.05 199.10 13.38
1829 2.9340 178.43 197.00 13.36
1830 2.9350 173.69 194.98 13.18
1831 2.9360 191.74 193.03 13.85
1832 2.9370 176.82 191.17 13.30
1833 2.9380 191.29 189.37 13.83
1834 2.9390 183.96 187.64 13.56
1835 2.9400 197.13 185.97 14.04
1836 2.9410 211.81 184.37 14.55
1837 2.9420 182.25 182.82 13.50
1838 2.9430 160.71 181.32 12.68
1839 2.9440 154.58 179.88 12.43
1840 2.9450 177.59 178.48 13.33
1841 2.9460 179.42 177.14 13.39
1842 2.9470 198.16 175.83 14.08
1843 2.9480 146.66 174.57 12.11
1844 2.9490 169.90 173.36 13.03
1845 2.9500 171.44 172.18 13.09
1846 2.9510 146.34 171.04 12.10
1847 2.9520 153.57 169.93 12.39
1848 2.9530 148.99 168.86 12.21
1849 2.9540 147.86 167.82 12.16
1850 2.9550 159.23 166.81 12.62
1851 2.9560 160.19 165.83 12.66
1852 2.9570 175.01 164.88 13.23
1853 2.9580 163.73 163.96 12.80
1854 2.9590 157.38 163.07 12.55
1855 2.9600 178.47 162.20 13.36
1856 2.9610 136.94 161.36 11.70
1857 2.9620 167.81 160.54 12.95
1858 2.9630 154.10 159.74 12.41
1859 2.9640 156.39 158.96 12.51
1860 2.9650 155.84 158.21 12.48
1861 2.9660 156.31 157.47 12.50
1862 2.9670 160.12 156.76 12.65
1863 2.9680 156.49 156.06 12.51
1864 2.9690 163.36 155.38 12.78
1865 2.9700 156.04 154.73 12.49
1866 2.9710 148.77 154.08 12.20
1867 2.9720 147.64 153.46 12.15
1868 2.9730 167.20 152.84 12.93
1869 2.9740 146.85 152.25 12.12
1870 2.9750 141.87 151.67 11.91
1871 2.9760 130.04 151.10 11.40
1872 2.9770 133.74 150.55 11.56
1873 2.9780 158.43 150.01 12.59
1874 2.9790 149.75 149.48 12.24
1875 2.9800 147.44 148.97 12.14
1876 2.9810 146.57 148.46 12.11
1877 2.9820 160.05 147.97 12.65
1878 2.9830 159.37 147.49 12.62
1879 2.9840 160.98 147.02 12.69
1880 2.9850 158.94 146.57 12.61
1881 2.9860 155.32 146.12 12.46
1882 2.9870 167.10 145.68 12.93
1883 2.9880 166.41 145.26 12.90
1884 2.9890 149.77 144.84 12.24
1885 2.9900 129.30 144.43 11.37
1886 2.9910 153.24 144.03 12.38
1887 2.9920 149.37 143.64 12.22
1888 2.9930 134.80 143.25 11.61
1889 2.9940 158.18 142.88 12.58
1890 2.9950 145.79 142.51 12.07
1891 2.9960 135.60 142.15 11.64
1892 2.9970 121.60 141.80 11.03
1893 2.9980 128.04 141.46 11.32
1894 2.9990 119.83 141.12 10.95
1895 3.0000 156.14 140.79 12.50
1896 3.0010 142.53 140.46 11.94
1897 3.0020 142.34 140.15 11.93
1898 3.0030 151.27 139.84 12.30
1899 3.0040 159.23 139.53 12.62
1900 3.0050 157.84 139.23 12.56
1901 3.0060 137.04 138.94 11.71
1902 3.0070 132.67 138.65 11.52
1903 3.0080 140.67 138.37 11.86
1904 3.0090 125.75 138.10 11.21
1905 3.0100 157.87 137.83 12.56
1906 3.0110 130.91 137.56 11.44
1907 3.0120 149.76 137.30 12.24
1908 3.0130 153.30 137.04 12.38
1909 3.0140 140.72 136.79 11.86
1910 3.0150 139.81 136.55 11.82
1911 3.0160 133.21 136.31 11.54
1912 3.0170 146.65 136.07 12.11
1913 3.0180 163.71 135.84 12.79
1914 3.0190 149.39 135.61 12.22
1915 3.0200 152.40 135.39 12.35
1916 3.0210 145.33 135.17 12.06
1917 3.0220 133.87 134.95 11.57
1918 3.0230 147.31 134.74 12.14
1919 3.0240 135.35 134.53 11.63
1920 3.0250 117.14 134.32 10.82
1921 3.0260 127.88 134.12 11.31
1922 3.0270 118.99 133.93 10.91
1923 3.0280 130.83 133.73 11.44
1924 3.0290 116.85 133.54 10.81
1925 3.0300 143.29 133.35 11.97
1926 3.0310 152.07 133.17 12.33
1927 3.0320 138.30 132.99 11.76
1928 3.0330 144.66 132.81 12.03
1929 3.0340 149.19 132.64 12.21
1930 3.0350 130.39 132.47 11.42
1931 3.0360 126.96 132.30 11.27
1932 3.0370 124.49 132.13 11.16
1933 3.0380 144.16 131.97 12.01
1934 3.0390 130.39 131.81 11.42
1935 3.0400 129.48 134.41 11.38
1936 3.0410 126.69 134.28 11.26
1937 3.0420 129.13 134.15 11.36
1938 3.0430 116.02 134.03 10.77
1939 3.0440 146.49 133.91 12.10
1940 3.0450 135.02 133.79 11.62
1941 3.0460 127.42 133.67 11.29
1942 3.0470 116.01 133.55 10.77
1943 3.0480 156.52 133.44 12.51
1944 3.0490 131.68 133.33 11.48
1945 3.0500 136.60 124.47 11.69
1946 3.0510 128.16 124.44 11.32
1947 3.0520 122.08 124.41 11.05
1948 3.0530 125.18 124.38 11.19
1949 3.0540 148.83 124.35 12.20
1950 3.0550 153.11 124.32 12.37
1951 3.0560 132.74 124.29 11.52
1952 3.0570 138.88 124.27 11.78
1953 3.0580 119.37 124.25 10.93
1954 3.0590 107.60 124.22 10.37
1955 3.0600 121.21 124.20 11.01
1956 3.0610 119.50 124.19 10.93
1957 3.0620 140.38 124.17 11.85
1958 3.0630 144.61 124.15 12.03
1959 3.0640 107.88 124.14 10.39
1960 3.0650 132.94 124.13 11.53
1961 3.0660 119.58 124.12 10.94
1962 3.0670 116.29 124.11 10.78
1963 3.0680 158.04 124.10 12.57
1964 3.0690 149.57 124.09 12.23
1965 3.0700 135.76 124.09 11.65
1966 3.0710 114.48 124.08 10.70
1967 3.0720 112.59 124.08 10.61
1968 3.0730 135.73 124.08 11.65
1969 3.0740 142.65 124.08 11.94
1970 3.0750 135.40 124.08 11.64
1971 3.0760 151.77 124.08 12.32
1972 3.0770 150.19 124.09 12.26
1973 3.0780 148.45 124.10 12.18
1974 3.0790 136.72 124.10 11.69
1975 3.0800 124.93 124.11 11.18
1976 3.0810 127.91 124.12 11.31
1977 3.0820 121.46 124.13 11.02
1978 3.0830 131.92 124.15 11.49
1979 3.0840 150.05 124.16 12.25
1980 3.0850 163.53 124.18 12.79
1981 3.0860 112.68 124.19 10.62
1982 3.0870 132.42 124.21 11.51
1983 3.0880 140.50 124.23 11.85
1984 3.0890 130.25 124.25 11.41
1985 3.0900 140.07 124.27 11.84
1986 3.0910 123.05 124.30 11.09
1987 3.0920 152.37 124.32 12.34
1988 3.0930 123.10 124.35 11.10
1989 3.0940 116.70 124.38 10.80
1990 3.0950 136.62 124.41 11.69
1991 3.0960 138.14 124.44 11.75
1992 3.0970 137.52 124.47 11.73
1993 3.0980 148.60 124.51 12.19
1994 3.0990 158.31 124.54 12.58
1995 3.1000 149.37 124.58 12.22
1996 3.1010 143.36 124.62 11.97
1997 3.1020 128.26 124.66 11.33
1998 3.1030 131.83 124.70 11.48
1999 3.1040 138.45 124.74 11.77
2000 3.1050 126.82 124.79 11.26
2001 3.1060 118.69 124.83 10.89
2002 3.1070 141.37 124.88 11.89
2003 3.1080 147.70 124.93 12.15
2004 3.1090 137.61 124.98 11.73
2005 3.1100 135.58 125.03 11.64
2006 3.1110 131.95 125.09 11.49
2007 3.1120 128.59 125.14 11.34
2008 3.1130 168.29 125.20 12.97
2009 3.1140 160.62 125.26 12.67
2010 3.1150 121.11 125.32 11.01
2011 3.1160 117.19 125.39 10.83
2012 3.1170 160.10 125.45 12.65
2013 3.1180 141.06 125.52 11.88
2014 3.1190 124.97 122.14 11.18
2015 3.1200 123.04 122.24 11.09
2016 3.1210 124.83 122.34 11.17
2017 3.1220 153.81 122.44 12.40
2018 3.1230 144.08 122.55 12.00
2019 3.1240 127.96 122.65 11.31
2020 3.1250 119.49 122.76 10.93
2021 3.1260 137.05 122.87 11.71
2022 3.1270 139.57 122.98 11.81
2023 3.1280 152.92 123.09 12.37
2024 3.1290 147.68 123.21 12.15
2025 3.1300 123.98 123.32 11.13
2026 3.1310 154.39 123.44 12.43
2027 3.1320 157.21 123.56 12.54
2028 3.1330 143.27 123.69 11.97
2029 3.1340 138.44 123.81 11.77
2030 3.1350 124.89 123.94 11.18
2031 3.1360 129.56 124.07 11.38
2032 3.1370 160.32 124.21 12.66
2033 3.1380 154.65 124.34 12.44
2034 3.1390 141.93 124.48 11.91
2035 3.1400 121.46 124.62 11.02
2036 3.1410 155.99 124.76 12.49
2037 3.1420 127.41 124.91 11.29
2038 3.1430 147.84 125.06 12.16
2039 3.1440 132.08 125.21 11.49
2040 3.1450 126.47 125.37 11.25
2041 3.1460 123.74 125.53 11.12
2042 3.1470 121.10 125.69 11.00
2043 3.1480 136.06 125.85 11.66
2044 3.1490 155.34 126.02 12.46
2045 3.1500 155.22 126.19 12.46
2046 3.1510 146.29 126.37 12.10
2047 3.1520 147.03 126.55 12.13
2048 3.1530 139.14 126.73 11.80
2049 3.1540 155.80 126.92 12.48
2050 3.1550 159.68 127.11 12.64
2051 3.1560 138.18 127.31 11.76
2052 3.1570 146.05 127.51 12.09
2053 3.1580 137.61 127.72 11.73
2054 3.1590 140.01 127.93 11.83
2055 3.1600 133.76 128.14 11.57
2056 3.1610 160.59 128.36 12.67
2057 3.1620 162.41 128.59 12.74
2058 3.1630 148.07 128.82 12.17
2059 3.1640 121.93 129.06 11.04
2060 3.1650 127.71 129.30 11.30
2061 3.1660 131.31 129.55 11.46
2062 3.1670 127.30 129.80 11.28
2063 3.1680 141.48 130.07 11.89
2064 3.1690 154.00 130.34 12.41
2065 3.1700 147.70 130.61 12.15
2066 3.1710 144.52 130.89 12.02
2067 3.1720 154.66 131.18 12.44
2068 3.1730 138.24 131.48 11.76
2069 3.1740 158.75 131.79 12.60
2070 3.1750 137.32 132.10 11.72
2071 3.1760 124.01 132.43 11.14
2072 3.1770 139.24 132.76 11.80
2073 3.1780 148.34 133.10 12.18
2074 3.1790 124.04 133.46 11.14
2075 3.1800 134.90 133.82 11.61
2076 3.1810 137.27 134.19 11.72
2077 3.1820 152.82 134.58 12.36
2078 3.1830 138.45 134.97 11.77
2079 3.1840 129.28 135.38 11.37
2080 3.1850 96.75 135.80 9.84
2081 3.1860 137.12 136.24 11.71
2082 3.1870 146.62 136.68 12.11
2083 3.1880 146.79 137.15 12.12
2084 3.1890 164.36 137.62 12.82
2085 3.1900 158.23 138.12 12.58
2086 3.1910 180.65 138.62 13.44
2087 3.1920 160.05 139.15 12.65
2088 3.1930 160.41 139.70 12.67
2089 3.1940 142.68 140.26 11.94
2090 3.1950 150.55 140.84 12.27
2091 3.1960 151.34 141.45 12.30
2092 3.1970 166.03 142.07 12.89
2093 3.1980 143.82 142.72 11.99
2094 3.1990 178.38 143.39 13.36
2095 3.2000 146.39 144.09 12.10
2096 3.2010 153.26 144.81 12.38
2097 3.2020 158.02 145.56 12.57
2098 3.2030 151.50 146.34 12.31
2099 3.2040 162.83 147.15 12.76
2100 3.2050 157.08 148.00 12.53
2101 3.2060 167.98 148.87 12.96
2102 3.2070 171.34 149.79 13.09
2103 3.2080 170.89 150.74 13.07
2104 3.2090 174.72 151.73 13.22
2105 3.2100 173.24 152.77 13.16
2106 3.2110 164.71 153.85 12.83
2107 3.2120 158.83 154.98 12.60
2108 3.2130 191.64 156.15 13.84
2109 3.2140 165.21 157.38 12.85
2110 3.2150 174.75 158.68 13.22
2111 3.2160 188.12 160.02 13.72
2112 3.2170 184.31 161.44 13.58
2113 3.2180 145.40 162.93 12.06
2114 3.2190 172.49 164.48 13.13
2115 3.2200 147.01 166.12 12.12
2116 3.2210 179.17 168.45 13.39
2117 3.2220 190.70 170.27 13.81
2118 3.2230 190.27 172.19 13.79
2119 3.2240 210.62 174.21 14.51
2120 3.2250 199.22 176.36 14.11
2121 3.2260 208.21 178.63 14.43
2122 3.2270 242.32 181.03 15.57
2123 3.2280 242.21 183.59 15.56
2124 3.2290 231.11 186.31 15.20
2125 3.2300 203.65 189.22 14.27
2126 3.2310 235.98 192.33 15.36
2127 3.2320 242.26 195.66 15.56
2128 3.2330 249.03 199.25 15.78
2129 3.2340 239.27 203.12 15.47
2130 3.2350 251.19 207.30 15.85
2131 3.2360 272.64 211.83 16.51
2132 3.2370 272.97 216.76 16.52
2133 3.2380 269.95 222.13 16.43
2134 3.2390 260.84 228.01 16.15
2135 3.2400 280.81 234.44 16.76
2136 3.2410 286.65 241.50 16.93
2137 3.2420 331.86 249.26 18.22
2138 3.2430 322.05 257.80 17.95
2139 3.2440 325.77 267.21 18.05
2140 3.2450 323.65 277.59 17.99
2141 3.2460 351.58 289.03 18.75
2142 3.2470 335.57 301.64 18.32
2143 3.2480 360.57 315.53 18.99
2144 3.2490 354.16 330.80 18.82
2145 3.2500 403.55 347.57 20.09
2146 3.2510 376.95 365.96 19.42
2147 3.2520 433.05 386.07 20.81
2148 3.2530 412.75 407.99 20.32
2149 3.2540 468.66 431.83 21.65
2150 3.2550 539.94 457.67 23.24
2151 3.2560 585.01 485.56 24.19
2152 3.2570 602.67 515.56 24.55
2153 3.2580 592.61 547.65 24.34
2154 3.2590 631.13 581.85 25.12
2155 3.2600 662.82 618.07 25.75
2156 3.2610 664.02 656.19 25.77
2157 3.2620 740.41 696.02 27.21
2158 3.2630 690.10 737.27 26.27
2159 3.2640 721.82 779.59 26.87
2160 3.2650 806.81 822.46 28.40
2161 3.2660 834.22 865.24 28.88
2162 3.2670 927.66 907.16 30.46
2163 3.2680 933.90 947.27 30.56
2164 3.2690 1017.38 984.54 31.90
2165 3.2700 958.60 1017.82 30.96
2166 3.2710 956.66 1045.94 30.93
2167 3.2720 1026.13 1067.80 32.03
2168 3.2730 975.61 1082.48 31.23
2169 3.2740 984.30 1089.31 31.37
2170 3.2750 955.45 1087.98 30.91
2171 3.2760 972.42 1078.55 31.18
2172 3.2770 960.92 1061.46 31.00
2173 3.2780 876.52 1037.47 29.61
2174 3.2790 901.66 1007.57 30.03
2175 3.2800 850.83 972.91 29.17
2176 3.2810 793.26 934.65 28.16
2177 3.2820 851.83 893.90 29.19
2178 3.2830 774.56 851.67 27.83
2179 3.2840 723.12 808.85 26.89
2180 3.2850 741.35 766.20 27.23
2181 3.2860 682.46 724.27 26.12
2182 3.2870 692.13 683.52 26.31
2183 3.2880 620.59 644.31 24.91
2184 3.2890 658.05 606.89 25.65
2185 3.2900 647.58 571.42 25.45
2186 3.2910 536.49 538.00 23.16
2187 3.2920 557.35 506.68 23.61
2188 3.2930 547.95 477.46 23.41
2189 3.2940 531.99 450.35 23.06
2190 3.2950 551.86 425.27 23.49
2191 3.2960 523.93 402.16 22.89
2192 3.2970 474.59 380.93 21.79
2193 3.2980 485.40 361.49 22.03
2194 3.2990 486.98 343.74 22.07
2195 3.3000 421.24 327.55 20.52
2196 3.3010 406.24 312.84 20.16
2197 3.3020 392.71 299.47 19.82
2198 3.3030 399.34 287.34 19.98
2199 3.3040 379.04 276.35 19.47
2200 3.3050 351.43 266.39 18.75
2201 3.3060 348.99 257.36 18.68
2202 3.3070 370.32 249.17 19.24
2203 3.3080 353.27 241.74 18.80
2204 3.3090 349.50 234.98 18.69
2205 3.3100 328.11 228.82 18.11
2206 3.3110 295.61 223.21 17.19
2207 3.3120 302.41 218.07 17.39
2208 3.3130 303.52 213.36 17.42
2209 3.3140 275.52 209.04 16.60
2210 3.3150 286.60 205.05 16.93
2211 3.3160 285.87 201.37 16.91
2212 3.3170 259.45 197.95 16.11
2213 3.3180 274.87 194.78 16.58
2214 3.3190 246.07 191.83 15.69
2215 3.3200 257.51 189.07 16.05
2216 3.3210 263.79 186.50 16.24
2217 3.3220 278.37 184.08 16.68
2218 3.3230 277.94 181.81 16.67
2219 3.3240 274.60 179.68 16.57
2220 3.3250 244.02 177.66 15.62
2221 3.3260 246.00 175.76 15.68
2222 3.3270 226.93 173.97 15.06
2223 3.3280 253.03 172.27 15.91
2224 3.3290 251.89 170.67 15.87
2225 3.3300 227.68 169.15 15.09
2226 3.3310 215.55 167.70 14.68
2227 3.3320 215.12 166.33 14.67
2228 3.3330 201.81 165.03 14.21
2229 3.3340 224.17 163.79 14.97
2230 3.3350 219.56 162.61 14.82
2231 3.3360 195.60 161.49 13.99
2232 3.3370 184.80 160.43 13.59
2233 3.3380 188.42 159.41 13.73
2234 3.3390 197.98 158.44 14.07
2235 3.3400 211.56 157.52 14.55
2236 3.3410 210.57 156.64 14.51
2237 3.3420 189.27 155.80 13.76
2238 3.3430 198.70 155.00 14.10
2239 3.3440 176.96 154.24 13.30
2240 3.3450 196.01 153.51 14.00
2241 3.3460 184.06 152.82 13.57
2242 3.3470 183.32 152.15 13.54
2243 3.3480 166.43 151.52 12.90
2244 3.3490 180.52 150.92 13.44
2245 3.3500 156.72 150.34 12.52
2246 3.3510 173.33 149.79 13.17
2247 3.3520 167.98 149.26 12.96
2248 3.3530 172.54 148.76 13.14
2249 3.3540 179.04 148.29 13.38
2250 3.3550 185.89 147.83 13.63
2251 3.3560 180.00 147.40 13.42
2252 3.3570 150.87 146.98 12.28
2253 3.3580 157.76 146.59 12.56
2254 3.3590 141.20 146.21 11.88
2255 3.3600 174.82 145.86 13.22
2256 3.3610 173.00 145.52 13.15
2257 3.3620 156.67 145.20 12.52
2258 3.3630 134.01 144.89 11.58
2259 3.3640 129.32 144.60 11.37
2260 3.3650 155.78 144.33 12.48
2261 3.3660 151.10 144.08 12.29
2262 3.3670 153.94 143.84 12.41
2263 3.3680 157.26 143.61 12.54
2264 3.3690 144.49 143.40 12.02
2265 3.3700 151.29 143.20 12.30
2266 3.3710 145.38 143.02 12.06
2267 3.3720 156.92 142.85 12.53
2268 3.3730 135.01 142.69 11.62
2269 3.3740 170.78 142.55 13.07
2270 3.3750 124.98 142.42 11.18
2271 3.3760 140.39 142.30 11.85
2272 3.3770 131.75 142.20 11.48
2273 3.3780 165.08 142.11 12.85
2274 3.3790 155.52 142.03 12.47
2275 3.3800 144.10 141.97 12.00
2276 3.3810 149.48 141.91 12.23
2277 3.3820 141.17 141.88 11.88
2278 3.3830 139.90 141.85 11.83
2279 3.3840 157.99 141.84 12.57
2280 3.3850 147.06 141.85 12.13
2281 3.3860 150.10 141.86 12.25
2282 3.3870 168.06 141.90 12.96
2283 3.3880 146.91 141.94 12.12
2284 3.3890 143.55 142.00 11.98
2285 3.3900 139.97 142.08 11.83
2286 3.3910 146.74 142.17 12.11
2287 3.3920 138.53 142.28 11.77
2288 3.3930 135.18 142.40 11.63
2289 3.3940 129.45 142.55 11.38
2290 3.3950 127.93 142.71 11.31
2291 3.3960 125.09 142.89 11.18
2292 3.3970 132.67 143.09 11.52
2293 3.3980 132.46 143.31 11.51
2294 3.3990 145.52 143.55 12.06
2295 3.4000 157.57 143.82 12.55
2296 3.4010 138.36 144.11 11.76
2297 3.4020 130.39 144.43 11.42
2298 3.4030 161.46 144.77 12.71
2299 3.4040 147.38 145.15 12.14
2300 3.4050 143.21 145.56 11.97
2301 3.4060 147.45 146.00 12.14
2302 3.4070 133.19 146.48 11.54
2303 3.4080 129.88 147.00 11.40
2304 3.4090 130.66 147.57 11.43
2305 3.4100 129.86 148.18 11.40
2306 3.4110 154.02 148.86 12.41
2307 3.4120 153.80 149.59 12.40
2308 3.4130 156.30 150.38 12.50
2309 3.4140 125.97 151.25 11.22
2310 3.4150 147.00 152.21 12.12
2311 3.4160 157.53 153.25 12.55
2312 3.4170 130.84 154.40 11.44
2313 3.4180 148.17 155.66 12.17
2314 3.4190 158.69 157.05 12.60
2315 3.4200 158.67 158.59 12.60
2316 3.4210 168.91 160.28 13.00
2317 3.4220 175.28 162.15 13.24
2318 3.4230 182.64 164.21 13.51
2319 3.4240 157.23 166.49 12.54
2320 3.4250 179.82 169.01 13.41
2321 3.4260 169.98 171.79 13.04
2322 3.4270 211.82 174.85 14.55
2323 3.4280 189.15 178.22 13.75
2324 3.4290 160.55 181.92 12.67
2325 3.4300 163.75 185.98 12.80
2326 3.4310 208.23 190.41 14.43
2327 3.4320 212.15 195.25 14.57
2328 3.4330 200.82 200.51 14.17
2329 3.4340 175.19 206.20 13.24
2330 3.4350 216.98 212.34 14.73
2331 3.4360 247.85 218.93 15.74
2332 3.4370 224.11 225.98 14.97
2333 3.4380 238.37 233.48 15.44
2334 3.4390 258.57 241.40 16.08
2335 3.4400 262.78 249.70 16.21
2336 3.4410 291.91 258.34 17.09
2337 3.4420 269.20 267.23 16.41
2338 3.4430 290.39 276.26 17.04
2339 3.4440 262.43 285.29 16.20
2340 3.4450 310.05 294.16 17.61
2341 3.4460 309.61 302.65 17.60
2342 3.4470 278.38 310.53 16.68
2343 3.4480 289.33 317.53 17.01
2344 3.4490 311.24 323.40 17.64
2345 3.4500 284.94 327.89 16.88
2346 3.4510 308.98 330.79 17.58
2347 3.4520 324.35 331.96 18.01
2348 3.4530 302.58 331.35 17.39
2349 3.4540 304.66 328.98 17.45
2350 3.4550 279.63 324.97 16.72
2351 3.4560 288.85 319.51 17.00
2352 3.4570 287.27 312.82 16.95
2353 3.4580 282.65 305.17 16.81
2354 3.4590 284.71 296.82 16.87
2355 3.4600 291.81 288.01 17.08
2356 3.4610 248.40 278.97 15.76
2357 3.4620 279.03 269.88 16.70
2358 3.4630 295.85 260.89 17.20
2359 3.4640 297.73 252.11 17.25
2360 3.4650 294.14 243.64 17.15
2361 3.4660 255.94 235.54 16.00
2362 3.4670 226.42 227.85 15.05
2363 3.4680 239.87 220.60 15.49
2364 3.4690 206.41 213.81 14.37
2365 3.4700 227.97 207.47 15.10
2366 3.4710 235.12 201.58 15.33
2367 3.4720 235.12 196.13 15.33
2368 3.4730 176.61 191.10 13.29
2369 3.4740 214.00 186.48 14.63
2370 3.4750 185.01 182.25 13.60
2371 3.4760 203.73 178.38 14.27
2372 3.4770 168.97 174.84 13.00
2373 3.4780 176.17 171.62 13.27
2374 3.4790 185.34 168.70 13.61
2375 3.4800 189.49 166.04 13.77
2376 3.4810 167.55 163.62 12.94
2377 3.4820 155.79 161.42 12.48
2378 3.4830 148.97 159.43 12.21
2379 3.4840 150.50 157.62 12.27
2380 3.4850 172.05 155.97 13.12
2381 3.4860 161.85 154.47 12.72
2382 3.4870 142.25 153.10 11.93
2383 3.4880 171.68 151.84 13.10
2384 3.4890 145.82 150.69 12.08
2385 3.4900 158.71 149.64 12.60
2386 3.4910 154.41 148.66 12.43
2387 3.4920 155.27 147.77 12.46
2388 3.4930 145.81 146.94 12.08
2389 3.4940 172.31 146.17 13.13
2390 3.4950 142.49 145.45 11.94
2391 3.4960 137.91 144.79 11.74
2392 3.4970 142.95 144.16 11.96
2393 3.4980 177.84 143.58 13.34
2394 3.4990 147.96 143.03 12.16
2395 3.5000 155.79 142.52 12.48
2396 3.5010 137.13 142.04 11.71
2397 3.5020 137.37 141.58 11.72
2398 3.5030 151.09 141.15 12.29
2399 3.5040 167.37 140.74 12.94
2400 3.5050 138.62 140.36 11.77
2401 3.5060 136.88 140.00 11.70
2402 3.5070 144.24 139.65 12.01
2403 3.5080 136.37 139.33 11.68
2404 3.5090 145.01 139.02 12.04
2405 3.5100 164.13 135.99 12.81
2406 3.5110 172.07 135.74 13.12
2407 3.5120 167.61 135.49 12.95
2408 3.5130 136.35 135.26 11.68
2409 3.5140 126.69 135.04 11.26
2410 3.5150 129.07 134.83 11.36
2411 3.5160 137.14 134.64 11.71
2412 3.5170 134.85 134.45 11.61
2413 3.5180 155.06 134.27 12.45
2414 3.5190 146.95 134.10 12.12
2415 3.5200 127.62 133.94 11.30
2416 3.5210 131.51 133.79 11.47
2417 3.5220 140.36 133.64 11.85
2418 3.5230 142.27 133.51 11.93
2419 3.5240 135.09 133.38 11.62
2420 3.5250 130.52 133.25 11.42
2421 3.5260 138.48 133.13 11.77
2422 3.5270 138.84 133.02 11.78
2423 3.5280 140.41 132.91 11.85
2424 3.5290 127.00 132.81 11.27
2425 3.5300 118.82 132.71 10.90
2426 3.5310 124.20 132.62 11.14
2427 3.5320 159.00 132.53 12.61
2428 3.5330 160.77 132.45 12.68
2429 3.5340 130.54 132.37 11.43
2430 3.5350 142.19 132.29 11.92
2431 3.5360 117.37 132.22 10.83
2432 3.5370 142.20 132.15 11.92
2433 3.5380 133.06 132.09 11.54
2434 3.5390 145.14 132.02 12.05
2435 3.5400 151.61 131.97 12.31
2436 3.5410 144.05 131.91 12.00
2437 3.5420 166.33 131.86 12.90
2438 3.5430 163.45 131.81 12.78
2439 3.5440 126.27 131.76 11.24
2440 3.5450 169.28 131.72 13.01
2441 3.5460 169.87 131.67 13.03
2442 3.5470 149.24 131.63 12.22
2443 3.5480 144.21 131.60 12.01
2444 3.5490 138.03 131.56 11.75
2445 3.5500 146.90 131.53 12.12
2446 3.5510 169.53 131.49 13.02
2447 3.5520 131.38 131.46 11.46
2448 3.5530 141.38 131.44 11.89
2449 3.5540 132.67 131.41 11.52
2450 3.5550 128.80 131.39 11.35
2451 3.5560 127.88 131.36 11.31
2452 3.5570 113.66 131.34 10.66
2453 3.5580 140.71 131.32 11.86
2454 3.5590 136.58 131.30 11.69
2455 3.5600 148.84 131.29 12.20
2456 3.5610 154.55 131.27 12.43
2457 3.5620 138.41 131.26 11.76
2458 3.5630 151.62 131.24 12.31
2459 3.5640 138.03 131.23 11.75
2460 3.5650 146.76 131.22 12.11
2461 3.5660 143.58 131.21 11.98
2462 3.5670 154.73 131.21 12.44
2463 3.5680 136.00 131.20 11.66
2464 3.5690 162.99 131.19 12.77
2465 3.5700 149.39 131.19 12.22
2466 3.5710 150.67 131.18 12.27
2467 3.5720 149.78 131.18 12.24
2468 3.5730 143.48 131.18 11.98
2469 3.5740 136.36 131.18 11.68
2470 3.5750 137.10 131.17 11.71
2471 3.5760 144.42 131.17 12.02
2472 3.5770 136.27 131.18 11.67
2473 3.5780 144.30 131.18 12.01
2474 3.5790 145.80 131.18 12.07
2475 3.5800 155.02 131.18 12.45
2476 3.5810 144.88 131.19 12.04
2477 3.5820 181.61 131.19 13.48
2478 3.5830 146.84 131.20 12.12
2479 3.5840 143.12 131.20 11.96
2480 3.5850 168.28 131.21 12.97
2481 3.5860 160.49 131.21 12.67
2482 3.5870 153.67 131.22 12.40
2483 3.5880 150.86 131.23 12.28
2484 3.5890 158.88 131.24 12.60
2485 3.5900 149.10 131.25 12.21
2486 3.5910 144.57 131.26 12.02
2487 3.5920 149.99 131.27 12.25
2488 3.5930 169.95 131.28 13.04
2489 3.5940 144.32 131.29 12.01
2490 3.5950 163.98 131.30 12.81
2491 3.5960 169.64 131.31 13.02
2492 3.5970 168.63 131.33 12.99
2493 3.5980 161.04 131.34 12.69
2494 3.5990 138.87 131.35 11.78
2495 3.6000 166.96 131.37 12.92
2496 3.6010 152.96 131.38 12.37
2497 3.6020 154.81 131.39 12.44
2498 3.6030 180.32 131.41 13.43
2499 3.6040 161.74 131.42 12.72
2500 3.6050 187.20 131.44 13.68
2501 3.6060 189.41 131.46 13.76
2502 3.6070 138.20 131.47 11.76
2503 3.6080 140.81 131.49 11.87
2504 3.6090 151.79 133.11 12.32
2505 3.6100 150.86 133.14 12.28
2506 3.6110 138.60 133.17 11.77
2507 3.6120 174.95 133.20 13.23
2508 3.6130 164.62 133.24 12.83
2509 3.6140 162.90 133.27 12.76
2510 3.6150 180.52 133.30 13.44
2511 3.6160 149.53 133.34 12.23
2512 3.6170 189.89 133.37 13.78
2513 3.6180 159.82 133.41 12.64
2514 3.6190 166.77 133.44 12.91
2515 3.6200 152.24 133.48 12.34
2516 3.6210 184.39 133.52 13.58
2517 3.6220 172.87 133.55 13.15
2518 3.6230 178.57 133.59 13.36
2519 3.6240 167.81 133.63 12.95
2520 3.6250 166.67 133.67 12.91
2521 3.6260 163.26 133.71 12.78
2522 3.6270 178.63 133.75 13.37
2523 3.6280 158.85 133.79 12.60
2524 3.6290 164.31 133.83 12.82
2525 3.6300 184.19 133.87 13.57
2526 3.6310 167.94 133.91 12.96
2527 3.6320 151.88 133.95 12.32
2528 3.6330 177.71 133.99 13.33
2529 3.6340 147.44 134.03 12.14
2530 3.6350 137.46 134.08 11.72
2531 3.6360 131.61 134.12 11.47
2532 3.6370 152.71 134.16 12.36
2533 3.6380 178.42 134.21 13.36
2534 3.6390 144.47 134.25 12.02
2535 3.6400 150.83 134.30 12.28
2536 3.6410 139.74 134.35 11.82
2537 3.6420 160.03 134.39 12.65
2538 3.6430 137.53 134.44 11.73
2539 3.6440 139.00 134.49 11.79
2540 3.6450 177.32 134.53 13.32
2541 3.6460 147.97 134.58 12.16
2542 3.6470 151.50 134.63 12.31
2543 3.6480 158.30 134.68 12.58
2544 3.6490 150.13 134.73 12.25
2545 3.6500 152.40 134.78 12.35
2546 3.6510 147.68 134.83 12.15
2547 3.6520 136.18 134.88 11.67
2548 3.6530 165.93 134.93 12.88
2549 3.6540 164.19 134.99 12.81
2550 3.6550 150.57 135.04 12.27
2551 3.6560 156.43 135.09 12.51
2552 3.6570 164.58 135.15 12.83
2553 3.6580 149.12 135.20 12.21
2554 3.6590 169.50 135.26 13.02
2555 3.6600 131.67 135.31 11.47
2556 3.6610 132.76 135.37 11.52
2557 3.6620 127.72 135.43 11.30
2558 3.6630 157.01 135.49 12.53
2559 3.6640 147.69 135.54 12.15
2560 3.6650 143.01 135.60 11.96
2561 3.6660 147.69 135.66 12.15
2562 3.6670 121.15 135.72 11.01
2563 3.6680 113.45 135.78 10.65
2564 3.6690 141.97 135.85 11.92
2565 3.6700 149.46 135.91 12.23
2566 3.6710 134.33 135.97 11.59
2567 3.6720 125.66 136.04 11.21
2568 3.6730 143.48 136.10 11.98
2569 3.6740 154.16 136.16 12.42
2570 3.6750 143.40 136.23 11.98
2571 3.6760 136.66 136.30 11.69
2572 3.6770 148.56 136.37 12.19
2573 3.6780 161.13 136.44 12.69
2574 3.6790 131.05 136.51 11.45
2575 3.6800 155.53 136.58 12.47
2576 3.6810 134.71 136.65 11.61
2577 3.6820 143.99 136.72 12.00
2578 3.6830 129.29 136.79 11.37
2579 3.6840 148.20 136.26 12.17
2580 3.6850 142.91 136.35 11.95
2581 3.6860 134.80 136.43 11.61
2582 3.6870 179.59 136.51 13.40
2583 3.6880 159.40 136.59 12.63
2584 3.6890 141.78 136.68 11.91
2585 3.6900 141.40 136.76 11.89
2586 3.6910 132.67 136.85 11.52
2587 3.6920 135.35 136.94 11.63
2588 3.6930 142.45 137.02 11.94
2589 3.6940 157.81 137.11 12.56
2590 3.6950 135.11 137.21 11.62
2591 3.6960 138.17 137.30 11.75
2592 3.6970 110.48 137.39 10.51
2593 3.6980 142.42 137.49 11.93
2594 3.6990 144.85 137.58 12.04
2595 3.7000 141.83 137.68 11.91
2596 3.7010 148.51 137.78 12.19
2597 3.7020 115.13 137.88 10.73
2598 3.7030 129.79 137.98 11.39
2599 3.7040 118.73 138.08 10.90
2600 3.7050 136.12 138.19 11.67
2601 3.7060 146.47 138.30 12.10
2602 3.7070 140.14 138.40 11.84
2603 3.7080 124.93 138.51 11.18
2604 3.7090 141.25 138.63 11.88
2605 3.7100 143.32 138.74 11.97
2606 3.7110 132.25 138.86 11.50
2607 3.7120 127.56 138.98 11.29
2608 3.7130 124.61 139.10 11.16
2609 3.7140 146.92 139.22 12.12
2610 3.7150 129.68 139.34 11.39
2611 3.7160 126.90 139.47 11.27
2612 3.7170 133.86 139.60 11.57
2613 3.7180 128.98 139.73 11.36
2614 3.7190 112.93 139.86 10.63
2615 3.7200 129.22 140.00 11.37
2616 3.7210 147.97 140.14 12.16
2617 3.7220 139.13 140.28 11.80
2618 3.7230 141.95 140.43 11.91
2619 3.7240 129.25 140.57 11.37
2620 3.7250 123.37 140.73 11.11
2621 3.7260 127.68 140.88 11.30
2622 3.7270 134.50 141.04 11.60
2623 3.7280 138.04 141.20 11.75
2624 3.7290 136.25 141.36 11.67
2625 3.7300 131.02 141.53 11.45
2626 3.7310 139.53 141.70 11.81
2627 3.7320 130.50 141.88 11.42
2628 3.7330 142.44 142.06 11.93
2629 3.7340 143.51 142.25 11.98
2630 3.7350 139.74 142.43 11.82
2631 3.7360 130.61 142.63 11.43
2632 3.7370 151.20 142.83 12.30
2633 3.7380 150.92 143.03 12.28
2634 3.7390 136.12 143.24 11.67
2635 3.7400 140.54 143.46 11.85
2636 3.7410 122.25 143.68 11.06
2637 3.7420 124.99 143.90 11.18
2638 3.7430 140.90 144.14 11.87
2639 3.7440 126.49 144.38 11.25
2640 3.7450 145.14 144.62 12.05
2641 3.7460 144.64 144.87 12.03
2642 3.7470 137.68 145.13 11.73
2643 3.7480 106.06 145.40 10.30
2644 3.7490 143.58 145.68 11.98
2645 3.7500 144.49 145.96 12.02
2646 3.7510 131.47 146.26 11.47
2647 3.7520 135.40 146.56 11.64
2648 3.7530 133.93 146.87 11.57
2649 3.7540 139.89 147.19 11.83
2650 3.7550 154.88 147.53 12.45
2651 3.7560 167.31 147.87 12.93
2652 3.7570 145.81 148.23 12.08
2653 3.7580 125.85 148.59 11.22
2654 3.7590 143.16 148.98 11.96
2655 3.7600 156.85 149.37 12.52
2656 3.7610 144.68 149.78 12.03
2657 3.7620 145.97 150.20 12.08
2658 3.7630 155.75 150.64 12.48
2659 3.7640 147.60 151.10 12.15
2660 3.7650 160.40 151.57 12.66
2661 3.7660 146.68 152.06 12.11
2662 3.7670 134.79 152.57 11.61
2663 3.7680 150.56 153.11 12.27
2664 3.7690 139.19 153.66 11.80
2665 3.7700 143.83 154.24 11.99
2666 3.7710 148.95 154.84 12.20
2667 3.7720 151.76 155.47 12.32
2668 3.7730 125.69 156.12 11.21
2669 3.7740 134.55 156.80 11.60
2670 3.7750 127.95 157.52 11.31
2671 3.7760 152.24 158.27 12.34
2672 3.7770 149.98 159.05 12.25
2673 3.7780 170.11 159.87 13.04
2674 3.7790 150.58 160.73 12.27
2675 3.7800 154.91 161.63 12.45
2676 3.7810 146.54 162.58 12.11
2677 3.7820 172.85 163.58 13.15
2678 3.7830 182.49 164.63 13.51
2679 3.7840 159.50 165.73 12.63
2680 3.7850 170.78 166.90 13.07
2681 3.7860 148.74 168.13 12.20
2682 3.7870 160.97 169.43 12.69
2683 3.7880 159.18 170.81 12.62
2684 3.7890 142.36 172.27 11.93
2685 3.7900 163.08 173.82 12.77
2686 3.7910 189.45 175.47 13.76
2687 3.7920 168.13 177.23 12.97
2688 3.7930 178.62 179.10 13.36
2689 3.7940 161.36 181.11 12.70
2690 3.7950 178.37 183.26 13.36
2691 3.7960 170.60 185.56 13.06
2692 3.7970 176.74 188.05 13.29
2693 3.7980 204.00 190.73 14.28
2694 3.7990 195.23 193.62 13.97
2695 3.8000 188.43 196.76 13.73
2696 3.8010 204.56 200.17 14.30
2697 3.8020 213.18 203.87 14.60
2698 3.8030 205.11 207.91 14.32
2699 3.8040 231.87 212.31 15.23
2700 3.8050 263.08 217.13 16.22
2701 3.8060 226.96 222.40 15.07
2702 3.8070 273.86 228.16 16.55
2703 3.8080 269.77 234.48 16.42
2704 3.8090 267.33 241.41 16.35
2705 3.8100 275.38 249.00 16.59
2706 3.8110 276.98 257.31 16.64
2707 3.8120 303.07 266.40 17.41
2708 3.8130 311.48 276.34 17.65
2709 3.8140 312.06 287.19 17.67
2710 3.8150 325.36 298.99 18.04
2711 3.8160 381.80 311.83 19.54
2712 3.8170 377.54 325.74 19.43
2713 3.8180 389.48 340.77 19.74
2714 3.8190 413.39 356.93 20.33
2715 3.8200 433.08 374.27 20.81
2716 3.8210 445.05 392.73 21.10
2717 3.8220 394.81 412.28 19.87
2718 3.8230 445.21 432.83 21.10
2719 3.8240 460.14 454.21 21.45
2720 3.8250 462.32 476.20 21.50
2721 3.8260 487.18 498.48 22.07
2722 3.8270 511.33 520.64 22.61
2723 3.8280 516.59 542.16 22.73
2724 3.8290 581.07 562.43 24.11
2725 3.8300 589.27 580.78 24.27
2726 3.8310 550.31 596.46 23.46
2727 3.8320 569.56 608.79 23.87
2728 3.8330 580.55 617.17 24.09
2729 3.8340 605.73 621.15 24.61
2730 3.8350 625.88 620.53 25.02
2731 3.8360 560.82 615.33 23.68
2732 3.8370 578.70 605.84 24.06
2733 3.8380 604.03 592.56 24.58
2734 3.8390 566.89 576.11 23.81
2735 3.8400 547.09 557.20 23.39
2736 3.8410 565.11 536.57 23.77
2737 3.8420 562.70 514.87 23.72
2738 3.8430 523.53 492.69 22.88
2739 3.8440 547.91 470.51 23.41
2740 3.8450 509.69 448.72 22.58
2741 3.8460 488.30 427.61 22.10
2742 3.8470 493.84 407.39 22.22
2743 3.8480 474.16 388.19 21.78
2744 3.8490 375.63 370.10 19.38
2745 3.8500 405.40 353.16 20.13
2746 3.8510 412.87 337.37 20.32
2747 3.8520 390.49 322.72 19.76
2748 3.8530 385.19 309.17 19.63
2749 3.8540 347.44 296.70 18.64
2750 3.8550 357.76 285.22 18.91
2751 3.8560 314.57 274.69 17.74
2752 3.8570 285.22 265.06 16.89
2753 3.8580 295.11 256.25 17.18
2754 3.8590 296.11 248.21 17.21
2755 3.8600 252.42 240.87 15.89
2756 3.8610 286.03 234.18 16.91
2757 3.8620 247.68 228.07 15.74
2758 3.8630 265.69 222.51 16.30
2759 3.8640 220.10 217.43 14.84
2760 3.8650 237.54 212.80 15.41
2761 3.8660 235.91 208.56 15.36
2762 3.8670 181.84 204.68 13.48
2763 3.8680 193.62 201.12 13.91
2764 3.8690 217.10 197.85 14.73
2765 3.8700 197.10 194.84 14.04
2766 3.8710 185.99 192.06 13.64
2767 3.8720 191.49 189.50 13.84
2768 3.8730 182.73 187.12 13.52
2769 3.8740 185.15 184.92 13.61
2770 3.8750 187.67 182.87 13.70
2771 3.8760 154.76 180.96 12.44
2772 3.8770 169.66 179.18 13.03
2773 3.8780 167.85 177.51 12.96
2774 3.8790 177.81 175.94 13.33
2775 3.8800 142.33 174.48 11.93
2776 3.8810 170.99 173.10 13.08
2777 3.8820 172.10 171.80 13.12
2778 3.8830 166.31 170.58 12.90
2779 3.8840 165.08 169.43 12.85
2780 3.8850 140.32 168.33 11.85
2781 3.8860 157.17 167.30 12.54
2782 3.8870 152.34 166.33 12.34
2783 3.8880 145.59 165.40 12.07
2784 3.8890 132.78 164.52 11.52
2785 3.8900 130.39 163.69 11.42
2786 3.8910 152.76 162.90 12.36
2787 3.8920 165.52 162.15 12.87
2788 3.8930 147.18 161.43 12.13
2789 3.8940 130.57 160.75 11.43
2790 3.8950 155.68 160.10 12.48
2791 3.8960 146.40 159.49 12.10
2792 3.8970 142.60 158.90 11.94
2793 3.8980 143.63 158.33 11.98
2794 3.8990 132.15 157.80 11.50
2795 3.9000 148.27 157.28 12.18
2796 3.9010 153.36 156.79 12.38
2797 3.9020 137.63 156.32 11.73
2798 3.9030 140.40 155.88 11.85
2799 3.9040 129.03 155.45 11.36
2800 3.9050 129.53 155.03 11.38
2801 3.9060 129.56 154.64 11.38
2802 3.9070 121.16 154.26 11.01
2803 3.9080 131.58 153.90 11.47
2804 3.9090 136.50 153.55 11.68
2805 3.9100 123.87 153.22 11.13
2806 3.9110 137.03 152.90 11.71
2807 3.9120 127.36 152.59 11.29
2808 3.9130 132.43 152.30 11.51
2809 3.9140 153.67 152.01 12.40
2810 3.9150 127.07 151.74 11.27
2811 3.9160 129.20 151.48 11.37
2812 3.9170 121.81 151.23 11.04
2813 3.9180 104.39 150.98 10.22
2814 3.9190 133.76 150.75 11.57
2815 3.9200 135.25 150.52 11.63
2816 3.9210 128.39 150.31 11.33
2817 3.9220 115.31 150.10 10.74
2818 3.9230 122.98 149.90 11.09
2819 3.9240 133.11 149.70 11.54
2820 3.9250 131.37 149.52 11.46
2821 3.9260 149.57 149.34 12.23
2822 3.9270 129.43 149.16 11.38
2823 3.9280 110.99 148.99 10.54
2824 3.9290 100.22 148.83 10.01
2825 3.9300 122.44 148.68 11.07
2826 3.9310 128.81 148.53 11.35
2827 3.9320 135.60 148.38 11.64
2828 3.9330 142.87 148.24 11.95
2829 3.9340 109.77 148.10 10.48
2830 3.9350 123.75 147.97 11.12
2831 3.9360 129.99 147.85 11.40
2832 3.9370 136.70 147.72 11.69
2833 3.9380 130.00 147.60 11.40
2834 3.9390 116.06 147.49 10.77
2835 3.9400 132.39 147.38 11.51
2836 3.9410 143.71 147.27 11.99
2837 3.9420 150.30 147.17 12.26
2838 3.9430 128.60 147.07 11.34
2839 3.9440 125.49 146.97 11.20
2840 3.9450 124.10 146.88 11.14
2841 3.9460 116.55 146.79 10.80
2842 3.9470 119.35 146.70 10.92
2843 3.9480 117.06 146.62 10.82
2844 3.9490 119.85 146.54 10.95
2845 3.9500 129.59 146.46 11.38
2846 3.9510 116.48 146.38 10.79
2847 3.9520 109.94 146.30 10.49
2848 3.9530 155.46 146.23 12.47
2849 3.9540 129.59 146.16 11.38
2850 3.9550 118.59 146.10 10.89
2851 3.9560 105.97 146.03 10.29
2852 3.9570 129.70 145.97 11.39
2853 3.9580 127.14 145.91 11.28
2854 3.9590 124.76 145.85 11.17
2855 3.9600 133.80 145.79 11.57
2856 3.9610 107.12 145.74 10.35
2857 3.9620 111.41 145.68 10.56
2858 3.9630 135.47 145.63 11.64
2859 3.9640 140.00 145.58 11.83
2860 3.9650 139.84 145.53 11.83
2861 3.9660 133.96 145.49 11.57
2862 3.9670 118.48 145.44 10.88
2863 3.9680 131.63 145.40 11.47
2864 3.9690 118.13 145.35 10.87
2865 3.9700 119.41 145.32 10.93
2866 3.9710 111.22 145.27 10.55
2867 3.9720 131.57 145.24 11.47
2868 3.9730 134.63 145.20 11.60
2869 3.9740 114.95 145.16 10.72
2870 3.9750 101.89 145.13 10.09
2871 3.9760 98.31 145.10 9.92
2872 3.9770 120.14 145.06 10.96
2873 3.9780 119.52 145.03 10.93
2874 3.9790 154.63 145.00 12.44
2875 3.9800 152.20 144.97 12.34
2876 3.9810 112.51 144.95 10.61
2877 3.9820 130.39 144.92 11.42
2878 3.9830 129.33 144.89 11.37
2879 3.9840 132.42 144.87 11.51
2880 3.9850 147.30 144.85 12.14
2881 3.9860 124.01 144.82 11.14
2882 3.9870 153.69 144.80 12.40
2883 3.9880 162.40 144.78 12.74
2884 3.9890 137.89 144.76 11.74
2885 3.9900 120.12 144.74 10.96
2886 3.9910 131.26 144.72 11.46
2887 3.9920 117.12 144.70 10.82
2888 3.9930 120.81 144.68 10.99
2889 3.9940 142.64 144.66 11.94
2890 3.9950 119.44 144.65 10.93
2891 3.9960 132.39 144.63 11.51
2892 3.9970 106.85 144.62 10.34
2893 3.9980 122.40 144.60 11.06
2894 3.9990 121.56 144.59 11.03
2895 4.0000 130.74 144.58 11.43
2896 4.0010 131.92 144.57 11.49
2897 4.0020 125.76 144.55 11.21
2898 4.0030 109.89 144.54 10.48
2899 4.0040 105.80 144.53 10.29
2900 4.0050 115.24 144.52 10.73
2901 4.0060 127.89 144.51 11.31
2902 4.0070 132.44 144.50 11.51
2903 4.0080 133.65 144.49 11.56
2904 4.0090 136.84 144.49 11.70
2905 4.0100 132.28 144.48 11.50
2906 4.0110 118.60 144.47 10.89
2907 4.0120 124.99 144.46 11.18
2908 4.0130 146.81 144.46 12.12
2909 4.0140 133.33 144.45 11.55
2910 4.0150 126.33 144.45 11.24
2911 4.0160 114.57 144.44 10.70
2912 4.0170 111.66 144.44 10.57
2913 4.0180 117.75 144.43 10.85
2914 4.0190 133.32 144.43 11.55
2915 4.0200 119.75 144.43 10.94
2916 4.0210 140.94 144.42 11.87
2917 4.0220 138.93 144.42 11.79
2918 4.0230 137.78 144.42 11.74
2919 4.0240 120.66 144.42 10.98
2920 4.0250 109.20 144.41 10.45
2921 4.0260 107.09 144.41 10.35
2922 4.0270 137.50 144.41 11.73
2923 4.0280 139.98 144.41 11.83
2924 4.0290 114.46 144.41 10.70
2925 4.0300 133.24 144.41 11.54
2926 4.0310 121.45 144.41 11.02
2927 4.0320 119.51 144.41 10.93
2928 4.0330 111.56 144.41 10.56
2929 4.0340 128.24 144.41 11.32
2930 4.0350 123.56 144.42 11.12
2931 4.0360 133.72 144.42 11.56
2932 4.0370 142.40 144.42 11.93
2933 4.0380 136.00 144.42 11.66
2934 4.0390 115.84 144.43 10.76
2935 4.0400 107.40 144.43 10.36
2936 4.0410 114.06 144.43 10.68
2937 4.0420 121.71 144.43 11.03
2938 4.0430 136.44 144.44 11.68
2939 4.0440 130.12 144.44 11.41
2940 4.0450 141.74 144.45 11.91
2941 4.0460 137.97 144.45 11.75
2942 4.0470 154.82 144.45 12.44
2943 4.0480 150.25 144.46 12.26
2944 4.0490 134.71 144.46 11.61
2945 4.0500 141.74 144.47 11.91
2946 4.0510 135.01 144.48 11.62
2947 4.0520 121.55 144.48 11.02
2948 4.0530 126.77 144.49 11.26
2949 4.0540 116.78 144.49 10.81
2950 4.0550 143.00 144.50 11.96
2951 4.0560 145.61 144.51 12.07
2952 4.0570 154.41 144.51 12.43
2953 4.0580 133.78 144.52 11.57
2954 4.0590 124.18 144.53 11.14
2955 4.0600 120.62 142.94 10.98
2956 4.0610 130.54 142.96 11.43
2957 4.0620 137.81 142.98 11.74
2958 4.0630 117.55 143.00 10.84
2959 4.0640 127.97 143.02 11.31
2960 4.0650 99.15 143.05 9.96
2961 4.0660 108.55 143.07 10.42
2962 4.0670 123.31 143.09 11.10
2963 4.0680 134.79 143.11 11.61
2964 4.0690 116.89 143.14 10.81
2965 4.0700 104.58 143.16 10.23
2966 4.0710 127.92 143.18 11.31
2967 4.0720 115.77 143.21 10.76
2968 4.0730 138.37 143.23 11.76
2969 4.0740 136.64 143.26 11.69
2970 4.0750 137.19 143.28 11.71
2971 4.0760 150.11 143.31 12.25
2972 4.0770 130.93 143.33 11.44
2973 4.0780 116.88 143.36 10.81
2974 4.0790 137.23 143.38 11.71
2975 4.0800 118.95 143.41 10.91
2976 4.0810 123.96 143.44 11.13
2977 4.0820 127.56 143.47 11.29
2978 4.0830 111.45 143.50 10.56
2979 4.0840 114.15 143.53 10.68
2980 4.0850 147.15 143.56 12.13
2981 4.0860 140.41 143.59 11.85
2982 4.0870 124.73 143.63 11.17
2983 4.0880 130.56 143.66 11.43
2984 4.0890 126.82 143.70 11.26
2985 4.0900 124.95 143.74 11.18
2986 4.0910 134.21 143.78 11.58
2987 4.0920 141.26 143.82 11.89
2988 4.0930 124.32 143.86 11.15
2989 4.0940 135.63 143.91 11.65
2990 4.0950 130.93 143.95 11.44
2991 4.0960 124.79 144.00 11.17
2992 4.0970 158.35 144.05 12.58
2993 4.0980 137.27 144.09 11.72
2994 4.0990 131.25 144.14 11.46
2995 4.1000 129.82 144.19 11.39
2996 4.1010 161.96 144.23 12.73
2997 4.1020 140.18 144.27 11.84
2998 4.1030 132.13 144.31 11.49
2999 4.1040 145.20 144.34 12.05
3000 4.1050 124.68 144.37 11.17
3001 4.1060 128.33 144.39 11.33
3002 4.1070 116.65 144.40 10.80
3003 4.1080 133.75 144.41 11.56
3004 4.1090 109.84 144.41 10.48
3005 4.1100 130.82 144.41 11.44
3006 4.1110 143.87 144.41 11.99
3007 4.1120 116.32 144.40 10.79
3008 4.1130 137.06 144.39 11.71
3009 4.1140 162.80 144.38 12.76
3010 4.1150 128.83 144.37 11.35
3011 4.1160 135.10 144.35 11.62
3012 4.1170 135.27 144.34 11.63
3013 4.1180 117.03 144.51 10.82
3014 4.1190 140.63 144.50 11.86
3015 4.1200 134.97 144.50 11.62
3016 4.1210 135.65 144.49 11.65
3017 4.1220 139.81 144.49 11.82
3018 4.1230 137.67 144.49 11.73
3019 4.1240 129.20 144.49 11.37
3020 4.1250 161.55 144.49 12.71
3021 4.1260 159.25 144.50 12.62
3022 4.1270 140.54 144.50 11.85
3023 4.1280 124.51 144.51 11.16
3024 4.1290 128.23 144.52 11.32
3025 4.1300 123.36 144.52 11.11
3026 4.1310 117.91 144.53 10.86
3027 4.1320 131.23 144.54 11.46
3028 4.1330 130.13 144.55 11.41
3029 4.1340 147.46 144.56 12.14
3030 4.1350 139.71 144.57 11.82
3031 4.1360 129.71 144.59 11.39
3032 4.1370 134.95 144.60 11.62
3033 4.1380 122.52 144.61 11.07
3034 4.1390 141.71 144.63 11.90
3035 4.1400 135.19 144.64 11.63
3036 4.1410 142.22 144.65 11.93
3037 4.1420 142.64 144.67 11.94
3038 4.1430 121.62 144.68 11.03
3039 4.1440 130.10 144.70 11.41
3040 4.1450 122.85 144.71 11.08
3041 4.1460 131.54 144.73 11.47
3042 4.1470 151.93 144.75 12.33
3043 4.1480 138.06 144.76 11.75
3044 4.1490 146.91 144.78 12.12
3045 4.1500 150.26 144.79 12.26
3046 4.1510 139.11 144.81 11.79
3047 4.1520 117.47 144.83 10.84
3048 4.1530 123.83 144.84 11.13
3049 4.1540 122.99 144.86 11.09
3050 4.1550 123.18 144.88 11.10
3051 4.1560 112.61 144.89 10.61
3052 4.1570 136.53 144.91 11.68
3053 4.1580 130.78 144.93 11.44
3054 4.1590 133.92 144.94 11.57
3055 4.1600 141.63 144.96 11.90
3056 4.1610 134.12 144.98 11.58
3057 4.1620 139.95 144.99 11.83
3058 4.1630 133.64 145.01 11.56
3059 4.1640 120.24 145.03 10.97
3060 4.1650 114.14 145.05 10.68
3061 4.1660 125.70 145.07 11.21
3062 4.1670 133.98 145.08 11.57
3063 4.1680 127.37 145.10 11.29
3064 4.1690 127.87 145.12 11.31
3065 4.1700 139.65 145.13 11.82
3066 4.1710 132.18 145.15 11.50
3067 4.1720 116.55 145.17 10.80
3068 4.1730 106.04 145.19 10.30
3069 4.1740 122.58 145.21 11.07
3070 4.1750 139.35 145.22 11.80
3071 4.1760 116.24 145.24 10.78
3072 4.1770 140.87 145.26 11.87
3073 4.1780 133.64 145.28 11.56
3074 4.1790 140.01 145.29 11.83
3075 4.1800 123.43 145.31 11.11
3076 4.1810 124.02 145.33 11.14
3077 4.1820 130.81 145.35 11.44
3078 4.1830 123.78 145.37 11.13
3079 4.1840 120.89 145.39 10.99
3080 4.1850 145.44 145.40 12.06
3081 4.1860 131.74 145.42 11.48
3082 4.1870 134.34 145.44 11.59
3083 4.1880 136.14 145.46 11.67
3084 4.1890 153.99 145.48 12.41
3085 4.1900 139.26 145.50 11.80
3086 4.1910 131.40 145.52 11.46
3087 4.1920 137.86 145.53 11.74
3088 4.1930 155.47 145.55 12.47
3089 4.1940 143.39 145.57 11.97
3090 4.1950 127.55 145.59 11.29
3091 4.1960 114.97 145.61 10.72
3092 4.1970 143.43 145.63 11.98
3093 4.1980 127.37 145.65 11.29
3094 4.1990 130.68 145.67 11.43
3095 4.2000 153.50 145.69 12.39
3096 4.2010 161.59 145.71 12.71
3097 4.2020 156.91 145.73 12.53
3098 4.2030 127.80 145.74 11.30
3099 4.2040 139.50 145.76 11.81
3100 4.2050 116.08 145.79 10.77
3101 4.2060 102.34 145.80 10.12
3102 4.2070 127.20 145.82 11.28
3103 4.2080 139.95 145.85 11.83
3104 4.2090 132.73 145.87 11.52
3105 4.2100 125.17 145.89 11.19
3106 4.2110 117.68 145.91 10.85
3107 4.2120 124.06 145.93 11.14
3108 4.2130 137.32 145.95 11.72
3109 4.2140 134.97 145.97 11.62
3110 4.2150 129.52 145.99 11.38
3111 4.2160 129.91 146.01 11.40
3112 4.2170 155.50 146.03 12.47
3113 4.2180 136.55 146.05 11.69
3114 4.2190 113.49 146.08 10.65
3115 4.2200 152.09 146.10 12.33
3116 4.2210 134.87 146.12 11.61
3117 4.2220 141.43 146.14 11.89
3118 4.2230 150.19 146.16 12.26
3119 4.2240 126.11 146.19 11.23
3120 4.2250 135.79 146.21 11.65
3121 4.2260 139.54 146.23 11.81
3122 4.2270 121.11 146.26 11.01
3123 4.2280 145.39 146.28 12.06
3124 4.2290 147.40 146.30 12.14
3125 4.2300 149.49 146.33 12.23
3126 4.2310 144.62 146.35 12.03
3127 4.2320 131.93 146.38 11.49
3128 4.2330 154.81 146.40 12.44
3129 4.2340 146.33 146.43 12.10
3130 4.2350 137.23 146.45 11.71
3131 4.2360 132.82 146.48 11.52
3132 4.2370 131.19 146.51 11.45
3133 4.2380 144.03 146.53 12.00
3134 4.2390 127.53 146.56 11.29
3135 4.2400 116.71 146.59 10.80
3136 4.2410 131.09 146.62 11.45
3137 4.2420 141.03 146.64 11.88
3138 4.2430 134.84 146.67 11.61
3139 4.2440 140.30 146.70 11.84
3140 4.2450 115.92 146.73 10.77
3141 4.2460 103.96 146.76 10.20
3142 4.2470 130.49 146.79 11.42
3143 4.2480 149.98 146.82 12.25
3144 4.2490 135.98 146.86 11.66
3145 4.2500 128.55 146.89 11.34
3146 4.2510 141.49 146.92 11.90
3147 4.2520 141.57 146.96 11.90
3148 4.2530 137.83 146.99 11.74
3149 4.2540 159.56 147.03 12.63
3150 4.2550 143.40 147.06 11.98
3151 4.2560 141.25 147.10 11.88
3152 4.2570 138.59 147.14 11.77
3153 4.2580 145.14 147.18 12.05
3154 4.2590 134.64 147.22 11.60
3155 4.2600 122.46 147.26 11.07
3156 4.2610 162.59 147.30 12.75
3157 4.2620 148.77 147.34 12.20
3158 4.2630 139.22 147.38 11.80
3159 4.2640 145.87 147.43 12.08
3160 4.2650 134.15 147.48 11.58
3161 4.2660 143.38 147.52 11.97
3162 4.2670 136.23 147.57 11.67
3163 4.2680 136.64 147.62 11.69
3164 4.2690 133.48 147.68 11.55
3165 4.2700 135.40 147.73 11.64
3166 4.2710 142.42 147.78 11.93
3167 4.2720 133.27 147.84 11.54
3168 4.2730 124.73 147.90 11.17
3169 4.2740 149.79 147.96 12.24
3170 4.2750 150.95 148.02 12.29
3171 4.2760 137.56 148.09 11.73
3172 4.2770 138.67 148.16 11.78
3173 4.2780 135.60 148.23 11.64
3174 4.2790 135.72 148.30 11.65
3175 4.2800 129.44 148.38 11.38
3176 4.2810 137.59 148.46 11.73
3177 4.2820 138.99 148.54 11.79
3178 4.2830 133.04 148.62 11.53
3179 4.2840 142.09 148.71 11.92
3180 4.2850 135.74 148.81 11.65
3181 4.2860 141.36 148.90 11.89
3182 4.2870 142.82 149.00 11.95
3183 4.2880 140.87 149.11 11.87
3184 4.2890 140.14 149.22 11.84
3185 4.2900 151.67 149.34 12.32
3186 4.2910 139.38 149.46 11.81
3187 4.2920 122.54 149.59 11.07
3188 4.2930 138.18 149.72 11.76
3189 4.2940 126.56 149.87 11.25
3190 4.2950 157.05 150.02 12.53
3191 4.2960 132.90 150.17 11.53
3192 4.2970 143.98 150.34 12.00
3193 4.2980 153.42 150.52 12.39
3194 4.2990 142.96 150.71 11.96
3195 4.3000 157.32 150.90 12.54
3196 4.3010 129.14 151.12 11.36
3197 4.3020 149.18 151.34 12.21
3198 4.3030 153.24 151.58 12.38
3199 4.3040 129.20 151.84 11.37
3200 4.3050 152.25 152.11 12.34
3201 4.3060 128.10 152.40 11.32
3202 4.3070 126.06 152.72 11.23
3203 4.3080 136.77 153.06 11.69
3204 4.3090 150.21 153.42 12.26
3205 4.3100 155.73 153.82 12.48
3206 4.3110 156.49 154.24 12.51
3207 4.3120 160.05 154.70 12.65
3208 4.3130 155.61 155.20 12.47
3209 4.3140 131.86 155.74 11.48
3210 4.3150 134.20 156.33 11.58
3211 4.3160 136.89 156.97 11.70
3212 4.3170 141.64 157.66 11.90
3213 4.3180 139.91 158.42 11.83
3214 4.3190 148.65 159.24 12.19
3215 4.3200 151.04 160.14 12.29
3216 4.3210 170.92 161.12 13.07
3217 4.3220 171.57 162.19 13.10
3218 4.3230 145.31 163.34 12.05
3219 4.3240 171.10 164.60 13.08
3220 4.3250 147.62 165.97 12.15
3221 4.3260 137.59 167.44 11.73
3222 4.3270 163.60 169.03 12.79
3223 4.3280 152.20 170.74 12.34
3224 4.3290 174.00 172.57 13.19
3225 4.3300 169.04 174.51 13.00
3226 4.3310 156.36 176.56 12.50
3227 4.3320 156.86 178.70 12.52
3228 4.3330 164.06 180.90 12.81
3229 4.3340 167.91 183.14 12.96
3230 4.3350 161.57 185.36 12.71
3231 4.3360 154.53 187.50 12.43
3232 4.3370 184.10 189.51 13.57
3233 4.3380 181.77 191.31 13.48
3234 4.3390 170.17 192.81 13.04
3235 4.3400 182.65 193.95 13.51
3236 4.3410 167.65 194.67 12.95
3237 4.3420 195.35 194.92 13.98
3238 4.3430 172.95 194.70 13.15
3239 4.3440 175.56 194.01 13.25
3240 4.3450 163.19 192.90 12.77
3241 4.3460 151.04 191.42 12.29
3242 4.3470 167.22 189.65 12.93
3243 4.3480 165.31 187.66 12.86
3244 4.3490 174.57 185.53 13.21
3245 4.3500 163.00 183.33 12.77
3246 4.3510 157.94 181.10 12.57
3247 4.3520 180.97 178.91 13.45
3248 4.3530 186.17 176.79 13.64
3249 4.3540 188.65 174.75 13.73
3250 4.3550 148.54 172.82 12.19
3251 4.3560 177.26 171.00 13.31
3252 4.3570 176.00 169.30 13.27
3253 4.3580 185.22 167.71 13.61
3254 4.3590 145.43 166.25 12.06
3255 4.3600 150.56 164.90 12.27
3256 4.3610 152.75 163.65 12.36
3257 4.3620 164.96 162.50 12.84
3258 4.3630 188.42 161.45 13.73
3259 4.3640 183.92 160.48 13.56
3260 4.3650 170.67 159.59 13.06
3261 4.3660 162.00 158.78 12.73
3262 4.3670 149.65 158.03 12.23
3263 4.3680 167.86 157.35 12.96
3264 4.3690 178.83 156.72 13.37
3265 4.3700 156.40 156.15 12.51
3266 4.3710 154.23 155.62 12.42
3267 4.3720 138.42 155.13 11.77
3268 4.3730 154.38 154.68 12.43
3269 4.3740 145.70 154.27 12.07
3270 4.3750 142.92 153.89 11.95
3271 4.3760 147.26 153.54 12.14
3272 4.3770 152.63 153.21 12.35
3273 4.3780 138.69 152.91 11.78
3274 4.3790 151.31 152.63 12.30
3275 4.3800 134.59 152.37 11.60
3276 4.3810 147.53 152.13 12.15
3277 4.3820 149.04 151.90 12.21
3278 4.3830 155.97 151.69 12.49
3279 4.3840 158.96 151.49 12.61
3280 4.3850 148.71 151.31 12.19
3281 4.3860 150.21 151.13 12.26
3282 4.3870 172.32 150.97 13.13
3283 4.3880 149.70 150.82 12.24
3284 4.3890 137.72 150.67 11.74
3285 4.3900 132.87 150.54 11.53
3286 4.3910 164.20 150.41 12.81
3287 4.3920 163.98 150.29 12.81
3288 4.3930 142.38 150.17 11.93
3289 4.3940 141.74 150.06 11.91
3290 4.3950 140.33 149.96 11.85
3291 4.3960 153.14 149.86 12.38
3292 4.3970 140.75 149.77 11.86
3293 4.3980 152.90 149.68 12.37
3294 4.3990 133.93 149.60 11.57
3295 4.4000 167.81 149.52 12.95
3296 4.4010 161.36 149.45 12.70
3297 4.4020 147.95 149.37 12.16
3298 4.4030 151.23 149.31 12.30
3299 4.4040 178.06 149.24 13.34
3300 4.4050 137.58 149.18 11.73
3301 4.4060 145.04 149.12 12.04
3302 4.4070 169.56 149.06 13.02
3303 4.4080 171.10 149.01 13.08
3304 4.4090 159.41 148.96 12.63
3305 4.4100 134.71 148.91 11.61
3306 4.4110 145.00 148.86 12.04
3307 4.4120 144.35 148.82 12.01
3308 4.4130 164.80 148.77 12.84
3309 4.4140 148.74 148.73 12.20
3310 4.4150 153.18 148.69 12.38
3311 4.4160 141.13 148.65 11.88
3312 4.4170 148.18 148.62 12.17
3313 4.4180 134.78 148.58 11.61
3314 4.4190 166.92 148.55 12.92
3315 4.4200 147.58 148.52 12.15
3316 4.4210 156.32 148.49 12.50
3317 4.4220 180.71 148.46 13.44
3318 4.4230 164.51 148.43 12.83
3319 4.4240 151.49 148.40 12.31
3320 4.4250 162.21 148.37 12.74
3321 4.4260 157.06 148.35 12.53
3322 4.4270 152.84 148.32 12.36
3323 4.4280 152.31 148.30 12.34
3324 4.4290 165.72 148.27 12.87
3325 4.4300 169.32 148.25 13.01
3326 4.4310 160.70 148.23 12.68
3327 4.4320 164.79 148.21 12.84
3328 4.4330 140.13 148.19 11.84
3329 4.4340 145.20 148.17 12.05
3330 4.4350 144.63 148.15 12.03
3331 4.4360 137.49 148.13 11.73
3332 4.4370 148.31 148.12 12.18
3333 4.4380 144.84 148.10 12.03
3334 4.4390 120.10 148.08 10.96
3335 4.4400 138.38 148.07 11.76
3336 4.4410 152.97 148.05 12.37
3337 4.4420 144.84 148.04 12.03
3338 4.4430 151.06 148.02 12.29
3339 4.4440 162.38 148.01 12.74
3340 4.4450 146.01 148.00 12.08
3341 4.4460 145.57 147.98 12.07
3342 4.4470 143.46 147.97 11.98
3343 4.4480 158.93 147.96 12.61
3344 4.4490 155.49 147.95 12.47
3345 4.4500 142.79 147.93 11.95
3346 4.4510 172.70 147.92 13.14
3347 4.4520 153.61 147.91 12.39
3348 4.4530 149.77 147.90 12.24
3349 4.4540 139.99 147.89 11.83
3350 4.4550 150.11 147.88 12.25
3351 4.4560 129.76 147.87 11.39
3352 4.4570 124.93 147.86 11.18
3353 4.4580 139.84 147.85 11.83
3354 4.4590 139.52 147.84 11.81
3355 4.4600 150.85 147.83 12.28
3356 4.4610 157.62 147.82 12.55
3357 4.4620 161.76 147.82 12.72
3358 4.4630 157.29 147.81 12.54
3359 4.4640 146.10 147.80 12.09
3360 4.4650 137.28 147.79 11.72
3361 4.4660 156.82 147.79 12.52
3362 4.4670 152.31 147.78 12.34
3363 4.4680 144.69 147.77 12.03
3364 4.4690 130.50 147.76 11.42
3365 4.4700 142.06 147.76 11.92
3366 4.4710 147.86 147.75 12.16
3367 4.4720 138.63 147.74 11.77
3368 4.4730 133.42 147.74 11.55
3369 4.4740 158.82 147.73 12.60
3370 4.4750 155.37 147.72 12.46
3371 4.4760 135.83 147.72 11.65
3372 4.4770 131.52 147.71 11.47
3373 4.4780 155.61 147.70 12.47
3374 4.4790 154.53 147.70 12.43
3375 4.4800 145.26 147.69 12.05
3376 4.4810 158.77 147.69 12.60
3377 4.4820 155.86 147.68 12.48
3378 4.4830 136.98 147.68 11.70
3379 4.4840 150.76 147.67 12.28
3380 4.4850 152.99 147.66 12.37
3381 4.4860 149.48 147.66 12.23
3382 4.4870 127.59 147.65 11.30
3383 4.4880 122.59 147.65 11.07
3384 4.4890 148.19 147.65 12.17
3385 4.4900 166.45 147.64 12.90
3386 4.4910 170.22 147.63 13.05
3387 4.4920 129.65 147.63 11.39
3388 4.4930 141.38 147.63 11.89
3389 4.4940 162.92 147.62 12.76
3390 4.4950 149.56 147.62 12.23
3391 4.4960 142.78 147.61 11.95
3392 4.4970 143.44 147.61 11.98
3393 4.4980 144.63 147.60 12.03
3394 4.4990 162.62 147.60 12.75
3395 4.5000 133.27 147.59 11.54
3396 4.5010 143.54 147.59 11.98
3397 4.5020 155.29 147.59 12.46
3398 4.5030 137.41 147.58 11.72
3399 4.5040 139.91 147.58 11.83
3400 4.5050 156.69 147.57 12.52
3401 4.5060 157.58 147.57 12.55
3402 4.5070 156.87 147.57 12.52
3403 4.5080 150.77 147.56 12.28
3404 4.5090 146.45 147.56 12.10
3405 4.5100 164.40 147.55 12.82
3406 4.5110 151.24 147.55 12.30
3407 4.5120 158.79 147.54 12.60
3408 4.5130 161.97 147.54 12.73
3409 4.5140 155.43 147.54 12.47
3410 4.5150 154.28 147.53 12.42
3411 4.5160 175.21 147.53 13.24
3412 4.5170 171.81 147.52 13.11
3413 4.5180 158.98 147.52 12.61
3414 4.5190 175.56 147.52 13.25
3415 4.5200 172.42 147.51 13.13
3416 4.5210 157.77 147.51 12.56
3417 4.5220 148.16 147.51 12.17
3418 4.5230 149.10 147.50 12.21
3419 4.5240 149.32 147.50 12.22
3420 4.5250 135.18 147.49 11.63
3421 4.5260 150.51 147.49 12.27
3422 4.5270 139.87 147.49 11.83
3423 4.5280 156.46 147.48 12.51
3424 4.5290 139.92 147.48 11.83
3425 4.5300 166.77 147.48 12.91
3426 4.5310 163.24 147.47 12.78
3427 4.5320 151.14 147.47 12.29
3428 4.5330 137.07 147.46 11.71
3429 4.5340 155.77 147.46 12.48
3430 4.5350 161.93 147.46 12.73
3431 4.5360 159.28 147.45 12.62
3432 4.5370 157.89 147.45 12.57
3433 4.5380 152.82 147.45 12.36
3434 4.5390 177.09 147.44 13.31
3435 4.5400 153.47 147.44 12.39
3436 4.5410 135.16 147.43 11.63
3437 4.5420 152.03 147.43 12.33
3438 4.5430 158.55 147.43 12.59
3439 4.5440 180.92 147.42 13.45
3440 4.5450 153.42 147.42 12.39
3441 4.5460 151.10 147.41 12.29
3442 4.5470 129.26 147.41 11.37
3443 4.5480 157.81 147.41 12.56
3444 4.5490 152.27 147.40 12.34
3445 4.5500 162.91 147.40 12.76
3446 4.5510 176.99 147.40 13.30
3447 4.5520 150.32 147.39 12.26
3448 4.5530 143.28 147.39 11.97
3449 4.5540 145.33 147.38 12.06
3450 4.5550 136.37 147.38 11.68
3451 4.5560 133.81 147.38 11.57
3452 4.5570 156.13 147.37 12.50
3453 4.5580 171.28 147.37 13.09
3454 4.5590 145.03 147.37 12.04
3455 4.5600 134.85 147.36 11.61
3456 4.5610 141.43 147.36 11.89
3457 4.5620 158.59 147.35 12.59
3458 4.5630 150.23 147.35 12.26
3459 4.5640 133.14 147.35 11.54
3460 4.5650 140.92 147.34 11.87
3461 4.5660 148.62 147.34 12.19
3462 4.5670 144.38 147.16 12.02
3463 4.5680 155.78 147.15 12.48
3464 4.5690 157.35 149.35 12.54
3465 4.5700 156.90 149.37 12.53
3466 4.5710 152.33 149.38 12.34
3467 4.5720 150.40 149.40 12.26
3468 4.5730 141.38 149.42 11.89
3469 4.5740 142.11 149.43 11.92
3470 4.5750 160.73 149.45 12.68
3471 4.5760 146.05 149.47 12.09
3472 4.5770 155.51 149.49 12.47
3473 4.5780 147.56 149.51 12.15
3474 4.5790 145.99 149.52 12.08
3475 4.5800 139.96 149.54 11.83
3476 4.5810 147.77 149.56 12.16
3477 4.5820 160.86 149.58 12.68
3478 4.5830 153.73 149.60 12.40
3479 4.5840 158.29 149.62 12.58
3480 4.5850 152.51 149.64 12.35
3481 4.5860 148.74 149.66 12.20
3482 4.5870 148.45 149.68 12.18
3483 4.5880 161.52 149.70 12.71
3484 4.5890 161.01 149.72 12.69
3485 4.5900 157.09 149.74 12.53
3486 4.5910 156.46 149.77 12.51
3487 4.5920 155.34 149.79 12.46
3488 4.5930 157.03 149.81 12.53
3489 4.5940 150.06 149.83 12.25
3490 4.5950 150.09 149.86 12.25
3491 4.5960 151.38 149.88 12.30
3492 4.5970 137.30 149.90 11.72
3493 4.5980 159.05 149.93 12.61
3494 4.5990 157.49 149.95 12.55
3495 4.6000 138.04 149.98 11.75
3496 4.6010 144.19 150.00 12.01
3497 4.6020 163.17 152.29 12.77
3498 4.6030 166.07 152.33 12.89
3499 4.6040 156.00 152.38 12.49
3500 4.6050 145.77 152.43 12.07
3501 4.6060 139.04 152.48 11.79
3502 4.6070 154.86 152.52 12.44
3503 4.6080 173.52 152.57 13.17
3504 4.6090 162.16 152.62 12.73
3505 4.6100 163.74 152.67 12.80
3506 4.6110 171.06 152.73 13.08
3507 4.6120 158.28 152.78 12.58
3508 4.6130 187.12 152.83 13.68
3509 4.6140 175.65 152.88 13.25
3510 4.6150 167.70 152.94 12.95
3511 4.6160 148.41 152.99 12.18
3512 4.6170 154.39 153.05 12.43
3513 4.6180 164.51 153.11 12.83
3514 4.6190 185.23 153.17 13.61
3515 4.6200 160.95 153.23 12.69
3516 4.6210 178.40 153.29 13.36
3517 4.6220 167.28 153.35 12.93
3518 4.6230 159.02 153.41 12.61
3519 4.6240 150.43 153.47 12.27
3520 4.6250 151.43 153.54 12.31
3521 4.6260 134.31 153.60 11.59
3522 4.6270 159.12 153.67 12.61
3523 4.6280 152.19 153.74 12.34
3524 4.6290 168.49 153.80 12.98
3525 4.6300 173.04 153.88 13.15
3526 4.6310 139.32 153.95 11.80
3527 4.6320 157.88 154.02 12.56
3528 4.6330 189.50 154.09 13.77
3529 4.6340 191.52 154.17 13.84
3530 4.6350 170.01 154.24 13.04
3531 4.6360 183.01 154.32 13.53
3532 4.6370 162.65 154.40 12.75
3533 4.6380 174.96 154.48 13.23
3534 4.6390 156.31 154.56 12.50
3535 4.6400 137.49 154.64 11.73
3536 4.6410 145.99 154.73 12.08
3537 4.6420 160.43 154.81 12.67
3538 4.6430 168.06 154.90 12.96
3539 4.6440 154.98 154.99 12.45
3540 4.6450 162.25 155.08 12.74
3541 4.6460 180.61 155.17 13.44
3542 4.6470 146.45 155.27 12.10
3543 4.6480 168.52 155.37 12.98
3544 4.6490 195.02 155.46 13.97
3545 4.6500 159.18 155.56 12.62
3546 4.6510 161.83 155.66 12.72
3547 4.6520 173.02 155.77 13.15
3548 4.6530 166.86 155.87 12.92
3549 4.6540 170.52 155.98 13.06
3550 4.6550 145.48 156.09 12.06
3551 4.6560 148.47 156.20 12.18
3552 4.6570 139.52 156.32 11.81
3553 4.6580 142.53 156.43 11.94
3554 4.6590 158.99 156.55 12.61
3555 4.6600 178.20 156.68 13.35
3556 4.6610 157.41 156.80 12.55
3557 4.6620 173.12 156.93 13.16
3558 4.6630 146.41 157.05 12.10
3559 4.6640 176.30 157.19 13.28
3560 4.6650 186.81 157.32 13.67
3561 4.6660 164.34 157.46 12.82
3562 4.6670 168.49 157.60 12.98
3563 4.6680 147.99 157.74 12.17
3564 4.6690 154.70 157.89 12.44
3565 4.6700 151.14 158.04 12.29
3566 4.6710 140.40 158.19 11.85
3567 4.6720 121.38 158.35 11.02
3568 4.6730 152.81 158.51 12.36
3569 4.6740 171.95 158.67 13.11
3570 4.6750 166.01 158.84 12.88
3571 4.6760 170.57 159.01 13.06
3572 4.6770 155.12 159.18 12.45
3573 4.6780 183.33 159.36 13.54
3574 4.6790 170.52 159.55 13.06
3575 4.6800 165.86 159.73 12.88
3576 4.6810 164.04 159.92 12.81
3577 4.6820 164.30 160.12 12.82
3578 4.6830 162.75 160.32 12.76
3579 4.6840 168.53 160.53 12.98
3580 4.6850 177.79 160.74 13.33
3581 4.6860 151.53 160.95 12.31
3582 4.6870 155.72 161.17 12.48
3583 4.6880 132.84 161.40 11.53
3584 4.6890 153.44 161.63 12.39
3585 4.6900 184.18 161.87 13.57
3586 4.6910 168.80 162.12 12.99
3587 4.6920 158.46 162.37 12.59
3588 4.6930 155.55 162.62 12.47
3589 4.6940 186.06 162.88 13.64
3590 4.6950 169.82 163.16 13.03
3591 4.6960 149.69 163.43 12.23
3592 4.6970 139.33 163.72 11.80
3593 4.6980 172.36 164.01 13.13
3594 4.6990 133.81 164.31 11.57
3595 4.7000 156.58 164.62 12.51
3596 4.7010 174.87 164.94 13.22
3597 4.7020 175.25 165.26 13.24
3598 4.7030 153.89 165.60 12.41
3599 4.7040 161.26 165.94 12.70
3600 4.7050 144.66 166.30 12.03
3601 4.7060 159.10 166.66 12.61
3602 4.7070 173.29 167.04 13.16
3603 4.7080 182.04 167.43 13.49
3604 4.7090 184.83 167.83 13.60
3605 4.7100 162.73 168.24 12.76
3606 4.7110 145.62 168.66 12.07
3607 4.7120 150.33 169.10 12.26
3608 4.7130 178.45 169.54 13.36
3609 4.7140 169.43 170.01 13.02
3610 4.7150 167.19 170.49 12.93
3611 4.7160 167.40 170.98 12.94
3612 4.7170 161.81 171.49 12.72
3613 4.7180 162.85 172.02 12.76
3614 4.7190 170.82 172.56 13.07
3615 4.7200 177.35 173.12 13.32
3616 4.7210 166.52 173.70 12.90
3617 4.7220 160.70 174.30 12.68
3618 4.7230 156.81 174.93 12.52
3619 4.7240 179.43 175.57 13.40
3620 4.7250 157.25 176.24 12.54
3621 4.7260 173.30 176.93 13.16
3622 4.7270 186.16 177.64 13.64
3623 4.7280 186.60 178.38 13.66
3624 4.7290 194.65 179.15 13.95
3625 4.7300 190.48 179.95 13.80
3626 4.7310 177.95 180.77 13.34
3627 4.7320 166.56 181.63 12.91
3628 4.7330 185.15 182.53 13.61
3629 4.7340 166.53 183.46 12.90
3630 4.7350 172.66 184.42 13.14
3631 4.7360 186.72 185.43 13.66
3632 4.7370 167.69 186.47 12.95
3633 4.7380 190.30 187.56 13.79
3634 4.7390 190.42 188.70 13.80
3635 4.7400 179.99 189.88 13.42
3636 4.7410 183.67 191.12 13.55
3637 4.7420 184.59 192.41 13.59
3638 4.7430 212.70 193.76 14.58
3639 4.7440 191.53 195.17 13.84
3640 4.7450 183.91 196.65 13.56
3641 4.7460 189.71 198.19 13.77
3642 4.7470 195.70 199.81 13.99
3643 4.7480 210.40 201.51 14.51
3644 4.7490 227.88 203.29 15.10
3645 4.7500 209.63 205.15 14.48
3646 4.7510 211.72 207.12 14.55
3647 4.7520 209.36 209.19 14.47
3648 4.7530 215.43 211.36 14.68
3649 4.7540 214.27 213.65 14.64
3650 4.7550 189.38 216.07 13.76
3651 4.7560 211.78 218.62 14.55
3652 4.7570 246.57 221.31 15.70
3653 4.7580 212.10 224.16 14.56
3654 4.7590 215.76 227.18 14.69
3655 4.7600 226.39 230.38 15.05
3656 4.7610 231.38 233.77 15.21
3657 4.7620 239.33 237.38 15.47
3658 4.7630 244.47 241.21 15.64
3659 4.7640 247.21 245.29 15.72
3660 4.7650 241.33 249.65 15.53
3661 4.7660 216.41 254.29 14.71
3662 4.7670 248.83 259.26 15.77
3663 4.7680 257.51 264.58 16.05
3664 4.7690 258.26 270.27 16.07
3665 4.7700 269.98 276.39 16.43
3666 4.7710 271.71 282.95 16.48
3667 4.7720 276.35 290.02 16.62
3668 4.7730 262.13 297.62 16.19
3669 4.7740 287.33 305.81 16.95
3670 4.7750 285.86 314.65 16.91
3671 4.7760 312.08 324.19 17.67
3672 4.7770 315.92 334.51 17.77
3673 4.7780 307.73 345.66 17.54
3674 4.7790 310.78 357.72 17.63
3675 4.7800 349.60 370.78 18.70
3676 4.7810 366.03 384.89 19.13
3677 4.7820 372.87 400.15 19.31
3678 4.7830 348.90 416.65 18.68
3679 4.7840 421.73 434.45 20.54
3680 4.7850 399.52 453.63 19.99
3681 4.7860 418.09 474.22 20.45
3682 4.7870 467.13 496.27 21.61
3683 4.7880 500.49 519.78 22.37
3684 4.7890 502.30 544.67 22.41
3685 4.7900 519.67 570.86 22.80
3686 4.7910 539.25 598.12 23.22
3687 4.7920 534.11 626.19 23.11
3688 4.7930 556.58 654.64 23.59
3689 4.7940 639.68 682.93 25.29
3690 4.7950 680.33 710.41 26.08
3691 4.7960 704.11 736.34 26.54
3692 4.7970 753.38 759.85 27.45
3693 4.7980 779.35 780.15 27.92
3694 4.7990 906.96 796.42 30.12
3695 4.8000 925.76 808.09 30.43
3696 4.8010 929.43 814.76 30.49
3697 4.8020 954.44 816.35 30.89
3698 4.8030 1022.86 813.07 31.98
3699 4.8040 1081.07 805.41 32.88
3700 4.8050 1028.55 794.09 32.07
3701 4.8060 1048.87 779.95 32.39
3702 4.8070 1036.91 763.91 32.20
3703 4.8080 1013.23 746.84 31.83
3704 4.8090 884.29 729.57 29.74
3705 4.8100 829.75 712.80 28.81
3706 4.8110 796.88 697.10 28.23
3707 4.8120 778.17 682.97 27.90
3708 4.8130 798.94 670.73 28.27
3709 4.8140 743.33 660.66 27.26
3710 4.8150 729.99 652.95 27.02
3711 4.8160 718.59 647.72 26.81
3712 4.8170 681.07 645.05 26.10
3713 4.8180 648.67 644.98 25.47
3714 4.8190 680.91 647.52 26.09
3715 4.8200 726.91 652.64 26.96
3716 4.8210 720.78 660.27 26.85
3717 4.8220 705.19 670.30 26.56
3718 4.8230 652.61 682.57 25.55
3719 4.8240 721.10 696.85 26.85
3720 4.8250 671.69 712.81 25.92
3721 4.8260 662.21 730.01 25.73
3722 4.8270 733.03 747.90 27.07
3723 4.8280 740.41 765.81 27.21
3724 4.8290 793.14 782.96 28.16
3725 4.8300 832.74 798.46 28.86
3726 4.8310 763.42 811.41 27.63
3727 4.8320 753.55 820.89 27.45
3728 4.8330 830.63 826.14 28.82
3729 4.8340 922.46 826.57 30.37
3730 4.8350 890.86 821.86 29.85
3731 4.8360 943.25 812.00 30.71
3732 4.8370 939.37 797.24 30.65
3733 4.8380 972.83 778.15 31.19
3734 4.8390 957.49 755.45 30.94
3735 4.8400 899.21 729.99 29.99
3736 4.8410 883.68 702.60 29.73
3737 4.8420 789.29 674.08 28.09
3738 4.8430 848.28 645.17 29.13
3739 4.8440 789.41 616.42 28.10
3740 4.8450 675.11 588.35 25.98
3741 4.8460 669.21 561.27 25.87
3742 4.8470 596.93 535.40 24.43
3743 4.8480 498.95 510.93 22.34
3744 4.8490 470.03 487.91 21.68
3745 4.8500 450.94 466.36 21.24
3746 4.8510 447.04 446.27 21.14
3747 4.8520 406.26 427.59 20.16
3748 4.8530 385.20 410.28 19.63
3749 4.8540 382.43 394.24 19.56
3750 4.8550 341.87 379.40 18.49
3751 4.8560 340.61 365.68 18.46
3752 4.8570 304.44 352.98 17.45
3753 4.8580 291.35 341.56 17.07
3754 4.8590 290.39 330.71 17.04
3755 4.8600 294.01 320.67 17.15
3756 4.8610 280.96 311.38 16.76
3757 4.8620 255.41 302.75 15.98
3758 4.8630 265.30 294.76 16.29
3759 4.8640 247.87 287.33 15.74
3760 4.8650 241.10 280.43 15.53
3761 4.8660 231.20 274.01 15.21
3762 4.8670 227.66 268.02 15.09
3763 4.8680 233.64 262.43 15.29
3764 4.8690 221.08 257.22 14.87
3765 4.8700 248.50 252.33 15.76
3766 4.8710 260.81 247.76 16.15
3767 4.8720 223.91 244.88 14.96
3768 4.8730 252.36 240.87 15.89
3769 4.8740 238.76 237.10 15.45
3770 4.8750 214.29 233.56 14.64
3771 4.8760 201.10 230.22 14.18
3772 4.8770 207.71 227.06 14.41
3773 4.8780 231.36 224.09 15.21
3774 4.8790 212.28 221.28 14.57
3775 4.8800 198.10 218.62 14.07
3776 4.8810 194.30 216.10 13.94
3777 4.8820 216.52 213.72 14.71
3778 4.8830 204.76 211.45 14.31
3779 4.8840 185.41 212.14 13.62
3780 4.8850 212.46 210.12 14.58
3781 4.8860 204.81 208.20 14.31
3782 4.8870 187.51 206.37 13.69
3783 4.8880 206.39 204.63 14.37
3784 4.8890 201.82 202.98 14.21
3785 4.8900 186.34 201.40 13.65
3786 4.8910 187.77 199.90 13.70
3787 4.8920 197.74 198.46 14.06
3788 4.8930 181.73 197.09 13.48
3789 4.8940 193.21 195.78 13.90
3790 4.8950 203.13 194.52 14.25
3791 4.8960 203.05 193.32 14.25
3792 4.8970 221.20 192.18 14.87
3793 4.8980 194.50 191.08 13.95
3794 4.8990 177.00 190.03 13.30
3795 4.9000 194.50 189.02 13.95
3796 4.9010 210.20 188.05 14.50
3797 4.9020 169.94 187.12 13.04
3798 4.9030 176.46 186.23 13.28
3799 4.9040 212.58 185.38 14.58
3800 4.9050 201.66 184.56 14.20
3801 4.9060 207.01 183.77 14.39
3802 4.9070 206.53 183.01 14.37
3803 4.9080 212.69 182.28 14.58
3804 4.9090 204.26 181.58 14.29
3805 4.9100 198.94 180.91 14.10
3806 4.9110 205.46 180.26 14.33
3807 4.9120 175.29 179.64 13.24
3808 4.9130 173.45 179.04 13.17
3809 4.9140 188.67 178.46 13.74
3810 4.9150 199.88 177.90 14.14
3811 4.9160 195.86 177.37 13.99
3812 4.9170 189.47 176.85 13.76
3813 4.9180 173.96 176.35 13.19
3814 4.9190 180.01 175.87 13.42
3815 4.9200 194.75 175.41 13.96
3816 4.9210 169.92 174.97 13.04
3817 4.9220 182.97 174.54 13.53
3818 4.9230 190.46 174.13 13.80
3819 4.9240 179.45 173.73 13.40
3820 4.9250 194.06 173.35 13.93
3821 4.9260 201.74 172.98 14.20
3822 4.9270 173.35 172.62 13.17
3823 4.9280 191.23 172.28 13.83
3824 4.9290 192.55 171.95 13.88
3825 4.9300 172.96 171.63 13.15
3826 4.9310 187.06 171.32 13.68
3827 4.9320 172.07 171.03 13.12
3828 4.9330 173.99 170.75 13.19
3829 4.9340 184.50 170.48 13.58
3830 4.9350 193.78 170.21 13.92
3831 4.9360 195.14 169.96 13.97
3832 4.9370 192.75 169.72 13.88
3833 4.9380 217.01 169.49 14.73
3834 4.9390 192.25 169.26 13.87
3835 4.9400 197.07 169.05 14.04
3836 4.9410 206.35 168.85 14.36
3837 4.9420 185.43 168.65 13.62
3838 4.9430 176.19 168.46 13.27
3839 4.9440 170.24 168.28 13.05
3840 4.9450 179.03 168.11 13.38
3841 4.9460 211.76 167.95 14.55
3842 4.9470 188.66 167.79 13.74
3843 4.9480 161.36 167.65 12.70
3844 4.9490 193.79 167.52 13.92
3845 4.9500 159.84 167.39 12.64
3846 4.9510 175.53 167.26 13.25
3847 4.9520 174.97 167.14 13.23
3848 4.9530 183.02 167.03 13.53
3849 4.9540 167.39 166.93 12.94
3850 4.9550 176.60 166.83 13.29
3851 4.9560 170.74 166.74 13.07
3852 4.9570 184.23 166.65 13.57
3853 4.9580 197.33 166.57 14.05
3854 4.9590 192.52 166.50 13.88
3855 4.9600 164.76 166.44 12.84
3856 4.9610 178.16 166.38 13.35
3857 4.9620 184.74 166.33 13.59
3858 4.9630 211.79 166.28 14.55
3859 4.9640 194.25 166.24 13.94
3860 4.9650 188.60 166.21 13.73
3861 4.9660 184.03 166.18 13.57
3862 4.9670 186.49 166.16 13.66
3863 4.9680 178.05 166.14 13.34
3864 4.9690 176.84 166.13 13.30
3865 4.9700 186.99 166.13 13.67
3866 4.9710 179.86 166.13 13.41
3867 4.9720 173.39 166.14 13.17
3868 4.9730 192.32 166.15 13.87
3869 4.9740 180.06 166.18 13.42
3870 4.9750 168.62 166.20 12.99
3871 4.9760 173.35 166.24 13.17
3872 4.9770 193.48 166.27 13.91
3873 4.9780 181.27 166.32 13.46
3874 4.9790 177.86 166.37 13.34
3875 4.9800 190.02 166.43 13.78
3876 4.9810 194.44 166.50 13.94
3877 4.9820 211.43 166.57 14.54
3878 4.9830 186.63 166.65 13.66
3879 4.9840 194.77 166.73 13.96
3880 4.9850 238.85 166.82 15.45
3881 4.9860 200.01 166.92 14.14
3882 4.9870 182.34 167.03 13.50
3883 4.9880 191.06 167.14 13.82
3884 4.9890 200.55 167.26 14.16
3885 4.9900 185.38 167.38 13.62
3886 4.9910 189.37 167.52 13.76
3887 4.9920 181.66 167.66 13.48
3888 4.9930 186.16 167.81 13.64
3889 4.9940 189.88 167.96 13.78
3890 4.9950 204.66 168.13 14.31
3891 4.9960 216.78 168.30 14.72
3892 4.9970 214.92 168.48 14.66
3893 4.9980 193.53 168.67 13.91
3894 4.9990 188.63 168.87 13.73
3895 5.0000 200.66 169.08 14.17
3896 5.0010 202.26 169.29 14.22
3897 5.0020 204.88 169.52 14.31
3898 5.0030 210.77 169.76 14.52
3899 5.0040 215.98 170.00 14.70
3900 5.0050 209.16 170.26 14.46
3901 5.0060 228.99 170.52 15.13
3902 5.0070 197.94 170.80 14.07
3903 5.0080 195.04 171.09 13.97
3904 5.0090 212.54 171.39 14.58
3905 5.0100 197.68 171.70 14.06
3906 5.0110 214.67 172.02 14.65
3907 5.0120 184.34 172.35 13.58
3908 5.0130 193.27 172.70 13.90
3909 5.0140 210.82 173.06 14.52
3910 5.0150 208.14 173.44 14.43
3911 5.0160 193.90 173.83 13.92
3912 5.0170 214.20 174.23 14.64
3913 5.0180 210.99 174.65 14.53
3914 5.0190 209.16 175.09 14.46
3915 5.0200 209.75 175.54 14.48
3916 5.0210 222.47 176.01 14.92
3917 5.0220 184.50 176.49 13.58
3918 5.0230 197.99 177.00 14.07
3919 5.0240 209.46 177.52 14.47
3920 5.0250 230.09 178.07 15.17
3921 5.0260 192.32 178.63 13.87
3922 5.0270 216.08 179.21 14.70
3923 5.0280 201.93 179.82 14.21
3924 5.0290 224.20 180.45 14.97
3925 5.0300 199.09 181.11 14.11
3926 5.0310 201.82 181.79 14.21
3927 5.0320 214.12 182.49 14.63
3928 5.0330 235.45 181.03 15.34
3929 5.0340 231.63 181.82 15.22
3930 5.0350 236.16 182.63 15.37
3931 5.0360 253.62 183.47 15.93
3932 5.0370 239.39 184.35 15.47
3933 5.0380 231.33 185.26 15.21
3934 5.0390 228.45 186.20 15.11
3935 5.0400 227.92 187.19 15.10
3936 5.0410 235.82 188.21 15.36
3937 5.0420 240.11 189.27 15.50
3938 5.0430 245.24 190.38 15.66
3939 5.0440 256.90 191.54 16.03
3940 5.0450 229.85 192.74 15.16
3941 5.0460 242.87 194.00 15.58
3942 5.0470 248.16 195.31 15.75
3943 5.0480 247.15 196.68 15.72
3944 5.0490 230.92 198.10 15.20
3945 5.0500 267.89 199.60 16.37
3946 5.0510 282.36 201.15 16.80
3947 5.0520 270.93 202.78 16.46
3948 5.0530 270.40 204.49 16.44
3949 5.0540 246.11 206.27 15.69
3950 5.0550 238.11 208.15 15.43
3951 5.0560 244.71 210.11 15.64
3952 5.0570 267.92 212.17 16.37
3953 5.0580 275.69 214.33 16.60
3954 5.0590 278.30 216.60 16.68
3955 5.0600 275.93 218.99 16.61
3956 5.0610 264.03 221.51 16.25
3957 5.0620 270.66 224.15 16.45
3958 5.0630 285.71 226.94 16.90
3959 5.0640 275.74 229.88 16.61
3960 5.0650 290.61 232.99 17.05
3961 5.0660 297.66 236.27 17.25
3962 5.0670 313.39 239.75 17.70
3963 5.0680 292.54 241.18 17.10
3964 5.0690 301.15 245.10 17.35
3965 5.0700 318.73 249.25 17.85
3966 5.0710 294.25 253.65 17.15
3967 5.0720 299.07 258.33 17.29
3968 5.0730 320.41 263.31 17.90
3969 5.0740 285.17 268.60 16.89
3970 5.0750 295.76 274.24 17.20
3971 5.0760 327.85 280.26 18.11
3972 5.0770 306.97 286.68 17.52
3973 5.0780 343.31 293.53 18.53
3974 5.0790 347.65 300.86 18.65
3975 5.0800 329.46 308.69 18.15
3976 5.0810 352.62 317.08 18.78
3977 5.0820 379.08 326.06 19.47
3978 5.0830 376.87 335.66 19.41
3979 5.0840 425.22 345.94 20.62
3980 5.0850 385.99 356.93 19.65
3981 5.0860 389.63 368.69 19.74
3982 5.0870 407.61 381.24 20.19
3983 5.0880 437.14 394.64 20.91
3984 5.0890 459.46 408.87 21.43
3985 5.0900 454.13 423.98 21.31
3986 5.0910 438.23 439.98 20.93
3987 5.0920 463.90 456.85 21.54
3988 5.0930 522.59 474.59 22.86
3989 5.0940 526.60 493.20 22.95
3990 5.0950 559.51 512.62 23.65
3991 5.0960 582.84 532.86 24.14
3992 5.0970 597.85 553.90 24.45
3993 5.0980 634.27 575.75 25.18
3994 5.0990 602.94 598.47 24.55
3995 5.1000 632.09 622.08 25.14
3996 5.1010 648.47 646.69 25.47
3997 5.1020 676.91 672.31 26.02
3998 5.1030 717.05 699.01 26.78
3999 5.1040 761.83 726.80 27.60
4000 5.1050 740.85 755.62 27.22
4001 5.1060 810.28 785.37 28.47
4002 5.1070 852.21 815.83 29.19
4003 5.1080 839.65 846.70 28.98
4004 5.1090 882.67 877.67 29.71
4005 5.1100 874.04 908.32 29.56
4006 5.1110 953.39 938.25 30.88
4007 5.1120 895.70 967.10 29.93
4008 5.1130 862.58 994.53 29.37
4009 5.1140 921.33 1020.30 30.35
4010 5.1150 947.68 1044.19 30.78
4011 5.1160 963.65 1066.06 31.04
4012 5.1170 1001.79 1085.78 31.65
4013 5.1180 950.99 1103.14 30.84
4014 5.1190 955.59 1117.87 30.91
4015 5.1200 966.51 1129.56 31.09
4016 5.1210 958.15 1137.71 30.95
4017 5.1220 988.06 1141.74 31.43
4018 5.1230 992.29 1141.07 31.50
4019 5.1240 937.26 1135.19 30.61
4020 5.1250 928.19 1123.76 30.47
4021 5.1260 885.09 1106.69 29.75
4022 5.1270 849.59 1084.11 29.15
4023 5.1280 842.27 1056.53 29.02
4024 5.1290 776.77 1024.57 27.87
4025 5.1300 793.28 989.13 28.17
4026 5.1310 773.19 951.12 27.81
4027 5.1320 779.64 911.45 27.92
4028 5.1330 776.21 871.04 27.86
4029 5.1340 730.19 830.59 27.02
4030 5.1350 745.30 790.83 27.30
4031 5.1360 681.54 752.20 26.11
4032 5.1370 686.56 715.06 26.20
4033 5.1380 660.02 679.71 25.69
4034 5.1390 618.63 646.26 24.87
4035 5.1400 604.84 614.77 24.59
4036 5.1410 564.13 585.31 23.75
4037 5.1420 582.34 557.81 24.13
4038 5.1430 564.95 532.22 23.77
4039 5.1440 556.45 508.44 23.59
4040 5.1450 530.87 486.37 23.04
4041 5.1460 503.32 465.92 22.43
4042 5.1470 488.92 446.96 22.11
4043 5.1480 467.06 429.41 21.61
4044 5.1490 481.53 413.15 21.94
4045 5.1500 448.58 398.08 21.18
4046 5.1510 484.50 384.12 22.01
4047 5.1520 486.71 371.17 22.06
4048 5.1530 395.12 359.14 19.88
4049 5.1540 402.86 347.97 20.07
4050 5.1550 379.34 337.58 19.48
4051 5.1560 368.41 327.92 19.19
4052 5.1570 383.25 318.92 19.58
4053 5.1580 362.72 310.52 19.05
4054 5.1590 356.69 302.69 18.89
4055 5.1600 339.78 295.37 18.43
4056 5.1610 404.34 288.52 20.11
4057 5.1620 371.34 282.11 19.27
4058 5.1630 361.51 276.11 19.01
4059 5.1640 385.09 270.47 19.62
4060 5.1650 338.74 265.18 18.40
4061 5.1660 346.77 260.21 18.62
4062 5.1670 304.86 255.53 17.46
4063 5.1680 321.61 251.12 17.93
4064 5.1690 318.70 246.97 17.85
4065 5.1700 313.00 243.06 17.69
4066 5.1710 302.19 239.37 17.38
4067 5.1720 279.61 235.88 16.72
4068 5.1730 308.90 232.59 17.58
4069 5.1740 287.26 229.48 16.95
4070 5.1750 285.76 226.54 16.90
4071 5.1760 296.37 223.76 17.22
4072 5.1770 291.15 221.13 17.06
4073 5.1780 282.00 218.64 16.79
4074 5.1790 255.94 216.28 16.00
4075 5.1800 268.19 214.05 16.38
4076 5.1810 264.08 211.93 16.25
4077 5.1820 243.14 209.93 15.59
4078 5.1830 260.13 208.02 16.13
4079 5.1840 275.41 206.21 16.60
4080 5.1850 281.93 204.49 16.79
4081 5.1860 263.72 202.84 16.24
4082 5.1870 240.45 201.27 15.51
4083 5.1880 249.71 199.75 15.80
4084 5.1890 250.47 198.28 15.83
4085 5.1900 243.31 196.86 15.60
4086 5.1910 228.52 195.46 15.12
4087 5.1920 256.26 194.10 16.01
4088 5.1930 230.24 192.76 15.17
4089 5.1940 231.74 191.44 15.22
4090 5.1950 227.49 190.13 15.08
4091 5.1960 216.56 188.85 14.72
4092 5.1970 223.26 187.58 14.94
4093 5.1980 254.02 186.33 15.94
4094 5.1990 248.44 185.11 15.76
4095 5.2000 237.44 183.92 15.41
4096 5.2010 233.83 182.75 15.29
4097 5.2020 211.30 181.62 14.54
4098 5.2030 204.87 180.52 14.31
4099 5.2040 209.55 179.46 14.48
4100 5.2050 224.88 178.43 15.00
4101 5.2060 197.89 177.44 14.07
4102 5.2070 203.82 176.49 14.28
4103 5.2080 223.14 175.56 14.94
4104 5.2090 204.06 174.68 14.28
4105 5.2100 208.76 173.82 14.45
4106 5.2110 229.69 173.00 15.16
4107 5.2120 209.40 172.20 14.47
4108 5.2130 195.23 171.44 13.97
4109 5.2140 207.23 170.70 14.40
4110 5.2150 194.26 169.99 13.94
4111 5.2160 198.47 169.30 14.09
4112 5.2170 213.23 168.64 14.60
4113 5.2180 204.75 167.99 14.31
4114 5.2190 199.70 167.38 14.13
4115 5.2200 183.25 166.77 13.54
4116 5.2210 220.27 166.20 14.84
4117 5.2220 217.21 165.63 14.74
4118 5.2230 194.67 165.09 13.95
4119 5.2240 184.94 164.56 13.60
4120 5.2250 170.82 164.05 13.07
4121 5.2260 198.01 163.55 14.07
4122 5.2270 174.97 163.07 13.23
4123 5.2280 207.38 162.61 14.40
4124 5.2290 198.93 162.15 14.10
4125 5.2300 184.58 161.71 13.59
4126 5.2310 202.20 161.28 14.22
4127 5.2320 198.28 160.87 14.08
4128 5.2330 190.18 160.46 13.79
4129 5.2340 197.64 160.06 14.06
4130 5.2350 186.52 159.68 13.66
4131 5.2360 183.42 159.30 13.54
4132 5.2370 178.84 158.94 13.37
4133 5.2380 190.62 158.58 13.81
4134 5.2390 191.71 158.24 13.85
4135 5.2400 174.15 157.90 13.20
4136 5.2410 190.71 157.57 13.81
4137 5.2420 196.01 157.25 14.00
4138 5.2430 181.07 156.93 13.46
4139 5.2440 180.39 156.63 13.43
4140 5.2450 192.68 156.33 13.88
4141 5.2460 199.04 156.03 14.11
4142 5.2470 185.37 155.75 13.62
4143 5.2480 170.03 155.47 13.04
4144 5.2490 161.16 155.20 12.69
4145 5.2500 186.94 154.93 13.67
4146 5.2510 203.69 154.67 14.27
4147 5.2520 210.14 154.41 14.50
4148 5.2530 178.83 154.16 13.37
4149 5.2540 167.86 153.91 12.96
4150 5.2550 164.20 153.68 12.81
4151 5.2560 178.46 153.44 13.36
4152 5.2570 170.12 153.21 13.04
4153 5.2580 200.06 152.99 14.14
4154 5.2590 209.20 152.76 14.46
4155 5.2600 177.97 152.55 13.34
4156 5.2610 184.21 152.34 13.57
4157 5.2620 173.68 152.13 13.18
4158 5.2630 173.07 151.93 13.16
4159 5.2640 183.63 151.73 13.55
4160 5.2650 165.90 151.53 12.88
4161 5.2660 180.40 151.34 13.43
4162 5.2670 185.86 151.15 13.63
4163 5.2680 199.99 150.96 14.14
4164 5.2690 180.19 150.78 13.42
4165 5.2700 183.33 150.60 13.54
4166 5.2710 170.04 150.43 13.04
4167 5.2720 181.80 151.93 13.48
4168 5.2730 176.61 154.25 13.29
4169 5.2740 183.05 154.12 13.53
4170 5.2750 186.90 153.99 13.67
4171 5.2760 178.37 153.86 13.36
4172 5.2770 210.57 153.74 14.51
4173 5.2780 179.11 153.62 13.38
4174 5.2790 163.16 153.50 12.77
4175 5.2800 184.14 153.38 13.57
4176 5.2810 189.13 153.27 13.75
4177 5.2820 178.08 153.16 13.34
4178 5.2830 189.40 153.05 13.76
4179 5.2840 161.28 152.95 12.70
4180 5.2850 172.46 152.85 13.13
4181 5.2860 151.19 152.75 12.30
4182 5.2870 159.31 152.65 12.62
4183 5.2880 163.80 152.56 12.80
4184 5.2890 152.41 152.47 12.35
4185 5.2900 156.21 152.38 12.50
4186 5.2910 162.51 152.30 12.75
4187 5.2920 166.13 152.21 12.89
4188 5.2930 173.67 152.13 13.18
4189 5.2940 150.44 152.05 12.27
4190 5.2950 166.17 151.98 12.89
4191 5.2960 165.67 151.90 12.87
4192 5.2970 177.59 151.83 13.33
4193 5.2980 168.14 151.76 12.97
4194 5.2990 174.78 151.69 13.22
4195 5.3000 163.03 151.63 12.77
4196 5.3010 177.64 151.56 13.33
4197 5.3020 196.18 151.50 14.01
4198 5.3030 187.81 151.44 13.70
4199 5.3040 167.21 151.38 12.93
4200 5.3050 149.00 151.33 12.21
4201 5.3060 157.37 151.28 12.54
4202 5.3070 171.44 151.23 13.09
4203 5.3080 169.96 151.18 13.04
4204 5.3090 161.06 151.13 12.69
4205 5.3100 139.79 151.08 11.82
4206 5.3110 162.67 151.04 12.75
4207 5.3120 160.32 151.00 12.66
4208 5.3130 169.51 150.96 13.02
4209 5.3140 154.39 150.92 12.43
4210 5.3150 144.53 150.89 12.02
4211 5.3160 162.70 150.85 12.76
4212 5.3170 164.95 150.82 12.84
4213 5.3180 164.91 150.79 12.84
4214 5.3190 178.04 150.76 13.34
4215 5.3200 170.66 150.74 13.06
4216 5.3210 169.14 150.71 13.01
4217 5.3220 180.14 150.69 13.42
4218 5.3230 138.91 150.67 11.79
4219 5.3240 180.35 150.65 13.43
4220 5.3250 189.74 150.63 13.77
4221 5.3260 176.37 150.82 13.28
4222 5.3270 171.68 150.81 13.10
4223 5.3280 162.28 150.80 12.74
4224 5.3290 158.83 150.79 12.60
4225 5.3300 165.93 150.78 12.88
4226 5.3310 167.61 150.78 12.95
4227 5.3320 163.29 150.77 12.78
4228 5.3330 162.20 150.77 12.74
4229 5.3340 187.61 150.77 13.70
4230 5.3350 159.22 150.78 12.62
4231 5.3360 167.05 150.78 12.92
4232 5.3370 159.47 150.79 12.63
4233 5.3380 157.80 150.80 12.56
4234 5.3390 173.59 150.81 13.18
4235 5.3400 160.43 150.52 12.67
4236 5.3410 153.99 150.54 12.41
4237 5.3420 169.21 150.55 13.01
4238 5.3430 166.00 151.88 12.88
4239 5.3440 188.07 151.92 13.71
4240 5.3450 153.73 151.95 12.40
4241 5.3460 152.77 151.99 12.36
4242 5.3470 162.71 152.03 12.76
4243 5.3480 182.29 152.07 13.50
4244 5.3490 178.04 152.12 13.34
4245 5.3500 164.83 152.17 12.84
4246 5.3510 171.85 152.21 13.11
4247 5.3520 173.80 152.27 13.18
4248 5.3530 143.08 152.32 11.96
4249 5.3540 133.55 152.38 11.56
4250 5.3550 136.80 151.04 11.70
4251 5.3560 137.35 151.11 11.72
4252 5.3570 167.36 151.18 12.94
4253 5.3580 164.50 151.26 12.83
4254 5.3590 153.75 151.34 12.40
4255 5.3600 164.32 151.43 12.82
4256 5.3610 160.19 151.51 12.66
4257 5.3620 157.02 151.60 12.53
4258 5.3630 130.61 151.70 11.43
4259 5.3640 166.54 151.79 12.90
4260 5.3650 140.54 151.89 11.85
4261 5.3660 158.83 151.99 12.60
4262 5.3670 155.10 152.10 12.45
4263 5.3680 161.14 149.40 12.69
4264 5.3690 175.52 149.54 13.25
4265 5.3700 159.22 149.68 12.62
4266 5.3710 165.72 149.82 12.87
4267 5.3720 172.07 149.96 13.12
4268 5.3730 160.39 150.11 12.66
4269 5.3740 161.63 150.26 12.71
4270 5.3750 146.33 150.42 12.10
4271 5.3760 145.10 150.58 12.05
4272 5.3770 162.91 150.74 12.76
4273 5.3780 151.90 150.91 12.32
4274 5.3790 155.72 151.08 12.48
4275 5.3800 173.44 151.26 13.17
4276 5.3810 165.15 151.44 12.85
4277 5.3820 167.74 151.62 12.95
4278 5.3830 156.94 151.81 12.53
4279 5.3840 143.92 152.00 12.00
4280 5.3850 167.70 152.19 12.95
4281 5.3860 183.85 152.38 13.56
4282 5.3870 146.50 152.58 12.10
4283 5.3880 154.33 152.78 12.42
4284 5.3890 174.10 152.98 13.19
4285 5.3900 172.88 153.17 13.15
4286 5.3910 161.47 153.37 12.71
4287 5.3920 164.22 153.57 12.81
4288 5.3930 178.26 153.77 13.35
4289 5.3940 175.31 153.98 13.24
4290 5.3950 163.74 154.18 12.80
4291 5.3960 159.56 154.39 12.63
4292 5.3970 160.51 154.60 12.67
4293 5.3980 168.19 154.81 12.97
4294 5.3990 167.46 155.03 12.94
4295 5.4000 153.68 155.25 12.40
4296 5.4010 166.04 155.48 12.89
4297 5.4020 159.55 155.71 12.63
4298 5.4030 153.48 155.95 12.39
4299 5.4040 169.87 156.20 13.03
4300 5.4050 164.42 157.80 12.82
4301 5.4060 141.15 158.07 11.88
4302 5.4070 146.78 158.35 12.12
4303 5.4080 136.70 158.64 11.69
4304 5.4090 149.76 159.43 12.24
4305 5.4100 148.81 159.74 12.20
4306 5.4110 139.41 160.06 11.81
4307 5.4120 154.27 160.38 12.42
4308 5.4130 172.73 160.72 13.14
4309 5.4140 178.06 161.07 13.34
4310 5.4150 163.69 161.42 12.79
4311 5.4160 155.61 161.79 12.47
4312 5.4170 158.06 162.16 12.57
4313 5.4180 170.73 168.74 13.07
4314 5.4190 156.55 169.18 12.51
4315 5.4200 169.01 169.64 13.00
4316 5.4210 163.47 170.10 12.79
4317 5.4220 153.39 170.58 12.39
4318 5.4230 174.57 171.07 13.21
4319 5.4240 173.33 171.58 13.17
4320 5.4250 173.65 172.10 13.18
4321 5.4260 149.05 172.63 12.21
4322 5.4270 164.44 173.18 12.82
4323 5.4280 151.08 173.74 12.29
4324 5.4290 153.32 174.31 12.38
4325 5.4300 155.67 174.91 12.48
4326 5.4310 174.45 175.51 13.21
4327 5.4320 177.23 176.14 13.31
4328 5.4330 157.11 176.78 12.53
4329 5.4340 169.26 177.44 13.01
4330 5.4350 174.90 178.12 13.23
4331 5.4360 166.11 178.82 12.89
4332 5.4370 164.53 179.54 12.83
4333 5.4380 167.44 180.27 12.94
4334 5.4390 173.80 181.03 13.18
4335 5.4400 167.41 181.82 12.94
4336 5.4410 162.24 182.63 12.74
4337 5.4420 152.11 183.46 12.33
4338 5.4430 172.77 184.32 13.14
4339 5.4440 168.16 185.21 12.97
4340 5.4450 166.40 186.12 12.90
4341 5.4460 168.94 187.06 13.00
4342 5.4470 172.48 193.17 13.13
4343 5.4480 158.40 194.21 12.59
4344 5.4490 170.96 195.29 13.08
4345 5.4500 186.20 196.40 13.65
4346 5.4510 179.51 197.55 13.40
4347 5.4520 190.53 198.74 13.80
4348 5.4530 166.65 199.96 12.91
4349 5.4540 178.28 201.23 13.35
4350 5.4550 187.11 202.54 13.68
4351 5.4560 195.20 203.90 13.97
4352 5.4570 182.74 205.30 13.52
4353 5.4580 185.34 206.75 13.61
4354 5.4590 169.04 208.26 13.00
4355 5.4600 185.37 209.82 13.62
4356 5.4610 190.14 211.45 13.79
4357 5.4620 207.02 213.13 14.39
4358 5.4630 183.96 214.87 13.56
4359 5.4640 182.46 216.69 13.51
4360 5.4650 184.46 218.57 13.58
4361 5.4660 166.45 220.53 12.90
4362 5.4670 198.29 222.57 14.08
4363 5.4680 199.83 224.69 14.14
4364 5.4690 232.66 226.91 15.25
4365 5.4700 205.28 229.21 14.33
4366 5.4710 195.10 231.62 13.97
4367 5.4720 210.85 234.12 14.52
4368 5.4730 203.36 236.74 14.26
4369 5.4740 222.03 239.48 14.90
4370 5.4750 222.59 242.34 14.92
4371 5.4760 215.56 245.34 14.68
4372 5.4770 207.45 248.48 14.40
4373 5.4780 231.22 251.77 15.21
4374 5.4790 245.50 255.22 15.67
4375 5.4800 228.28 258.83 15.11
4376 5.4810 225.59 262.64 15.02
4377 5.4820 242.85 266.64 15.58
4378 5.4830 227.55 270.84 15.08
4379 5.4840 237.02 275.28 15.40
4380 5.4850 251.79 279.95 15.87
4381 5.4860 249.61 284.88 15.80
4382 5.4870 253.00 290.09 15.91
4383 5.4880 303.76 295.60 17.43
4384 5.4890 294.92 301.44 17.17
4385 5.4900 299.34 307.62 17.30
4386 5.4910 284.80 314.18 16.88
4387 5.4920 314.60 321.15 17.74
4388 5.4930 328.57 328.55 18.13
4389 5.4940 326.66 336.44 18.07
4390 5.4950 331.08 344.84 18.20
4391 5.4960 361.02 353.80 19.00
4392 5.4970 346.30 363.37 18.61
4393 5.4980 387.61 373.59 19.69
4394 5.4990 384.74 384.53 19.61
4395 5.5000 431.23 396.24 20.77
4396 5.5010 431.27 408.79 20.77
4397 5.5020 461.40 422.25 21.48
4398 5.5030 501.29 436.70 22.39
4399 5.5040 531.02 452.21 23.04
4400 5.5050 517.66 468.87 22.75
4401 5.5060 573.24 486.77 23.94
4402 5.5070 590.21 506.01 24.29
4403 5.5080 636.61 526.69 25.23
4404 5.5090 641.21 548.91 25.32
4405 5.5100 641.39 572.78 25.33
4406 5.5110 647.13 598.38 25.44
4407 5.5120 726.24 625.84 26.95
4408 5.5130 774.72 655.21 27.83
4409 5.5140 834.51 686.59 28.89
4410 5.5150 915.74 720.03 30.26
4411 5.5160 955.54 755.51 30.91
4412 5.5170 980.46 793.03 31.31
4413 5.5180 1046.04 832.47 32.34
4414 5.5190 1160.75 873.67 34.07
4415 5.5200 1241.42 916.36 35.23
4416 5.5210 1416.53 960.14 37.64
4417 5.5220 1393.47 1004.52 37.33
4418 5.5230 1439.67 1048.77 37.94
4419 5.5240 1502.44 1092.09 38.76
4420 5.5250 1506.15 1133.53 38.81
4421 5.5260 1468.14 1171.98 38.32
4422 5.5270 1418.57 1206.31 37.66
4423 5.5280 1462.48 1235.37 38.24
4424 5.5290 1378.33 1258.10 37.13
4425 5.5300 1363.73 1273.61 36.93
4426 5.5310 1396.45 1281.27 37.37
4427 5.5320 1267.84 1280.80 35.61
4428 5.5330 1260.88 1272.26 35.51
4429 5.5340 1185.59 1256.07 34.43
4430 5.5350 1101.57 1232.93 33.19
4431 5.5360 1087.97 1203.84 32.98
4432 5.5370 1005.52 1169.89 31.71
4433 5.5380 968.48 1132.23 31.12
4434 5.5390 909.20 1092.01 30.15
4435 5.5400 858.69 1050.28 29.30
4436 5.5410 835.12 1007.93 28.90
4437 5.5420 793.67 965.77 28.17
4438 5.5430 785.93 924.49 28.03
4439 5.5440 750.01 884.43 27.39
4440 5.5450 765.32 846.00 27.66
4441 5.5460 609.94 809.42 24.70
4442 5.5470 615.38 774.88 24.81
4443 5.5480 630.38 742.41 25.11
4444 5.5490 593.85 712.09 24.37
4445 5.5500 586.76 683.86 24.22
4446 5.5510 528.39 657.66 22.99
4447 5.5520 505.78 633.45 22.49
4448 5.5530 576.03 611.11 24.00
4449 5.5540 515.48 590.58 22.70
4450 5.5550 514.21 571.74 22.68
4451 5.5560 474.72 554.50 21.79
4452 5.5570 511.99 538.78 22.63
4453 5.5580 478.92 524.49 21.88
4454 5.5590 444.43 511.52 21.08
4455 5.5600 480.83 499.82 21.93
4456 5.5610 411.95 489.29 20.30
4457 5.5620 450.03 479.89 21.21
4458 5.5630 450.74 471.54 21.23
4459 5.5640 386.27 464.19 19.65
4460 5.5650 378.28 457.80 19.45
4461 5.5660 395.00 452.31 19.87
4462 5.5670 421.96 447.69 20.54
4463 5.5680 419.96 443.91 20.49
4464 5.5690 425.95 440.93 20.64
4465 5.5700 408.10 438.74 20.20
4466 5.5710 439.40 437.32 20.96
4467 5.5720 444.03 436.63 21.07
4468 5.5730 426.59 436.68 20.65
4469 5.5740 429.81 437.44 20.73
4470 5.5750 434.05 438.89 20.83
4471 5.5760 429.98 441.04 20.74
4472 5.5770 468.54 443.85 21.65
4473 5.5780 457.17 447.30 21.38
4474 5.5790 467.92 451.38 21.63
4475 5.5800 479.48 456.06 21.90
4476 5.5810 450.86 461.31 21.23
4477 5.5820 525.03 467.09 22.91
4478 5.5830 489.53 473.36 22.13
4479 5.5840 489.98 480.10 22.14
4480 5.5850 521.30 487.27 22.83
4481 5.5860 562.80 494.85 23.72
4482 5.5870 579.90 502.82 24.08
4483 5.5880 552.12 511.19 23.50
4484 5.5890 538.69 519.97 23.21
4485 5.5900 640.64 529.17 25.31
4486 5.5910 649.07 538.81 25.48
4487 5.5920 680.33 548.93 26.08
4488 5.5930 686.23 559.52 26.20
4489 5.5940 694.50 570.58 26.35
4490 5.5950 698.43 582.04 26.43
4491 5.5960 672.11 593.82 25.93
4492 5.5970 718.63 605.80 26.81
4493 5.5980 747.63 617.78 27.34
4494 5.5990 739.04 629.52 27.19
4495 5.6000 733.59 640.74 27.08
4496 5.6010 719.96 651.12 26.83
4497 5.6020 666.38 660.31 25.81
4498 5.6030 695.71 667.97 26.38
4499 5.6040 681.76 673.81 26.11
4500 5.6050 660.38 677.58 25.70
4501 5.6060 646.91 679.12 25.43
4502 5.6070 625.21 678.38 25.00
4503 5.6080 566.48 675.41 23.80
4504 5.6090 548.61 670.35 23.42
4505 5.6100 553.75 663.46 23.53
4506 5.6110 558.08 655.04 23.62
4507 5.6120 554.69 645.44 23.55
4508 5.6130 554.57 635.00 23.55
4509 5.6140 576.42 624.07 24.01
4510 5.6150 553.83 612.97 23.53
4511 5.6160 531.38 601.99 23.05
4512 5.6170 487.91 591.33 22.09
4513 5.6180 506.35 581.20 22.50
4514 5.6190 496.57 571.74 22.28
4515 5.6200 495.00 563.05 22.25
4516 5.6210 489.97 555.22 22.14
4517 5.6220 503.96 548.30 22.45
4518 5.6230 496.75 542.32 22.29
4519 5.6240 507.80 537.29 22.53
4520 5.6250 477.66 533.22 21.86
4521 5.6260 509.39 530.12 22.57
4522 5.6270 469.30 527.96 21.66
4523 5.6280 480.53 526.76 21.92
4524 5.6290 498.29 526.49 22.32
4525 5.6300 490.03 527.15 22.14
4526 5.6310 543.34 528.73 23.31
4527 5.6320 502.84 531.24 22.42
4528 5.6330 510.29 534.67 22.59
4529 5.6340 475.52 539.04 21.81
4530 5.6350 514.98 544.34 22.69
4531 5.6360 545.07 550.59 23.35
4532 5.6370 536.31 557.83 23.16
4533 5.6380 491.03 566.06 22.16
4534 5.6390 558.43 575.32 23.63
4535 5.6400 588.07 585.66 24.25
4536 5.6410 582.34 597.11 24.13
4537 5.6420 567.34 609.73 23.82
4538 5.6430 560.58 623.57 23.68
4539 5.6440 604.93 638.70 24.60
4540 5.6450 606.53 655.18 24.63
4541 5.6460 611.26 673.12 24.72
4542 5.6470 629.58 692.59 25.09
4543 5.6480 652.09 713.68 25.54
4544 5.6490 657.01 736.48 25.63
4545 5.6500 712.36 761.12 26.69
4546 5.6510 700.51 787.72 26.47
4547 5.6520 747.87 816.37 27.35
4548 5.6530 792.31 847.20 28.15
4549 5.6540 799.00 880.38 28.27
4550 5.6550 853.72 915.96 29.22
4551 5.6560 850.20 954.10 29.16
4552 5.6570 873.13 994.87 29.55
4553 5.6580 914.00 1038.38 30.23
4554 5.6590 953.41 1084.72 30.88
4555 5.6600 1003.11 1133.88 31.67
4556 5.6610 1038.85 1185.88 32.23
4557 5.6620 1119.02 1240.63 33.45
4558 5.6630 1192.95 1298.04 34.54
4559 5.6640 1200.43 1357.99 34.65
4560 5.6650 1229.28 1420.19 35.06
4561 5.6660 1314.11 1484.39 36.25
4562 5.6670 1309.54 1550.31 36.19
4563 5.6680 1405.07 1617.46 37.48
4564 5.6690 1503.88 1686.31 38.78
4565 5.6700 1609.08 1754.82 40.11
4566 5.6710 1664.37 1823.35 40.80
4567 5.6720 1756.27 1891.48 41.91
4568 5.6730 1845.66 1958.71 42.96
4569 5.6740 1835.82 2024.52 42.85
4570 5.6750 1976.66 2088.27 44.46
4571 5.6760 2063.94 2149.28 45.43
4572 5.6770 2215.03 2206.76 47.06
4573 5.6780 2252.23 2259.69 47.46
4574 5.6790 2352.59 2309.46 48.50
4575 5.6800 2413.19 2350.10 49.12
4576 5.6810 2460.73 2382.87 49.61
4577 5.6820 2533.20 2406.82 50.33
4578 5.6830 2641.93 2421.12 51.40
4579 5.6840 2601.12 2425.34 51.00
4580 5.6850 2703.73 2419.44 52.00
4581 5.6860 2653.63 2403.78 51.51
4582 5.6870 2588.83 2379.21 50.88
4583 5.6880 2531.81 2346.92 50.32
4584 5.6890 2425.04 2308.38 49.24
4585 5.6900 2428.92 2265.25 49.28
4586 5.6910 2341.83 2219.24 48.39
4587 5.6920 2269.08 2171.99 47.63
4588 5.6930 2226.43 2125.05 47.19
4589 5.6940 2154.41 2079.83 46.42
4590 5.6950 2087.55 2037.44 45.69
4591 5.6960 2042.39 1998.86 45.19
4592 5.6970 2043.12 1964.82 45.20
4593 5.6980 2023.36 1935.87 44.98
4594 5.6990 2024.45 1912.35 44.99
4595 5.7000 2010.16 1894.43 44.83
4596 5.7010 1952.85 1882.17 44.19
4597 5.7020 1913.45 1875.41 43.74
4598 5.7030 1906.05 1873.88 43.66
4599 5.7040 1901.38 1877.13 43.60
4600 5.7050 1997.44 1884.56 44.69
4601 5.7060 2010.62 1895.38 44.84
4602 5.7070 1963.75 1908.64 44.31
4603 5.7080 2068.65 1923.21 45.48
4604 5.7090 2079.96 1937.83 45.61
4605 5.7100 2008.22 1951.10 44.81
4606 5.7110 2140.66 1961.57 46.27
4607 5.7120 2158.40 1967.80 46.46
4608 5.7130 2198.77 1968.45 46.89
4609 5.7140 2205.58 1962.39 46.96
4610 5.7150 2190.51 1948.78 46.80
4611 5.7160 2341.59 1927.15 48.39
4612 5.7170 2272.43 1897.41 47.67
4613 5.7180 2283.65 1859.86 47.79
4614 5.7190 2144.48 1815.16 46.31
4615 5.7200 2098.07 1764.28 45.80
4616 5.7210 2003.41 1708.35 44.76
4617 5.7220 1856.83 1648.58 43.09
4618 5.7230 1895.44 1586.16 43.54
4619 5.7240 1817.63 1522.31 42.63
4620 5.7250 1640.23 1458.01 40.50
4621 5.7260 1550.11 1394.12 39.37
4622 5.7270 1495.73 1331.45 38.67
4623 5.7280 1349.94 1270.49 36.74
4624 5.7290 1293.22 1211.73 35.96
4625 5.7300 1228.66 1155.43 35.05
4626 5.7310 1149.77 1101.75 33.91
4627 5.7320 1111.27 1050.83 33.34
4628 5.7330 1032.76 1002.68 32.14
4629 5.7340 957.21 957.32 30.94
4630 5.7350 875.30 914.66 29.59
4631 5.7360 825.56 874.59 28.73
4632 5.7370 713.48 837.04 26.71
4633 5.7380 710.80 801.85 26.66
4634 5.7390 662.48 768.91 25.74
4635 5.7400 632.03 738.11 25.14
4636 5.7410 633.91 709.28 25.18
4637 5.7420 635.69 682.33 25.21
4638 5.7430 593.12 657.12 24.35
4639 5.7440 567.95 633.51 23.83
4640 5.7450 554.91 611.41 23.56
4641 5.7460 513.33 590.69 22.66
4642 5.7470 497.99 571.29 22.32
4643 5.7480 496.22 553.09 22.28
4644 5.7490 471.99 535.99 21.73
4645 5.7500 456.59 519.94 21.37
4646 5.7510 431.08 504.84 20.76
4647 5.7520 405.17 490.63 20.13
4648 5.7530 407.26 477.25 20.18
4649 5.7540 375.17 464.63 19.37
4650 5.7550 365.94 452.73 19.13
4651 5.7560 384.88 441.50 19.62
4652 5.7570 384.76 430.88 19.62
4653 5.7580 373.93 420.84 19.34
4654 5.7590 374.44 411.33 19.35
4655 5.7600 351.74 402.32 18.75
4656 5.7610 333.02 393.78 18.25
4657 5.7620 328.88 385.67 18.14
4658 5.7630 353.24 377.98 18.79
4659 5.7640 293.52 370.66 17.13
4660 5.7650 272.91 363.70 16.52
4661 5.7660 297.69 357.08 17.25
4662 5.7670 274.16 350.77 16.56
4663 5.7680 292.02 344.77 17.09
4664 5.7690 280.59 339.04 16.75
4665 5.7700 278.77 333.57 16.70
4666 5.7710 268.18 328.36 16.38
4667 5.7720 266.11 323.37 16.31
4668 5.7730 254.73 318.62 15.96
4669 5.7740 268.27 314.07 16.38
4670 5.7750 244.72 309.73 15.64
4671 5.7760 258.62 305.57 16.08
4672 5.7770 243.32 301.60 15.60
4673 5.7780 225.72 297.80 15.02
4674 5.7790 251.44 294.17 15.86
4675 5.7800 244.36 290.70 15.63
4676 5.7810 236.36 287.38 15.37
4677 5.7820 221.50 284.21 14.88
4678 5.7830 250.18 281.18 15.82
4679 5.7840 235.41 278.28 15.34
4680 5.7850 239.97 275.52 15.49
4681 5.7860 227.93 272.89 15.10
4682 5.7870 236.34 270.37 15.37
4683 5.7880 236.55 267.99 15.38
4684 5.7890 234.58 265.72 15.32
4685 5.7900 194.30 263.56 13.94
4686 5.7910 195.25 259.86 13.97
4687 5.7920 220.48 255.49 14.85
4688 5.7930 222.22 253.85 14.91
4689 5.7940 231.02 252.16 15.20
4690 5.7950 210.43 250.59 14.51
4691 5.7960 224.53 249.12 14.98
4692 5.7970 193.27 247.76 13.90
4693 5.7980 201.78 246.49 14.20
4694 5.7990 211.60 245.33 14.55
4695 5.8000 205.31 244.26 14.33
4696 5.8010 218.38 243.29 14.78
4697 5.8020 198.45 242.41 14.09
4698 5.8030 205.37 241.62 14.33
4699 5.8040 234.17 240.91 15.30
4700 5.8050 218.67 240.27 14.79
4701 5.8060 241.26 239.70 15.53
4702 5.8070 215.33 239.17 14.67
4703 5.8080 209.41 238.68 14.47
4704 5.8090 227.09 238.21 15.07
4705 5.8100 210.04 237.74 14.49
4706 5.8110 236.42 237.25 15.38
4707 5.8120 217.44 236.72 14.75
4708 5.8130 201.15 236.12 14.18
4709 5.8140 199.29 235.45 14.12
4710 5.8150 201.93 234.66 14.21
4711 5.8160 219.10 233.79 14.80
4712 5.8170 218.08 232.78 14.77
4713 5.8180 230.84 231.65 15.19
4714 5.8190 221.49 230.41 14.88
4715 5.8200 238.30 229.06 15.44
4716 5.8210 211.55 227.63 14.54
4717 5.8220 216.73 226.13 14.72
4718 5.8230 232.04 224.58 15.23
4719 5.8240 226.48 222.99 15.05
4720 5.8250 199.84 221.40 14.14
4721 5.8260 205.54 219.81 14.34
4722 5.8270 242.36 218.24 15.57
4723 5.8280 217.02 216.70 14.73
4724 5.8290 219.54 215.21 14.82
4725 5.8300 188.71 213.76 13.74
4726 5.8310 185.81 212.37 13.63
4727 5.8320 180.84 211.03 13.45
4728 5.8330 180.37 209.76 13.43
4729 5.8340 189.22 208.54 13.76
4730 5.8350 181.73 207.39 13.48
4731 5.8360 170.11 206.30 13.04
4732 5.8370 190.97 205.26 13.82
4733 5.8380 206.62 204.29 14.37
4734 5.8390 198.37 203.37 14.08
4735 5.8400 208.78 202.50 14.45
4736 5.8410 184.03 201.69 13.57
4737 5.8420 182.00 200.93 13.49
4738 5.8430 193.86 200.22 13.92
4739 5.8440 191.60 199.55 13.84
4740 5.8450 161.44 198.93 12.71
4741 5.8460 171.25 198.35 13.09
4742 5.8470 169.81 197.82 13.03
4743 5.8480 163.78 197.32 12.80
4744 5.8490 182.82 196.86 13.52
4745 5.8500 166.68 196.24 12.91
4746 5.8510 173.70 195.86 13.18
4747 5.8520 175.23 195.52 13.24
4748 5.8530 160.16 195.20 12.66
4749 5.8540 169.95 194.93 13.04
4750 5.8550 173.70 194.68 13.18
4751 5.8560 168.71 194.47 12.99
4752 5.8570 161.66 194.29 12.71
4753 5.8580 172.18 194.14 13.12
4754 5.8590 178.87 194.02 13.37
4755 5.8600 170.33 193.93 13.05
4756 5.8610 176.98 193.87 13.30
4757 5.8620 170.68 193.85 13.06
4758 5.8630 145.53 193.85 12.06
4759 5.8640 178.54 193.88 13.36
4760 5.8650 176.64 193.95 13.29
4761 5.8660 177.74 194.04 13.33
4762 5.8670 177.94 194.16 13.34
4763 5.8680 180.51 194.32 13.44
4764 5.8690 168.48 194.51 12.98
4765 5.8700 184.44 193.43 13.58
4766 5.8710 167.47 193.69 12.94
4767 5.8720 174.35 193.98 13.20
4768 5.8730 190.75 194.31 13.81
4769 5.8740 161.98 194.68 12.73
4770 5.8750 180.54 195.07 13.44
4771 5.8760 183.17 195.51 13.53
4772 5.8770 202.55 195.98 14.23
4773 5.8780 186.24 196.49 13.65
4774 5.8790 184.26 197.04 13.57
4775 5.8800 180.28 197.63 13.43
4776 5.8810 197.75 198.27 14.06
4777 5.8820 195.53 198.95 13.98
4778 5.8830 207.76 199.67 14.41
4779 5.8840 191.74 200.44 13.85
4780 5.8850 173.27 201.26 13.16
4781 5.8860 189.06 202.13 13.75
4782 5.8870 186.13 203.06 13.64
4783 5.8880 173.12 204.04 13.16
4784 5.8890 165.14 205.08 12.85
4785 5.8900 185.62 206.18 13.62
4786 5.8910 183.99 207.35 13.56
4787 5.8920 199.83 208.58 14.14
4788 5.8930 198.15 209.93 14.08
4789 5.8940 212.71 211.31 14.58
4790 5.8950 203.53 212.77 14.27
4791 5.8960 215.57 214.30 14.68
4792 5.8970 205.61 215.93 14.34
4793 5.8980 205.85 217.65 14.35
4794 5.8990 220.19 219.47 14.84
4795 5.9000 191.54 221.39 13.84
4796 5.9010 180.62 223.42 13.44
4797 5.9020 206.03 225.56 14.35
4798 5.9030 210.96 227.84 14.52
4799 5.9040 222.58 230.24 14.92
4800 5.9050 221.98 232.79 14.90
4801 5.9060 247.10 235.48 15.72
4802 5.9070 250.65 238.34 15.83
4803 5.9080 225.02 241.37 15.00
4804 5.9090 207.57 244.58 14.41
4805 5.9100 247.86 247.99 15.74
4806 5.9110 238.91 251.62 15.46
4807 5.9120 238.95 255.47 15.46
4808 5.9130 236.22 259.57 15.37
4809 5.9140 239.65 263.94 15.48
4810 5.9150 241.77 268.58 15.55
4811 5.9160 248.00 273.54 15.75
4812 5.9170 264.45 278.82 16.26
4813 5.9180 279.54 284.46 16.72
4814 5.9190 270.96 290.49 16.46
4815 5.9200 282.02 296.92 16.79
4816 5.9210 286.65 303.80 16.93
4817 5.9220 325.71 311.15 18.05
4818 5.9230 338.18 319.03 18.39
4819 5.9240 333.68 327.45 18.27
4820 5.9250 311.01 336.78 17.64
4821 5.9260 320.49 346.43 17.90
4822 5.9270 342.83 356.76 18.52
4823 5.9280 343.61 367.80 18.54
4824 5.9290 361.02 379.63 19.00
4825 5.9300 387.76 392.27 19.69
4826 5.9310 419.45 405.79 20.48
4827 5.9320 414.92 420.21 20.37
4828 5.9330 446.23 435.58 21.12
4829 5.9340 448.94 451.96 21.19
4830 5.9350 450.54 469.37 21.23
4831 5.9360 479.67 487.85 21.90
4832 5.9370 486.13 507.38 22.05
4833 5.9380 539.42 526.65 23.23
4834 5.9390 536.28 548.32 23.16
4835 5.9400 593.44 570.99 24.36
4836 5.9410 632.49 594.62 25.15
4837 5.9420 639.54 619.26 25.29
4838 5.9430 668.03 643.99 25.85
4839 5.9440 686.10 669.80 26.19
4840 5.9450 689.11 696.00 26.25
4841 5.9460 729.93 722.41 27.02
4842 5.9470 813.29 748.77 28.52
4843 5.9480 857.09 774.84 29.28
4844 5.9490 831.52 800.38 28.84
4845 5.9500 895.66 825.10 29.93
4846 5.9510 896.56 848.72 29.94
4847 5.9520 908.45 864.82 30.14
4848 5.9530 904.22 885.37 30.07
4849 5.9540 911.95 903.90 30.20
4850 5.9550 917.39 920.03 30.29
4851 5.9560 931.31 933.44 30.52
4852 5.9570 898.72 943.75 29.98
4853 5.9580 864.81 950.61 29.41
4854 5.9590 858.09 953.74 29.29
4855 5.9600 856.31 952.91 29.26
4856 5.9610 825.76 948.00 28.74
4857 5.9620 788.60 939.01 28.08
4858 5.9630 766.16 926.06 27.68
4859 5.9640 746.76 909.42 27.33
4860 5.9650 722.30 889.48 26.88
4861 5.9660 739.90 866.67 27.20
4862 5.9670 703.28 841.52 26.52
4863 5.9680 651.20 814.58 25.52
4864 5.9690 659.11 786.36 25.67
4865 5.9700 629.19 757.41 25.08
4866 5.9710 596.54 728.16 24.42
4867 5.9720 593.35 698.98 24.36
4868 5.9730 533.54 670.23 23.10
4869 5.9740 538.44 642.17 23.20
4870 5.9750 524.51 614.98 22.90
4871 5.9760 502.27 588.82 22.41
4872 5.9770 477.04 563.80 21.84
4873 5.9780 464.19 539.98 21.55
4874 5.9790 482.43 517.39 21.96
4875 5.9800 491.14 496.03 22.16
4876 5.9810 448.95 475.89 21.19
4877 5.9820 426.40 456.93 20.65
4878 5.9830 411.91 439.14 20.30
4879 5.9840 435.73 422.45 20.87
4880 5.9850 428.70 401.72 20.71
4881 5.9860 383.18 387.12 19.58
4882 5.9870 370.91 373.47 19.26
4883 5.9880 413.87 360.70 20.34
4884 5.9890 378.30 348.78 19.45
4885 5.9900 356.23 337.63 18.87
4886 5.9910 341.32 327.22 18.47
4887 5.9920 359.06 317.49 18.95
4888 5.9930 362.35 308.40 19.04
4889 5.9940 334.24 299.90 18.28
4890 5.9950 339.91 291.94 18.44
4891 5.9960 326.94 284.50 18.08
4892 5.9970 327.69 277.54 18.10
4893 5.9980 317.82 271.01 17.83
4894 5.9990 306.57 264.89 17.51
4895 6.0000 299.87 259.15 17.32
4896 6.0010 322.16 253.76 17.95
4897 6.0020 340.37 248.69 18.45
4898 6.0030 299.55 243.93 17.31
4899 6.0040 256.71 239.44 16.02
4900 6.0050 305.59 235.21 17.48
4901 6.0060 289.16 231.23 17.00
4902 6.0070 261.19 227.47 16.16
4903 6.0080 295.46 223.92 17.19
4904 6.0090 276.20 220.56 16.62
4905 6.0100 258.61 217.38 16.08
4906 6.0110 250.87 214.37 15.84
4907 6.0120 241.16 211.52 15.53
4908 6.0130 226.85 208.81 15.06
4909 6.0140 259.85 206.24 16.12
4910 6.0150 275.08 203.81 16.59
4911 6.0160 247.92 201.49 15.75
4912 6.0170 236.25 199.29 15.37
4913 6.0180 211.70 197.19 14.55
4914 6.0190 237.82 195.19 15.42
4915 6.0200 221.59 193.30 14.89
4916 6.0210 233.31 191.49 15.27
4917 6.0220 232.80 189.77 15.26
4918 6.0230 214.21 188.13 14.64
4919 6.0240 218.41 186.57 14.78
4920 6.0250 223.34 185.09 14.94
4921 6.0260 216.82 183.67 14.72
4922 6.0270 212.52 182.32 14.58
4923 6.0280 213.26 181.03 14.60
4924 6.0290 193.09 179.81 13.90
4925 6.0300 205.87 178.65 14.35
4926 6.0310 220.55 177.54 14.85
4927 6.0320 188.60 176.49 13.73
4928 6.0330 198.43 175.49 14.09
4929 6.0340 191.72 174.54 13.85
4930 6.0350 207.96 173.65 14.42
4931 6.0360 198.07 172.80 14.07
4932 6.0370 197.86 172.00 14.07
4933 6.0380 171.23 171.25 13.09
4934 6.0390 169.16 170.55 13.01
4935 6.0400 162.87 169.89 12.76
4936 6.0410 166.49 169.28 12.90
4937 6.0420 177.66 168.71 13.33
4938 6.0430 184.57 168.19 13.59
4939 6.0440 165.68 167.71 12.87
4940 6.0450 188.80 167.28 13.74
4941 6.0460 189.51 166.90 13.77
4942 6.0470 196.87 166.56 14.03
4943 6.0480 194.84 166.27 13.96
4944 6.0490 172.30 166.03 13.13
4945 6.0500 170.52 165.83 13.06
4946 6.0510 165.18 165.69 12.85
4947 6.0520 167.06 165.60 12.93
4948 6.0530 170.91 165.57 13.07
4949 6.0540 163.51 165.59 12.79
4950 6.0550 177.39 165.67 13.32
4951 6.0560 158.50 165.81 12.59
4952 6.0570 164.94 166.01 12.84
4953 6.0580 177.68 166.27 13.33
4954 6.0590 190.38 166.59 13.80
4955 6.0600 182.35 166.98 13.50
4956 6.0610 167.61 167.45 12.95
4957 6.0620 170.69 167.98 13.06
4958 6.0630 166.09 168.57 12.89
4959 6.0640 168.11 169.24 12.97
4960 6.0650 153.85 169.99 12.40
4961 6.0660 173.36 170.79 13.17
4962 6.0670 178.80 171.67 13.37
4963 6.0680 163.71 172.60 12.79
4964 6.0690 156.30 173.59 12.50
4965 6.0700 156.39 174.62 12.51
4966 6.0710 162.40 175.69 12.74
4967 6.0720 167.60 176.77 12.95
4968 6.0730 150.93 177.85 12.29
4969 6.0740 161.56 178.90 12.71
4970 6.0750 159.57 179.91 12.63
4971 6.0760 164.91 180.84 12.84
4972 6.0770 164.63 181.67 12.83
4973 6.0780 159.06 182.37 12.61
4974 6.0790 142.41 182.91 11.93
4975 6.0800 151.60 183.27 12.31
4976 6.0810 137.75 183.43 11.74
4977 6.0820 152.67 183.38 12.36
4978 6.0830 156.33 183.11 12.50
4979 6.0840 155.76 182.94 12.48
4980 6.0850 153.47 182.26 12.39
4981 6.0860 159.98 181.41 12.65
4982 6.0870 165.24 180.39 12.85
4983 6.0880 159.58 179.24 12.63
4984 6.0890 155.51 177.99 12.47
4985 6.0900 159.81 176.67 12.64
4986 6.0910 164.02 175.21 12.81
4987 6.0920 155.30 173.81 12.46
4988 6.0930 166.10 172.41 12.89
4989 6.0940 150.12 171.03 12.25
4990 6.0950 157.45 169.67 12.55
4991 6.0960 165.08 168.35 12.85
4992 6.0970 181.62 167.08 13.48
4993 6.0980 180.71 165.86 13.44
4994 6.0990 145.90 164.69 12.08
4995 6.1000 160.95 163.57 12.69
4996 6.1010 161.44 162.50 12.71
4997 6.1020 158.29 161.48 12.58
4998 6.1030 179.42 160.51 13.39
4999 6.1040 190.26 159.57 13.79
5000 6.1050 177.85 158.67 13.34
5001 6.1060 169.63 157.80 13.02
5002 6.1070 145.17 156.96 12.05
5003 6.1080 166.26 156.14 12.89
5004 6.1090 171.94 155.35 13.11
5005 6.1100 151.97 154.58 12.33
5006 6.1110 136.09 153.83 11.67
5007 6.1120 151.54 153.10 12.31
5008 6.1130 136.26 152.40 11.67
5009 6.1140 174.56 151.72 13.21
5010 6.1150 162.21 151.07 12.74
5011 6.1160 175.06 150.44 13.23
5012 6.1170 176.38 149.84 13.28
5013 6.1180 183.53 149.27 13.55
5014 6.1190 156.18 148.72 12.50
5015 6.1200 144.33 148.21 12.01
5016 6.1210 138.55 147.72 11.77
5017 6.1220 152.46 147.26 12.35
5018 6.1230 150.48 146.83 12.27
5019 6.1240 156.90 146.42 12.53
5020 6.1250 140.52 146.04 11.85
5021 6.1260 152.26 145.68 12.34
5022 6.1270 144.89 145.35 12.04
5023 6.1280 125.64 145.05 11.21
5024 6.1290 139.22 144.76 11.80
5025 6.1300 170.86 144.50 13.07
5026 6.1310 160.98 144.26 12.69
5027 6.1320 156.69 144.04 12.52
5028 6.1330 160.36 143.83 12.66
5029 6.1340 157.55 143.65 12.55
5030 6.1350 140.76 143.48 11.86
5031 6.1360 134.94 143.34 11.62
5032 6.1370 144.28 143.21 12.01
5033 6.1380 149.56 143.10 12.23
5034 6.1390 156.31 143.00 12.50
5035 6.1400 161.29 142.92 12.70
5036 6.1410 160.29 142.86 12.66
5037 6.1420 140.69 142.81 11.86
5038 6.1430 128.35 142.78 11.33
5039 6.1440 154.87 142.77 12.44
5040 6.1450 155.46 142.77 12.47
5041 6.1460 154.28 142.79 12.42
5042 6.1470 145.54 142.82 12.06
5043 6.1480 148.18 142.88 12.17
5044 6.1490 145.82 142.94 12.08
5045 6.1500 156.14 143.03 12.50
5046 6.1510 148.51 143.13 12.19
5047 6.1520 129.43 143.26 11.38
5048 6.1530 148.47 143.40 12.18
5049 6.1540 158.71 143.56 12.60
5050 6.1550 155.05 143.74 12.45
5051 6.1560 164.33 143.95 12.82
5052 6.1570 148.95 144.18 12.20
5053 6.1580 135.03 144.43 11.62
5054 6.1590 131.78 144.70 11.48
5055 6.1600 144.31 145.00 12.01
5056 6.1610 159.41 145.33 12.63
5057 6.1620 184.63 145.68 13.59
5058 6.1630 160.77 146.06 12.68
5059 6.1640 145.15 146.48 12.05
5060 6.1650 160.16 146.92 12.66
5061 6.1660 163.80 147.40 12.80
5062 6.1670 158.54 147.91 12.59
5063 6.1680 181.28 148.46 13.46
5064 6.1690 178.12 149.05 13.35
5065 6.1700 179.81 149.67 13.41
5066 6.1710 160.27 150.34 12.66
5067 6.1720 143.37 151.04 11.97
5068 6.1730 150.09 151.78 12.25
5069 6.1740 152.65 152.57 12.36
5070 6.1750 163.48 153.39 12.79
5071 6.1760 177.61 154.25 13.33
5072 6.1770 167.34 155.15 12.94
5073 6.1780 164.97 156.08 12.84
5074 6.1790 171.68 157.04 13.10
5075 6.1800 169.65 158.03 13.02
5076 6.1810 192.59 159.03 13.88
5077 6.1820 187.22 160.06 13.68
5078 6.1830 188.23 161.09 13.72
5079 6.1840 185.97 162.12 13.64
5080 6.1850 173.89 163.15 13.19
5081 6.1860 195.07 164.17 13.97
5082 6.1870 194.74 165.18 13.95
5083 6.1880 186.25 166.19 13.65
5084 6.1890 177.21 167.18 13.31
5085 6.1900 199.21 168.17 14.11
5086 6.1910 201.59 169.17 14.20
5087 6.1920 194.79 170.18 13.96
5088 6.1930 189.17 171.21 13.75
5089 6.1940 172.16 172.29 13.12
5090 6.1950 190.19 173.43 13.79
5091 6.1960 180.68 174.63 13.44
5092 6.1970 183.57 175.92 13.55
5093 6.1980 187.25 177.31 13.68
5094 6.1990 183.25 178.82 13.54
5095 6.2000 196.89 180.45 14.03
5096 6.2010 220.87 182.22 14.86
5097 6.2020 216.96 184.14 14.73
5098 6.2030 199.58 186.22 14.13
5099 6.2040 201.45 188.46 14.19
5100 6.2050 194.16 190.89 13.93
5101 6.2060 183.72 193.47 13.55
5102 6.2070 197.48 196.21 14.05
5103 6.2080 198.60 199.12 14.09
5104 6.2090 187.02 202.19 13.68
5105 6.2100 192.65 205.39 13.88
5106 6.2110 187.41 208.73 13.69
5107 6.2120 209.65 212.16 14.48
5108 6.2130 199.16 215.66 14.11
5109 6.2140 206.14 219.19 14.36
5110 6.2150 197.49 222.71 14.05
5111 6.2160 199.85 226.16 14.14
5112 6.2170 196.24 229.50 14.01
5113 6.2180 218.93 232.66 14.80
5114 6.2190 230.90 235.57 15.20
5115 6.2200 223.95 238.19 14.97
5116 6.2210 215.24 240.47 14.67
5117 6.2220 233.11 242.35 15.27
5118 6.2230 213.07 243.80 14.60
5119 6.2240 232.01 244.82 15.23
5120 6.2250 211.96 245.41 14.56
5121 6.2260 219.56 245.57 14.82
5122 6.2270 210.21 245.33 14.50
5123 6.2280 205.87 244.79 14.35
5124 6.2290 212.22 243.88 14.57
5125 6.2300 211.25 242.71 14.53
5126 6.2310 214.18 241.31 14.63
5127 6.2320 216.82 239.81 14.72
5128 6.2330 212.64 237.30 14.58
5129 6.2340 178.92 235.46 13.38
5130 6.2350 189.44 233.51 13.76
5131 6.2360 205.57 231.46 14.34
5132 6.2370 180.67 229.32 13.44
5133 6.2380 195.72 227.08 13.99
5134 6.2390 200.03 224.73 14.14
5135 6.2400 195.49 222.27 13.98
5136 6.2410 186.00 219.70 13.64
5137 6.2420 184.60 217.00 13.59
5138 6.2430 197.31 214.20 14.05
5139 6.2440 182.28 208.88 13.50
5140 6.2450 151.14 205.91 12.29
5141 6.2460 163.58 202.86 12.79
5142 6.2470 149.42 199.77 12.22
5143 6.2480 188.48 196.66 13.73
5144 6.2490 161.53 193.55 12.71
5145 6.2500 170.10 190.47 13.04
5146 6.2510 173.69 187.44 13.18
5147 6.2520 184.29 184.48 13.58
5148 6.2530 158.34 181.60 12.58
5149 6.2540 171.60 178.81 13.10
5150 6.2550 167.08 176.13 12.93
5151 6.2560 173.16 173.57 13.16
5152 6.2570 174.13 171.11 13.20
5153 6.2580 164.51 168.78 12.83
5154 6.2590 181.50 166.56 13.47
5155 6.2600 169.37 164.46 13.01
5156 6.2610 154.87 162.48 12.44
5157 6.2620 157.11 160.60 12.53
5158 6.2630 144.37 158.84 12.02
5159 6.2640 173.16 157.18 13.16
5160 6.2650 147.71 155.61 12.15
5161 6.2660 151.24 154.14 12.30
5162 6.2670 135.55 152.75 11.64
5163 6.2680 136.38 151.45 11.68
5164 6.2690 153.14 150.23 12.38
5165 6.2700 146.53 149.08 12.10
5166 6.2710 150.20 148.00 12.26
5167 6.2720 141.69 146.99 11.90
5168 6.2730 146.79 146.04 12.12
5169 6.2740 130.90 145.15 11.44
5170 6.2750 127.28 144.30 11.28
5171 6.2760 128.43 143.52 11.33
5172 6.2770 130.30 142.77 11.41
5173 6.2780 139.68 142.07 11.82
5174 6.2790 126.58 141.42 11.25
5175 6.2800 110.20 140.80 10.50
5176 6.2810 134.75 140.22 11.61
5177 6.2820 135.41 139.67 11.64
5178 6.2830 144.71 139.15 12.03
5179 6.2840 150.08 138.66 12.25
5180 6.2850 126.87 138.21 11.26
5181 6.2860 138.84 137.77 11.78
5182 6.2870 141.11 137.36 11.88
5183 6.2880 137.75 136.98 11.74
5184 6.2890 129.31 136.61 11.37
5185 6.2900 122.23 136.27 11.06
5186 6.2910 124.96 135.94 11.18
5187 6.2920 140.01 135.63 11.83
5188 6.2930 142.33 135.35 11.93
5189 6.2940 129.86 135.07 11.40
5190 6.2950 128.27 134.81 11.33
5191 6.2960 136.88 134.57 11.70
5192 6.2970 130.80 134.34 11.44
5193 6.2980 135.20 134.12 11.63
5194 6.2990 114.77 133.92 10.71
5195 6.3000 117.16 133.73 10.82
5196 6.3010 105.87 133.55 10.29
5197 6.3020 106.75 133.38 10.33
5198 6.3030 131.86 133.23 11.48
5199 6.3040 121.58 133.08 11.03
5200 6.3050 126.54 132.95 11.25
5201 6.3060 124.87 132.84 11.17
5202 6.3070 111.59 132.73 10.56
5203 6.3080 134.42 132.62 11.59
5204 6.3090 127.98 132.53 11.31
5205 6.3100 130.18 132.44 11.41
5206 6.3110 139.81 132.36 11.82
5207 6.3120 127.62 132.29 11.30
5208 6.3130 127.14 132.23 11.28
5209 6.3140 140.76 132.18 11.86
5210 6.3150 129.72 132.13 11.39
5211 6.3160 122.64 132.10 11.07
5212 6.3170 120.25 132.07 10.97
5213 6.3180 124.67 132.05 11.17
5214 6.3190 130.15 132.05 11.41
5215 6.3200 126.84 132.05 11.26
5216 6.3210 121.42 132.05 11.02
5217 6.3220 106.99 132.07 10.34
5218 6.3230 117.72 132.10 10.85
5219 6.3240 129.54 132.14 11.38
5220 6.3250 108.75 132.18 10.43
5221 6.3260 123.75 132.24 11.12
5222 6.3270 134.51 132.30 11.60
5223 6.3280 128.30 132.38 11.33
5224 6.3290 107.84 132.46 10.38
5225 6.3300 118.77 132.56 10.90
5226 6.3310 111.07 132.67 10.54
5227 6.3320 116.49 132.79 10.79
5228 6.3330 122.11 132.92 11.05
5229 6.3340 140.00 133.07 11.83
5230 6.3350 127.10 133.22 11.27
5231 6.3360 114.34 133.40 10.69
5232 6.3370 107.77 133.58 10.38
5233 6.3380 110.41 133.79 10.51
5234 6.3390 143.20 134.01 11.97
5235 6.3400 122.85 134.24 11.08
5236 6.3410 108.16 134.50 10.40
5237 6.3420 117.17 134.77 10.82
5238 6.3430 131.32 135.07 11.46
5239 6.3440 120.00 135.39 10.95
5240 6.3450 130.60 135.73 11.43
5241 6.3460 136.05 136.10 11.66
5242 6.3470 130.85 136.49 11.44
5243 6.3480 127.17 136.92 11.28
5244 6.3490 123.26 137.37 11.10
5245 6.3500 126.33 137.86 11.24
5246 6.3510 131.11 138.39 11.45
5247 6.3520 114.85 138.95 10.72
5248 6.3530 124.02 139.56 11.14
5249 6.3540 123.43 140.21 11.11
5250 6.3550 122.73 140.90 11.08
5251 6.3560 146.89 141.65 12.12
5252 6.3570 142.52 142.45 11.94
5253 6.3580 129.96 143.30 11.40
5254 6.3590 133.70 144.23 11.56
5255 6.3600 114.17 145.21 10.69
5256 6.3610 132.60 146.26 11.52
5257 6.3620 134.93 147.39 11.62
5258 6.3630 140.07 148.60 11.84
5259 6.3640 138.07 149.88 11.75
5260 6.3650 141.38 151.26 11.89
5261 6.3660 143.43 152.73 11.98
5262 6.3670 133.57 154.29 11.56
5263 6.3680 141.62 155.95 11.90
5264 6.3690 149.74 157.72 12.24
5265 6.3700 143.25 159.59 11.97
5266 6.3710 140.55 161.57 11.86
5267 6.3720 151.74 163.53 12.32
5268 6.3730 165.86 165.74 12.88
5269 6.3740 186.33 168.06 13.65
5270 6.3750 180.02 170.49 13.42
5271 6.3760 156.83 173.03 12.52
5272 6.3770 163.87 175.67 12.80
5273 6.3780 179.46 178.39 13.40
5274 6.3790 164.10 181.19 12.81
5275 6.3800 172.94 184.04 13.15
5276 6.3810 193.89 186.93 13.92
5277 6.3820 183.91 189.82 13.56
5278 6.3830 189.97 192.67 13.78
5279 6.3840 207.01 195.46 14.39
5280 6.3850 201.72 198.13 14.20
5281 6.3860 189.88 200.63 13.78
5282 6.3870 202.32 202.91 14.22
5283 6.3880 205.51 204.92 14.34
5284 6.3890 196.89 206.61 14.03
5285 6.3900 197.13 207.93 14.04
5286 6.3910 183.59 208.85 13.55
5287 6.3920 176.63 209.34 13.29
5288 6.3930 210.59 209.37 14.51
5289 6.3940 216.09 208.96 14.70
5290 6.3950 196.39 208.10 14.01
5291 6.3960 201.58 206.84 14.20
5292 6.3970 202.53 205.19 14.23
5293 6.3980 183.16 203.21 13.53
5294 6.3990 203.30 200.93 14.26
5295 6.4000 200.20 198.43 14.15
5296 6.4010 221.61 195.75 14.89
5297 6.4020 189.71 192.94 13.77
5298 6.4030 190.03 190.05 13.79
5299 6.4040 186.98 187.11 13.67
5300 6.4050 177.74 184.17 13.33
5301 6.4060 160.57 181.25 12.67
5302 6.4070 190.82 178.38 13.81
5303 6.4080 176.59 175.58 13.29
5304 6.4090 168.04 172.86 12.96
5305 6.4100 162.36 170.24 12.74
5306 6.4110 178.68 167.72 13.37
5307 6.4120 158.64 165.32 12.60
5308 6.4130 144.39 163.02 12.02
5309 6.4140 141.65 160.84 11.90
5310 6.4150 160.00 158.77 12.65
5311 6.4160 163.51 158.94 12.79
5312 6.4170 144.61 157.10 12.03
5313 6.4180 144.31 155.36 12.01
5314 6.4190 159.33 153.73 12.62
5315 6.4200 148.82 152.19 12.20
5316 6.4210 137.92 150.75 11.74
5317 6.4220 147.35 149.39 12.14
5318 6.4230 141.13 148.12 11.88
5319 6.4240 120.96 146.93 11.00
5320 6.4250 126.62 145.81 11.25
5321 6.4260 124.68 144.76 11.17
5322 6.4270 117.81 143.78 10.85
5323 6.4280 130.40 142.86 11.42
5324 6.4290 132.13 142.00 11.49
5325 6.4300 133.65 141.20 11.56
5326 6.4310 140.89 140.45 11.87
5327 6.4320 138.60 139.74 11.77
5328 6.4330 125.91 139.08 11.22
5329 6.4340 118.58 138.46 10.89
5330 6.4350 124.27 137.88 11.15
5331 6.4360 130.59 137.34 11.43
5332 6.4370 127.41 136.83 11.29
5333 6.4380 125.93 136.35 11.22
5334 6.4390 125.99 135.90 11.22
5335 6.4400 110.51 135.48 10.51
5336 6.4410 114.92 135.09 10.72
5337 6.4420 119.32 134.72 10.92
5338 6.4430 122.67 134.37 11.08
5339 6.4440 117.53 134.04 10.84
5340 6.4450 116.96 133.74 10.81
5341 6.4460 116.44 133.45 10.79
5342 6.4470 121.76 133.18 11.03
5343 6.4480 113.05 132.92 10.63
5344 6.4490 121.73 132.68 11.03
5345 6.4500 136.76 132.46 11.69
5346 6.4510 125.76 132.24 11.21
5347 6.4520 126.07 132.04 11.23
5348 6.4530 135.02 131.85 11.62
5349 6.4540 137.30 131.68 11.72
5350 6.4550 124.92 131.51 11.18
5351 6.4560 119.15 131.35 10.92
5352 6.4570 107.60 131.20 10.37
5353 6.4580 109.00 131.06 10.44
5354 6.4590 92.18 130.93 9.60
5355 6.4600 112.37 130.80 10.60
5356 6.4610 126.92 130.69 11.27
5357 6.4620 127.23 130.58 11.28
5358 6.4630 119.01 130.48 10.91
5359 6.4640 118.64 130.38 10.89
5360 6.4650 127.17 130.30 11.28
5361 6.4660 116.37 130.22 10.79
5362 6.4670 109.02 130.15 10.44
5363 6.4680 112.99 130.08 10.63
5364 6.4690 119.65 130.02 10.94
5365 6.4700 124.57 129.97 11.16
5366 6.4710 120.74 129.93 10.99
5367 6.4720 109.68 129.89 10.47
5368 6.4730 124.26 129.87 11.15
5369 6.4740 128.57 129.85 11.34
5370 6.4750 129.60 129.83 11.38
5371 6.4760 128.96 129.83 11.36
5372 6.4770 129.45 129.83 11.38
5373 6.4780 126.52 129.84 11.25
5374 6.4790 139.55 129.86 11.81
5375 6.4800 128.88 129.89 11.35
5376 6.4810 121.52 129.93 11.02
5377 6.4820 114.70 129.98 10.71
5378 6.4830 113.30 130.03 10.64
5379 6.4840 112.46 130.10 10.60
5380 6.4850 89.93 130.12 9.48
5381 6.4860 129.39 130.21 11.38
5382 6.4870 112.39 130.30 10.60
5383 6.4880 119.70 130.41 10.94
5384 6.4890 113.50 130.53 10.65
5385 6.4900 113.77 130.66 10.67
5386 6.4910 113.81 130.80 10.67
5387 6.4920 124.95 130.96 11.18
5388 6.4930 122.08 131.13 11.05
5389 6.4940 118.44 131.31 10.88
5390 6.4950 125.92 131.51 11.22
5391 6.4960 129.24 131.73 11.37
5392 6.4970 130.18 131.96 11.41
5393 6.4980 137.36 132.21 11.72
5394 6.4990 128.01 132.48 11.31
5395 6.5000 129.37 132.76 11.37
5396 6.5010 120.60 133.07 10.98
5397 6.5020 117.36 133.39 10.83
5398 6.5030 117.10 133.74 10.82
5399 6.5040 132.23 134.11 11.50
5400 6.5050 135.50 134.50 11.64
5401 6.5060 112.29 134.92 10.60
5402 6.5070 127.58 135.36 11.30
5403 6.5080 134.79 135.82 11.61
5404 6.5090 134.49 136.31 11.60
5405 6.5100 144.90 136.82 12.04
5406 6.5110 114.04 137.35 10.68
5407 6.5120 127.07 137.91 11.27
5408 6.5130 125.43 138.49 11.20
5409 6.5140 129.19 139.09 11.37
5410 6.5150 133.71 139.70 11.56
5411 6.5160 111.36 140.34 10.55
5412 6.5170 134.36 140.99 11.59
5413 6.5180 152.12 141.65 12.33
5414 6.5190 148.59 142.32 12.19
5415 6.5200 148.19 143.01 12.17
5416 6.5210 130.75 143.70 11.43
5417 6.5220 136.60 144.07 11.69
5418 6.5230 144.20 144.78 12.01
5419 6.5240 150.08 145.50 12.25
5420 6.5250 150.73 146.24 12.28
5421 6.5260 145.72 146.98 12.07
5422 6.5270 161.76 147.74 12.72
5423 6.5280 154.36 148.53 12.42
5424 6.5290 136.70 150.85 11.69
5425 6.5300 139.49 151.70 11.81
5426 6.5310 142.68 152.57 11.94
5427 6.5320 142.12 153.48 11.92
5428 6.5330 161.89 154.41 12.72
5429 6.5340 145.52 155.38 12.06
5430 6.5350 163.59 156.38 12.79
5431 6.5360 156.90 157.39 12.53
5432 6.5370 155.88 158.43 12.49
5433 6.5380 168.71 159.46 12.99
5434 6.5390 178.16 160.50 13.35
5435 6.5400 187.95 161.51 13.71
5436 6.5410 167.87 162.49 12.96
5437 6.5420 161.71 163.26 12.72
5438 6.5430 160.36 164.11 12.66
5439 6.5440 161.01 164.88 12.69
5440 6.5450 166.97 165.54 12.92
5441 6.5460 182.65 166.08 13.51
5442 6.5470 180.25 166.47 13.43
5443 6.5480 167.39 166.71 12.94
5444 6.5490 129.17 166.80 11.37
5445 6.5500 149.26 166.71 12.22
5446 6.5510 158.48 166.47 12.59
5447 6.5520 168.34 166.06 12.97
5448 6.5530 171.06 165.49 13.08
5449 6.5540 162.52 164.79 12.75
5450 6.5550 148.06 163.96 12.17
5451 6.5560 140.84 163.02 11.87
5452 6.5570 133.40 161.99 11.55
5453 6.5580 173.58 160.89 13.18
5454 6.5590 160.12 159.74 12.65
5455 6.5600 158.83 158.55 12.60
5456 6.5610 167.87 157.34 12.96
5457 6.5620 174.32 156.12 13.20
5458 6.5630 165.79 154.92 12.88
5459 6.5640 150.99 153.73 12.29
5460 6.5650 146.76 152.57 12.11
5461 6.5660 162.52 151.44 12.75
5462 6.5670 147.51 150.35 12.15
5463 6.5680 159.88 149.30 12.64
5464 6.5690 135.79 148.30 11.65
5465 6.5700 144.83 147.35 12.03
5466 6.5710 158.21 146.44 12.58
5467 6.5720 151.68 145.59 12.32
5468 6.5730 139.37 144.79 11.81
5469 6.5740 142.67 144.03 11.94
5470 6.5750 163.05 143.32 12.77
5471 6.5760 161.15 142.66 12.69
5472 6.5770 149.53 142.04 12.23
5473 6.5780 126.63 141.47 11.25
5474 6.5790 144.16 140.94 12.01
5475 6.5800 138.69 140.45 11.78
5476 6.5810 140.08 139.99 11.84
5477 6.5820 136.96 139.58 11.70
5478 6.5830 126.61 139.20 11.25
5479 6.5840 129.23 138.85 11.37
5480 6.5850 133.98 138.54 11.57
5481 6.5860 151.55 138.26 12.31
5482 6.5870 129.27 138.01 11.37
5483 6.5880 155.34 137.78 12.46
5484 6.5890 147.49 137.59 12.14
5485 6.5900 159.40 137.42 12.63
5486 6.5910 150.37 137.27 12.26
5487 6.5920 162.92 137.15 12.76
5488 6.5930 132.15 137.05 11.50
5489 6.5940 150.61 136.97 12.27
5490 6.5950 149.70 136.91 12.24
5491 6.5960 132.37 136.88 11.51
5492 6.5970 135.42 136.86 11.64
5493 6.5980 132.22 136.87 11.50
5494 6.5990 118.74 136.89 10.90
5495 6.6000 129.11 136.93 11.36
5496 6.6010 133.79 136.99 11.57
5497 6.6020 126.23 137.07 11.24
5498 6.6030 122.19 137.17 11.05
5499 6.6040 137.67 137.28 11.73
5500 6.6050 146.69 137.41 12.11
5501 6.6060 140.55 137.56 11.86
5502 6.6070 130.60 137.73 11.43
5503 6.6080 146.28 137.91 12.09
5504 6.6090 142.92 138.12 11.95
5505 6.6100 136.05 138.33 11.66
5506 6.6110 146.66 138.57 12.11
5507 6.6120 152.71 138.82 12.36
5508 6.6130 157.05 139.08 12.53
5509 6.6140 145.21 139.36 12.05
5510 6.6150 145.85 139.66 12.08
5511 6.6160 157.15 139.97 12.54
5512 6.6170 141.12 140.29 11.88
5513 6.6180 118.36 140.62 10.88
5514 6.6190 129.54 140.96 11.38
5515 6.6200 152.41 141.32 12.35
5516 6.6210 149.66 141.67 12.23
5517 6.6220 146.46 142.03 12.10
5518 6.6230 127.49 142.38 11.29
5519 6.6240 140.99 142.74 11.87
5520 6.6250 158.89 143.08 12.61
5521 6.6260 140.82 143.42 11.87
5522 6.6270 146.06 143.74 12.09
5523 6.6280 138.27 144.05 11.76
5524 6.6290 127.50 144.33 11.29
5525 6.6300 143.49 144.60 11.98
5526 6.6310 166.79 144.84 12.91
5527 6.6320 153.67 145.06 12.40
5528 6.6330 149.25 145.26 12.22
5529 6.6340 160.59 145.43 12.67
5530 6.6350 168.16 145.59 12.97
5531 6.6360 156.41 145.73 12.51
5532 6.6370 139.27 145.86 11.80
5533 6.6380 149.71 145.98 12.24
5534 6.6390 147.67 146.09 12.15
5535 6.6400 140.34 146.20 11.85
5536 6.6410 167.03 146.32 12.92
5537 6.6420 151.27 146.43 12.30
5538 6.6430 150.61 146.56 12.27
5539 6.6440 149.52 146.69 12.23
5540 6.6450 152.94 146.84 12.37
5541 6.6460 135.86 147.01 11.66
5542 6.6470 153.98 147.19 12.41
5543 6.6480 169.60 147.39 13.02
5544 6.6490 168.79 147.61 12.99
5545 6.6500 163.56 147.85 12.79
5546 6.6510 141.38 148.11 11.89
5547 6.6520 142.40 148.39 11.93
5548 6.6530 139.22 148.70 11.80
5549 6.6540 144.11 149.03 12.00
5550 6.6550 139.20 149.38 11.80
5551 6.6560 143.62 149.76 11.98
5552 6.6570 151.39 150.16 12.30
5553 6.6580 149.96 150.59 12.25
5554 6.6590 149.39 151.04 12.22
5555 6.6600 165.66 151.53 12.87
5556 6.6610 136.45 152.03 11.68
5557 6.6620 160.82 152.57 12.68
5558 6.6630 152.93 153.13 12.37
5559 6.6640 167.52 153.72 12.94
5560 6.6650 159.70 154.34 12.64
5561 6.6660 172.01 154.99 13.12
5562 6.6670 160.41 155.67 12.67
5563 6.6680 165.27 156.39 12.86
5564 6.6690 158.86 157.13 12.60
5565 6.6700 161.07 157.91 12.69
5566 6.6710 185.73 158.72 13.63
5567 6.6720 182.08 159.57 13.49
5568 6.6730 175.71 160.46 13.26
5569 6.6740 182.14 161.38 13.50
5570 6.6750 159.22 162.34 12.62
5571 6.6760 172.72 163.35 13.14
5572 6.6770 194.36 164.40 13.94
5573 6.6780 174.85 165.49 13.22
5574 6.6790 177.93 166.64 13.34
5575 6.6800 177.64 167.83 13.33
5576 6.6810 163.73 169.07 12.80
5577 6.6820 183.38 170.38 13.54
5578 6.6830 171.64 171.73 13.10
5579 6.6840 179.87 173.15 13.41
5580 6.6850 171.88 174.64 13.11
5581 6.6860 171.57 176.19 13.10
5582 6.6870 172.44 177.82 13.13
5583 6.6880 169.10 179.52 13.00
5584 6.6890 189.50 181.30 13.77
5585 6.6900 197.13 183.17 14.04
5586 6.6910 180.85 185.13 13.45
5587 6.6920 197.25 187.19 14.04
5588 6.6930 209.13 189.36 14.46
5589 6.6940 211.79 191.63 14.55
5590 6.6950 218.88 194.03 14.79
5591 6.6960 226.68 196.55 15.06
5592 6.6970 218.47 199.21 14.78
5593 6.6980 247.05 202.02 15.72
5594 6.6990 234.25 204.98 15.31
5595 6.7000 233.24 208.11 15.27
5596 6.7010 243.16 211.42 15.59
5597 6.7020 228.85 214.92 15.13
5598 6.7030 250.50 218.32 15.83
5599 6.7040 260.81 222.24 16.15
5600 6.7050 270.67 226.40 16.45
5601 6.7060 254.54 230.80 15.95
5602 6.7070 269.39 235.48 16.41
5603 6.7080 282.98 240.43 16.82
5604 6.7090 306.79 245.69 17.52
5605 6.7100 289.35 251.26 17.01
5606 6.7110 309.26 257.18 17.59
5607 6.7120 327.10 263.46 18.09
5608 6.7130 298.41 270.13 17.27
5609 6.7140 322.62 277.20 17.96
5610 6.7150 325.09 284.71 18.03
5611 6.7160 319.66 292.66 17.88
5612 6.7170 359.11 301.10 18.95
5613 6.7180 373.17 310.04 19.32
5614 6.7190 366.79 319.52 19.15
5615 6.7200 406.63 329.55 20.17
5616 6.7210 404.61 340.15 20.11
5617 6.7220 429.71 351.37 20.73
5618 6.7230 400.34 363.21 20.01
5619 6.7240 394.33 375.69 19.86
5620 6.7250 420.34 388.83 20.50
5621 6.7260 443.54 402.66 21.06
5622 6.7270 486.65 417.17 22.06
5623 6.7280 530.33 432.36 23.03
5624 6.7290 514.88 448.22 22.69
5625 6.7300 510.31 464.76 22.59
5626 6.7310 569.14 481.92 23.86
5627 6.7320 550.51 499.70 23.46
5628 6.7330 557.97 518.00 23.62
5629 6.7340 605.48 536.76 24.61
5630 6.7350 608.81 555.88 24.67
5631 6.7360 652.39 575.24 25.54
5632 6.7370 696.39 594.68 26.39
5633 6.7380 716.16 614.04 26.76
5634 6.7390 685.64 633.10 26.18
5635 6.7400 661.96 651.62 25.73
5636 6.7410 699.17 669.35 26.44
5637 6.7420 755.54 686.01 27.49
5638 6.7430 783.10 701.31 27.98
5639 6.7440 755.73 714.95 27.49
5640 6.7450 705.90 726.65 26.57
5641 6.7460 748.91 736.17 27.37
5642 6.7470 793.78 743.26 28.17
5643 6.7480 752.78 747.77 27.44
5644 6.7490 742.41 749.57 27.25
5645 6.7500 783.41 748.64 27.99
5646 6.7510 764.45 744.98 27.65
5647 6.7520 729.85 738.72 27.02
5648 6.7530 680.79 729.99 26.09
5649 6.7540 723.82 719.02 26.90
5650 6.7550 727.47 706.05 26.97
5651 6.7560 704.31 691.36 26.54
5652 6.7570 693.41 675.26 26.33
5653 6.7580 687.39 658.02 26.22
5654 6.7590 668.32 639.93 25.85
5655 6.7600 616.25 621.26 24.82
5656 6.7610 603.89 602.24 24.57
5657 6.7620 612.87 583.09 24.76
5658 6.7630 583.70 563.99 24.16
5659 6.7640 571.48 545.11 23.91
5660 6.7650 489.14 526.56 22.12
5661 6.7660 515.88 508.46 22.71
5662 6.7670 522.79 490.89 22.86
5663 6.7680 506.69 473.89 22.51
5664 6.7690 432.67 457.55 20.80
5665 6.7700 445.95 441.86 21.12
5666 6.7710 440.62 426.85 20.99
5667 6.7720 461.44 412.53 21.48
5668 6.7730 436.17 398.92 20.88
5669 6.7740 438.81 385.98 20.95
5670 6.7750 432.43 373.73 20.80
5671 6.7760 420.57 362.13 20.51
5672 6.7770 390.34 351.18 19.76
5673 6.7780 386.60 340.86 19.66
5674 6.7790 379.76 331.12 19.49
5675 6.7800 370.43 321.98 19.25
5676 6.7810 350.32 313.38 18.72
5677 6.7820 349.12 305.32 18.68
5678 6.7830 352.00 297.76 18.76
5679 6.7840 366.47 290.68 19.14
5680 6.7850 341.76 284.06 18.49
5681 6.7860 325.55 277.87 18.04
5682 6.7870 337.94 272.10 18.38
5683 6.7880 349.92 266.71 18.71
5684 6.7890 334.69 261.69 18.29
5685 6.7900 342.08 257.02 18.50
5686 6.7910 302.87 252.68 17.40
5687 6.7920 320.91 248.64 17.91
5688 6.7930 326.93 244.90 18.08
5689 6.7940 320.93 241.44 17.91
5690 6.7950 325.83 238.23 18.05
5691 6.7960 323.49 235.28 17.99
5692 6.7970 319.31 232.55 17.87
5693 6.7980 296.60 230.04 17.22
5694 6.7990 307.21 227.74 17.53
5695 6.8000 295.22 225.65 17.18
5696 6.8010 308.54 223.74 17.57
5697 6.8020 284.64 222.01 16.87
5698 6.8030 279.02 220.45 16.70
5699 6.8040 295.18 219.06 17.18
5700 6.8050 271.57 217.82 16.48
5701 6.8060 292.30 216.74 17.10
5702 6.8070 291.32 215.82 17.07
5703 6.8080 266.56 215.03 16.33
5704 6.8090 291.35 214.39 17.07
5705 6.8100 271.43 213.90 16.48
5706 6.8110 294.62 213.54 17.16
5707 6.8120 308.16 213.32 17.55
5708 6.8130 294.28 213.24 17.15
5709 6.8140 273.02 213.30 16.52
5710 6.8150 298.87 213.51 17.29
5711 6.8160 285.62 213.85 16.90
5712 6.8170 278.99 214.35 16.70
5713 6.8180 262.82 214.99 16.21
5714 6.8190 278.93 215.79 16.70
5715 6.8200 257.88 216.74 16.06
5716 6.8210 262.35 217.86 16.20
5717 6.8220 285.05 219.16 16.88
5718 6.8230 279.58 220.63 16.72
5719 6.8240 282.20 222.29 16.80
5720 6.8250 275.41 224.14 16.60
5721 6.8260 278.98 226.20 16.70
5722 6.8270 287.99 228.47 16.97
5723 6.8280 281.23 230.97 16.77
5724 6.8290 285.63 233.70 16.90
5725 6.8300 285.72 236.68 16.90
5726 6.8310 290.51 239.93 17.04
5727 6.8320 263.75 243.44 16.24
5728 6.8330 295.19 247.25 17.18
5729 6.8340 284.72 251.36 16.87
5730 6.8350 307.67 255.79 17.54
5731 6.8360 299.26 260.56 17.30
5732 6.8370 277.90 265.67 16.67
5733 6.8380 308.10 271.15 17.55
5734 6.8390 309.17 277.01 17.58
5735 6.8400 292.91 283.26 17.11
5736 6.8410 328.07 289.93 18.11
5737 6.8420 326.31 296.99 18.06
5738 6.8430 308.72 304.53 17.57
5739 6.8440 294.41 312.51 17.16
5740 6.8450 315.59 320.96 17.76
5741 6.8460 333.95 329.88 18.27
5742 6.8470 321.24 339.27 17.92
5743 6.8480 345.19 349.15 18.58
5744 6.8490 363.90 359.51 19.08
5745 6.8500 334.06 370.33 18.28
5746 6.8510 321.57 381.62 17.93
5747 6.8520 341.66 393.33 18.48
5748 6.8530 356.83 405.46 18.89
5749 6.8540 368.16 417.94 19.19
5750 6.8550 354.99 430.73 18.84
5751 6.8560 397.82 443.76 19.95
5752 6.8570 405.98 456.95 20.15
5753 6.8580 391.86 470.18 19.80
5754 6.8590 384.84 483.35 19.62
5755 6.8600 376.23 496.30 19.40
5756 6.8610 393.43 508.90 19.84
5757 6.8620 402.80 520.95 20.07
5758 6.8630 410.40 532.29 20.26
5759 6.8640 417.84 542.72 20.44
5760 6.8650 443.12 552.03 21.05
5761 6.8660 452.16 560.05 21.26
5762 6.8670 465.69 566.54 21.58
5763 6.8680 467.82 571.47 21.63
5764 6.8690 472.88 574.65 21.75
5765 6.8700 488.14 576.01 22.09
5766 6.8710 468.78 575.51 21.65
5767 6.8720 485.80 573.07 22.04
5768 6.8730 503.19 568.90 22.43
5769 6.8740 528.54 563.02 22.99
5770 6.8750 512.33 555.55 22.63
5771 6.8760 482.73 546.66 21.97
5772 6.8770 485.76 536.51 22.04
5773 6.8780 511.18 525.31 22.61
5774 6.8790 448.24 513.24 21.17
5775 6.8800 417.74 500.50 20.44
5776 6.8810 433.12 487.27 20.81
5777 6.8820 450.36 473.71 21.22
5778 6.8830 426.41 459.99 20.65
5779 6.8840 412.22 446.21 20.30
5780 6.8850 400.18 432.52 20.00
5781 6.8860 395.33 419.01 19.88
5782 6.8870 393.53 405.74 19.84
5783 6.8880 387.61 392.79 19.69
5784 6.8890 371.14 380.21 19.26
5785 6.8900 372.28 368.04 19.29
5786 6.8910 381.65 356.30 19.54
5787 6.8920 371.45 345.01 19.27
5788 6.8930 347.94 334.19 18.65
5789 6.8940 300.75 323.84 17.34
5790 6.8950 312.90 313.96 17.69
5791 6.8960 283.82 304.54 16.85
5792 6.8970 294.05 295.58 17.15
5793 6.8980 282.74 287.06 16.81
5794 6.8990 267.44 278.98 16.35
5795 6.9000 253.26 271.32 15.91
5796 6.9010 271.60 264.07 16.48
5797 6.9020 279.99 257.20 16.73
5798 6.9030 239.49 250.71 15.48
5799 6.9040 235.23 244.57 15.34
5800 6.9050 213.78 238.76 14.62
5801 6.9060 210.90 233.28 14.52
5802 6.9070 220.78 228.10 14.86
5803 6.9080 224.20 223.27 14.97
5804 6.9090 230.71 218.65 15.19
5805 6.9100 224.38 214.28 14.98
5806 6.9110 212.07 210.16 14.56
5807 6.9120 191.14 206.27 13.83
5808 6.9130 215.60 202.60 14.68
5809 6.9140 207.54 199.12 14.41
5810 6.9150 200.42 195.83 14.16
5811 6.9160 188.77 192.72 13.74
5812 6.9170 186.96 189.78 13.67
5813 6.9180 195.92 186.99 14.00
5814 6.9190 203.05 184.35 14.25
5815 6.9200 194.74 181.85 13.95
5816 6.9210 173.45 179.48 13.17
5817 6.9220 169.25 177.23 13.01
5818 6.9230 165.98 175.09 12.88
5819 6.9240 150.35 173.05 12.26
5820 6.9250 156.54 171.12 12.51
5821 6.9260 171.22 169.27 13.09
5822 6.9270 169.98 167.52 13.04
5823 6.9280 144.74 165.84 12.03
5824 6.9290 143.76 164.24 11.99
5825 6.9300 152.49 162.71 12.35
5826 6.9310 162.10 161.26 12.73
5827 6.9320 160.38 159.86 12.66
5828 6.9330 187.20 158.52 13.68
5829 6.9340 167.83 157.24 12.95
5830 6.9350 167.68 156.01 12.95
5831 6.9360 178.20 154.83 13.35
5832 6.9370 133.36 153.69 11.55
5833 6.9380 148.82 152.60 12.20
5834 6.9390 139.39 151.55 11.81
5835 6.9400 150.52 150.54 12.27
5836 6.9410 145.28 149.57 12.05
5837 6.9420 140.50 148.63 11.85
5838 6.9430 132.91 147.73 11.53
5839 6.9440 145.28 146.86 12.05
5840 6.9450 141.05 147.75 11.88
5841 6.9460 142.29 146.95 11.93
5842 6.9470 142.03 146.17 11.92
5843 6.9480 142.26 145.42 11.93
5844 6.9490 141.63 144.70 11.90
5845 6.9500 152.61 144.00 12.35
5846 6.9510 146.46 143.32 12.10
5847 6.9520 129.83 142.66 11.39
5848 6.9530 149.84 142.03 12.24
5849 6.9540 141.69 141.41 11.90
5850 6.9550 149.19 140.82 12.21
5851 6.9560 133.01 140.24 11.53
5852 6.9570 123.06 139.65 11.09
5853 6.9580 119.67 139.11 10.94
5854 6.9590 123.46 138.58 11.11
5855 6.9600 131.81 138.07 11.48
5856 6.9610 127.11 137.57 11.27
5857 6.9620 140.92 137.09 11.87
5858 6.9630 126.63 136.61 11.25
5859 6.9640 117.34 136.16 10.83
5860 6.9650 137.01 135.90 11.71
5861 6.9660 118.68 135.47 10.89
5862 6.9670 139.34 135.05 11.80
5863 6.9680 142.88 134.65 11.95
5864 6.9690 122.35 134.25 11.06
5865 6.9700 120.77 133.86 10.99
5866 6.9710 129.75 133.49 11.39
5867 6.9720 121.79 133.12 11.04
5868 6.9730 126.24 132.76 11.24
5869 6.9740 120.48 132.41 10.98
5870 6.9750 114.45 132.07 10.70
5871 6.9760 111.21 131.74 10.55
5872 6.9770 109.60 131.42 10.47
5873 6.9780 123.65 131.11 11.12
5874 6.9790 119.24 131.81 10.92
5875 6.9800 137.15 131.52 11.71
5876 6.9810 136.48 131.23 11.68
5877 6.9820 110.90 130.95 10.53
5878 6.9830 116.30 130.68 10.78
5879 6.9840 116.45 130.41 10.79
5880 6.9850 121.26 130.15 11.01
5881 6.9860 105.49 129.90 10.27
5882 6.9870 121.80 129.65 11.04
5883 6.9880 119.31 129.41 10.92
5884 6.9890 143.95 129.17 12.00
5885 6.9900 135.63 128.94 11.65
5886 6.9910 119.56 128.71 10.93
5887 6.9920 119.99 128.49 10.95
5888 6.9930 126.52 128.28 11.25
5889 6.9940 121.34 128.07 11.02
5890 6.9950 115.81 127.88 10.76
5891 6.9960 122.49 127.67 11.07
5892 6.9970 114.61 127.48 10.71
5893 6.9980 114.02 127.29 10.68
5894 6.9990 111.57 127.10 10.56
5895 7.0000 114.03 126.91 10.68
5896 7.0010 112.46 126.73 10.60
5897 7.0020 96.76 126.68 9.84
5898 7.0030 117.19 126.50 10.83
5899 7.0040 121.29 126.34 11.01
5900 7.0050 123.20 126.17 11.10
5901 7.0060 108.67 126.01 10.42
5902 7.0070 126.89 125.86 11.26
5903 7.0080 118.88 125.70 10.90
5904 7.0090 116.90 125.55 10.81
5905 7.0100 137.26 125.40 11.72
5906 7.0110 133.07 125.26 11.54
5907 7.0120 118.08 125.12 10.87
5908 7.0130 114.33 124.98 10.69
5909 7.0140 115.78 124.85 10.76
5910 7.0150 112.00 124.71 10.58
5911 7.0160 134.56 124.58 11.60
5912 7.0170 114.44 124.46 10.70
5913 7.0180 124.74 124.33 11.17
5914 7.0190 123.70 124.21 11.12
5915 7.0200 124.57 124.09 11.16
5916 7.0210 106.45 123.98 10.32
5917 7.0220 121.16 123.86 11.01
5918 7.0230 116.29 123.75 10.78
5919 7.0240 123.72 123.64 11.12
5920 7.0250 108.82 123.54 10.43
5921 7.0260 106.86 123.43 10.34
5922 7.0270 123.53 123.33 11.11
5923 7.0280 125.27 123.23 11.19
5924 7.0290 119.59 123.13 10.94
5925 7.0300 111.15 124.74 10.54
5926 7.0310 99.97 124.65 10.00
5927 7.0320 108.28 124.57 10.41
5928 7.0330 118.64 124.49 10.89
5929 7.0340 116.72 124.41 10.80
5930 7.0350 112.83 124.33 10.62
5931 7.0360 113.93 124.26 10.67
5932 7.0370 142.64 124.19 11.94
5933 7.0380 125.10 124.12 11.18
5934 7.0390 131.15 124.05 11.45
5935 7.0400 116.07 123.98 10.77
5936 7.0410 123.06 123.92 11.09
5937 7.0420 116.76 123.86 10.81
5938 7.0430 98.67 123.81 9.93
5939 7.0440 109.49 123.75 10.46
5940 7.0450 119.45 123.69 10.93
5941 7.0460 122.17 123.63 11.05
5942 7.0470 116.64 123.57 10.80
5943 7.0480 121.89 123.52 11.04
5944 7.0490 122.97 123.47 11.09
5945 7.0500 122.72 123.42 11.08
5946 7.0510 104.62 123.38 10.23
5947 7.0520 109.88 123.33 10.48
5948 7.0530 105.98 123.29 10.29
5949 7.0540 111.86 123.24 10.58
5950 7.0550 108.36 123.20 10.41
5951 7.0560 126.40 123.16 11.24
5952 7.0570 105.38 123.12 10.27
5953 7.0580 111.64 123.09 10.57
5954 7.0590 96.79 123.05 9.84
5955 7.0600 120.08 123.02 10.96
5956 7.0610 114.17 122.99 10.69
5957 7.0620 93.36 122.96 9.66
5958 7.0630 106.56 122.93 10.32
5959 7.0640 116.97 122.90 10.82
5960 7.0650 111.17 122.88 10.54
5961 7.0660 115.00 122.85 10.72
5962 7.0670 106.30 122.83 10.31
5963 7.0680 125.27 122.81 11.19
5964 7.0690 121.63 122.79 11.03
5965 7.0700 116.36 122.77 10.79
5966 7.0710 114.87 122.75 10.72
5967 7.0720 115.77 122.74 10.76
5968 7.0730 102.84 122.72 10.14
5969 7.0740 98.68 122.71 9.93
5970 7.0750 88.92 122.70 9.43
5971 7.0760 122.27 122.69 11.06
5972 7.0770 133.42 122.68 11.55
5973 7.0780 112.89 122.67 10.62
5974 7.0790 126.61 122.67 11.25
5975 7.0800 113.91 122.66 10.67
5976 7.0810 125.78 122.66 11.22
5977 7.0820 108.29 122.66 10.41
5978 7.0830 104.87 120.54 10.24
5979 7.0840 125.49 120.56 11.20
5980 7.0850 127.05 120.57 11.27
5981 7.0860 118.40 120.59 10.88
5982 7.0870 116.82 120.61 10.81
5983 7.0880 120.51 120.62 10.98
5984 7.0890 116.85 120.65 10.81
5985 7.0900 125.71 120.67 11.21
5986 7.0910 121.35 120.69 11.02
5987 7.0920 124.43 120.72 11.15
5988 7.0930 120.69 120.74 10.99
5989 7.0940 122.21 120.77 11.05
5990 7.0950 125.59 120.80 11.21
5991 7.0960 117.82 120.83 10.85
5992 7.0970 115.97 120.86 10.77
5993 7.0980 108.26 120.89 10.40
5994 7.0990 130.35 120.93 11.42
5995 7.1000 128.23 120.96 11.32
5996 7.1010 124.53 121.00 11.16
5997 7.1020 117.70 121.04 10.85
5998 7.1030 122.62 121.08 11.07
5999 7.1040 134.03 121.12 11.58
6000 7.1050 127.15 121.16 11.28
6001 7.1060 117.58 121.21 10.84
6002 7.1070 121.77 121.25 11.03
6003 7.1080 117.60 121.30 10.84
6004 7.1090 121.98 121.35 11.04
6005 7.1100 120.04 121.40 10.96
6006 7.1110 121.52 121.45 11.02
6007 7.1120 114.55 121.51 10.70
6008 7.1130 123.83 121.56 11.13
6009 7.1140 114.08 121.62 10.68
6010 7.1150 126.23 121.68 11.24
6011 7.1160 127.20 121.74 11.28
6012 7.1170 142.25 121.80 11.93
6013 7.1180 152.90 121.86 12.37
6014 7.1190 141.36 121.93 11.89
6015 7.1200 132.88 122.00 11.53
6016 7.1210 134.47 122.06 11.60
6017 7.1220 133.30 122.14 11.55
6018 7.1230 144.08 122.21 12.00
6019 7.1240 122.84 122.28 11.08
6020 7.1250 119.63 122.36 10.94
6021 7.1260 132.52 122.53 11.51
6022 7.1270 134.10 122.61 11.58
6023 7.1280 115.76 122.69 10.76
6024 7.1290 115.24 122.78 10.73
6025 7.1300 131.14 122.87 11.45
6026 7.1310 135.63 122.95 11.65
6027 7.1320 125.70 123.04 11.21
6028 7.1330 111.37 123.14 10.55
6029 7.1340 122.61 123.23 11.07
6030 7.1350 120.46 123.33 10.98
6031 7.1360 109.89 123.43 10.48
6032 7.1370 122.10 123.53 11.05
6033 7.1380 126.58 123.63 11.25
6034 7.1390 134.34 123.85 11.59
6035 7.1400 126.94 123.96 11.27
6036 7.1410 133.89 124.07 11.57
6037 7.1420 124.90 124.19 11.18
6038 7.1430 129.58 124.30 11.38
6039 7.1440 123.28 124.42 11.10
6040 7.1450 115.44 124.54 10.74
6041 7.1460 114.59 124.67 10.70
6042 7.1470 118.64 124.80 10.89
6043 7.1480 106.41 124.93 10.32
6044 7.1490 123.85 125.06 11.13
6045 7.1500 123.08 125.19 11.09
6046 7.1510 136.05 125.33 11.66
6047 7.1520 118.89 125.47 10.90
6048 7.1530 120.94 125.62 11.00
6049 7.1540 100.61 125.76 10.03
6050 7.1550 111.53 125.92 10.56
6051 7.1560 130.93 126.07 11.44
6052 7.1570 144.80 126.23 12.03
6053 7.1580 136.99 126.39 11.70
6054 7.1590 138.02 126.55 11.75
6055 7.1600 114.62 126.72 10.71
6056 7.1610 107.29 126.89 10.36
6057 7.1620 130.85 127.06 11.44
6058 7.1630 134.04 127.25 11.58
6059 7.1640 121.90 127.43 11.04
6060 7.1650 121.75 127.61 11.03
6061 7.1660 133.51 127.80 11.55
6062 7.1670 121.76 128.00 11.03
6063 7.1680 117.73 128.20 10.85
6064 7.1690 114.12 128.40 10.68
6065 7.1700 118.08 128.60 10.87
6066 7.1710 134.49 128.82 11.60
6067 7.1720 136.16 129.03 11.67
6068 7.1730 140.46 129.25 11.85
6069 7.1740 131.12 129.48 11.45
6070 7.1750 136.53 129.71 11.68
6071 7.1760 145.06 129.94 12.04
6072 7.1770 130.15 130.18 11.41
6073 7.1780 135.35 130.43 11.63
6074 7.1790 135.15 130.68 11.63
6075 7.1800 101.47 130.93 10.07
6076 7.1810 125.68 131.20 11.21
6077 7.1820 127.51 131.46 11.29
6078 7.1830 128.48 131.74 11.33
6079 7.1840 114.22 132.02 10.69
6080 7.1850 125.69 132.30 11.21
6081 7.1860 124.38 132.60 11.15
6082 7.1870 131.08 132.90 11.45
6083 7.1880 140.96 133.20 11.87
6084 7.1890 132.41 133.52 11.51
6085 7.1900 132.53 133.84 11.51
6086 7.1910 131.74 134.16 11.48
6087 7.1920 137.62 134.50 11.73
6088 7.1930 132.39 134.84 11.51
6089 7.1940 138.29 135.19 11.76
6090 7.1950 146.57 135.55 12.11
6091 7.1960 138.91 135.92 11.79
6092 7.1970 130.07 136.30 11.40
6093 7.1980 126.37 136.68 11.24
6094 7.1990 148.74 137.08 12.20
6095 7.2000 132.76 137.48 11.52
6096 7.2010 132.22 137.90 11.50
6097 7.2020 134.01 138.32 11.58
6098 7.2030 135.05 138.76 11.62
6099 7.2040 134.43 139.20 11.59
6100 7.2050 132.02 139.66 11.49
6101 7.2060 143.15 140.13 11.96
6102 7.2070 142.26 140.61 11.93
6103 7.2080 119.14 141.10 10.92
6104 7.2090 120.31 141.61 10.97
6105 7.2100 144.39 142.13 12.02
6106 7.2110 139.58 142.66 11.81
6107 7.2120 155.63 143.21 12.48
6108 7.2130 146.22 142.26 12.09
6109 7.2140 141.28 142.85 11.89
6110 7.2150 136.78 143.45 11.70
6111 7.2160 126.52 144.06 11.25
6112 7.2170 128.51 144.70 11.34
6113 7.2180 142.47 145.35 11.94
6114 7.2190 142.37 146.02 11.93
6115 7.2200 130.63 146.71 11.43
6116 7.2210 135.63 147.41 11.65
6117 7.2220 145.25 148.14 12.05
6118 7.2230 129.14 148.89 11.36
6119 7.2240 162.19 149.66 12.74
6120 7.2250 162.14 150.46 12.73
6121 7.2260 140.32 151.35 11.85
6122 7.2270 150.52 152.20 12.27
6123 7.2280 164.40 153.07 12.82
6124 7.2290 163.50 153.96 12.79
6125 7.2300 154.02 154.88 12.41
6126 7.2310 155.60 155.84 12.47
6127 7.2320 154.94 156.82 12.45
6128 7.2330 158.47 157.84 12.59
6129 7.2340 152.05 158.89 12.33
6130 7.2350 138.73 159.98 11.78
6131 7.2360 157.74 161.10 12.56
6132 7.2370 157.50 162.26 12.55
6133 7.2380 181.32 163.46 13.47
6134 7.2390 162.08 164.70 12.73
6135 7.2400 175.25 165.99 13.24
6136 7.2410 180.61 167.32 13.44
6137 7.2420 178.49 168.70 13.36
6138 7.2430 184.14 170.13 13.57
6139 7.2440 187.21 171.61 13.68
6140 7.2450 182.89 173.15 13.52
6141 7.2460 179.27 174.75 13.39
6142 7.2470 171.30 176.40 13.09
6143 7.2480 176.57 178.12 13.29
6144 7.2490 193.32 179.91 13.90
6145 7.2500 205.39 181.82 14.33
6146 7.2510 216.99 183.75 14.73
6147 7.2520 199.94 185.76 14.14
6148 7.2530 202.02 187.85 14.21
6149 7.2540 221.75 190.02 14.89
6150 7.2550 210.86 192.28 14.52
6151 7.2560 214.26 194.63 14.64
6152 7.2570 201.28 197.08 14.19
6153 7.2580 205.93 199.64 14.35
6154 7.2590 208.76 202.30 14.45
6155 7.2600 230.17 205.08 15.17
6156 7.2610 239.01 207.97 15.46
6157 7.2620 228.27 210.98 15.11
6158 7.2630 240.39 214.12 15.50
6159 7.2640 250.52 217.40 15.83
6160 7.2650 227.07 220.82 15.07
6161 7.2660 264.69 224.38 16.27
6162 7.2670 247.48 228.09 15.73
6163 7.2680 250.80 231.96 15.84
6164 7.2690 286.39 235.99 16.92
6165 7.2700 277.33 240.18 16.65
6166 7.2710 291.56 244.56 17.08
6167 7.2720 305.81 249.32 17.49
6168 7.2730 310.06 254.07 17.61
6169 7.2740 299.51 259.01 17.31
6170 7.2750 309.84 264.16 17.60
6171 7.2760 321.72 269.53 17.94
6172 7.2770 302.67 275.13 17.40
6173 7.2780 349.05 280.96 18.68
6174 7.2790 345.57 287.06 18.59
6175 7.2800 302.02 293.42 17.38
6176 7.2810 332.47 300.08 18.23
6177 7.2820 333.04 307.03 18.25
6178 7.2830 352.06 314.32 18.76
6179 7.2840 364.89 321.96 19.10
6180 7.2850 365.96 329.96 19.13
6181 7.2860 402.84 338.36 20.07
6182 7.2870 390.96 347.17 19.77
6183 7.2880 403.78 356.41 20.09
6184 7.2890 422.44 366.11 20.55
6185 7.2900 426.60 376.29 20.65
6186 7.2910 440.64 386.96 20.99
6187 7.2920 464.32 398.14 21.55
6188 7.2930 458.85 409.85 21.42
6189 7.2940 487.53 422.11 22.08
6190 7.2950 456.76 434.90 21.37
6191 7.2960 482.08 448.24 21.96
6192 7.2970 501.98 462.13 22.40
6193 7.2980 533.76 476.58 23.10
6194 7.2990 549.70 492.11 23.45
6195 7.3000 567.25 507.60 23.82
6196 7.3010 555.55 523.58 23.57
6197 7.3020 581.95 540.02 24.12
6198 7.3030 592.33 556.99 24.34
6199 7.3040 658.14 574.18 25.65
6200 7.3050 642.07 591.65 25.34
6201 7.3060 606.71 609.30 24.63
6202 7.3070 639.88 627.04 25.30
6203 7.3080 635.14 644.75 25.20
6204 7.3090 611.52 662.33 24.73
6205 7.3100 670.67 679.60 25.90
6206 7.3110 680.66 696.43 26.09
6207 7.3120 640.84 712.67 25.31
6208 7.3130 634.66 728.13 25.19
6209 7.3140 628.97 742.66 25.08
6210 7.3150 623.29 756.11 24.97
6211 7.3160 653.11 768.32 25.56
6212 7.3170 678.01 779.19 26.04
6213 7.3180 656.48 788.59 25.62
6214 7.3190 704.07 796.48 26.53
6215 7.3200 663.77 802.80 25.76
6216 7.3210 656.23 807.56 25.62
6217 7.3220 693.24 810.79 26.33
6218 7.3230 688.48 812.56 26.24
6219 7.3240 668.43 812.98 25.85
6220 7.3250 660.78 812.16 25.71
6221 7.3260 687.61 810.26 26.22
6222 7.3270 703.72 807.42 26.53
6223 7.3280 692.89 803.83 26.32
6224 7.3290 726.16 799.63 26.95
6225 7.3300 725.95 794.99 26.94
6226 7.3310 713.72 790.06 26.72
6227 7.3320 726.24 784.98 26.95
6228 7.3330 685.18 779.87 26.18
6229 7.3340 687.63 774.83 26.22
6230 7.3350 716.31 769.94 26.76
6231 7.3360 756.10 765.28 27.50
6232 7.3370 715.15 760.90 26.74
6233 7.3380 720.46 756.82 26.84
6234 7.3390 745.38 753.07 27.30
6235 7.3400 772.25 749.65 27.79
6236 7.3410 738.35 746.54 27.17
6237 7.3420 722.77 743.73 26.88
6238 7.3430 764.83 741.18 27.66
6239 7.3440 771.47 738.84 27.78
6240 7.3450 740.30 736.66 27.21
6241 7.3460 781.74 734.57 27.96
6242 7.3470 766.16 732.51 27.68
6243 7.3480 763.83 730.39 27.64
6244 7.3490 791.30 728.14 28.13
6245 7.3500 838.72 725.68 28.96
6246 7.3510 814.04 722.92 28.53
6247 7.3520 848.28 719.80 29.13
6248 7.3530 821.81 716.24 28.67
6249 7.3540 785.77 712.21 28.03
6250 7.3550 751.61 707.66 27.42
6251 7.3560 765.10 702.57 27.66
6252 7.3570 745.64 696.94 27.31
6253 7.3580 744.91 690.79 27.29
6254 7.3590 732.10 684.17 27.06
6255 7.3600 728.43 677.13 26.99
6256 7.3610 714.88 669.72 26.74
6257 7.3620 688.13 662.04 26.23
6258 7.3630 666.48 654.17 25.82
6259 7.3640 667.55 646.19 25.84
6260 7.3650 640.82 638.22 25.31
6261 7.3660 646.00 630.33 25.42
6262 7.3670 673.38 622.62 25.95
6263 7.3680 640.73 615.15 25.31
6264 7.3690 674.53 608.02 25.97
6265 7.3700 658.22 601.27 25.66
6266 7.3710 638.13 594.97 25.26
6267 7.3720 654.59 589.17 25.58
6268 7.3730 615.53 583.92 24.81
6269 7.3740 615.13 579.23 24.80
6270 7.3750 613.19 575.13 24.76
6271 7.3760 595.70 571.65 24.41
6272 7.3770 594.39 568.81 24.38
6273 7.3780 577.70 566.62 24.04
6274 7.3790 579.79 565.08 24.08
6275 7.3800 595.43 564.22 24.40
6276 7.3810 582.84 564.02 24.14
6277 7.3820 595.33 564.50 24.40
6278 7.3830 636.59 565.67 25.23
6279 7.3840 612.09 567.52 24.74
6280 7.3850 629.00 570.06 25.08
6281 7.3860 635.48 573.29 25.21
6282 7.3870 615.74 577.20 24.81
6283 7.3880 633.43 581.78 25.17
6284 7.3890 647.82 587.02 25.45
6285 7.3900 650.33 592.91 25.50
6286 7.3910 679.60 599.41 26.07
6287 7.3920 666.64 606.50 25.82
6288 7.3930 663.60 614.13 25.76
6289 7.3940 663.92 622.25 25.77
6290 7.3950 634.59 630.80 25.19
6291 7.3960 645.27 639.68 25.40
6292 7.3970 656.75 648.83 25.63
6293 7.3980 688.92 658.12 26.25
6294 7.3990 643.72 667.44 25.37
6295 7.4000 687.03 676.66 26.21
6296 7.4010 691.18 685.63 26.29
6297 7.4020 688.34 694.21 26.24
6298 7.4030 684.06 702.21 26.15
6299 7.4040 728.98 709.48 27.00
6300 7.4050 724.77 715.84 26.92
6301 7.4060 660.85 721.14 25.71
6302 7.4070 704.18 725.23 26.54
6303 7.4080 704.19 727.96 26.54
6304 7.4090 750.67 729.23 27.40
6305 7.4100 691.27 728.95 26.29
6306 7.4110 708.98 727.06 26.63
6307 7.4120 733.46 723.53 27.08
6308 7.4130 737.12 718.40 27.15
6309 7.4140 672.71 711.68 25.94
6310 7.4150 692.13 703.47 26.31
6311 7.4160 650.86 693.86 25.51
6312 7.4170 681.28 682.96 26.10
6313 7.4180 628.08 670.93 25.06
6314 7.4190 583.50 657.91 24.16
6315 7.4200 603.53 644.04 24.57
6316 7.4210 599.00 629.51 24.47
6317 7.4220 578.40 614.45 24.05
6318 7.4230 552.75 598.99 23.51
6319 7.4240 568.59 583.28 23.85
6320 7.4250 562.55 567.45 23.72
6321 7.4260 526.06 551.60 22.94
6322 7.4270 522.25 535.82 22.85
6323 7.4280 511.32 520.18 22.61
6324 7.4290 496.75 504.79 22.29
6325 7.4300 513.53 489.67 22.66
6326 7.4310 489.64 474.91 22.13
6327 7.4320 438.14 460.52 20.93
6328 7.4330 444.14 446.54 21.07
6329 7.4340 467.60 432.99 21.62
6330 7.4350 440.74 419.89 20.99
6331 7.4360 416.83 407.26 20.42
6332 7.4370 420.93 395.10 20.52
6333 7.4380 428.58 383.40 20.70
6334 7.4390 420.74 372.19 20.51
6335 7.4400 414.37 361.44 20.36
6336 7.4410 426.15 351.16 20.64
6337 7.4420 383.64 341.34 19.59
6338 7.4430 374.77 331.96 19.36
6339 7.4440 364.10 323.02 19.08
6340 7.4450 340.26 314.50 18.45
6341 7.4460 338.23 306.40 18.39
6342 7.4470 330.47 298.70 18.18
6343 7.4480 374.42 291.38 19.35
6344 7.4490 336.27 284.44 18.34
6345 7.4500 315.53 277.84 17.76
6346 7.4510 327.45 271.60 18.10
6347 7.4520 351.07 265.68 18.74
6348 7.4530 305.86 260.07 17.49
6349 7.4540 307.71 254.77 17.54
6350 7.4550 317.83 249.76 17.83
6351 7.4560 282.34 245.01 16.80
6352 7.4570 279.09 240.53 16.71
6353 7.4580 253.64 236.29 15.93
6354 7.4590 269.54 232.29 16.42
6355 7.4600 302.31 228.51 17.39
6356 7.4610 289.93 224.95 17.03
6357 7.4620 262.34 221.58 16.20
6358 7.4630 267.61 218.41 16.36
6359 7.4640 262.05 215.42 16.19
6360 7.4650 254.83 212.60 15.96
6361 7.4660 233.62 209.95 15.28
6362 7.4670 238.14 207.46 15.43
6363 7.4680 270.31 205.11 16.44
6364 7.4690 241.54 202.91 15.54
6365 7.4700 240.61 200.84 15.51
6366 7.4710 237.34 198.90 15.41
6367 7.4720 246.63 197.09 15.70
6368 7.4730 239.60 195.39 15.48
6369 7.4740 248.00 193.81 15.75
6370 7.4750 247.84 192.34 15.74
6371 7.4760 242.80 190.98 15.58
6372 7.4770 222.83 189.73 14.93
6373 7.4780 212.45 188.57 14.58
6374 7.4790 204.64 187.51 14.31
6375 7.4800 217.00 186.55 14.73
6376 7.4810 224.38 185.68 14.98
6377 7.4820 241.81 184.90 15.55
6378 7.4830 220.03 184.22 14.83
6379 7.4840 219.82 183.62 14.83
6380 7.4850 212.86 183.11 14.59
6381 7.4860 188.41 182.69 13.73
6382 7.4870 222.46 182.35 14.92
6383 7.4880 211.67 182.10 14.55
6384 7.4890 214.87 181.93 14.66
6385 7.4900 196.49 181.84 14.02
6386 7.4910 203.89 181.84 14.28
6387 7.4920 203.98 181.91 14.28
6388 7.4930 186.85 182.06 13.67
6389 7.4940 174.16 182.29 13.20
6390 7.4950 191.32 182.60 13.83
6391 7.4960 211.08 182.98 14.53
6392 7.4970 214.88 183.43 14.66
6393 7.4980 204.52 183.94 14.30
6394 7.4990 230.85 184.52 15.19
6395 7.5000 215.86 185.16 14.69
6396 7.5010 211.96 185.85 14.56
6397 7.5020 175.08 186.59 13.23
6398 7.5030 196.82 187.37 14.03
6399 7.5040 184.75 188.19 13.59
6400 7.5050 183.11 189.03 13.53
6401 7.5060 164.12 189.88 12.81
6402 7.5070 188.75 190.75 13.74
6403 7.5080 191.33 191.61 13.83
6404 7.5090 194.86 192.45 13.96
6405 7.5100 194.23 193.27 13.94
6406 7.5110 186.28 194.05 13.65
6407 7.5120 192.19 194.79 13.86
6408 7.5130 199.71 195.46 14.13
6409 7.5140 203.29 196.07 14.26
6410 7.5150 183.68 196.60 13.55
6411 7.5160 150.53 197.04 12.27
6412 7.5170 159.43 197.40 12.63
6413 7.5180 172.26 197.65 13.12
6414 7.5190 184.54 197.80 13.58
6415 7.5200 166.60 197.84 12.91
6416 7.5210 185.36 197.76 13.61
6417 7.5220 162.05 197.57 12.73
6418 7.5230 159.61 197.27 12.63
6419 7.5240 169.94 196.84 13.04
6420 7.5250 159.38 196.30 12.62
6421 7.5260 167.16 195.63 12.93
6422 7.5270 156.73 194.85 12.52
6423 7.5280 173.53 193.95 13.17
6424 7.5290 190.52 192.93 13.80
6425 7.5300 170.95 191.81 13.07
6426 7.5310 153.40 190.59 12.39
6427 7.5320 154.14 189.27 12.42
6428 7.5330 151.15 187.86 12.29
6429 7.5340 141.65 186.38 11.90
6430 7.5350 161.71 184.83 12.72
6431 7.5360 176.22 183.23 13.27
6432 7.5370 162.66 181.58 12.75
6433 7.5380 170.76 179.90 13.07
6434 7.5390 163.98 178.20 12.81
6435 7.5400 157.83 176.49 12.56
6436 7.5410 158.73 174.77 12.60
6437 7.5420 150.79 173.07 12.28
6438 7.5430 160.43 171.38 12.67
6439 7.5440 156.87 169.72 12.52
6440 7.5450 158.49 168.08 12.59
6441 7.5460 134.39 166.48 11.59
6442 7.5470 151.81 164.92 12.32
6443 7.5480 152.68 163.40 12.36
6444 7.5490 141.79 161.93 11.91
6445 7.5500 144.00 160.50 12.00
6446 7.5510 160.46 159.12 12.67
6447 7.5520 156.89 157.79 12.53
6448 7.5530 142.30 156.52 11.93
6449 7.5540 144.78 155.29 12.03
6450 7.5550 142.22 154.11 11.93
6451 7.5560 162.21 152.99 12.74
6452 7.5570 165.27 151.91 12.86
6453 7.5580 159.49 150.88 12.63
6454 7.5590 148.44 149.90 12.18
6455 7.5600 160.00 148.97 12.65
6456 7.5610 154.01 148.09 12.41
6457 7.5620 149.31 147.26 12.22
6458 7.5630 136.88 146.47 11.70
6459 7.5640 157.83 145.73 12.56
6460 7.5650 163.87 145.03 12.80
6461 7.5660 135.17 144.38 11.63
6462 7.5670 152.65 143.77 12.36
6463 7.5680 176.67 143.21 13.29
6464 7.5690 145.44 142.69 12.06
6465 7.5700 130.19 142.21 11.41
6466 7.5710 137.58 141.77 11.73
6467 7.5720 145.33 141.38 12.06
6468 7.5730 146.09 141.03 12.09
6469 7.5740 136.76 140.71 11.69
6470 7.5750 150.52 140.44 12.27
6471 7.5760 152.92 140.21 12.37
6472 7.5770 131.80 140.02 11.48
6473 7.5780 124.62 139.87 11.16
6474 7.5790 129.92 139.75 11.40
6475 7.5800 171.69 139.68 13.10
6476 7.5810 151.41 139.64 12.30
6477 7.5820 139.45 139.64 11.81
6478 7.5830 151.47 139.68 12.31
6479 7.5840 138.14 139.76 11.75
6480 7.5850 141.46 139.88 11.89
6481 7.5860 147.93 140.04 12.16
6482 7.5870 146.99 140.24 12.12
6483 7.5880 143.80 140.48 11.99
6484 7.5890 139.24 140.76 11.80
6485 7.5900 137.81 141.07 11.74
6486 7.5910 158.01 141.43 12.57
6487 7.5920 154.05 141.83 12.41
6488 7.5930 149.18 142.27 12.21
6489 7.5940 151.96 142.76 12.33
6490 7.5950 136.29 143.28 11.67
6491 7.5960 157.04 143.85 12.53
6492 7.5970 154.70 144.46 12.44
6493 7.5980 155.88 145.11 12.49
6494 7.5990 155.62 145.81 12.47
6495 7.6000 169.59 146.55 13.02
6496 7.6010 164.11 147.33 12.81
6497 7.6020 160.05 148.15 12.65
6498 7.6030 166.05 149.02 12.89
6499 7.6040 157.68 149.93 12.56
6500 7.6050 150.52 150.87 12.27
6501 7.6060 150.04 151.86 12.25
6502 7.6070 162.72 152.88 12.76
6503 7.6080 181.96 153.93 13.49
6504 7.6090 163.03 155.02 12.77
6505 7.6100 159.04 156.13 12.61
6506 7.6110 180.85 157.27 13.45
6507 7.6120 157.80 158.43 12.56
6508 7.6130 144.94 159.60 12.04
6509 7.6140 163.37 160.78 12.78
6510 7.6150 158.58 161.97 12.59
6511 7.6160 145.54 163.15 12.06
6512 7.6170 163.41 164.33 12.78
6513 7.6180 164.11 165.50 12.81
6514 7.6190 170.15 166.65 13.04
6515 7.6200 158.13 167.79 12.57
6516 7.6210 166.09 168.90 12.89
6517 7.6220 161.65 169.99 12.71
6518 7.6230 160.83 171.05 12.68
6519 7.6240 151.46 172.09 12.31
6520 7.6250 163.86 173.11 12.80
6521 7.6260 179.49 174.10 13.40
6522 7.6270 185.09 175.08 13.60
6523 7.6280 161.51 176.05 12.71
6524 7.6290 176.55 177.02 13.29
6525 7.6300 176.06 177.99 13.27
6526 7.6310 160.52 178.97 12.67
6527 7.6320 189.94 179.97 13.78
6528 7.6330 189.51 181.00 13.77
6529 7.6340 188.56 182.05 13.73
6530 7.6350 188.92 183.15 13.74
6531 7.6360 199.78 184.30 14.13
6532 7.6370 191.53 185.49 13.84
6533 7.6380 186.50 186.74 13.66
6534 7.6390 192.29 188.16 13.87
6535 7.6400 201.93 189.53 14.21
6536 7.6410 206.30 190.97 14.36
6537 7.6420 183.08 192.47 13.53
6538 7.6430 174.24 194.04 13.20
6539 7.6440 203.19 195.68 14.25
6540 7.6450 212.18 197.38 14.57
6541 7.6460 196.48 199.16 14.02
6542 7.6470 208.93 201.01 14.45
6543 7.6480 193.01 202.93 13.89
6544 7.6490 214.57 204.93 14.65
6545 7.6500 216.87 207.00 14.73
6546 7.6510 240.96 209.10 15.52
6547 7.6520 212.45 211.33 14.58
6548 7.6530 224.17 213.65 14.97
6549 7.6540 227.55 216.06 15.08
6550 7.6550 216.31 218.56 14.71
6551 7.6560 212.45 221.15 14.58
6552 7.6570 233.72 223.82 15.29
6553 7.6580 242.69 226.59 15.58
6554 7.6590 251.70 229.45 15.87
6555 7.6600 245.43 232.40 15.67
6556 7.6610 258.10 235.43 16.07
6557 7.6620 264.38 238.54 16.26
6558 7.6630 274.64 241.71 16.57
6559 7.6640 280.20 244.95 16.74
6560 7.6650 260.84 248.23 16.15
6561 7.6660 287.32 251.56 16.95
6562 7.6670 284.90 254.91 16.88
6563 7.6680 307.15 258.29 17.53
6564 7.6690 297.63 261.67 17.25
6565 7.6700 275.70 265.05 16.60
6566 7.6710 274.49 268.43 16.57
6567 7.6720 275.19 271.80 16.59
6568 7.6730 297.51 275.15 17.25
6569 7.6740 335.54 278.50 18.32
6570 7.6750 324.33 281.83 18.01
6571 7.6760 338.59 285.15 18.40
6572 7.6770 326.34 288.48 18.06
6573 7.6780 335.35 291.81 18.31
6574 7.6790 318.82 295.16 17.86
6575 7.6800 313.85 298.53 17.72
6576 7.6810 294.18 301.93 17.15
6577 7.6820 322.95 305.38 17.97
6578 7.6830 315.57 308.86 17.76
6579 7.6840 308.64 312.38 17.57
6580 7.6850 325.84 315.93 18.05
6581 7.6860 331.41 319.52 18.20
6582 7.6870 327.67 323.11 18.10
6583 7.6880 344.43 326.69 18.56
6584 7.6890 330.58 330.25 18.18
6585 7.6900 344.24 333.73 18.55
6586 7.6910 325.53 337.13 18.04
6587 7.6920 314.60 340.38 17.74
6588 7.6930 335.86 343.45 18.33
6589 7.6940 342.61 346.28 18.51
6590 7.6950 317.46 347.11 17.82
6591 7.6960 328.63 349.34 18.13
6592 7.6970 344.82 351.18 18.57
6593 7.6980 313.61 353.12 17.71
6594 7.6990 320.25 354.06 17.90
6595 7.7000 326.81 354.49 18.08
6596 7.7010 337.64 354.37 18.38
6597 7.7020 334.37 353.69 18.29
6598 7.7030 335.37 352.43 18.31
6599 7.7040 318.83 350.59 17.86
6600 7.7050 327.73 348.17 18.10
6601 7.7060 313.67 345.20 17.71
6602 7.7070 306.73 341.69 17.51
6603 7.7080 323.33 337.69 17.98
6604 7.7090 340.44 333.23 18.45
6605 7.7100 332.70 328.37 18.24
6606 7.7110 306.92 323.15 17.52
6607 7.7120 276.50 317.61 16.63
6608 7.7130 317.95 311.82 17.83
6609 7.7140 304.41 305.83 17.45
6610 7.7150 283.43 299.68 16.84
6611 7.7160 237.14 293.42 15.40
6612 7.7170 264.45 287.10 16.26
6613 7.7180 279.86 280.57 16.73
6614 7.7190 246.36 274.23 15.70
6615 7.7200 249.63 267.94 15.80
6616 7.7210 242.20 261.72 15.56
6617 7.7220 230.46 255.59 15.18
6618 7.7230 239.01 249.58 15.46
6619 7.7240 211.64 243.70 14.55
6620 7.7250 203.79 237.97 14.28
6621 7.7260 219.40 232.39 14.81
6622 7.7270 216.51 226.98 14.71
6623 7.7280 176.07 221.74 13.27
6624 7.7290 193.25 216.67 13.90
6625 7.7300 219.14 211.79 14.80
6626 7.7310 210.90 207.08 14.52
6627 7.7320 185.57 202.55 13.62
6628 7.7330 189.47 198.20 13.76
6629 7.7340 187.49 193.02 13.69
6630 7.7350 177.42 189.03 13.32
6631 7.7360 188.57 185.21 13.73
6632 7.7370 178.76 181.55 13.37
6633 7.7380 185.75 178.05 13.63
6634 7.7390 157.49 174.72 12.55
6635 7.7400 153.50 171.53 12.39
6636 7.7410 161.85 168.49 12.72
6637 7.7420 154.29 165.59 12.42
6638 7.7430 157.16 162.83 12.54
6639 7.7440 176.92 160.20 13.30
6640 7.7450 143.35 157.70 11.97
6641 7.7460 148.56 155.32 12.19
6642 7.7470 156.86 153.05 12.52
6643 7.7480 153.80 150.89 12.40
6644 7.7490 147.18 148.84 12.13
6645 7.7500 155.92 146.89 12.49
6646 7.7510 148.52 145.03 12.19
6647 7.7520 141.54 143.27 11.90
6648 7.7530 140.29 141.58 11.84
6649 7.7540 140.00 139.98 11.83
6650 7.7550 134.27 138.46 11.59
6651 7.7560 145.52 137.02 12.06
6652 7.7570 141.12 135.65 11.88
6653 7.7580 140.38 134.34 11.85
6654 7.7590 130.00 133.10 11.40
6655 7.7600 115.17 131.92 10.73
6656 7.7610 109.94 130.67 10.49
6657 7.7620 130.17 129.60 11.41
6658 7.7630 136.33 128.57 11.68
6659 7.7640 133.16 127.60 11.54
6660 7.7650 133.78 126.67 11.57
6661 7.7660 133.89 125.78 11.57
6662 7.7670 126.77 124.93 11.26
6663 7.7680 111.86 124.11 10.58
6664 7.7690 113.56 123.33 10.66
6665 7.7700 134.86 122.59 11.61
6666 7.7710 130.50 121.87 11.42
6667 7.7720 125.30 121.18 11.19
6668 7.7730 106.52 120.52 10.32
6669 7.7740 110.01 119.89 10.49
6670 7.7750 132.28 119.27 11.50
6671 7.7760 131.58 118.68 11.47
6672 7.7770 107.13 118.10 10.35
6673 7.7780 107.97 117.54 10.39
6674 7.7790 116.34 117.01 10.79
6675 7.7800 125.98 116.48 11.22
6676 7.7810 128.43 115.97 11.33
6677 7.7820 118.20 115.47 10.87
6678 7.7830 111.00 114.98 10.54
6679 7.7840 117.05 114.51 10.82
6680 7.7850 114.12 114.04 10.68
6681 7.7860 119.14 113.58 10.92
6682 7.7870 121.74 113.14 11.03
6683 7.7880 130.64 112.70 11.43
6684 7.7890 113.12 112.28 10.64
6685 7.7900 113.73 111.86 10.66
6686 7.7910 112.16 111.45 10.59
6687 7.7920 117.54 111.05 10.84
6688 7.7930 143.82 108.97 11.99
6689 7.7940 129.17 108.59 11.37
6690 7.7950 120.25 108.23 10.97
6691 7.7960 119.21 107.87 10.92
6692 7.7970 122.37 107.52 11.06
6693 7.7980 101.18 107.18 10.06
6694 7.7990 114.27 106.85 10.69
6695 7.8000 109.51 106.52 10.46
6696 7.8010 135.62 106.20 11.65
6697 7.8020 116.40 105.89 10.79
6698 7.8030 102.25 105.59 10.11
6699 7.8040 107.84 105.29 10.38
6700 7.8050 111.42 105.01 10.56
6701 7.8060 110.50 104.72 10.51
6702 7.8070 105.03 104.45 10.25
6703 7.8080 117.02 104.18 10.82
6704 7.8090 119.51 103.91 10.93
6705 7.8100 105.46 103.66 10.27
6706 7.8110 106.50 103.41 10.32
6707 7.8120 122.60 103.17 11.07
6708 7.8130 123.19 102.93 11.10
6709 7.8140 95.67 102.70 9.78
6710 7.8150 111.73 102.48 10.57
6711 7.8160 99.24 102.26 9.96
6712 7.8170 103.31 102.05 10.16
6713 7.8180 94.87 101.84 9.74
6714 7.8190 115.44 101.63 10.74
6715 7.8200 108.05 101.43 10.39
6716 7.8210 109.44 101.24 10.46
6717 7.8220 110.02 101.05 10.49
6718 7.8230 112.12 100.87 10.59
6719 7.8240 106.00 100.69 10.30
6720 7.8250 110.50 100.51 10.51
6721 7.8260 112.10 100.34 10.59
6722 7.8270 92.40 100.17 9.61
6723 7.8280 95.72 100.00 9.78
6724 7.8290 104.92 99.84 10.24
6725 7.8300 115.34 99.69 10.74
6726 7.8310 81.08 99.53 9.00
6727 7.8320 110.37 99.38 10.51
6728 7.8330 114.12 99.23 10.68
6729 7.8340 109.72 99.09 10.47
6730 7.8350 100.55 98.95 10.03
6731 7.8360 87.86 98.81 9.37
6732 7.8370 92.67 98.68 9.63
6733 7.8380 105.18 98.54 10.26
6734 7.8390 112.87 98.41 10.62
6735 7.8400 115.29 98.31 10.74
6736 7.8410 104.49 98.18 10.22
6737 7.8420 98.96 98.06 9.95
6738 7.8430 98.11 97.94 9.91
6739 7.8440 101.49 97.83 10.07
6740 7.8450 115.94 97.71 10.77
6741 7.8460 110.98 97.60 10.53
6742 7.8470 113.25 97.49 10.64
6743 7.8480 96.94 97.38 9.85
6744 7.8490 90.43 97.28 9.51
6745 7.8500 107.10 97.17 10.35
6746 7.8510 111.47 97.07 10.56
6747 7.8520 118.89 96.97 10.90
6748 7.8530 108.34 96.87 10.41
6749 7.8540 123.95 96.78 11.13
6750 7.8550 108.28 96.68 10.41
6751 7.8560 96.28 96.59 9.81
6752 7.8570 84.19 96.50 9.18
6753 7.8580 95.07 96.41 9.75
6754 7.8590 108.00 96.32 10.39
6755 7.8600 111.84 96.24 10.58
6756 7.8610 104.30 96.15 10.21
6757 7.8620 97.56 96.07 9.88
6758 7.8630 101.16 95.99 10.06
6759 7.8640 88.95 95.91 9.43
6760 7.8650 101.57 95.84 10.08
6761 7.8660 105.95 95.76 10.29
6762 7.8670 99.32 95.69 9.97
6763 7.8680 97.68 95.62 9.88
6764 7.8690 102.95 95.55 10.15
6765 7.8700 101.65 95.48 10.08
6766 7.8710 95.63 95.45 9.78
6767 7.8720 103.65 95.39 10.18
6768 7.8730 107.17 95.32 10.35
6769 7.8740 97.49 95.26 9.87
6770 7.8750 114.20 95.20 10.69
6771 7.8760 97.11 95.14 9.85
6772 7.8770 103.64 95.08 10.18
6773 7.8780 111.57 95.03 10.56
6774 7.8790 90.66 94.97 9.52
6775 7.8800 94.99 94.92 9.75
6776 7.8810 101.86 94.87 10.09
6777 7.8820 113.19 94.82 10.64
6778 7.8830 112.31 94.77 10.60
6779 7.8840 121.85 94.72 11.04
6780 7.8850 118.17 94.68 10.87
6781 7.8860 103.93 94.63 10.19
6782 7.8870 95.27 94.59 9.76
6783 7.8880 97.10 94.55 9.85
6784 7.8890 94.60 94.51 9.73
6785 7.8900 86.69 94.47 9.31
6786 7.8910 111.98 94.44 10.58
6787 7.8920 122.34 94.40 11.06
6788 7.8930 106.71 94.37 10.33
6789 7.8940 99.57 94.34 9.98
6790 7.8950 113.68 94.31 10.66
6791 7.8960 113.70 94.28 10.66
6792 7.8970 106.74 94.26 10.33
6793 7.8980 103.93 94.23 10.19
6794 7.8990 113.58 94.21 10.66
6795 7.9000 107.63 94.19 10.37
6796 7.9010 100.65 94.17 10.03
6797 7.9020 97.01 94.15 9.85
6798 7.9030 111.27 94.13 10.55
6799 7.9040 114.37 94.11 10.69
6800 7.9050 98.20 94.00 9.91
6801 7.9060 98.73 93.99 9.94
6802 7.9070 108.31 94.04 10.41
6803 7.9080 114.32 94.03 10.69
6804 7.9090 92.78 94.02 9.63
6805 7.9100 90.07 94.01 9.49
6806 7.9110 98.47 93.99 9.92
6807 7.9120 98.66 93.98 9.93
6808 7.9130 115.35 93.97 10.74
6809 7.9140 109.20 93.96 10.45
6810 7.9150 100.78 93.95 10.04
6811 7.9160 103.33 93.94 10.17
6812 7.9170 98.78 93.92 9.94
6813 7.9180 98.78 93.91 9.94
6814 7.9190 102.74 93.89 10.14
6815 7.9200 104.81 93.76 10.24
6816 7.9210 97.07 93.74 9.85
6817 7.9220 106.67 93.72 10.33
6818 7.9230 112.24 93.70 10.59
6819 7.9240 108.37 93.68 10.41
6820 7.9250 106.36 93.65 10.31
6821 7.9260 103.46 93.62 10.17
6822 7.9270 97.29 93.60 9.86
6823 7.9280 108.39 93.57 10.41
6824 7.9290 100.64 93.54 10.03
6825 7.9300 102.70 93.50 10.13
6826 7.9310 98.15 93.47 9.91
6827 7.9320 108.63 93.44 10.42
6828 7.9330 113.31 93.41 10.64
6829 7.9340 110.48 93.37 10.51
6830 7.9350 114.21 93.34 10.69
6831 7.9360 106.19 93.31 10.30
6832 7.9370 103.12 93.27 10.15
6833 7.9380 103.76 93.24 10.19
6834 7.9390 114.40 93.21 10.70
6835 7.9400 104.60 93.18 10.23
6836 7.9410 104.08 93.19 10.20
6837 7.9420 101.18 93.16 10.06
6838 7.9430 116.51 93.14 10.79
6839 7.9440 105.70 93.11 10.28
6840 7.9450 102.25 93.09 10.11
6841 7.9460 114.64 93.07 10.71
6842 7.9470 115.28 93.05 10.74
6843 7.9480 109.81 93.03 10.48
6844 7.9490 99.04 93.01 9.95
6845 7.9500 96.97 93.00 9.85
6846 7.9510 106.23 92.99 10.31
6847 7.9520 106.47 92.98 10.32
6848 7.9530 114.45 92.97 10.70
6849 7.9540 119.24 92.96 10.92
6850 7.9550 111.91 93.03 10.58
6851 7.9560 88.83 93.03 9.42
6852 7.9570 106.20 93.03 10.31
6853 7.9580 110.08 93.03 10.49
6854 7.9590 97.07 93.04 9.85
6855 7.9600 95.17 93.05 9.76
6856 7.9610 100.62 93.05 10.03
6857 7.9620 104.96 93.06 10.24
6858 7.9630 107.98 93.08 10.39
6859 7.9640 97.17 93.09 9.86
6860 7.9650 97.03 93.11 9.85
6861 7.9660 103.69 93.13 10.18
6862 7.9670 102.49 93.15 10.12
6863 7.9680 107.06 93.17 10.35
6864 7.9690 107.07 93.20 10.35
6865 7.9700 85.86 93.23 9.27
6866 7.9710 91.03 93.26 9.54
6867 7.9720 90.26 93.29 9.50
6868 7.9730 105.61 93.33 10.28
6869 7.9740 120.16 93.37 10.96
6870 7.9750 114.77 93.41 10.71
6871 7.9760 111.17 93.46 10.54
6872 7.9770 109.20 93.50 10.45
6873 7.9780 94.30 93.55 9.71
6874 7.9790 102.39 93.60 10.12
6875 7.9800 113.86 93.66 10.67
6876 7.9810 97.94 93.71 9.90
6877 7.9820 82.22 93.77 9.07
6878 7.9830 99.93 93.84 10.00
6879 7.9840 94.70 93.90 9.73
6880 7.9850 96.28 93.97 9.81
6881 7.9860 110.16 94.04 10.50
6882 7.9870 103.02 94.12 10.15
6883 7.9880 93.83 94.20 9.69
6884 7.9890 117.36 94.28 10.83
6885 7.9900 110.29 94.37 10.50
6886 7.9910 105.81 94.46 10.29
6887 7.9920 112.50 94.55 10.61
6888 7.9930 106.14 94.65 10.30
6889 7.9940 101.59 94.76 10.08
6890 7.9950 105.75 94.87 10.28
6891 7.9960 96.95 94.98 9.85
6892 7.9970 110.88 95.10 10.53
6893 7.9980 107.57 95.22 10.37
6894 7.9990 99.87 95.35 9.99
6895 8.0000 112.18 95.49 10.59
6896 8.0010 118.90 95.63 10.90
6897 8.0020 107.44 95.78 10.37
6898 8.0030 98.76 95.94 9.94
6899 8.0040 98.66 96.10 9.93
6900 8.0050 98.89 96.27 9.94
6901 8.0060 99.46 96.45 9.97
6902 8.0070 108.32 96.63 10.41
6903 8.0080 101.03 96.83 10.05
6904 8.0090 108.16 97.03 10.40
6905 8.0100 104.22 97.25 10.21
6906 8.0110 105.77 97.47 10.28
6907 8.0120 99.12 97.71 9.96
6908 8.0130 112.46 97.96 10.60
6909 8.0140 92.52 98.22 9.62
6910 8.0150 83.14 98.49 9.12
6911 8.0160 104.65 99.49 10.23
6912 8.0170 110.60 99.79 10.52
6913 8.0180 112.62 100.11 10.61
6914 8.0190 124.42 100.44 11.15
6915 8.0200 125.50 100.79 11.20
6916 8.0210 102.59 101.15 10.13
6917 8.0220 115.25 101.46 10.74
6918 8.0230 109.43 101.86 10.46
6919 8.0240 123.71 102.28 11.12
6920 8.0250 111.22 102.72 10.55
6921 8.0260 106.93 103.18 10.34
6922 8.0270 100.08 103.67 10.00
6923 8.0280 117.71 104.19 10.85
6924 8.0290 116.54 104.72 10.80
6925 8.0300 102.99 105.28 10.15
6926 8.0310 120.02 105.86 10.96
6927 8.0320 123.12 106.46 11.10
6928 8.0330 123.57 107.09 11.12
6929 8.0340 115.42 107.75 10.74
6930 8.0350 107.95 108.44 10.39
6931 8.0360 109.03 109.16 10.44
6932 8.0370 117.21 109.90 10.83
6933 8.0380 129.33 110.68 11.37
6934 8.0390 114.69 111.48 10.71
6935 8.0400 120.11 112.32 10.96
6936 8.0410 104.66 113.19 10.23
6937 8.0420 113.80 114.09 10.67
6938 8.0430 107.12 115.02 10.35
6939 8.0440 127.17 115.98 11.28
6940 8.0450 122.61 116.97 11.07
6941 8.0460 118.54 118.00 10.89
6942 8.0470 125.28 119.05 11.19
6943 8.0480 129.31 120.14 11.37
6944 8.0490 143.94 121.19 12.00
6945 8.0500 145.46 122.33 12.06
6946 8.0510 147.75 123.49 12.16
6947 8.0520 135.86 124.67 11.66
6948 8.0530 146.32 125.87 12.10
6949 8.0540 146.93 127.09 12.12
6950 8.0550 139.11 128.32 11.79
6951 8.0560 142.45 129.56 11.94
6952 8.0570 157.46 130.80 12.55
6953 8.0580 154.34 132.04 12.42
6954 8.0590 148.64 133.27 12.19
6955 8.0600 145.34 134.49 12.06
6956 8.0610 128.59 135.69 11.34
6957 8.0620 134.70 136.86 11.61
6958 8.0630 149.32 138.00 12.22
6959 8.0640 134.17 139.10 11.58
6960 8.0650 139.41 140.14 11.81
6961 8.0660 160.55 141.14 12.67
6962 8.0670 167.60 142.08 12.95
6963 8.0680 154.83 142.95 12.44
6964 8.0690 162.65 143.76 12.75
6965 8.0700 180.80 144.50 13.45
6966 8.0710 169.60 145.17 13.02
6967 8.0720 178.45 145.77 13.36
6968 8.0730 155.65 146.31 12.48
6969 8.0740 157.37 146.79 12.54
6970 8.0750 178.07 147.00 13.34
6971 8.0760 167.46 147.37 12.94
6972 8.0770 166.18 147.70 12.89
6973 8.0780 159.31 148.00 12.62
6974 8.0790 148.58 148.27 12.19
6975 8.0800 160.34 148.53 12.66
6976 8.0810 161.72 148.79 12.72
6977 8.0820 165.37 149.05 12.86
6978 8.0830 181.01 149.34 13.45
6979 8.0840 183.57 149.65 13.55
6980 8.0850 172.84 150.00 13.15
6981 8.0860 173.84 150.40 13.18
6982 8.0870 157.52 150.86 12.55
6983 8.0880 161.86 151.38 12.72
6984 8.0890 175.18 151.98 13.24
6985 8.0900 167.16 152.66 12.93
6986 8.0910 148.76 153.43 12.20
6987 8.0920 159.41 154.29 12.63
6988 8.0930 176.50 155.26 13.29
6989 8.0940 172.77 156.33 13.14
6990 8.0950 178.51 157.51 13.36
6991 8.0960 177.65 158.81 13.33
6992 8.0970 177.67 160.23 13.33
6993 8.0980 165.80 161.77 12.88
6994 8.0990 175.72 163.44 13.26
6995 8.1000 171.63 165.24 13.10
6996 8.1010 175.16 167.17 13.23
6997 8.1020 176.62 169.24 13.29
6998 8.1030 169.85 171.43 13.03
6999 8.1040 168.95 173.77 13.00
7000 8.1050 176.67 176.24 13.29
7001 8.1060 186.83 178.29 13.67
7002 8.1070 185.87 181.03 13.63
7003 8.1080 183.18 183.89 13.53
7004 8.1090 197.96 186.89 14.07
7005 8.1100 201.49 190.01 14.19
7006 8.1110 220.73 193.11 14.86
7007 8.1120 220.64 196.45 14.85
7008 8.1130 197.43 199.90 14.05
7009 8.1140 191.73 203.45 13.85
7010 8.1150 206.40 207.06 14.37
7011 8.1160 203.64 210.76 14.27
7012 8.1170 213.44 214.50 14.61
7013 8.1180 246.54 218.28 15.70
7014 8.1190 238.19 222.07 15.43
7015 8.1200 245.01 225.86 15.65
7016 8.1210 219.88 229.62 14.83
7017 8.1220 227.15 233.31 15.07
7018 8.1230 214.35 236.92 14.64
7019 8.1240 225.43 240.41 15.01
7020 8.1250 249.89 243.74 15.81
7021 8.1260 264.38 246.90 16.26
7022 8.1270 264.19 249.83 16.25
7023 8.1280 261.56 252.50 16.17
7024 8.1290 275.76 254.89 16.61
7025 8.1300 263.40 256.97 16.23
7026 8.1310 271.25 258.69 16.47
7027 8.1320 259.52 260.04 16.11
7028 8.1330 277.31 260.99 16.65
7029 8.1340 263.73 261.53 16.24
7030 8.1350 277.03 261.65 16.64
7031 8.1360 267.07 261.35 16.34
7032 8.1370 256.65 260.62 16.02
7033 8.1380 248.19 259.48 15.75
7034 8.1390 263.06 257.94 16.22
7035 8.1400 250.65 256.02 15.83
7036 8.1410 231.21 253.73 15.21
7037 8.1420 246.47 251.11 15.70
7038 8.1430 229.58 248.19 15.15
7039 8.1440 232.25 245.00 15.24
7040 8.1450 233.70 241.57 15.29
7041 8.1460 251.53 237.95 15.86
7042 8.1470 229.65 234.15 15.15
7043 8.1480 217.82 230.22 14.76
7044 8.1490 207.05 226.18 14.39
7045 8.1500 203.59 222.06 14.27
7046 8.1510 202.21 217.90 14.22
7047 8.1520 190.14 213.70 13.79
7048 8.1530 182.22 209.50 13.50
7049 8.1540 159.85 205.31 12.64
7050 8.1550 187.53 201.16 13.69
7051 8.1560 180.69 197.06 13.44
7052 8.1570 167.25 193.01 12.93
7053 8.1580 155.33 189.05 12.46
7054 8.1590 169.58 185.16 13.02
7055 8.1600 166.45 181.36 12.90
7056 8.1610 148.17 177.66 12.17
7057 8.1620 154.84 174.06 12.44
7058 8.1630 148.02 170.56 12.17
7059 8.1640 141.57 167.18 11.90
7060 8.1650 137.28 163.90 11.72
7061 8.1660 137.07 160.74 11.71
7062 8.1670 139.81 157.69 11.82
7063 8.1680 145.71 154.75 12.07
7064 8.1690 143.88 151.93 11.99
7065 8.1700 132.55 149.21 11.51
7066 8.1710 144.40 146.61 12.02
7067 8.1720 143.08 144.11 11.96
7068 8.1730 144.38 141.72 12.02
7069 8.1740 131.05 139.44 11.45
7070 8.1750 133.22 137.41 11.54
7071 8.1760 105.61 135.33 10.28
7072 8.1770 98.55 133.35 9.93
7073 8.1780 109.68 131.45 10.47
7074 8.1790 119.00 129.65 10.91
7075 8.1800 113.35 127.94 10.65
7076 8.1810 113.12 126.32 10.64
7077 8.1820 115.41 124.77 10.74
7078 8.1830 117.12 123.30 10.82
7079 8.1840 111.76 121.92 10.57
7080 8.1850 119.14 120.60 10.92
7081 8.1860 117.21 119.35 10.83
7082 8.1870 129.48 118.18 11.38
7083 8.1880 107.31 117.06 10.36
7084 8.1890 91.97 116.01 9.59
7085 8.1900 113.60 115.01 10.66
7086 8.1910 105.80 114.08 10.29
7087 8.1920 111.26 113.19 10.55
7088 8.1930 110.70 112.35 10.52
7089 8.1940 106.33 111.56 10.31
7090 8.1950 98.61 110.82 9.93
7091 8.1960 105.94 110.12 10.29
7092 8.1970 96.28 109.47 9.81
7093 8.1980 104.32 108.85 10.21
7094 8.1990 112.45 108.26 10.60
7095 8.2000 97.62 107.72 9.88
7096 8.2010 101.48 107.20 10.07
7097 8.2020 95.38 106.71 9.77
7098 8.2030 120.32 106.25 10.97
7099 8.2040 100.37 105.82 10.02
7100 8.2050 100.01 105.41 10.00
7101 8.2060 109.82 105.04 10.48
7102 8.2070 117.69 104.68 10.85
7103 8.2080 113.32 104.33 10.65
7104 8.2090 106.62 104.00 10.33
7105 8.2100 105.40 103.71 10.27
7106 8.2110 110.68 103.40 10.52
7107 8.2120 109.50 103.11 10.46
7108 8.2130 108.92 102.83 10.44
7109 8.2140 108.48 102.56 10.42
7110 8.2150 95.14 102.30 9.75
7111 8.2160 82.41 102.04 9.08
7112 8.2170 116.39 101.79 10.79
7113 8.2180 109.91 101.54 10.48
7114 8.2190 109.47 101.30 10.46
7115 8.2200 99.92 101.06 10.00
7116 8.2210 86.18 100.82 9.28
7117 8.2220 86.30 100.58 9.29
7118 8.2230 91.69 100.34 9.58
7119 8.2240 97.91 100.11 9.89
7120 8.2250 104.00 99.87 10.20
7121 8.2260 95.23 99.64 9.76
7122 8.2270 95.90 99.41 9.79
7123 8.2280 102.16 99.18 10.11
7124 8.2290 88.04 98.95 9.38
7125 8.2300 91.70 98.73 9.58
7126 8.2310 91.13 98.51 9.55
7127 8.2320 85.48 98.30 9.25
7128 8.2330 103.68 98.09 10.18
7129 8.2340 80.82 97.88 8.99
7130 8.2350 93.67 97.68 9.68
7131 8.2360 110.33 97.49 10.50
7132 8.2370 104.70 97.31 10.23
7133 8.2380 92.03 97.13 9.59
7134 8.2390 108.23 96.96 10.40
7135 8.2400 97.44 96.80 9.87
7136 8.2410 86.56 96.65 9.30
7137 8.2420 93.11 96.51 9.65
7138 8.2430 86.44 96.40 9.30
7139 8.2440 81.36 96.28 9.02
7140 8.2450 90.27 96.17 9.50
7141 8.2460 95.36 96.07 9.77
7142 8.2470 90.83 95.99 9.53
7143 8.2480 81.08 95.91 9.00
7144 8.2490 87.30 95.85 9.34
7145 8.2500 93.88 95.80 9.69
7146 8.2510 97.50 95.75 9.87
7147 8.2520 90.33 95.73 9.50
7148 8.2530 104.56 95.71 10.23
7149 8.2540 91.98 95.71 9.59
7150 8.2550 97.95 95.72 9.90
7151 8.2560 83.35 95.74 9.13
7152 8.2570 94.63 95.77 9.73
7153 8.2580 88.17 95.82 9.39
7154 8.2590 90.95 95.88 9.54
7155 8.2600 86.58 95.95 9.30
7156 8.2610 85.36 96.04 9.24
7157 8.2620 104.72 96.13 10.23
7158 8.2630 85.23 96.24 9.23
7159 8.2640 91.46 96.37 9.56
7160 8.2650 99.15 96.50 9.96
7161 8.2660 87.76 96.65 9.37
7162 8.2670 81.35 96.81 9.02
7163 8.2680 93.88 96.98 9.69
7164 8.2690 103.70 97.17 10.18
7165 8.2700 94.65 97.36 9.73
7166 8.2710 91.75 97.57 9.58
7167 8.2720 109.52 97.78 10.47
7168 8.2730 102.50 98.01 10.12
7169 8.2740 102.85 98.24 10.14
7170 8.2750 97.58 98.49 9.88
7171 8.2760 105.54 98.74 10.27
7172 8.2770 104.23 98.99 10.21
7173 8.2780 102.55 99.26 10.13
7174 8.2790 108.25 99.52 10.40
7175 8.2800 92.21 99.80 9.60
7176 8.2810 100.35 100.07 10.02
7177 8.2820 113.34 100.35 10.65
7178 8.2830 117.17 100.62 10.82
7179 8.2840 104.78 100.90 10.24
7180 8.2850 98.16 101.17 9.91
7181 8.2860 107.54 101.45 10.37
7182 8.2870 114.13 101.72 10.68
7183 8.2880 100.01 101.99 10.00
7184 8.2890 93.82 102.26 9.69
7185 8.2900 98.84 102.53 9.94
7186 8.2910 104.47 102.79 10.22
7187 8.2920 95.18 103.05 9.76
7188 8.2930 99.47 103.32 9.97
7189 8.2940 98.32 103.58 9.92
7190 8.2950 91.06 103.94 9.54
7191 8.2960 89.66 104.21 9.47
7192 8.2970 103.75 104.48 10.19
7193 8.2980 106.19 104.75 10.30
7194 8.2990 98.53 105.03 9.93
7195 8.3000 94.48 105.32 9.72
7196 8.3010 84.46 105.61 9.19
7197 8.3020 86.15 105.91 9.28
7198 8.3030 78.84 106.21 8.88
7199 8.3040 98.37 106.53 9.92
7200 8.3050 106.06 106.85 10.30
7201 8.3060 100.83 107.18 10.04
7202 8.3070 115.13 107.52 10.73
7203 8.3080 104.98 107.87 10.25
7204 8.3090 101.35 108.22 10.07
7205 8.3100 108.68 108.58 10.43
7206 8.3110 108.66 108.94 10.42
7207 8.3120 101.03 109.30 10.05
7208 8.3130 90.56 109.66 9.52
7209 8.3140 107.92 110.02 10.39
7210 8.3150 101.64 110.38 10.08
7211 8.3160 104.12 110.73 10.20
7212 8.3170 87.39 111.07 9.35
7213 8.3180 90.63 111.41 9.52
7214 8.3190 92.45 111.73 9.62
7215 8.3200 90.18 112.04 9.50
7216 8.3210 101.58 112.34 10.08
7217 8.3220 107.52 112.63 10.37
7218 8.3230 91.28 112.90 9.55
7219 8.3240 91.56 113.17 9.57
7220 8.3250 108.33 113.41 10.41
7221 8.3260 101.96 113.65 10.10
7222 8.3270 103.91 113.88 10.19
7223 8.3280 103.68 114.10 10.18
7224 8.3290 107.64 114.31 10.38
7225 8.3300 100.23 114.52 10.01
7226 8.3310 106.82 114.72 10.34
7227 8.3320 119.15 114.93 10.92
7228 8.3330 111.86 115.14 10.58
7229 8.3340 104.14 115.36 10.20
7230 8.3350 107.52 115.58 10.37
7231 8.3360 110.02 115.82 10.49
7232 8.3370 113.51 116.06 10.65
7233 8.3380 106.61 116.32 10.33
7234 8.3390 104.32 116.59 10.21
7235 8.3400 114.74 116.88 10.71
7236 8.3410 109.69 117.18 10.47
7237 8.3420 119.76 117.50 10.94
7238 8.3430 120.88 117.83 10.99
7239 8.3440 109.15 118.18 10.45
7240 8.3450 106.72 118.54 10.33
7241 8.3460 119.97 118.92 10.95
7242 8.3470 111.97 119.30 10.58
7243 8.3480 132.53 119.70 11.51
7244 8.3490 115.84 120.10 10.76
7245 8.3500 99.55 120.50 9.98
7246 8.3510 116.07 120.90 10.77
7247 8.3520 125.96 121.31 11.22
7248 8.3530 122.45 121.71 11.07
7249 8.3540 132.98 122.09 11.53
7250 8.3550 145.43 122.47 12.06
7251 8.3560 127.29 122.84 11.28
7252 8.3570 106.07 123.18 10.30
7253 8.3580 106.13 123.51 10.30
7254 8.3590 122.38 123.82 11.06
7255 8.3600 126.70 124.11 11.26
7256 8.3610 118.35 124.38 10.88
7257 8.3620 107.52 124.62 10.37
7258 8.3630 130.11 124.85 11.41
7259 8.3640 126.67 125.06 11.25
7260 8.3650 121.96 125.25 11.04
7261 8.3660 114.02 125.43 10.68
7262 8.3670 127.13 125.59 11.28
7263 8.3680 124.13 125.75 11.14
7264 8.3690 109.77 125.90 10.48
7265 8.3700 111.76 126.05 10.57
7266 8.3710 112.10 126.21 10.59
7267 8.3720 122.56 126.37 11.07
7268 8.3730 140.51 126.54 11.85
7269 8.3740 132.26 126.73 11.50
7270 8.3750 133.62 126.93 11.56
7271 8.3760 122.55 127.16 11.07
7272 8.3770 141.70 127.40 11.90
7273 8.3780 147.43 127.68 12.14
7274 8.3790 136.55 127.98 11.69
7275 8.3800 136.45 128.31 11.68
7276 8.3810 129.55 128.67 11.38
7277 8.3820 132.04 129.06 11.49
7278 8.3830 137.63 129.48 11.73
7279 8.3840 151.93 129.93 12.33
7280 8.3850 138.88 130.42 11.78
7281 8.3860 146.39 130.93 12.10
7282 8.3870 178.52 131.47 13.36
7283 8.3880 156.53 132.04 12.51
7284 8.3890 163.81 132.63 12.80
7285 8.3900 164.17 133.25 12.81
7286 8.3910 194.54 133.89 13.95
7287 8.3920 195.79 134.55 13.99
7288 8.3930 192.21 135.22 13.86
7289 8.3940 198.54 135.90 14.09
7290 8.3950 173.49 136.60 13.17
7291 8.3960 168.83 137.30 12.99
7292 8.3970 191.36 138.01 13.83
7293 8.3980 204.35 138.71 14.30
7294 8.3990 202.20 139.42 14.22
7295 8.4000 193.19 140.12 13.90
7296 8.4010 185.74 140.81 13.63
7297 8.4020 200.13 141.50 14.15
7298 8.4030 206.28 142.17 14.36
7299 8.4040 170.86 142.83 13.07
7300 8.4050 176.91 143.47 13.30
7301 8.4060 195.27 144.10 13.97
7302 8.4070 194.56 144.71 13.95
7303 8.4080 167.76 145.30 12.95
7304 8.4090 178.63 145.87 13.37
7305 8.4100 178.03 146.43 13.34
7306 8.4110 172.34 146.96 13.13
7307 8.4120 150.73 147.49 12.28
7308 8.4130 173.34 148.00 13.17
7309 8.4140 174.87 148.50 13.22
7310 8.4150 162.07 148.99 12.73
7311 8.4160 175.72 149.48 13.26
7312 8.4170 172.39 149.97 13.13
7313 8.4180 161.24 150.47 12.70
7314 8.4190 157.39 150.98 12.55
7315 8.4200 162.29 151.51 12.74
7316 8.4210 169.13 152.08 13.01
7317 8.4220 165.91 152.68 12.88
7318 8.4230 150.19 153.32 12.26
7319 8.4240 141.71 154.01 11.90
7320 8.4250 167.07 154.76 12.93
7321 8.4260 174.38 155.57 13.21
7322 8.4270 172.22 156.45 13.12
7323 8.4280 181.04 157.42 13.46
7324 8.4290 160.30 158.47 12.66
7325 8.4300 153.32 159.61 12.38
7326 8.4310 169.21 160.85 13.01
7327 8.4320 170.30 162.20 13.05
7328 8.4330 165.89 163.66 12.88
7329 8.4340 163.14 165.24 12.77
7330 8.4350 171.61 166.93 13.10
7331 8.4360 185.57 168.75 13.62
7332 8.4370 190.77 170.71 13.81
7333 8.4380 171.28 172.79 13.09
7334 8.4390 170.75 175.02 13.07
7335 8.4400 178.92 177.39 13.38
7336 8.4410 184.99 179.91 13.60
7337 8.4420 202.03 182.57 14.21
7338 8.4430 204.33 185.39 14.29
7339 8.4440 190.97 188.36 13.82
7340 8.4450 205.97 191.49 14.35
7341 8.4460 198.33 194.77 14.08
7342 8.4470 192.97 198.21 13.89
7343 8.4480 191.97 201.81 13.86
7344 8.4490 205.28 205.57 14.33
7345 8.4500 199.83 209.47 14.14
7346 8.4510 205.62 213.54 14.34
7347 8.4520 212.55 217.74 14.58
7348 8.4530 221.75 222.12 14.89
7349 8.4540 226.53 226.61 15.05
7350 8.4550 228.59 231.23 15.12
7351 8.4560 226.12 235.96 15.04
7352 8.4570 223.43 240.81 14.95
7353 8.4580 258.66 245.75 16.08
7354 8.4590 248.22 250.78 15.76
7355 8.4600 222.57 255.87 14.92
7356 8.4610 252.64 261.01 15.89
7357 8.4620 268.55 266.16 16.39
7358 8.4630 294.86 271.33 17.17
7359 8.4640 290.38 276.46 17.04
7360 8.4650 295.97 281.54 17.20
7361 8.4660 270.19 286.53 16.44
7362 8.4670 274.77 291.40 16.58
7363 8.4680 261.85 296.12 16.18
7364 8.4690 289.13 300.63 17.00
7365 8.4700 290.00 304.92 17.03
7366 8.4710 300.62 308.93 17.34
7367 8.4720 306.92 312.63 17.52
7368 8.4730 309.26 315.98 17.59
7369 8.4740 285.69 318.93 16.90
7370 8.4750 284.63 321.47 16.87
7371 8.4760 305.24 323.55 17.47
7372 8.4770 299.47 325.15 17.31
7373 8.4780 293.37 326.24 17.13
7374 8.4790 319.92 326.82 17.89
7375 8.4800 305.40 326.88 17.48
7376 8.4810 293.09 326.40 17.12
7377 8.4820 261.15 325.40 16.16
7378 8.4830 274.81 323.89 16.58
7379 8.4840 284.37 321.87 16.86
7380 8.4850 296.12 319.38 17.21
7381 8.4860 260.01 316.44 16.12
7382 8.4870 268.31 313.08 16.38
7383 8.4880 257.21 309.34 16.04
7384 8.4890 233.65 305.25 15.29
7385 8.4900 259.64 300.85 16.11
7386 8.4910 277.19 296.17 16.65
7387 8.4920 262.67 291.27 16.21
7388 8.4930 239.31 286.17 15.47
7389 8.4940 244.62 280.90 15.64
7390 8.4950 230.96 275.52 15.20
7391 8.4960 223.81 270.04 14.96
7392 8.4970 210.43 264.50 14.51
7393 8.4980 217.49 258.92 14.75
7394 8.4990 210.25 253.33 14.50
7395 8.5000 191.55 247.76 13.84
7396 8.5010 185.13 242.21 13.61
7397 8.5020 179.33 236.73 13.39
7398 8.5030 175.91 231.31 13.26
7399 8.5040 190.57 225.85 13.80
7400 8.5050 187.30 220.61 13.69
7401 8.5060 195.36 215.46 13.98
7402 8.5070 175.89 210.43 13.26
7403 8.5080 176.55 205.52 13.29
7404 8.5090 173.72 200.74 13.18
7405 8.5100 168.54 196.08 12.98
7406 8.5110 162.76 191.56 12.76
7407 8.5120 160.65 187.18 12.67
7408 8.5130 154.58 182.93 12.43
7409 8.5140 162.47 178.82 12.75
7410 8.5150 151.62 174.85 12.31
7411 8.5160 147.76 171.02 12.16
7412 8.5170 146.43 167.32 12.10
7413 8.5180 151.84 163.77 12.32
7414 8.5190 143.54 160.35 11.98
7415 8.5200 136.45 157.06 11.68
7416 8.5210 139.65 153.91 11.82
7417 8.5220 151.56 150.88 12.31
7418 8.5230 147.33 147.98 12.14
7419 8.5240 140.87 145.19 11.87
7420 8.5250 143.43 142.53 11.98
7421 8.5260 147.62 139.99 12.15
7422 8.5270 134.31 137.56 11.59
7423 8.5280 119.28 135.24 10.92
7424 8.5290 123.19 133.02 11.10
7425 8.5300 134.08 130.90 11.58
7426 8.5310 139.56 128.89 11.81
7427 8.5320 115.87 126.96 10.76
7428 8.5330 121.32 125.13 11.01
7429 8.5340 131.14 123.39 11.45
7430 8.5350 141.28 121.73 11.89
7431 8.5360 128.52 120.15 11.34
7432 8.5370 130.49 118.64 11.42
7433 8.5380 120.42 117.21 10.97
7434 8.5390 116.78 115.85 10.81
7435 8.5400 124.87 114.56 11.17
7436 8.5410 121.77 113.33 11.03
7437 8.5420 118.40 112.16 10.88
7438 8.5430 127.25 111.05 11.28
7439 8.5440 122.12 110.00 11.05
7440 8.5450 121.41 109.00 11.02
7441 8.5460 124.81 108.04 11.17
7442 8.5470 108.57 107.14 10.42
7443 8.5480 110.87 106.28 10.53
7444 8.5490 111.60 105.46 10.56
7445 8.5500 104.19 104.69 10.21
7446 8.5510 98.79 103.95 9.94
7447 8.5520 100.71 103.25 10.04
7448 8.5530 107.55 102.59 10.37
7449 8.5540 114.22 101.96 10.69
7450 8.5550 102.40 101.36 10.12
7451 8.5560 92.47 100.79 9.62
7452 8.5570 98.71 100.25 9.94
7453 8.5580 104.29 99.74 10.21
7454 8.5590 107.09 99.26 10.35
7455 8.5600 115.02 98.80 10.72
7456 8.5610 123.63 98.36 11.12
7457 8.5620 106.00 97.95 10.30
7458 8.5630 123.51 97.56 11.11
7459 8.5640 115.97 97.19 10.77
7460 8.5650 107.25 96.85 10.36
7461 8.5660 121.95 96.53 11.04
7462 8.5670 104.64 96.22 10.23
7463 8.5680 96.39 95.94 9.82
7464 8.5690 110.18 95.67 10.50
7465 8.5700 99.24 95.43 9.96
7466 8.5710 108.19 95.20 10.40
7467 8.5720 107.77 94.99 10.38
7468 8.5730 111.71 94.28 10.57
7469 8.5740 94.62 94.11 9.73
7470 8.5750 110.26 93.96 10.50
7471 8.5760 109.53 93.83 10.47
7472 8.5770 103.55 93.71 10.18
7473 8.5780 112.03 93.61 10.58
7474 8.5790 110.68 93.53 10.52
7475 8.5800 96.33 93.47 9.81
7476 8.5810 89.42 93.42 9.46
7477 8.5820 107.00 93.40 10.34
7478 8.5830 102.48 93.39 10.12
7479 8.5840 93.26 93.40 9.66
7480 8.5850 102.46 93.43 10.12
7481 8.5860 98.96 93.48 9.95
7482 8.5870 113.24 93.55 10.64
7483 8.5880 107.71 93.64 10.38
7484 8.5890 103.33 93.75 10.17
7485 8.5900 99.47 93.88 9.97
7486 8.5910 100.01 94.03 10.00
7487 8.5920 104.76 94.20 10.24
7488 8.5930 104.13 94.40 10.20
7489 8.5940 90.95 94.61 9.54
7490 8.5950 75.85 94.85 8.71
7491 8.5960 94.11 95.11 9.70
7492 8.5970 108.95 95.40 10.44
7493 8.5980 114.08 95.71 10.68
7494 8.5990 113.81 96.04 10.67
7495 8.6000 116.61 96.40 10.80
7496 8.6010 114.81 96.79 10.71
7497 8.6020 108.29 97.19 10.41
7498 8.6030 94.27 97.63 9.71
7499 8.6040 96.16 98.09 9.81
7500 8.6050 112.80 98.57 10.62
7501 8.6060 109.13 99.09 10.45
7502 8.6070 116.95 99.62 10.81
7503 8.6080 107.35 100.19 10.36
7504 8.6090 97.16 100.78 9.86
7505 8.6100 93.77 101.40 9.68
7506 8.6110 108.12 102.05 10.40
7507 8.6120 102.22 102.72 10.11
7508 8.6130 113.16 103.42 10.64
7509 8.6140 103.35 104.15 10.17
7510 8.6150 106.79 104.90 10.33
7511 8.6160 111.14 105.69 10.54
7512 8.6170 118.28 106.50 10.88
7513 8.6180 112.75 107.33 10.62
7514 8.6190 107.92 108.20 10.39
7515 8.6200 112.83 109.08 10.62
7516 8.6210 103.63 110.00 10.18
7517 8.6220 109.26 110.94 10.45
7518 8.6230 105.56 111.91 10.27
7519 8.6240 105.76 112.90 10.28
7520 8.6250 104.01 113.91 10.20
7521 8.6260 103.65 114.95 10.18
7522 8.6270 103.85 116.00 10.19
7523 8.6280 109.59 117.08 10.47
7524 8.6290 110.34 118.17 10.50
7525 8.6300 103.31 119.28 10.16
7526 8.6310 121.98 120.41 11.04
7527 8.6320 109.59 121.54 10.47
7528 8.6330 102.67 122.68 10.13
7529 8.6340 112.92 123.82 10.63
7530 8.6350 120.82 124.96 10.99
7531 8.6360 100.55 126.09 10.03
7532 8.6370 104.83 127.21 10.24
7533 8.6380 107.08 128.31 10.35
7534 8.6390 119.89 129.39 10.95
7535 8.6400 111.90 130.44 10.58
7536 8.6410 119.74 131.45 10.94
7537 8.6420 111.06 132.41 10.54
7538 8.6430 117.05 133.32 10.82
7539 8.6440 122.40 134.16 11.06
7540 8.6450 126.67 134.94 11.25
7541 8.6460 135.98 135.64 11.66
7542 8.6470 123.43 136.26 11.11
7543 8.6480 124.66 136.79 11.17
7544 8.6490 128.29 137.23 11.33
7545 8.6500 124.90 137.57 11.18
7546 8.6510 122.07 137.80 11.05
7547 8.6520 126.58 137.94 11.25
7548 8.6530 128.12 137.97 11.32
7549 8.6540 122.34 137.90 11.06
7550 8.6550 147.77 137.73 12.16
7551 8.6560 123.41 137.46 11.11
7552 8.6570 109.03 137.10 10.44
7553 8.6580 109.13 136.65 10.45
7554 8.6590 111.56 136.12 10.56
7555 8.6600 117.24 135.51 10.83
7556 8.6610 140.61 134.83 11.86
7557 8.6620 128.69 134.10 11.34
7558 8.6630 127.22 133.32 11.28
7559 8.6640 117.20 132.49 10.83
7560 8.6650 130.80 131.62 11.44
7561 8.6660 123.42 130.73 11.11
7562 8.6670 113.78 129.80 10.67
7563 8.6680 113.71 128.87 10.66
7564 8.6690 111.44 127.92 10.56
7565 8.6700 125.00 126.97 11.18
7566 8.6710 116.95 126.02 10.81
7567 8.6720 123.38 125.07 11.11
7568 8.6730 118.45 124.12 10.88
7569 8.6740 101.46 123.18 10.07
7570 8.6750 102.40 122.26 10.12
7571 8.6760 117.01 121.34 10.82
7572 8.6770 116.51 120.44 10.79
7573 8.6780 112.83 119.55 10.62
7574 8.6790 100.13 118.67 10.01
7575 8.6800 112.28 117.81 10.60
7576 8.6810 113.48 116.96 10.65
7577 8.6820 98.15 116.12 9.91
7578 8.6830 101.37 115.29 10.07
7579 8.6840 94.08 114.47 9.70
7580 8.6850 102.73 113.97 10.14
7581 8.6860 121.60 113.25 11.03
7582 8.6870 106.25 112.46 10.31
7583 8.6880 108.23 111.68 10.40
7584 8.6890 83.52 110.90 9.14
7585 8.6900 90.07 110.14 9.49
7586 8.6910 104.94 109.38 10.24
7587 8.6920 101.88 108.62 10.09
7588 8.6930 96.35 107.88 9.82
7589 8.6940 105.06 107.15 10.25
7590 8.6950 108.96 106.42 10.44
7591 8.6960 100.62 105.71 10.03
7592 8.6970 101.32 105.00 10.07
7593 8.6980 94.25 104.31 9.71
7594 8.6990 97.34 103.64 9.87
7595 8.7000 120.20 102.98 10.96
7596 8.7010 103.39 102.33 10.17
7597 8.7020 103.45 101.71 10.17
7598 8.7030 99.20 101.10 9.96
7599 8.7040 104.42 100.51 10.22
7600 8.7050 94.98 99.94 9.75
7601 8.7060 109.05 99.39 10.44
7602 8.7070 112.21 98.87 10.59
7603 8.7080 100.44 98.36 10.02
7604 8.7090 90.07 97.88 9.49
7605 8.7100 99.39 97.42 9.97
7606 8.7110 103.38 96.98 10.17
7607 8.7120 112.31 96.56 10.60
7608 8.7130 105.20 96.15 10.26
7609 8.7140 112.34 95.78 10.60
7610 8.7150 107.43 95.41 10.36
7611 8.7160 117.09 95.07 10.82
7612 8.7170 108.18 94.75 10.40
7613 8.7180 105.13 94.44 10.25
7614 8.7190 97.40 94.15 9.87
7615 8.7200 91.13 93.87 9.55
7616 8.7210 92.09 93.61 9.60
7617 8.7220 120.81 93.36 10.99
7618 8.7230 105.64 93.13 10.28
7619 8.7240 109.50 92.91 10.46
7620 8.7250 109.30 92.70 10.45
7621 8.7260 90.70 92.51 9.52
7622 8.7270 98.08 92.32 9.90
7623 8.7280 99.39 92.15 9.97
7624 8.7290 106.49 92.00 10.32
7625 8.7300 99.28 91.85 9.96
7626 8.7310 117.94 91.72 10.86
7627 8.7320 99.19 91.61 9.96
7628 8.7330 96.03 91.51 9.80
7629 8.7340 108.02 91.42 10.39
7630 8.7350 87.52 91.35 9.36
7631 8.7360 89.86 91.30 9.48
7632 8.7370 109.33 91.27 10.46
7633 8.7380 97.72 91.24 9.89
7634 8.7390 91.53 91.25 9.57
7635 8.7400 91.03 91.28 9.54
7636 8.7410 89.00 91.33 9.43
7637 8.7420 92.24 91.40 9.60
7638 8.7430 80.30 91.49 8.96
7639 8.7440 87.17 91.61 9.34
7640 8.7450 89.73 91.75 9.47
7641 8.7460 95.07 91.92 9.75
7642 8.7470 83.02 92.11 9.11
7643 8.7480 79.90 92.33 8.94
7644 8.7490 80.17 92.57 8.95
7645 8.7500 86.29 92.84 9.29
7646 8.7510 79.85 93.13 8.94
7647 8.7520 74.85 93.44 8.65
7648 8.7530 76.13 93.78 8.73
7649 8.7540 85.82 94.14 9.26
7650 8.7550 93.22 94.52 9.66
7651 8.7560 89.89 94.93 9.48
7652 8.7570 73.85 95.36 8.59
7653 8.7580 76.72 95.80 8.76
7654 8.7590 85.13 96.26 9.23
7655 8.7600 90.75 96.74 9.53
7656 8.7610 74.06 97.24 8.61
7657 8.7620 80.28 97.74 8.96
7658 8.7630 84.04 98.26 9.17
7659 8.7640 78.14 98.78 8.84
7660 8.7650 86.07 99.31 9.28
7661 8.7660 84.52 99.84 9.19
7662 8.7670 77.63 100.36 8.81
7663 8.7680 90.12 100.88 9.49
7664 8.7690 101.52 101.39 10.08
7665 8.7700 98.18 101.88 9.91
7666 8.7710 94.03 102.35 9.70
7667 8.7720 79.54 102.80 8.92
7668 8.7730 63.13 103.22 7.95
7669 8.7740 88.10 103.60 9.39
7670 8.7750 90.91 103.91 9.53
7671 8.7760 95.04 104.21 9.75
7672 8.7770 86.68 104.47 9.31
7673 8.7780 87.14 104.67 9.33
7674 8.7790 99.26 104.82 9.96
7675 8.7800 77.23 104.91 8.79
7676 8.7810 79.88 104.94 8.94
7677 8.7820 85.40 104.91 9.24
7678 8.7830 94.01 104.81 9.70
7679 8.7840 95.03 104.65 9.75
7680 8.7850 93.76 104.43 9.68
7681 8.7860 87.10 104.14 9.33
7682 8.7870 86.49 103.79 9.30
7683 8.7880 79.70 103.38 8.93
7684 8.7890 88.53 102.92 9.41
7685 8.7900 84.27 102.41 9.18
7686 8.7910 77.12 101.85 8.78
7687 8.7920 89.44 101.24 9.46
7688 8.7930 82.19 100.60 9.07
7689 8.7940 83.51 99.92 9.14
7690 8.7950 76.53 99.21 8.75
7691 8.7960 82.90 98.48 9.10
7692 8.7970 92.55 97.73 9.62
7693 8.7980 93.07 96.95 9.65
7694 8.7990 79.35 96.17 8.91
7695 8.8000 75.90 95.38 8.71
7696 8.8010 70.69 94.58 8.41
7697 8.8020 73.02 93.78 8.55
7698 8.8030 83.74 92.98 9.15
7699 8.8040 78.35 92.18 8.85
7700 8.8050 78.18 91.39 8.84
7701 8.8060 80.36 90.61 8.96
7702 8.8070 82.91 89.83 9.11
7703 8.8080 81.34 89.07 9.02
7704 8.8090 77.36 88.32 8.80
7705 8.8100 72.51 87.58 8.52
7706 8.8110 69.36 86.86 8.33
7707 8.8120 78.34 86.16 8.85
7708 8.8130 75.53 85.47 8.69
7709 8.8140 81.05 84.80 9.00
7710 8.8150 86.83 84.14 9.32
7711 8.8160 74.88 83.44 8.65
7712 8.8170 77.41 82.83 8.80
7713 8.8180 79.00 82.23 8.89
7714 8.8190 71.15 81.65 8.44
7715 8.8200 77.91 81.08 8.83
7716 8.8210 81.07 80.54 9.00
7717 8.8220 69.79 80.01 8.35
7718 8.8230 73.82 79.51 8.59
7719 8.8240 65.01 79.02 8.06
7720 8.8250 69.51 78.54 8.34
7721 8.8260 70.83 78.09 8.42
7722 8.8270 75.79 77.65 8.71
7723 8.8280 70.50 77.23 8.40
7724 8.8290 76.69 76.83 8.76
7725 8.8300 74.04 76.44 8.60
7726 8.8310 68.08 76.07 8.25
7727 8.8320 64.18 75.71 8.01
7728 8.8330 73.10 75.37 8.55
7729 8.8340 80.08 75.04 8.95
7730 8.8350 66.59 74.72 8.16
7731 8.8360 72.43 74.42 8.51
7732 8.8370 76.68 74.13 8.76
7733 8.8380 63.20 73.86 7.95
7734 8.8390 62.71 73.60 7.92
7735 8.8400 79.64 73.35 8.92
7736 8.8410 78.51 73.11 8.86
7737 8.8420 73.35 72.88 8.56
7738 8.8430 69.72 72.66 8.35
7739 8.8440 69.93 72.45 8.36
7740 8.8450 69.38 72.25 8.33
7741 8.8460 69.37 72.07 8.33
7742 8.8470 69.20 71.89 8.32
7743 8.8480 63.20 71.72 7.95
7744 8.8490 67.41 71.55 8.21
7745 8.8500 64.31 71.40 8.02
7746 8.8510 69.93 71.26 8.36
7747 8.8520 60.22 71.12 7.76
7748 8.8530 68.25 70.99 8.26
7749 8.8540 65.75 70.86 8.11
7750 8.8550 75.93 70.75 8.71
7751 8.8560 63.92 70.64 7.99
7752 8.8570 58.64 70.50 7.66
7753 8.8580 60.75 70.40 7.79
7754 8.8590 67.21 70.31 8.20
7755 8.8600 65.22 70.22 8.08
7756 8.8610 65.71 70.14 8.11
7757 8.8620 72.91 70.07 8.54
7758 8.8630 61.05 70.00 7.81
7759 8.8640 64.54 69.94 8.03
7760 8.8650 65.55 69.88 8.10
7761 8.8660 69.06 69.83 8.31
7762 8.8670 65.85 69.78 8.11
7763 8.8680 73.57 69.74 8.58
7764 8.8690 71.27 69.70 8.44
7765 8.8700 71.26 69.66 8.44
7766 8.8710 78.44 69.64 8.86
7767 8.8720 67.11 69.61 8.19
7768 8.8730 54.85 69.52 7.41
7769 8.8740 49.01 69.50 7.00
7770 8.8750 61.14 69.49 7.82
7771 8.8760 65.30 69.48 8.08
7772 8.8770 74.68 69.48 8.64
7773 8.8780 67.44 69.49 8.21
7774 8.8790 77.27 69.49 8.79
7775 8.8800 73.99 69.50 8.60
7776 8.8810 60.53 69.52 7.78
7777 8.8820 68.10 69.54 8.25
7778 8.8830 69.41 69.56 8.33
7779 8.8840 67.97 69.59 8.24
7780 8.8850 64.82 69.62 8.05
7781 8.8860 52.88 69.65 7.27
7782 8.8870 75.38 69.69 8.68
7783 8.8880 64.17 69.74 8.01
7784 8.8890 67.45 69.78 8.21
7785 8.8900 70.02 69.83 8.37
7786 8.8910 68.42 69.88 8.27
7787 8.8920 73.30 69.94 8.56
7788 8.8930 70.90 70.00 8.42
7789 8.8940 67.26 70.06 8.20
7790 8.8950 62.11 70.12 7.88
7791 8.8960 63.45 70.24 7.97
7792 8.8970 56.72 70.30 7.53
7793 8.8980 66.82 70.37 8.17
7794 8.8990 74.65 70.48 8.64
7795 8.9000 68.89 70.54 8.30
7796 8.9010 75.17 70.61 8.67
7797 8.9020 67.63 70.68 8.22
7798 8.9030 59.00 70.75 7.68
7799 8.9040 59.34 70.82 7.70
7800 8.9050 63.20 70.89 7.95
7801 8.9060 76.86 70.96 8.77
7802 8.9070 71.21 71.03 8.44
7803 8.9080 58.98 71.09 7.68
7804 8.9090 58.78 71.16 7.67
7805 8.9100 70.57 71.22 8.40
7806 8.9110 73.18 71.28 8.55
7807 8.9120 63.36 71.34 7.96
7808 8.9130 62.04 71.40 7.88
7809 8.9140 60.11 71.46 7.75
7810 8.9150 57.29 71.52 7.57
7811 8.9160 63.49 71.58 7.97
7812 8.9170 75.89 71.64 8.71
7813 8.9180 64.15 71.70 8.01
7814 8.9190 66.68 71.76 8.17
7815 8.9200 78.73 71.82 8.87
7816 8.9210 76.28 71.89 8.73
7817 8.9220 66.58 71.95 8.16
7818 8.9230 53.70 72.02 7.33
7819 8.9240 54.17 72.09 7.36
7820 8.9250 62.55 72.16 7.91
7821 8.9260 78.10 72.24 8.84
7822 8.9270 58.42 72.32 7.64
7823 8.9280 71.38 72.40 8.45
7824 8.9290 64.29 72.49 8.02
7825 8.9300 68.33 72.57 8.27
7826 8.9310 78.53 72.66 8.86
7827 8.9320 70.20 72.76 8.38
7828 8.9330 61.12 72.85 7.82
7829 8.9340 69.40 72.95 8.33
7830 8.9350 72.11 73.05 8.49
7831 8.9360 71.77 73.15 8.47
7832 8.9370 69.17 73.26 8.32
7833 8.9380 74.00 73.36 8.60
7834 8.9390 71.56 73.46 8.46
7835 8.9400 62.43 73.55 7.90
7836 8.9410 62.79 73.65 7.92
7837 8.9420 74.34 73.73 8.62
7838 8.9430 88.66 73.81 9.42
7839 8.9440 75.99 73.18 8.72
7840 8.9450 69.32 73.25 8.33
7841 8.9460 67.07 73.31 8.19
7842 8.9470 81.05 73.37 9.00
7843 8.9480 67.23 73.41 8.20
7844 8.9490 76.03 73.43 8.72
7845 8.9500 79.75 73.45 8.93
7846 8.9510 68.61 73.45 8.28
7847 8.9520 68.32 73.44 8.27
7848 8.9530 66.79 73.41 8.17
7849 8.9540 73.68 73.37 8.58
7850 8.9550 72.21 73.31 8.50
7851 8.9560 68.02 73.24 8.25
7852 8.9570 66.53 73.16 8.16
7853 8.9580 73.42 73.04 8.57
7854 8.9590 70.66 72.93 8.41
7855 8.9600 77.04 72.80 8.78
7856 8.9610 74.71 72.66 8.64
7857 8.9620 67.63 72.51 8.22
7858 8.9630 61.50 72.35 7.84
7859 8.9640 65.62 72.17 8.10
7860 8.9650 65.82 71.99 8.11
7861 8.9660 70.62 71.81 8.40
7862 8.9670 81.33 71.61 9.02
7863 8.9680 83.90 71.41 9.16
7864 8.9690 73.49 71.21 8.57
7865 8.9700 76.70 71.01 8.76
7866 8.9710 77.17 70.80 8.78
7867 8.9720 82.62 70.59 9.09
7868 8.9730 75.47 70.38 8.69
7869 8.9740 59.95 70.17 7.74
7870 8.9750 76.59 69.97 8.75
7871 8.9760 72.16 69.76 8.49
7872 8.9770 76.03 69.56 8.72
7873 8.9780 75.58 69.36 8.69
7874 8.9790 70.27 69.16 8.38
7875 8.9800 70.94 68.97 8.42
7876 8.9810 74.91 68.78 8.66
7877 8.9820 76.33 68.60 8.74
7878 8.9830 72.07 68.42 8.49
7879 8.9840 64.79 68.24 8.05
7880 8.9850 64.60 68.07 8.04
7881 8.9860 70.91 67.91 8.42
7882 8.9870 60.64 67.75 7.79
7883 8.9880 54.51 67.60 7.38
7884 8.9890 61.33 67.45 7.83
7885 8.9900 75.66 67.31 8.70
7886 8.9910 63.29 67.17 7.96
7887 8.9920 75.59 67.04 8.69
7888 8.9930 73.17 66.91 8.55
7889 8.9940 79.43 66.79 8.91
7890 8.9950 61.33 66.68 7.83
7891 8.9960 65.54 66.57 8.10
7892 8.9970 73.83 66.46 8.59
7893 8.9980 72.10 66.36 8.49
7894 8.9990 75.95 66.27 8.71
7895 9.0000 74.62 66.18 8.64
7896 9.0010 75.40 66.10 8.68
7897 9.0020 69.22 66.02 8.32
7898 9.0030 72.30 65.95 8.50
7899 9.0040 62.95 65.88 7.93
7900 9.0050 76.51 65.81 8.75
7901 9.0060 88.21 65.76 9.39
7902 9.0070 79.74 65.70 8.93
7903 9.0080 63.47 65.92 7.97
7904 9.0090 58.07 65.88 7.62
7905 9.0100 67.61 65.84 8.22
7906 9.0110 69.27 65.80 8.32
7907 9.0120 62.73 65.77 7.92
7908 9.0130 58.64 65.75 7.66
7909 9.0140 67.97 65.72 8.24
7910 9.0150 71.97 65.70 8.48
7911 9.0160 72.66 65.68 8.52
7912 9.0170 84.63 65.67 9.20
7913 9.0180 82.82 65.66 9.10
7914 9.0190 65.51 65.65 8.09
7915 9.0200 64.91 65.64 8.06
7916 9.0210 66.38 65.64 8.15
7917 9.0220 71.46 65.64 8.45
7918 9.0230 73.15 65.65 8.55
7919 9.0240 70.80 65.66 8.41
7920 9.0250 67.99 65.67 8.25
7921 9.0260 61.89 65.69 7.87
7922 9.0270 62.28 65.70 7.89
7923 9.0280 59.44 65.73 7.71
7924 9.0290 63.97 65.75 8.00
7925 9.0300 67.13 65.78 8.19
7926 9.0310 60.44 65.81 7.77
7927 9.0320 67.87 65.84 8.24
7928 9.0330 74.06 65.88 8.61
7929 9.0340 83.41 65.92 9.13
7930 9.0350 75.69 65.96 8.70
7931 9.0360 69.31 66.01 8.33
7932 9.0370 69.85 66.05 8.36
7933 9.0380 72.75 66.10 8.53
7934 9.0390 64.55 66.16 8.03
7935 9.0400 60.88 66.21 7.80
7936 9.0410 73.86 66.27 8.59
7937 9.0420 60.66 66.32 7.79
7938 9.0430 78.97 66.38 8.89
7939 9.0440 75.98 66.45 8.72
7940 9.0450 73.17 66.51 8.55
7941 9.0460 69.09 66.57 8.31
7942 9.0470 69.72 66.64 8.35
7943 9.0480 69.67 66.70 8.35
7944 9.0490 70.96 66.86 8.42
7945 9.0500 66.21 66.93 8.14
7946 9.0510 59.47 66.99 7.71
7947 9.0520 68.02 67.06 8.25
7948 9.0530 73.56 67.12 8.58
7949 9.0540 72.79 67.18 8.53
7950 9.0550 76.30 67.24 8.73
7951 9.0560 74.65 67.30 8.64
7952 9.0570 68.26 67.36 8.26
7953 9.0580 83.74 67.41 9.15
7954 9.0590 79.44 67.46 8.91
7955 9.0600 70.18 67.51 8.38
7956 9.0610 69.04 67.55 8.31
7957 9.0620 90.46 67.59 9.51
7958 9.0630 83.77 67.63 9.15
7959 9.0640 76.01 67.66 8.72
7960 9.0650 59.62 67.69 7.72
7961 9.0660 72.97 67.72 8.54
7962 9.0670 84.10 67.74 9.17
7963 9.0680 83.00 67.76 9.11
7964 9.0690 72.62 67.78 8.52
7965 9.0700 66.66 67.79 8.16
7966 9.0710 72.51 67.81 8.52
7967 9.0720 71.51 67.82 8.46
7968 9.0730 71.44 67.83 8.45
7969 9.0740 73.67 67.84 8.58
7970 9.0750 80.76 67.85 8.99
7971 9.0760 66.39 67.85 8.15
7972 9.0770 79.55 67.86 8.92
7973 9.0780 85.51 67.87 9.25
7974 9.0790 73.58 67.88 8.58
7975 9.0800 79.59 67.89 8.92
7976 9.0810 75.14 67.90 8.67
7977 9.0820 64.75 67.92 8.05
7978 9.0830 66.08 67.93 8.13
7979 9.0840 67.56 67.95 8.22
7980 9.0850 66.62 67.97 8.16
7981 9.0860 64.22 68.34 8.01
7982 9.0870 77.33 68.37 8.79
7983 9.0880 73.67 68.40 8.58
7984 9.0890 76.34 68.43 8.74
7985 9.0900 68.24 68.47 8.26
7986 9.0910 74.25 68.52 8.62
7987 9.0920 88.41 68.56 9.40
7988 9.0930 78.77 68.62 8.88
7989 9.0940 81.69 68.67 9.04
7990 9.0950 80.45 68.77 8.97
7991 9.0960 72.25 68.83 8.50
7992 9.0970 90.24 68.90 9.50
7993 9.0980 68.84 68.98 8.30
7994 9.0990 69.39 69.06 8.33
7995 9.1000 79.55 69.15 8.92
7996 9.1010 73.09 69.23 8.55
7997 9.1020 77.81 69.33 8.82
7998 9.1030 76.15 69.44 8.73
7999 9.1040 76.88 69.55 8.77
8000 9.1050 73.12 69.67 8.55
8001 9.1060 78.61 69.79 8.87
8002 9.1070 79.63 69.92 8.92
8003 9.1080 64.85 70.06 8.05
8004 9.1090 74.75 70.21 8.65
8005 9.1100 77.86 70.36 8.82
8006 9.1110 68.88 70.52 8.30
8007 9.1120 79.08 70.69 8.89
8008 9.1130 88.62 70.87 9.41
8009 9.1140 82.66 71.06 9.09
8010 9.1150 76.03 71.25 8.72
8011 9.1160 74.95 71.47 8.66
8012 9.1170 87.17 71.69 9.34
8013 9.1180 82.15 71.92 9.06
8014 9.1190 76.61 72.16 8.75
8015 9.1200 77.86 72.41 8.82
8016 9.1210 75.95 72.67 8.71
8017 9.1220 85.49 72.94 9.25
8018 9.1230 73.32 73.23 8.56
8019 9.1240 82.39 73.53 9.08
8020 9.1250 85.47 73.85 9.24
8021 9.1260 83.70 74.18 9.15
8022 9.1270 91.58 74.53 9.57
8023 9.1280 85.82 74.89 9.26
8024 9.1290 94.34 75.27 9.71
8025 9.1300 87.84 75.51 9.37
8026 9.1310 75.42 75.94 8.68
8027 9.1320 91.93 76.38 9.59
8028 9.1330 88.60 76.84 9.41
8029 9.1340 88.84 77.32 9.43
8030 9.1350 83.38 77.83 9.13
8031 9.1360 83.37 78.37 9.13
8032 9.1370 95.48 78.93 9.77
8033 9.1380 95.75 79.51 9.79
8034 9.1390 78.07 80.19 8.84
8035 9.1400 76.92 80.83 8.77
8036 9.1410 74.95 81.51 8.66
8037 9.1420 79.08 82.22 8.89
8038 9.1430 91.66 82.96 9.57
8039 9.1440 104.91 83.73 10.24
8040 9.1450 86.54 84.55 9.30
8041 9.1460 95.57 85.40 9.78
8042 9.1470 101.84 86.29 10.09
8043 9.1480 87.72 87.22 9.37
8044 9.1490 89.61 88.19 9.47
8045 9.1500 91.00 89.21 9.54
8046 9.1510 96.75 90.29 9.84
8047 9.1520 102.45 91.40 10.12
8048 9.1530 93.32 92.56 9.66
8049 9.1540 99.98 93.77 10.00
8050 9.1550 113.48 95.03 10.65
8051 9.1560 116.10 96.34 10.77
8052 9.1570 115.89 97.70 10.77
8053 9.1580 112.95 99.15 10.63
8054 9.1590 108.44 100.63 10.41
8055 9.1600 110.18 102.17 10.50
8056 9.1610 108.34 103.76 10.41
8057 9.1620 109.10 105.42 10.45
8058 9.1630 128.86 107.13 11.35
8059 9.1640 119.12 108.91 10.91
8060 9.1650 121.07 110.75 11.00
8061 9.1660 108.81 112.65 10.43
8062 9.1670 121.87 114.60 11.04
8063 9.1680 127.61 116.62 11.30
8064 9.1690 122.52 118.79 11.07
8065 9.1700 112.23 120.95 10.59
8066 9.1710 133.92 123.14 11.57
8067 9.1720 145.04 125.42 12.04
8068 9.1730 131.94 127.76 11.49
8069 9.1740 135.98 130.22 11.66
8070 9.1750 146.69 132.68 12.11
8071 9.1760 166.09 135.19 12.89
8072 9.1770 135.28 137.75 11.63
8073 9.1780 140.86 140.37 11.87
8074 9.1790 132.12 143.02 11.49
8075 9.1800 138.06 145.72 11.75
8076 9.1810 153.25 148.46 12.38
8077 9.1820 175.88 151.23 13.26
8078 9.1830 167.66 154.02 12.95
8079 9.1840 165.33 156.83 12.86
8080 9.1850 162.34 159.65 12.74
8081 9.1860 170.29 162.48 13.05
8082 9.1870 170.12 165.29 13.04
8083 9.1880 178.38 168.09 13.36
8084 9.1890 155.66 170.86 12.48
8085 9.1900 158.70 173.59 12.60
8086 9.1910 184.53 176.27 13.58
8087 9.1920 173.96 178.88 13.19
8088 9.1930 164.70 181.40 12.83
8089 9.1940 166.40 183.84 12.90
8090 9.1950 175.01 186.16 13.23
8091 9.1960 190.52 188.35 13.80
8092 9.1970 182.52 190.40 13.51
8093 9.1980 172.51 192.29 13.13
8094 9.1990 182.50 194.01 13.51
8095 9.2000 181.70 195.54 13.48
8096 9.2010 174.13 196.88 13.20
8097 9.2020 175.17 198.00 13.24
8098 9.2030 173.33 198.90 13.17
8099 9.2040 179.14 199.57 13.38
8100 9.2050 167.46 200.01 12.94
8101 9.2060 146.85 200.21 12.12
8102 9.2070 167.46 200.16 12.94
8103 9.2080 159.73 199.87 12.64
8104 9.2090 159.60 199.34 12.63
8105 9.2100 148.89 198.57 12.20
8106 9.2110 162.79 197.58 12.76
8107 9.2120 155.67 196.37 12.48
8108 9.2130 141.28 194.96 11.89
8109 9.2140 143.90 193.35 12.00
8110 9.2150 140.79 191.56 11.87
8111 9.2160 136.64 189.61 11.69
8112 9.2170 141.20 187.50 11.88
8113 9.2180 138.23 185.25 11.76
8114 9.2190 151.99 182.89 12.33
8115 9.2200 144.17 180.41 12.01
8116 9.2210 128.90 177.85 11.35
8117 9.2220 136.91 175.21 11.70
8118 9.2230 141.98 172.51 11.92
8119 9.2240 134.73 169.76 11.61
8120 9.2250 131.24 166.97 11.46
8121 9.2260 116.79 164.15 10.81
8122 9.2270 129.47 161.33 11.38
8123 9.2280 117.40 158.50 10.84
8124 9.2290 115.60 155.67 10.75
8125 9.2300 127.30 152.86 11.28
8126 9.2310 117.58 150.06 10.84
8127 9.2320 113.51 147.30 10.65
8128 9.2330 104.55 144.57 10.23
8129 9.2340 120.54 141.87 10.98
8130 9.2350 127.37 139.23 11.29
8131 9.2360 114.95 136.62 10.72
8132 9.2370 111.40 134.07 10.55
8133 9.2380 99.08 131.57 9.95
8134 9.2390 114.96 129.13 10.72
8135 9.2400 121.87 126.74 11.04
8136 9.2410 111.39 124.42 10.55
8137 9.2420 109.19 122.15 10.45
8138 9.2430 106.01 119.95 10.30
8139 9.2440 108.60 117.81 10.42
8140 9.2450 96.13 115.73 9.80
8141 9.2460 88.44 113.72 9.40
8142 9.2470 98.55 111.76 9.93
8143 9.2480 115.01 109.88 10.72
8144 9.2490 110.11 108.05 10.49
8145 9.2500 99.08 106.29 9.95
8146 9.2510 100.73 104.58 10.04
8147 9.2520 95.93 102.94 9.79
8148 9.2530 95.85 101.36 9.79
8149 9.2540 89.08 99.84 9.44
8150 9.2550 97.12 98.37 9.85
8151 9.2560 94.36 96.96 9.71
8152 9.2570 97.58 95.60 9.88
8153 9.2580 90.22 94.37 9.50
8154 9.2590 88.26 93.12 9.39
8155 9.2600 86.89 91.92 9.32
8156 9.2610 86.24 90.78 9.29
8157 9.2620 88.98 89.67 9.43
8158 9.2630 94.57 88.95 9.72
8159 9.2640 102.61 87.94 10.13
8160 9.2650 94.75 86.98 9.73
8161 9.2660 88.11 86.05 9.39
8162 9.2670 88.57 85.17 9.41
8163 9.2680 92.23 84.33 9.60
8164 9.2690 91.32 83.52 9.56
8165 9.2700 87.65 82.75 9.36
8166 9.2710 74.24 81.92 8.62
8167 9.2720 86.47 81.21 9.30
8168 9.2730 87.80 80.54 9.37
8169 9.2740 79.17 79.90 8.90
8170 9.2750 71.84 79.29 8.48
8171 9.2760 85.60 78.79 9.25
8172 9.2770 93.38 78.23 9.66
8173 9.2780 96.20 77.70 9.81
8174 9.2790 80.01 77.19 8.94
8175 9.2800 71.09 76.71 8.43
8176 9.2810 72.77 76.25 8.53
8177 9.2820 80.02 75.81 8.95
8178 9.2830 76.40 75.38 8.74
8179 9.2840 73.02 74.98 8.55
8180 9.2850 67.06 74.60 8.19
8181 9.2860 68.65 74.23 8.29
8182 9.2870 73.44 73.88 8.57
8183 9.2880 67.58 73.54 8.22
8184 9.2890 76.34 73.22 8.74
8185 9.2900 77.52 72.91 8.80
8186 9.2910 73.37 72.62 8.57
8187 9.2920 75.58 72.33 8.69
8188 9.2930 80.32 72.07 8.96
8189 9.2940 60.55 71.81 7.78
8190 9.2950 76.99 71.56 8.77
8191 9.2960 79.72 71.32 8.93
8192 9.2970 95.68 71.10 9.78
8193 9.2980 77.59 70.88 8.81
8194 9.2990 87.11 70.67 9.33
8195 9.3000 79.24 70.47 8.90
8196 9.3010 66.66 70.28 8.16
8197 9.3020 87.61 70.09 9.36
8198 9.3030 78.85 69.92 8.88
8199 9.3040 62.68 69.75 7.92
8200 9.3050 71.60 69.59 8.46
8201 9.3060 77.80 69.43 8.82
8202 9.3070 79.03 69.28 8.89
8203 9.3080 75.14 69.14 8.67
8204 9.3090 90.12 69.00 9.49
8205 9.3100 82.49 68.87 9.08
8206 9.3110 73.29 68.75 8.56
8207 9.3120 65.77 68.63 8.11
8208 9.3130 78.12 68.51 8.84
8209 9.3140 75.83 68.40 8.71
8210 9.3150 68.97 68.29 8.30
8211 9.3160 66.08 68.19 8.13
8212 9.3170 66.26 68.10 8.14
8213 9.3180 66.65 68.01 8.16
8214 9.3190 79.46 67.92 8.91
8215 9.3200 71.95 67.84 8.48
8216 9.3210 61.02 67.76 7.81
8217 9.3220 55.68 67.69 7.46
8218 9.3230 72.08 67.62 8.49
8219 9.3240 71.77 67.55 8.47
8220 9.3250 75.10 67.49 8.67
8221 9.3260 74.56 67.43 8.63
8222 9.3270 67.04 67.38 8.19
8223 9.3280 66.56 67.33 8.16
8224 9.3290 69.99 67.28 8.37
8225 9.3300 68.25 67.24 8.26
8226 9.3310 65.37 67.20 8.09
8227 9.3320 73.94 67.16 8.60
8228 9.3330 70.28 67.13 8.38
8229 9.3340 52.82 67.10 7.27
8230 9.3350 72.70 67.08 8.53
8231 9.3360 78.52 67.06 8.86
8232 9.3370 74.74 67.04 8.65
8233 9.3380 70.02 67.03 8.37
8234 9.3390 77.58 67.02 8.81
8235 9.3400 73.41 67.01 8.57
8236 9.3410 74.57 67.01 8.64
8237 9.3420 75.29 67.01 8.68
8238 9.3430 71.70 67.02 8.47
8239 9.3440 67.76 67.03 8.23
8240 9.3450 69.32 67.04 8.33
8241 9.3460 77.83 67.06 8.82
8242 9.3470 77.96 67.09 8.83
8243 9.3480 60.79 67.11 7.80
8244 9.3490 66.52 67.15 8.16
8245 9.3500 69.72 67.18 8.35
8246 9.3510 68.24 67.26 8.26
8247 9.3520 75.12 67.31 8.67
8248 9.3530 73.41 67.36 8.57
8249 9.3540 87.78 67.41 9.37
8250 9.3550 82.57 67.47 9.09
8251 9.3560 65.51 67.54 8.09
8252 9.3570 69.91 67.61 8.36
8253 9.3580 64.83 67.69 8.05
8254 9.3590 69.04 67.78 8.31
8255 9.3600 74.76 67.87 8.65
8256 9.3610 71.45 67.96 8.45
8257 9.3620 77.19 68.07 8.79
8258 9.3630 77.17 68.18 8.78
8259 9.3640 70.94 68.30 8.42
8260 9.3650 85.48 68.42 9.25
8261 9.3660 70.44 68.55 8.39
8262 9.3670 79.25 68.69 8.90
8263 9.3680 73.76 68.84 8.59
8264 9.3690 77.92 69.00 8.83
8265 9.3700 75.15 69.17 8.67
8266 9.3710 72.74 69.34 8.53
8267 9.3720 68.49 69.53 8.28
8268 9.3730 61.23 69.72 7.82
8269 9.3740 78.68 69.93 8.87
8270 9.3750 73.77 70.14 8.59
8271 9.3760 78.02 70.37 8.83
8272 9.3770 75.21 70.61 8.67
8273 9.3780 68.62 70.86 8.28
8274 9.3790 73.12 71.33 8.55
8275 9.3800 75.54 71.60 8.69
8276 9.3810 84.62 71.89 9.20
8277 9.3820 92.64 72.19 9.62
8278 9.3830 74.44 72.50 8.63
8279 9.3840 77.43 72.83 8.80
8280 9.3850 71.91 73.17 8.48
8281 9.3860 77.63 73.52 8.81
8282 9.3870 79.42 73.89 8.91
8283 9.3880 74.11 74.28 8.61
8284 9.3890 72.21 74.68 8.50
8285 9.3900 74.06 75.09 8.61
8286 9.3910 84.29 75.52 9.18
8287 9.3920 72.55 75.97 8.52
8288 9.3930 68.46 76.43 8.27
8289 9.3940 69.43 76.91 8.33
8290 9.3950 81.31 77.41 9.02
8291 9.3960 78.48 77.92 8.86
8292 9.3970 79.62 78.50 8.92
8293 9.3980 71.86 79.05 8.48
8294 9.3990 76.93 79.61 8.77
8295 9.4000 93.06 80.30 9.65
8296 9.4010 81.69 80.89 9.04
8297 9.4020 75.33 81.51 8.68
8298 9.4030 88.45 82.14 9.40
8299 9.4040 84.15 82.79 9.17
8300 9.4050 92.14 83.45 9.60
8301 9.4060 79.13 84.13 8.90
8302 9.4070 74.31 84.83 8.62
8303 9.4080 88.25 85.54 9.39
8304 9.4090 92.80 86.26 9.63
8305 9.4100 88.57 87.00 9.41
8306 9.4110 94.00 87.74 9.70
8307 9.4120 98.98 88.50 9.95
8308 9.4130 90.65 89.27 9.52
8309 9.4140 97.63 90.04 9.88
8310 9.4150 107.02 90.83 10.35
8311 9.4160 95.08 91.61 9.75
8312 9.4170 78.37 92.40 8.85
8313 9.4180 93.92 93.19 9.69
8314 9.4190 97.39 93.98 9.87
8315 9.4200 96.46 94.76 9.82
8316 9.4210 91.72 95.54 9.58
8317 9.4220 96.75 96.31 9.84
8318 9.4230 95.79 97.07 9.79
8319 9.4240 105.55 97.80 10.27
8320 9.4250 103.58 98.53 10.18
8321 9.4260 102.59 99.22 10.13
8322 9.4270 98.80 99.90 9.94
8323 9.4280 96.38 100.54 9.82
8324 9.4290 97.23 101.15 9.86
8325 9.4300 94.73 101.73 9.73
8326 9.4310 102.56 102.27 10.13
8327 9.4320 118.69 102.77 10.89
8328 9.4330 110.75 103.23 10.52
8329 9.4340 121.19 103.64 11.01
8330 9.4350 110.51 104.00 10.51
8331 9.4360 114.50 104.32 10.70
8332 9.4370 105.12 104.58 10.25
8333 9.4380 109.75 104.80 10.48
8334 9.4390 99.76 104.97 9.99
8335 9.4400 100.52 105.08 10.03
8336 9.4410 106.34 105.15 10.31
8337 9.4420 105.41 105.18 10.27
8338 9.4430 106.44 105.15 10.32
8339 9.4440 102.71 105.09 10.13
8340 9.4450 104.98 104.99 10.25
8341 9.4460 101.13 104.85 10.06
8342 9.4470 113.91 104.68 10.67
8343 9.4480 117.07 104.47 10.82
8344 9.4490 109.46 104.24 10.46
8345 9.4500 109.06 103.98 10.44
8346 9.4510 122.37 103.70 11.06
8347 9.4520 95.86 103.41 9.79
8348 9.4530 104.69 103.10 10.23
8349 9.4540 106.31 102.79 10.31
8350 9.4550 112.12 102.46 10.59
8351 9.4560 108.03 102.10 10.39
8352 9.4570 115.45 101.77 10.74
8353 9.4580 101.08 101.44 10.05
8354 9.4590 102.99 101.12 10.15
8355 9.4600 105.87 100.79 10.29
8356 9.4610 106.18 100.48 10.30
8357 9.4620 104.09 100.17 10.20
8358 9.4630 97.75 99.87 9.89
8359 9.4640 100.42 99.58 10.02
8360 9.4650 90.54 99.31 9.52
8361 9.4660 79.89 99.04 8.94
8362 9.4670 91.46 98.80 9.56
8363 9.4680 96.17 98.56 9.81
8364 9.4690 102.90 98.34 10.14
8365 9.4700 97.03 98.14 9.85
8366 9.4710 101.19 97.95 10.06
8367 9.4720 107.31 97.78 10.36
8368 9.4730 104.02 97.62 10.20
8369 9.4740 94.63 97.48 9.73
8370 9.4750 97.61 97.36 9.88
8371 9.4760 96.73 97.25 9.84
8372 9.4770 103.35 97.16 10.17
8373 9.4780 98.29 97.08 9.91
8374 9.4790 99.79 97.02 9.99
8375 9.4800 96.21 96.98 9.81
8376 9.4810 97.52 96.96 9.88
8377 9.4820 103.99 96.95 10.20
8378 9.4830 110.17 96.96 10.50
8379 9.4840 105.96 97.17 10.29
8380 9.4850 104.92 97.22 10.24
8381 9.4860 108.73 97.30 10.43
8382 9.4870 98.80 97.40 9.94
8383 9.4880 104.42 97.52 10.22
8384 9.4890 89.54 97.66 9.46
8385 9.4900 82.53 97.83 9.08
8386 9.4910 100.15 98.03 10.01
8387 9.4920 93.98 98.25 9.69
8388 9.4930 94.50 98.51 9.72
8389 9.4940 92.38 98.80 9.61
8390 9.4950 108.32 99.12 10.41
8391 9.4960 100.55 99.47 10.03
8392 9.4970 96.72 99.86 9.83
8393 9.4980 109.51 100.29 10.46
8394 9.4990 124.15 100.75 11.14
8395 9.5000 108.92 101.26 10.44
8396 9.5010 106.47 101.80 10.32
8397 9.5020 106.88 102.39 10.34
8398 9.5030 104.10 103.03 10.20
8399 9.5040 107.26 103.70 10.36
8400 9.5050 111.83 104.43 10.57
8401 9.5060 111.74 105.20 10.57
8402 9.5070 99.43 106.02 9.97
8403 9.5080 123.88 106.89 11.13
8404 9.5090 124.55 107.81 11.16
8405 9.5100 116.98 108.78 10.82
8406 9.5110 115.73 109.81 10.76
8407 9.5120 123.78 110.88 11.13
8408 9.5130 110.18 112.01 10.50
8409 9.5140 98.50 113.20 9.92
8410 9.5150 111.15 114.44 10.54
8411 9.5160 118.73 115.73 10.90
8412 9.5170 130.16 117.08 11.41
8413 9.5180 114.05 118.48 10.68
8414 9.5190 123.29 119.94 11.10
8415 9.5200 115.29 121.46 10.74
8416 9.5210 120.20 123.03 10.96
8417 9.5220 121.72 124.65 11.03
8418 9.5230 130.90 126.33 11.44
8419 9.5240 131.73 128.07 11.48
8420 9.5250 129.37 129.85 11.37
8421 9.5260 142.08 131.69 11.92
8422 9.5270 143.48 133.58 11.98
8423 9.5280 148.01 135.52 12.17
8424 9.5290 149.68 137.50 12.23
8425 9.5300 160.54 139.53 12.67
8426 9.5310 186.92 141.60 13.67
8427 9.5320 162.14 143.71 12.73
8428 9.5330 174.91 145.85 13.23
8429 9.5340 189.35 148.03 13.76
8430 9.5350 169.87 150.25 13.03
8431 9.5360 182.34 152.48 13.50
8432 9.5370 180.30 154.72 13.43
8433 9.5380 205.74 156.99 14.34
8434 9.5390 207.65 159.26 14.41
8435 9.5400 184.90 161.86 13.60
8436 9.5410 203.45 164.13 14.26
8437 9.5420 213.28 166.38 14.60
8438 9.5430 217.51 168.61 14.75
8439 9.5440 238.16 170.81 15.43
8440 9.5450 218.68 172.97 14.79
8441 9.5460 216.02 175.09 14.70
8442 9.5470 229.08 177.14 15.14
8443 9.5480 233.29 179.14 15.27
8444 9.5490 234.39 181.06 15.31
8445 9.5500 256.43 182.90 16.01
8446 9.5510 265.17 184.64 16.28
8447 9.5520 289.16 186.29 17.00
8448 9.5530 302.85 187.83 17.40
8449 9.5540 282.84 189.26 16.82
8450 9.5550 286.85 190.57 16.94
8451 9.5560 291.38 191.76 17.07
8452 9.5570 297.86 192.82 17.26
8453 9.5580 343.23 193.75 18.53
8454 9.5590 346.40 194.55 18.61
8455 9.5600 358.48 195.23 18.93
8456 9.5610 367.25 195.77 19.16
8457 9.5620 375.81 196.20 19.39
8458 9.5630 384.31 196.50 19.60
8459 9.5640 361.88 196.70 19.02
8460 9.5650 361.73 196.78 19.02
8461 9.5660 335.20 196.77 18.31
8462 9.5670 322.45 196.67 17.96
8463 9.5680 308.44 196.49 17.56
8464 9.5690 281.57 196.28 16.78
8465 9.5700 266.79 195.96 16.33
8466 9.5710 255.67 195.60 15.99
8467 9.5720 230.38 195.19 15.18
8468 9.5730 237.48 194.76 15.41
8469 9.5740 219.62 194.29 14.82
8470 9.5750 202.68 193.82 14.24
8471 9.5760 175.84 193.35 13.26
8472 9.5770 200.28 192.88 14.15
8473 9.5780 181.75 192.43 13.48
8474 9.5790 202.91 191.99 14.24
8475 9.5800 184.53 191.59 13.58
8476 9.5810 162.76 191.21 12.76
8477 9.5820 153.20 190.88 12.38
8478 9.5830 163.33 190.59 12.78
8479 9.5840 136.83 190.34 11.70
8480 9.5850 148.57 190.15 12.19
8481 9.5860 171.59 190.00 13.10
8482 9.5870 172.05 189.91 13.12
8483 9.5880 159.11 189.88 12.61
8484 9.5890 169.58 189.90 13.02
8485 9.5900 155.52 189.99 12.47
8486 9.5910 136.03 190.13 11.66
8487 9.5920 145.17 190.32 12.05
8488 9.5930 132.23 190.58 11.50
8489 9.5940 131.66 190.89 11.47
8490 9.5950 156.42 191.26 12.51
8491 9.5960 151.67 191.67 12.32
8492 9.5970 150.90 192.15 12.28
8493 9.5980 152.33 192.67 12.34
8494 9.5990 138.36 193.25 11.76
8495 9.6000 162.08 193.87 12.73
8496 9.6010 151.56 194.54 12.31
8497 9.6020 154.51 195.25 12.43
8498 9.6030 146.66 196.01 12.11
8499 9.6040 158.53 196.90 12.59
8500 9.6050 143.63 197.76 11.98
8501 9.6060 156.05 198.65 12.49
8502 9.6070 153.38 199.60 12.38
8503 9.6080 145.87 200.58 12.08
8504 9.6090 136.41 201.62 11.68
8505 9.6100 148.44 202.70 12.18
8506 9.6110 158.85 203.82 12.60
8507 9.6120 158.92 204.99 12.61
8508 9.6130 176.59 206.21 13.29
8509 9.6140 162.63 207.47 12.75
8510 9.6150 173.17 208.77 13.16
8511 9.6160 183.01 210.11 13.53
8512 9.6170 168.36 211.50 12.98
8513 9.6180 179.59 212.92 13.40
8514 9.6190 189.54 214.37 13.77
8515 9.6200 185.37 215.86 13.62
8516 9.6210 190.28 217.37 13.79
8517 9.6220 196.21 218.90 14.01
8518 9.6230 211.93 220.45 14.56
8519 9.6240 242.24 222.01 15.56
8520 9.6250 222.36 223.56 14.91
8521 9.6260 234.69 225.10 15.32
8522 9.6270 245.42 226.63 15.67
8523 9.6280 232.29 228.13 15.24
8524 9.6290 247.52 229.59 15.73
8525 9.6300 225.17 231.00 15.01
8526 9.6310 236.66 232.49 15.38
8527 9.6320 244.31 233.77 15.63
8528 9.6330 244.60 234.97 15.64
8529 9.6340 235.51 236.07 15.35
8530 9.6350 235.38 237.07 15.34
8531 9.6360 242.12 237.95 15.56
8532 9.6370 252.37 238.71 15.89
8533 9.6380 250.26 239.33 15.82
8534 9.6390 231.41 239.81 15.21
8535 9.6400 225.90 240.13 15.03
8536 9.6410 201.04 240.31 14.18
8537 9.6420 205.06 240.32 14.32
8538 9.6430 207.21 240.17 14.39
8539 9.6440 220.36 239.85 14.84
8540 9.6450 212.98 239.37 14.59
8541 9.6460 202.42 238.74 14.23
8542 9.6470 204.73 237.94 14.31
8543 9.6480 202.27 236.99 14.22
8544 9.6490 183.57 235.90 13.55
8545 9.6500 181.78 234.67 13.48
8546 9.6510 189.77 233.31 13.78
8547 9.6520 186.36 231.83 13.65
8548 9.6530 194.21 230.24 13.94
8549 9.6540 168.71 228.55 12.99
8550 9.6550 165.18 226.78 12.85
8551 9.6560 161.16 224.93 12.69
8552 9.6570 170.06 223.01 13.04
8553 9.6580 186.62 221.05 13.66
8554 9.6590 166.01 219.04 12.88
8555 9.6600 164.91 217.01 12.84
8556 9.6610 166.93 214.95 12.92
8557 9.6620 160.84 212.88 12.68
8558 9.6630 165.38 210.81 12.86
8559 9.6640 147.82 208.75 12.16
8560 9.6650 154.18 206.71 12.42
8561 9.6660 167.31 204.69 12.93
8562 9.6670 172.66 202.70 13.14
8563 9.6680 158.94 200.75 12.61
8564 9.6690 154.26 198.85 12.42
8565 9.6700 149.31 196.99 12.22
8566 9.6710 143.59 195.19 11.98
8567 9.6720 152.55 193.44 12.35
8568 9.6730 145.09 191.76 12.05
8569 9.6740 153.04 190.14 12.37
8570 9.6750 159.56 188.59 12.63
8571 9.6760 147.37 187.10 12.14
8572 9.6770 143.04 185.69 11.96
8573 9.6780 167.87 184.35 12.96
8574 9.6790 163.38 183.09 12.78
8575 9.6800 154.05 181.90 12.41
8576 9.6810 153.10 180.78 12.37
8577 9.6820 155.82 179.74 12.48
8578 9.6830 134.14 178.77 11.58
8579 9.6840 138.68 177.87 11.78
8580 9.6850 143.99 177.05 12.00
8581 9.6860 148.45 176.29 12.18
8582 9.6870 149.27 175.61 12.22
8583 9.6880 151.47 174.99 12.31
8584 9.6890 166.46 174.43 12.90
8585 9.6900 158.18 173.94 12.58
8586 9.6910 150.36 173.50 12.26
8587 9.6920 150.50 173.12 12.27
8588 9.6930 177.01 172.80 13.30
8589 9.6940 159.34 172.52 12.62
8590 9.6950 148.71 172.29 12.19
8591 9.6960 168.41 172.10 12.98
8592 9.6970 169.13 171.96 13.01
8593 9.6980 178.67 171.85 13.37
8594 9.6990 177.53 171.78 13.32
8595 9.7000 200.41 171.74 14.16
8596 9.7010 180.50 171.72 13.44
8597 9.7020 190.08 171.73 13.79
8598 9.7030 201.49 171.77 14.19
8599 9.7040 200.88 171.83 14.17
8600 9.7050 196.35 171.90 14.01
8601 9.7060 181.35 171.98 13.47
8602 9.7070 198.85 172.08 14.10
8603 9.7080 214.98 172.18 14.66
8604 9.7090 230.46 172.30 15.18
8605 9.7100 221.24 172.41 14.87
8606 9.7110 220.44 172.53 14.85
8607 9.7120 214.56 172.65 14.65
8608 9.7130 223.26 172.76 14.94
8609 9.7140 227.35 172.87 15.08
8610 9.7150 225.01 172.97 15.00
8611 9.7160 231.91 173.05 15.23
8612 9.7170 222.20 173.13 14.91
8613 9.7180 218.12 173.18 14.77
8614 9.7190 241.34 173.22 15.54
8615 9.7200 235.24 173.23 15.34
8616 9.7210 215.63 173.21 14.68
8617 9.7220 220.85 173.17 14.86
8618 9.7230 221.31 173.09 14.88
8619 9.7240 231.84 172.97 15.23
8620 9.7250 232.02 172.82 15.23
8621 9.7260 214.39 172.62 14.64
8622 9.7270 215.58 172.38 14.68
8623 9.7280 201.63 172.09 14.20
8624 9.7290 209.93 171.43 14.49
8625 9.7300 190.62 170.97 13.81
8626 9.7310 194.22 170.52 13.94
8627 9.7320 209.54 170.02 14.48
8628 9.7330 206.15 169.47 14.36
8629 9.7340 191.08 168.86 13.82
8630 9.7350 177.52 168.19 13.32
8631 9.7360 172.16 167.47 13.12
8632 9.7370 185.53 166.69 13.62
8633 9.7380 175.21 165.87 13.24
8634 9.7390 162.57 164.98 12.75
8635 9.7400 164.37 164.06 12.82
8636 9.7410 152.78 163.09 12.36
8637 9.7420 167.18 162.08 12.93
8638 9.7430 166.38 161.04 12.90
8639 9.7440 157.60 159.96 12.55
8640 9.7450 152.76 158.86 12.36
8641 9.7460 144.53 157.74 12.02
8642 9.7470 151.48 156.60 12.31
8643 9.7480 142.92 155.44 11.95
8644 9.7490 144.98 154.28 12.04
8645 9.7500 149.34 153.12 12.22
8646 9.7510 141.69 151.97 11.90
8647 9.7520 151.26 150.82 12.30
8648 9.7530 149.63 149.69 12.23
8649 9.7540 139.65 148.58 11.82
8650 9.7550 130.54 147.49 11.43
8651 9.7560 125.52 146.44 11.20
8652 9.7570 122.27 145.41 11.06
8653 9.7580 125.74 144.42 11.21
8654 9.7590 128.83 143.48 11.35
8655 9.7600 106.05 142.58 10.30
8656 9.7610 128.81 141.72 11.35
8657 9.7620 119.00 140.92 10.91
8658 9.7630 137.79 140.17 11.74
8659 9.7640 123.19 139.48 11.10
8660 9.7650 110.12 138.85 10.49
8661 9.7660 128.91 138.29 11.35
8662 9.7670 127.01 137.79 11.27
8663 9.7680 127.70 137.35 11.30
8664 9.7690 126.71 136.99 11.26
8665 9.7700 122.81 136.70 11.08
8666 9.7710 119.39 136.48 10.93
8667 9.7720 131.08 136.34 11.45
8668 9.7730 125.74 136.27 11.21
8669 9.7740 122.52 136.29 11.07
8670 9.7750 139.61 136.38 11.82
8671 9.7760 120.64 136.56 10.98
8672 9.7770 121.97 136.81 11.04
8673 9.7780 107.91 137.20 10.39
8674 9.7790 117.37 137.62 10.83
8675 9.7800 123.74 138.14 11.12
8676 9.7810 122.10 138.74 11.05
8677 9.7820 131.56 139.42 11.47
8678 9.7830 123.95 140.20 11.13
8679 9.7840 131.46 141.06 11.47
8680 9.7850 136.08 142.01 11.67
8681 9.7860 149.96 143.06 12.25
8682 9.7870 132.78 144.19 11.52
8683 9.7880 127.76 145.42 11.30
8684 9.7890 144.16 146.73 12.01
8685 9.7900 153.02 148.14 12.37
8686 9.7910 149.54 149.63 12.23
8687 9.7920 143.20 151.22 11.97
8688 9.7930 142.29 152.89 11.93
8689 9.7940 143.81 154.66 11.99
8690 9.7950 137.24 156.51 11.71
8691 9.7960 142.61 158.45 11.94
8692 9.7970 162.50 160.47 12.75
8693 9.7980 147.44 162.58 12.14
8694 9.7990 143.96 164.77 12.00
8695 9.8000 163.69 167.04 12.79
8696 9.8010 156.80 169.39 12.52
8697 9.8020 161.41 171.82 12.70
8698 9.8030 166.94 174.32 12.92
8699 9.8040 166.01 176.88 12.88
8700 9.8050 167.54 179.52 12.94
8701 9.8060 172.67 182.21 13.14
8702 9.8070 187.05 184.96 13.68
8703 9.8080 183.80 187.76 13.56
8704 9.8090 189.84 190.61 13.78
8705 9.8100 208.38 193.49 14.44
8706 9.8110 210.11 196.41 14.50
8707 9.8120 207.41 199.36 14.40
8708 9.8130 217.97 202.32 14.76
8709 9.8140 224.03 205.29 14.97
8710 9.8150 205.76 208.27 14.34
8711 9.8160 175.95 211.23 13.26
8712 9.8170 203.33 214.18 14.26
8713 9.8180 217.67 217.08 14.75
8714 9.8190 240.92 219.95 15.52
8715 9.8200 246.45 222.75 15.70
8716 9.8210 236.30 225.49 15.37
8717 9.8220 233.99 228.15 15.30
8718 9.8230 261.40 230.71 16.17
8719 9.8240 264.44 233.17 16.26
8720 9.8250 236.07 235.51 15.36
8721 9.8260 257.41 237.71 16.04
8722 9.8270 256.81 239.77 16.03
8723 9.8280 260.49 241.67 16.14
8724 9.8290 291.43 243.40 17.07
8725 9.8300 275.61 244.96 16.60
8726 9.8310 268.94 246.32 16.40
8727 9.8320 271.18 247.48 16.47
8728 9.8330 268.95 248.44 16.40
8729 9.8340 282.00 249.19 16.79
8730 9.8350 278.60 249.72 16.69
8731 9.8360 256.48 250.04 16.01
8732 9.8370 238.92 250.13 15.46
8733 9.8380 249.64 250.01 15.80
8734 9.8390 270.14 249.66 16.44
8735 9.8400 261.06 249.10 16.16
8736 9.8410 237.18 248.34 15.40
8737 9.8420 253.46 247.36 15.92
8738 9.8430 274.49 246.19 16.57
8739 9.8440 233.00 244.83 15.26
8740 9.8450 233.12 243.29 15.27
8741 9.8460 207.74 241.61 14.41
8742 9.8470 209.31 239.73 14.47
8743 9.8480 222.49 237.71 14.92
8744 9.8490 207.28 235.55 14.40
8745 9.8500 216.93 233.26 14.73
8746 9.8510 218.60 230.85 14.79
8747 9.8520 193.65 228.34 13.92
8748 9.8530 187.53 225.74 13.69
8749 9.8540 198.45 223.05 14.09
8750 9.8550 186.00 220.29 13.64
8751 9.8560 195.05 217.48 13.97
8752 9.8570 185.04 214.62 13.60
8753 9.8580 183.63 211.72 13.55
8754 9.8590 199.18 208.80 14.11
8755 9.8600 181.75 205.85 13.48
8756 9.8610 175.24 202.90 13.24
8757 9.8620 186.21 199.95 13.65
8758 9.8630 152.80 197.00 12.36
8759 9.8640 146.59 194.07 12.11
8760 9.8650 154.68 191.17 12.44
8761 9.8660 156.29 188.29 12.50
8762 9.8670 149.05 185.45 12.21
8763 9.8680 143.78 182.65 11.99
8764 9.8690 149.23 179.90 12.22
8765 9.8700 143.66 177.20 11.99
8766 9.8710 151.55 174.55 12.31
8767 9.8720 154.49 171.97 12.43
8768 9.8730 156.72 169.45 12.52
8769 9.8740 148.19 166.99 12.17
8770 9.8750 126.28 164.61 11.24
8771 9.8760 121.69 162.30 11.03
8772 9.8770 143.27 160.07 11.97
8773 9.8780 141.46 157.91 11.89
8774 9.8790 137.25 155.84 11.72
8775 9.8800 125.85 153.84 11.22
8776 9.8810 125.43 151.93 11.20
8777 9.8820 144.20 150.09 12.01
8778 9.8830 142.91 148.34 11.95
8779 9.8840 130.13 146.68 11.41
8780 9.8850 130.26 145.09 11.41
8781 9.8860 144.14 143.60 12.01
8782 9.8870 134.95 142.19 11.62
8783 9.8880 135.24 140.87 11.63
8784 9.8890 148.07 139.63 12.17
8785 9.8900 154.36 138.48 12.42
8786 9.8910 134.41 137.41 11.59
8787 9.8920 134.01 136.43 11.58
8788 9.8930 130.51 135.68 11.42
8789 9.8940 135.31 134.87 11.63
8790 9.8950 135.42 134.14 11.64
8791 9.8960 137.01 133.50 11.71
8792 9.8970 142.30 132.94 11.93
8793 9.8980 129.10 132.47 11.36
8794 9.8990 131.15 132.08 11.45
8795 9.9000 133.52 131.77 11.56
8796 9.9010 127.89 131.54 11.31
8797 9.9020 118.75 131.39 10.90
8798 9.9030 141.94 131.32 11.91
8799 9.9040 142.16 131.33 11.92
8800 9.9050 131.12 131.42 11.45
8801 9.9060 123.04 131.58 11.09
8802 9.9070 116.76 131.82 10.81
8803 9.9080 116.77 132.14 10.81
8804 9.9090 128.69 132.52 11.34
8805 9.9100 137.57 132.98 11.73
8806 9.9110 136.90 133.51 11.70
8807 9.9120 137.69 134.12 11.73
8808 9.9130 131.78 134.78 11.48
8809 9.9140 128.91 135.52 11.35
8810 9.9150 143.48 136.32 11.98
8811 9.9160 135.87 137.19 11.66
8812 9.9170 132.92 138.11 11.53
8813 9.9180 140.25 139.10 11.84
8814 9.9190 143.23 140.15 11.97
8815 9.9200 147.60 141.25 12.15
8816 9.9210 132.12 142.41 11.49
8817 9.9220 127.43 143.63 11.29
8818 9.9230 125.58 144.89 11.21
8819 9.9240 140.27 146.21 11.84
8820 9.9250 130.30 147.66 11.41
8821 9.9260 140.43 149.07 11.85
8822 9.9270 144.46 150.52 12.02
8823 9.9280 161.32 152.02 12.70
8824 9.9290 163.86 153.55 12.80
8825 9.9300 146.06 155.12 12.09
8826 9.9310 141.67 156.72 11.90
8827 9.9320 172.31 158.36 13.13
8828 9.9330 174.30 160.02 13.20
8829 9.9340 159.61 161.72 12.63
8830 9.9350 146.42 163.44 12.10
8831 9.9360 155.19 165.18 12.46
8832 9.9370 162.19 166.94 12.74
8833 9.9380 153.29 168.72 12.38
8834 9.9390 149.04 170.51 12.21
8835 9.9400 149.19 172.32 12.21
8836 9.9410 148.76 174.12 12.20
8837 9.9420 162.89 175.94 12.76
8838 9.9430 176.76 177.75 13.30
8839 9.9440 167.59 179.55 12.95
8840 9.9450 147.40 181.35 12.14
8841 9.9460 156.92 183.17 12.53
8842 9.9470 155.70 184.93 12.48
8843 9.9480 172.77 186.66 13.14
8844 9.9490 167.33 188.36 12.94
8845 9.9500 172.11 190.01 13.12
8846 9.9510 169.06 191.63 13.00
8847 9.9520 165.21 193.19 12.85
8848 9.9530 180.64 194.69 13.44
8849 9.9540 204.45 196.13 14.30
8850 9.9550 184.99 197.50 13.60
8851 9.9560 190.70 198.80 13.81
8852 9.9570 197.83 200.02 14.07
8853 9.9580 198.37 201.15 14.08
8854 9.9590 202.28 202.19 14.22
8855 9.9600 208.65 203.14 14.44
8856 9.9610 214.22 203.99 14.64
8857 9.9620 206.93 204.74 14.39
8858 9.9630 233.96 205.38 15.30
8859 9.9640 249.20 205.93 15.79
8860 9.9650 235.73 206.36 15.35
8861 9.9660 239.16 206.69 15.46
8862 9.9670 232.49 206.91 15.25
8863 9.9680 253.88 207.03 15.93
8864 9.9690 255.18 207.04 15.97
8865 9.9700 232.46 206.95 15.25
8866 9.9710 232.65 206.75 15.25
8867 9.9720 234.71 206.44 15.32
8868 9.9730 254.45 206.09 15.95
8869 9.9740 239.91 205.59 15.49
8870 9.9750 244.98 204.99 15.65
8871 9.9760 250.63 204.30 15.83
8872 9.9770 228.23 203.45 15.11
8873 9.9780 222.55 202.58 14.92
8874 9.9790 251.79 201.62 15.87
8875 9.9800 229.10 200.57 15.14
8876 9.9810 246.46 199.41 15.70
8877 9.9820 262.81 198.21 16.21
8878 9.9830 227.92 196.93 15.10
8879 9.9840 233.42 195.58 15.28
8880 9.9850 210.63 194.17 14.51
8881 9.9860 217.16 192.69 14.74
8882 9.9870 212.08 191.16 14.56
8883 9.9880 211.33 189.58 14.54
8884 9.9890 217.26 187.95 14.74
8885 9.9900 205.43 186.27 14.33
8886 9.9910 200.59 184.56 14.16
8887 9.9920 208.74 182.83 14.45
8888 9.9930 169.20 181.06 13.01
8889 9.9940 161.19 179.28 12.70
8890 9.9950 161.47 177.48 12.71
8891 9.9960 156.97 175.68 12.53
8892 9.9970 151.09 173.87 12.29
8893 9.9980 157.55 172.07 12.55
8894 9.9990 167.63 170.28 12.95
8895 10.0000 167.90 168.50 12.96
8896 10.0010 147.37 166.74 12.14
8897 10.0020 152.37 165.00 12.34
8898 10.0030 128.50 163.29 11.34
8899 10.0040 157.79 161.61 12.56
8900 10.0050 152.25 159.97 12.34
8901 10.0060 140.21 158.37 11.84
8902 10.0070 134.28 156.81 11.59
8903 10.0080 115.58 155.30 10.75
8904 10.0090 129.89 153.84 11.40
8905 10.0100 134.45 152.43 11.60
8906 10.0110 142.04 151.07 11.92
8907 10.0120 124.99 149.77 11.18
8908 10.0130 126.35 148.52 11.24
8909 10.0140 134.78 147.33 11.61
8910 10.0150 129.71 146.21 11.39
8911 10.0160 144.21 145.14 12.01
8912 10.0170 132.51 144.14 11.51
8913 10.0180 128.99 143.20 11.36
8914 10.0190 124.03 142.32 11.14
8915 10.0200 130.32 141.51 11.42
8916 10.0210 133.46 140.76 11.55
8917 10.0220 126.08 140.08 11.23
8918 10.0230 115.67 139.46 10.76
8919 10.0240 123.39 138.90 11.11
8920 10.0250 113.36 138.39 10.65
8921 10.0260 124.96 137.96 11.18
8922 10.0270 118.74 137.59 10.90
8923 10.0280 112.54 137.29 10.61
8924 10.0290 122.37 137.05 11.06
8925 10.0300 133.64 136.88 11.56
8926 10.0310 129.86 136.76 11.40
8927 10.0320 123.98 136.70 11.13
8928 10.0330 112.09 136.70 10.59
8929 10.0340 114.37 136.77 10.69
8930 10.0350 115.20 136.89 10.73
8931 10.0360 143.67 137.07 11.99
8932 10.0370 127.94 137.31 11.31
8933 10.0380 149.62 137.60 12.23
8934 10.0390 137.49 137.95 11.73
8935 10.0400 135.35 138.36 11.63
8936 10.0410 134.05 138.82 11.58
8937 10.0420 139.19 139.32 11.80
8938 10.0430 134.78 139.88 11.61
8939 10.0440 134.84 140.49 11.61
8940 10.0450 152.78 141.15 12.36
8941 10.0460 153.96 141.86 12.41
8942 10.0470 137.35 142.61 11.72
8943 10.0480 139.82 143.40 11.82
8944 10.0490 142.13 144.24 11.92
8945 10.0500 154.53 145.12 12.43
8946 10.0510 151.65 146.03 12.31
8947 10.0520 144.04 146.98 12.00
8948 10.0530 152.40 147.97 12.35
8949 10.0540 141.31 148.98 11.89
8950 10.0550 130.92 150.02 11.44
8951 10.0560 142.90 151.08 11.95
8952 10.0570 148.83 152.17 12.20
8953 10.0580 165.40 153.27 12.86
8954 10.0590 153.64 154.39 12.40
8955 10.0600 147.64 155.51 12.15
8956 10.0610 145.90 156.65 12.08
8957 10.0620 143.88 157.78 11.99
8958 10.0630 140.25 158.91 11.84
8959 10.0640 145.34 160.04 12.06
8960 10.0650 131.20 161.15 11.45
8961 10.0660 157.03 162.26 12.53
8962 10.0670 147.36 163.34 12.14
8963 10.0680 137.88 164.40 11.74
8964 10.0690 147.06 165.43 12.13
8965 10.0700 148.58 166.43 12.19
8966 10.0710 141.34 167.40 11.89
8967 10.0720 134.90 168.34 11.61
8968 10.0730 141.26 169.24 11.89
8969 10.0740 132.52 170.10 11.51
8970 10.0750 155.28 170.92 12.46
8971 10.0760 150.03 171.70 12.25
8972 10.0770 141.54 172.45 11.90
8973 10.0780 138.53 173.15 11.77
8974 10.0790 126.05 173.82 11.23
8975 10.0800 141.66 174.49 11.90
8976 10.0810 131.39 175.09 11.46
8977 10.0820 132.98 175.66 11.53
8978 10.0830 129.05 176.21 11.36
8979 10.0840 157.02 176.75 12.53
8980 10.0850 166.92 177.26 12.92
8981 10.0860 151.06 177.76 12.29
8982 10.0870 152.94 178.26 12.37
8983 10.0880 161.09 178.76 12.69
8984 10.0890 143.96 179.26 12.00
8985 10.0900 152.39 179.76 12.34
8986 10.0910 146.70 180.29 12.11
8987 10.0920 147.86 180.82 12.16
8988 10.0930 162.91 181.39 12.76
8989 10.0940 173.54 181.98 13.17
8990 10.0950 169.32 182.60 13.01
8991 10.0960 170.17 183.26 13.04
8992 10.0970 164.31 183.95 12.82
8993 10.0980 159.94 184.69 12.65
8994 10.0990 161.54 185.47 12.71
8995 10.1000 167.83 186.29 12.95
8996 10.1010 169.64 187.16 13.02
8997 10.1020 158.71 188.09 12.60
8998 10.1030 160.24 189.06 12.66
8999 10.1040 181.96 190.08 13.49
9000 10.1050 196.64 191.16 14.02
9001 10.1060 188.87 192.28 13.74
9002 10.1070 181.14 193.45 13.46
9003 10.1080 212.57 194.68 14.58
9004 10.1090 200.59 195.67 14.16
9005 10.1100 203.87 196.97 14.28
9006 10.1110 190.57 198.32 13.80
9007 10.1120 222.72 199.70 14.92
9008 10.1130 213.90 201.11 14.63
9009 10.1140 213.24 202.53 14.60
9010 10.1150 230.10 203.99 15.17
9011 10.1160 223.37 205.46 14.95
9012 10.1170 244.53 206.94 15.64
9013 10.1180 231.49 208.42 15.21
9014 10.1190 248.93 209.89 15.78
9015 10.1200 267.99 211.35 16.37
9016 10.1210 251.16 212.79 15.85
9017 10.1220 258.12 214.19 16.07
9018 10.1230 260.50 215.55 16.14
9019 10.1240 276.87 216.87 16.64
9020 10.1250 274.50 218.12 16.57
9021 10.1260 276.65 219.31 16.63
9022 10.1270 265.71 220.42 16.30
9023 10.1280 275.87 221.44 16.61
9024 10.1290 282.79 222.37 16.82
9025 10.1300 265.78 223.20 16.30
9026 10.1310 273.84 223.92 16.55
9027 10.1320 272.36 224.52 16.50
9028 10.1330 272.87 225.00 16.52
9029 10.1340 286.94 225.35 16.94
9030 10.1350 298.45 225.57 17.28
9031 10.1360 284.23 225.66 16.86
9032 10.1370 291.83 225.61 17.08
9033 10.1380 291.18 225.43 17.06
9034 10.1390 299.25 225.12 17.30
9035 10.1400 273.77 224.66 16.55
9036 10.1410 262.81 224.09 16.21
9037 10.1420 297.73 223.38 17.25
9038 10.1430 273.04 222.59 16.52
9039 10.1440 270.82 221.65 16.46
9040 10.1450 243.77 220.60 15.61
9041 10.1460 282.36 219.45 16.80
9042 10.1470 273.70 218.20 16.54
9043 10.1480 258.13 216.87 16.07
9044 10.1490 254.73 215.47 15.96
9045 10.1500 236.73 213.99 15.39
9046 10.1510 233.17 212.45 15.27
9047 10.1520 231.69 210.86 15.22
9048 10.1530 239.23 209.23 15.47
9049 10.1540 226.90 207.55 15.06
9050 10.1550 222.20 205.85 14.91
9051 10.1560 213.98 204.12 14.63
9052 10.1570 216.88 202.28 14.73
9053 10.1580 208.51 200.53 14.44
9054 10.1590 210.56 198.77 14.51
9055 10.1600 186.07 197.02 13.64
9056 10.1610 182.45 195.27 13.51
9057 10.1620 194.56 193.53 13.95
9058 10.1630 187.66 191.80 13.70
9059 10.1640 183.84 190.10 13.56
9060 10.1650 188.48 188.42 13.73
9061 10.1660 175.29 186.76 13.24
9062 10.1670 175.89 185.13 13.26
9063 10.1680 185.28 183.54 13.61
9064 10.1690 181.16 181.97 13.46
9065 10.1700 172.29 180.45 13.13
9066 10.1710 191.69 178.96 13.85
9067 10.1720 183.41 177.52 13.54
9068 10.1730 176.30 176.11 13.28
9069 10.1740 163.42 174.76 12.78
9070 10.1750 155.31 173.44 12.46
9071 10.1760 166.54 172.18 12.90
9072 10.1770 169.29 170.96 13.01
9073 10.1780 162.49 169.80 12.75
9074 10.1790 162.85 168.68 12.76
9075 10.1800 162.58 167.62 12.75
9076 10.1810 160.38 166.61 12.66
9077 10.1820 153.07 165.66 12.37
9078 10.1830 153.45 164.75 12.39
9079 10.1840 155.42 163.90 12.47
9080 10.1850 156.08 163.10 12.49
9081 10.1860 160.30 162.35 12.66
9082 10.1870 147.82 161.65 12.16
9083 10.1880 143.58 161.00 11.98
9084 10.1890 148.29 160.40 12.18
9085 10.1900 139.36 159.84 11.81
9086 10.1910 164.77 159.34 12.84
9087 10.1920 161.58 158.87 12.71
9088 10.1930 150.51 158.44 12.27
9089 10.1940 144.31 158.05 12.01
9090 10.1950 150.63 157.70 12.27
9091 10.1960 155.03 157.38 12.45
9092 10.1970 155.76 157.10 12.48
9093 10.1980 142.22 156.84 11.93
9094 10.1990 145.83 156.60 12.08
9095 10.2000 160.67 156.04 12.68
9096 10.2010 165.74 155.85 12.87
9097 10.2020 162.61 155.68 12.75
9098 10.2030 174.47 155.51 13.21
9099 10.2040 164.43 155.36 12.82
9100 10.2050 140.49 155.22 11.85
9101 10.2060 145.95 155.09 12.08
9102 10.2070 192.39 154.96 13.87
9103 10.2080 178.35 154.83 13.35
9104 10.2090 180.81 154.70 13.45
9105 10.2100 164.59 154.57 12.83
9106 10.2110 148.87 154.43 12.20
9107 10.2120 160.65 154.26 12.67
9108 10.2130 165.77 154.11 12.88
9109 10.2140 164.14 153.96 12.81
9110 10.2150 168.33 153.79 12.97
9111 10.2160 168.43 153.62 12.98
9112 10.2170 180.83 153.43 13.45
9113 10.2180 180.08 153.22 13.42
9114 10.2190 195.18 153.00 13.97
9115 10.2200 204.02 152.76 14.28
9116 10.2210 180.34 152.50 13.43
9117 10.2220 176.40 152.22 13.28
9118 10.2230 187.87 151.91 13.71
9119 10.2240 172.79 151.58 13.15
9120 10.2250 169.12 151.22 13.00
9121 10.2260 207.49 150.84 14.40
9122 10.2270 189.71 150.41 13.77
9123 10.2280 195.20 149.96 13.97
9124 10.2290 191.30 149.46 13.83
9125 10.2300 184.29 148.93 13.58
9126 10.2310 190.98 148.44 13.82
9127 10.2320 174.00 147.83 13.19
9128 10.2330 196.93 147.17 14.03
9129 10.2340 197.75 146.47 14.06
9130 10.2350 202.49 145.72 14.23
9131 10.2360 216.29 144.92 14.71
9132 10.2370 191.22 144.09 13.83
9133 10.2380 195.59 143.20 13.99
9134 10.2390 177.54 142.28 13.32
9135 10.2400 181.01 141.31 13.45
9136 10.2410 182.77 140.30 13.52
9137 10.2420 168.33 139.24 12.97
9138 10.2430 163.26 138.16 12.78
9139 10.2440 170.88 137.03 13.07
9140 10.2450 176.82 135.88 13.30
9141 10.2460 158.70 134.69 12.60
9142 10.2470 169.66 133.48 13.03
9143 10.2480 174.90 132.24 13.23
9144 10.2490 162.48 130.98 12.75
9145 10.2500 167.39 129.70 12.94
9146 10.2510 147.78 128.41 12.16
9147 10.2520 151.18 127.10 12.30
9148 10.2530 148.92 125.79 12.20
9149 10.2540 120.17 124.48 10.96
9150 10.2550 126.82 123.15 11.26
9151 10.2560 140.30 121.83 11.84
9152 10.2570 140.64 120.52 11.86
9153 10.2580 127.12 119.21 11.27
9154 10.2590 107.52 117.90 10.37
9155 10.2600 112.05 116.61 10.59
9156 10.2610 123.46 115.32 11.11
9157 10.2620 113.42 114.05 10.65
9158 10.2630 128.53 112.73 11.34
9159 10.2640 112.72 111.50 10.62
9160 10.2650 122.88 110.27 11.09
9161 10.2660 113.43 109.07 10.65
9162 10.2670 114.28 107.89 10.69
9163 10.2680 105.21 106.72 10.26
9164 10.2690 99.01 105.58 9.95
9165 10.2700 118.84 104.46 10.90
9166 10.2710 109.43 103.36 10.46
9167 10.2720 107.39 102.29 10.36
9168 10.2730 103.16 101.24 10.16
9169 10.2740 90.72 100.21 9.52
9170 10.2750 87.04 99.20 9.33
9171 10.2760 90.55 98.23 9.52
9172 10.2770 109.74 97.25 10.48
9173 10.2780 104.83 96.32 10.24
9174 10.2790 98.87 95.41 9.94
9175 10.2800 92.24 94.53 9.60
9176 10.2810 103.96 93.67 10.20
9177 10.2820 96.52 92.84 9.82
9178 10.2830 91.22 92.03 9.55
9179 10.2840 93.56 91.25 9.67
9180 10.2850 97.50 90.46 9.87
9181 10.2860 109.57 89.72 10.47
9182 10.2870 97.60 89.01 9.88
9183 10.2880 79.91 88.31 8.94
9184 10.2890 90.58 87.64 9.52
9185 10.2900 92.82 87.00 9.63
9186 10.2910 93.04 86.37 9.65
9187 10.2920 79.52 85.77 8.92
9188 10.2930 78.89 85.19 8.88
9189 10.2940 72.62 84.62 8.52
9190 10.2950 82.37 84.08 9.08
9191 10.2960 80.34 83.56 8.96
9192 10.2970 92.40 83.06 9.61
9193 10.2980 84.90 82.49 9.21
9194 10.2990 90.48 82.03 9.51
9195 10.3000 89.49 81.59 9.46
9196 10.3010 91.73 81.16 9.58
9197 10.3020 86.96 80.74 9.33
9198 10.3030 78.93 80.34 8.88
9199 10.3040 93.05 79.96 9.65
9200 10.3050 88.04 79.52 9.38
9201 10.3060 107.53 79.17 10.37
9202 10.3070 82.60 78.83 9.09
9203 10.3080 97.54 78.50 9.88
9204 10.3090 96.36 78.19 9.82
9205 10.3100 89.96 77.88 9.48
9206 10.3110 89.48 77.59 9.46
9207 10.3120 87.65 77.32 9.36
9208 10.3130 81.53 77.05 9.03
9209 10.3140 73.34 76.79 8.56
9210 10.3150 87.76 76.55 9.37
9211 10.3160 79.53 76.31 8.92
9212 10.3170 97.32 76.09 9.87
9213 10.3180 90.41 75.87 9.51
9214 10.3190 87.70 75.66 9.36
9215 10.3200 101.44 75.47 10.07
9216 10.3210 87.40 75.28 9.35
9217 10.3220 79.73 75.10 8.93
9218 10.3230 68.29 74.94 8.26
9219 10.3240 82.71 74.78 9.09
9220 10.3250 76.35 74.63 8.74
9221 10.3260 76.57 74.49 8.75
9222 10.3270 78.78 74.36 8.88
9223 10.3280 75.82 74.24 8.71
9224 10.3290 80.83 74.13 8.99
9225 10.3300 79.58 74.02 8.92
9226 10.3310 78.16 73.93 8.84
9227 10.3320 74.74 73.85 8.65
9228 10.3330 75.23 73.78 8.67
9229 10.3340 70.25 73.72 8.38
9230 10.3350 80.40 73.66 8.97
9231 10.3360 88.07 73.62 9.38
9232 10.3370 85.37 73.59 9.24
9233 10.3380 91.82 73.57 9.58
9234 10.3390 93.93 73.56 9.69
9235 10.3400 82.70 73.56 9.09
9236 10.3410 90.38 73.57 9.51
9237 10.3420 96.06 73.59 9.80
9238 10.3430 87.36 73.62 9.35
9239 10.3440 79.58 73.66 8.92
9240 10.3450 92.64 73.72 9.62
9241 10.3460 85.52 73.78 9.25
9242 10.3470 83.71 73.86 9.15
9243 10.3480 107.78 73.94 10.38
9244 10.3490 80.42 74.04 8.97
9245 10.3500 84.28 74.15 9.18
9246 10.3510 84.70 74.26 9.20
9247 10.3520 83.13 74.39 9.12
9248 10.3530 96.11 74.53 9.80
9249 10.3540 86.33 74.71 9.29
9250 10.3550 73.60 74.87 8.58
9251 10.3560 89.79 75.05 9.48
9252 10.3570 103.43 75.23 10.17
9253 10.3580 85.70 75.42 9.26
9254 10.3590 86.74 75.63 9.31
9255 10.3600 91.02 75.84 9.54
9256 10.3610 100.66 76.06 10.03
9257 10.3620 87.59 76.34 9.36
9258 10.3630 82.25 76.58 9.07
9259 10.3640 84.76 76.83 9.21
9260 10.3650 69.92 77.09 8.36
9261 10.3660 67.07 77.36 8.19
9262 10.3670 77.68 77.64 8.81
9263 10.3680 83.88 77.93 9.16
9264 10.3690 84.97 78.23 9.22
9265 10.3700 88.20 78.53 9.39
9266 10.3710 85.16 78.84 9.23
9267 10.3720 88.48 79.15 9.41
9268 10.3730 86.88 79.47 9.32
9269 10.3740 84.77 79.81 9.21
9270 10.3750 87.17 80.14 9.34
9271 10.3760 91.08 80.47 9.54
9272 10.3770 95.19 80.80 9.76
9273 10.3780 106.78 81.14 10.33
9274 10.3790 91.60 81.48 9.57
9275 10.3800 90.31 81.82 9.50
9276 10.3810 87.28 82.15 9.34
9277 10.3820 90.48 82.49 9.51
9278 10.3830 90.47 82.82 9.51
9279 10.3840 101.81 83.15 10.09
9280 10.3850 98.98 83.47 9.95
9281 10.3860 108.21 83.79 10.40
9282 10.3870 96.87 84.10 9.84
9283 10.3880 99.13 84.40 9.96
9284 10.3890 102.71 84.70 10.13
9285 10.3900 110.03 84.98 10.49
9286 10.3910 97.74 85.26 9.89
9287 10.3920 88.88 85.52 9.43
9288 10.3930 107.80 85.78 10.38
9289 10.3940 106.17 86.02 10.30
9290 10.3950 108.88 86.25 10.43
9291 10.3960 107.44 86.47 10.37
9292 10.3970 126.13 86.68 11.23
9293 10.3980 115.22 86.87 10.73
9294 10.3990 109.18 87.09 10.45
9295 10.4000 111.10 87.26 10.54
9296 10.4010 108.94 87.46 10.44
9297 10.4020 104.04 87.67 10.20
9298 10.4030 107.79 87.74 10.38
9299 10.4040 112.00 87.87 10.58
9300 10.4050 84.01 88.00 9.17
9301 10.4060 93.73 88.11 9.68
9302 10.4070 117.95 88.23 10.86
9303 10.4080 107.29 88.33 10.36
9304 10.4090 109.40 88.10 10.46
9305 10.4100 107.05 88.20 10.35
9306 10.4110 106.48 88.29 10.32
9307 10.4120 99.24 88.39 9.96
9308 10.4130 109.62 88.48 10.47
9309 10.4140 115.27 88.57 10.74
9310 10.4150 101.50 88.67 10.07
9311 10.4160 99.15 88.76 9.96
9312 10.4170 106.25 88.86 10.31
9313 10.4180 97.53 88.96 9.88
9314 10.4190 84.77 89.06 9.21
9315 10.4200 101.41 89.17 10.07
9316 10.4210 96.91 89.28 9.84
9317 10.4220 88.31 89.40 9.40
9318 10.4230 83.60 89.52 9.14
9319 10.4240 86.22 89.65 9.29
9320 10.4250 90.60 89.70 9.52
9321 10.4260 89.36 89.84 9.45
9322 10.4270 86.67 89.98 9.31
9323 10.4280 100.97 90.13 10.05
9324 10.4290 89.96 90.29 9.48
9325 10.4300 91.35 90.45 9.56
9326 10.4310 86.00 90.61 9.27
9327 10.4320 90.96 90.79 9.54
9328 10.4330 100.10 90.97 10.01
9329 10.4340 97.35 91.15 9.87
9330 10.4350 92.49 91.34 9.62
9331 10.4360 96.54 91.54 9.83
9332 10.4370 101.35 91.74 10.07
9333 10.4380 96.90 91.96 9.84
9334 10.4390 96.61 92.17 9.83
9335 10.4400 102.19 92.40 10.11
9336 10.4410 95.41 92.63 9.77
9337 10.4420 97.27 92.87 9.86
9338 10.4430 93.71 93.12 9.68
9339 10.4440 82.74 93.38 9.10
9340 10.4450 88.06 93.66 9.38
9341 10.4460 102.85 93.94 10.14
9342 10.4470 99.08 94.22 9.95
9343 10.4480 87.92 94.52 9.38
9344 10.4490 82.96 94.83 9.11
9345 10.4500 99.43 95.14 9.97
9346 10.4510 95.05 95.47 9.75
9347 10.4520 89.55 95.81 9.46
9348 10.4530 97.34 96.16 9.87
9349 10.4540 104.35 96.53 10.22
9350 10.4550 99.38 96.90 9.97
9351 10.4560 95.36 97.29 9.77
9352 10.4570 106.07 97.69 10.30
9353 10.4580 99.36 98.10 9.97
9354 10.4590 98.41 98.53 9.92
9355 10.4600 94.16 98.97 9.70
9356 10.4610 102.48 99.42 10.12
9357 10.4620 102.84 99.88 10.14
9358 10.4630 106.10 100.35 10.30
9359 10.4640 104.82 100.86 10.24
9360 10.4650 111.50 101.36 10.56
9361 10.4660 104.04 101.88 10.20
9362 10.4670 112.25 102.40 10.59
9363 10.4680 113.46 102.94 10.65
9364 10.4690 101.16 103.49 10.06
9365 10.4700 89.99 104.06 9.49
9366 10.4710 89.49 104.64 9.46
9367 10.4720 106.57 105.23 10.32
9368 10.4730 109.44 105.84 10.46
9369 10.4740 94.05 106.46 9.70
9370 10.4750 100.95 107.10 10.05
9371 10.4760 113.45 107.78 10.65
9372 10.4770 107.09 108.45 10.35
9373 10.4780 98.14 109.14 9.91
9374 10.4790 103.76 109.84 10.19
9375 10.4800 106.71 110.57 10.33
9376 10.4810 121.43 111.31 11.02
9377 10.4820 124.37 112.07 11.15
9378 10.4830 125.07 112.86 11.18
9379 10.4840 130.42 113.66 11.42
9380 10.4850 131.10 114.48 11.45
9381 10.4860 109.92 115.32 10.48
9382 10.4870 116.42 116.18 10.79
9383 10.4880 113.47 117.08 10.65
9384 10.4890 126.93 117.99 11.27
9385 10.4900 138.39 118.91 11.76
9386 10.4910 120.50 119.85 10.98
9387 10.4920 128.70 120.81 11.34
9388 10.4930 140.30 121.79 11.84
9389 10.4940 128.11 122.78 11.32
9390 10.4950 133.90 123.79 11.57
9391 10.4960 131.79 124.81 11.48
9392 10.4970 128.94 125.85 11.36
9393 10.4980 126.23 126.89 11.24
9394 10.4990 122.79 127.95 11.08
9395 10.5000 132.52 129.01 11.51
9396 10.5010 149.35 130.08 12.22
9397 10.5020 129.23 131.14 11.37
9398 10.5030 146.03 132.21 12.08
9399 10.5040 155.29 133.30 12.46
9400 10.5050 136.82 134.37 11.70
9401 10.5060 136.28 135.42 11.67
9402 10.5070 151.80 136.46 12.32
9403 10.5080 152.45 137.48 12.35
9404 10.5090 160.14 138.49 12.65
9405 10.5100 163.11 139.48 12.77
9406 10.5110 151.93 140.44 12.33
9407 10.5120 152.73 141.38 12.36
9408 10.5130 158.90 142.25 12.61
9409 10.5140 161.79 143.12 12.72
9410 10.5150 166.52 143.97 12.90
9411 10.5160 174.01 144.78 13.19
9412 10.5170 173.53 145.55 13.17
9413 10.5180 171.18 146.28 13.08
9414 10.5190 168.75 146.97 12.99
9415 10.5200 177.69 147.61 13.33
9416 10.5210 171.08 148.22 13.08
9417 10.5220 171.65 148.78 13.10
9418 10.5230 174.43 149.30 13.21
9419 10.5240 169.50 149.78 13.02
9420 10.5250 139.36 150.22 11.81
9421 10.5260 153.23 150.61 12.38
9422 10.5270 144.98 150.97 12.04
9423 10.5280 163.24 151.28 12.78
9424 10.5290 164.53 151.56 12.83
9425 10.5300 157.63 151.80 12.56
9426 10.5310 158.59 152.02 12.59
9427 10.5320 160.00 152.19 12.65
9428 10.5330 154.13 152.34 12.41
9429 10.5340 163.22 152.46 12.78
9430 10.5350 158.87 152.55 12.60
9431 10.5360 157.44 152.62 12.55
9432 10.5370 157.13 152.66 12.54
9433 10.5380 148.13 152.69 12.17
9434 10.5390 153.21 152.72 12.38
9435 10.5400 155.93 152.69 12.49
9436 10.5410 151.27 152.65 12.30
9437 10.5420 153.19 152.59 12.38
9438 10.5430 156.43 152.51 12.51
9439 10.5440 154.25 152.44 12.42
9440 10.5450 151.10 152.11 12.29
9441 10.5460 148.67 151.97 12.19
9442 10.5470 141.08 151.81 11.88
9443 10.5480 163.42 151.63 12.78
9444 10.5490 156.92 151.42 12.53
9445 10.5500 162.91 151.20 12.76
9446 10.5510 154.47 150.95 12.43
9447 10.5520 162.89 150.68 12.76
9448 10.5530 165.29 150.38 12.86
9449 10.5540 177.12 150.06 13.31
9450 10.5550 154.22 149.71 12.42
9451 10.5560 144.51 149.34 12.02
9452 10.5570 160.60 148.95 12.67
9453 10.5580 146.02 148.52 12.08
9454 10.5590 135.91 148.08 11.66
9455 10.5600 122.79 147.60 11.08
9456 10.5610 126.50 147.10 11.25
9457 10.5620 147.23 146.58 12.13
9458 10.5630 146.61 146.03 12.11
9459 10.5640 154.30 145.46 12.42
9460 10.5650 144.07 144.87 12.00
9461 10.5660 145.38 144.20 12.06
9462 10.5670 131.02 143.57 11.45
9463 10.5680 140.09 142.91 11.84
9464 10.5690 145.60 142.23 12.07
9465 10.5700 132.55 141.43 11.51
9466 10.5710 142.52 140.72 11.94
9467 10.5720 145.61 139.99 12.07
9468 10.5730 133.86 139.24 11.57
9469 10.5740 127.58 138.49 11.30
9470 10.5750 126.68 137.71 11.26
9471 10.5760 108.33 136.93 10.41
9472 10.5770 119.92 136.13 10.95
9473 10.5780 122.97 135.32 11.09
9474 10.5790 123.98 134.51 11.13
9475 10.5800 123.79 133.67 11.13
9476 10.5810 124.11 132.84 11.14
9477 10.5820 131.92 132.00 11.49
9478 10.5830 133.52 131.15 11.56
9479 10.5840 126.98 130.30 11.27
9480 10.5850 114.73 129.44 10.71
9481 10.5860 114.42 128.58 10.70
9482 10.5870 121.19 127.71 11.01
9483 10.5880 128.37 126.85 11.33
9484 10.5890 126.77 125.98 11.26
9485 10.5900 115.66 125.11 10.75
9486 10.5910 135.40 124.24 11.64
9487 10.5920 116.34 123.36 10.79
9488 10.5930 121.78 122.49 11.04
9489 10.5940 115.42 121.62 10.74
9490 10.5950 115.16 120.74 10.73
9491 10.5960 106.46 119.87 10.32
9492 10.5970 110.08 118.99 10.49
9493 10.5980 117.92 118.12 10.86
9494 10.5990 122.37 117.24 11.06
9495 10.6000 113.15 116.36 10.64
9496 10.6010 118.64 115.49 10.89
9497 10.6020 106.26 114.61 10.31
9498 10.6030 114.34 113.73 10.69
9499 10.6040 119.51 112.85 10.93
9500 10.6050 115.71 111.96 10.76
9501 10.6060 123.06 111.07 11.09
9502 10.6070 109.58 110.19 10.47
9503 10.6080 111.44 109.30 10.56
9504 10.6090 99.34 108.40 9.97
9505 10.6100 117.64 107.51 10.85
9506 10.6110 104.84 106.61 10.24
9507 10.6120 99.74 105.72 9.99
9508 10.6130 94.04 104.82 9.70
9509 10.6140 100.06 103.93 10.00
9510 10.6150 103.30 103.03 10.16
9511 10.6160 99.07 102.13 9.95
9512 10.6170 107.08 101.24 10.35
9513 10.6180 101.59 100.35 10.08
9514 10.6190 92.29 99.46 9.61
9515 10.6200 102.91 98.58 10.14
9516 10.6210 100.40 97.71 10.02
9517 10.6220 102.11 96.84 10.10
9518 10.6230 95.99 95.97 9.80
9519 10.6240 82.35 95.11 9.07
9520 10.6250 93.15 94.27 9.65
9521 10.6260 96.36 93.43 9.82
9522 10.6270 90.56 92.61 9.52
9523 10.6280 95.46 91.80 9.77
9524 10.6290 106.42 91.00 10.32
9525 10.6300 92.68 90.21 9.63
9526 10.6310 89.57 89.44 9.46
9527 10.6320 94.68 88.68 9.73
9528 10.6330 88.11 87.94 9.39
9529 10.6340 86.93 87.21 9.32
9530 10.6350 86.38 86.49 9.29
9531 10.6360 82.34 85.79 9.07
9532 10.6370 81.52 85.11 9.03
9533 10.6380 78.98 84.44 8.89
9534 10.6390 94.89 83.80 9.74
9535 10.6400 85.81 83.16 9.26
9536 10.6410 71.19 82.55 8.44
9537 10.6420 90.64 81.95 9.52
9538 10.6430 84.52 81.37 9.19
9539 10.6440 76.01 80.81 8.72
9540 10.6450 76.59 80.27 8.75
9541 10.6460 88.64 79.74 9.41
9542 10.6470 98.52 79.23 9.93
9543 10.6480 87.67 78.73 9.36
9544 10.6490 89.32 78.26 9.45
9545 10.6500 97.32 77.80 9.87
9546 10.6510 82.95 77.36 9.11
9547 10.6520 82.84 76.93 9.10
9548 10.6530 88.57 76.53 9.41
9549 10.6540 90.08 76.14 9.49
9550 10.6550 76.66 75.76 8.76
9551 10.6560 72.29 75.41 8.50
9552 10.6570 79.35 75.07 8.91
9553 10.6580 84.98 74.75 9.22
9554 10.6590 83.93 74.44 9.16
9555 10.6600 79.84 74.14 8.94
9556 10.6610 80.22 73.86 8.96
9557 10.6620 78.43 73.60 8.86
9558 10.6630 86.96 73.35 9.33
9559 10.6640 84.65 73.12 9.20
9560 10.6650 83.25 72.92 9.12
9561 10.6660 64.93 72.72 8.06
9562 10.6670 84.33 72.54 9.18
9563 10.6680 75.66 72.36 8.70
9564 10.6690 78.71 72.03 8.87
9565 10.6700 78.94 71.88 8.88
9566 10.6710 80.98 71.75 9.00
9567 10.6720 76.56 71.63 8.75
9568 10.6730 92.69 71.53 9.63
9569 10.6740 87.24 71.43 9.34
9570 10.6750 83.09 71.35 9.12
9571 10.6760 78.24 71.28 8.85
9572 10.6770 73.77 71.23 8.59
9573 10.6780 80.36 71.19 8.96
9574 10.6790 73.76 71.17 8.59
9575 10.6800 76.12 71.15 8.72
9576 10.6810 73.78 71.14 8.59
9577 10.6820 80.61 71.14 8.98
9578 10.6830 89.17 71.16 9.44
9579 10.6840 76.18 71.18 8.73
9580 10.6850 72.47 71.22 8.51
9581 10.6860 81.90 71.27 9.05
9582 10.6870 85.74 71.32 9.26
9583 10.6880 78.45 71.39 8.86
9584 10.6890 89.77 71.46 9.47
9585 10.6900 88.01 71.55 9.38
9586 10.6910 80.88 71.66 8.99
9587 10.6920 75.45 71.76 8.69
9588 10.6930 86.34 71.87 9.29
9589 10.6940 93.02 71.99 9.64
9590 10.6950 84.06 72.12 9.17
9591 10.6960 83.20 72.25 9.12
9592 10.6970 85.55 72.39 9.25
9593 10.6980 87.04 72.53 9.33
9594 10.6990 75.83 72.68 8.71
9595 10.7000 89.39 72.84 9.45
9596 10.7010 88.23 73.00 9.39
9597 10.7020 81.35 73.17 9.02
9598 10.7030 87.64 73.34 9.36
9599 10.7040 85.26 73.51 9.23
9600 10.7050 90.63 73.68 9.52
9601 10.7060 82.30 73.86 9.07
9602 10.7070 82.68 74.04 9.09
9603 10.7080 86.90 74.22 9.32
9604 10.7090 90.25 74.40 9.50
9605 10.7100 83.78 74.58 9.15
9606 10.7110 94.21 74.75 9.71
9607 10.7120 83.90 74.93 9.16
9608 10.7130 84.59 75.10 9.20
9609 10.7140 96.92 75.27 9.84
9610 10.7150 90.85 75.43 9.53
9611 10.7160 82.02 75.59 9.06
9612 10.7170 89.55 75.74 9.46
9613 10.7180 91.75 75.92 9.58
9614 10.7190 96.28 76.06 9.81
9615 10.7200 82.46 76.20 9.08
9616 10.7210 90.76 76.32 9.53
9617 10.7220 103.22 76.44 10.16
9618 10.7230 98.33 76.56 9.92
9619 10.7240 93.04 76.66 9.65
9620 10.7250 94.27 76.76 9.71
9621 10.7260 88.23 76.84 9.39
9622 10.7270 86.73 76.92 9.31
9623 10.7280 100.77 76.99 10.04
9624 10.7290 90.49 77.04 9.51
9625 10.7300 77.33 77.10 8.79
9626 10.7310 86.59 77.14 9.31
9627 10.7320 88.39 77.18 9.40
9628 10.7330 92.08 77.21 9.60
9629 10.7340 74.36 76.90 8.62
9630 10.7350 81.65 76.92 9.04
9631 10.7360 80.00 76.94 8.94
9632 10.7370 81.78 76.94 9.04
9633 10.7380 91.04 76.95 9.54
9634 10.7390 79.33 76.95 8.91
9635 10.7400 84.03 76.94 9.17
9636 10.7410 83.41 76.94 9.13
9637 10.7420 80.27 76.93 8.96
9638 10.7430 79.99 76.91 8.94
9639 10.7440 85.62 76.90 9.25
9640 10.7450 99.17 76.88 9.96
9641 10.7460 92.00 76.86 9.59
9642 10.7470 75.09 76.84 8.67
9643 10.7480 86.66 76.82 9.31
9644 10.7490 89.17 76.80 9.44
9645 10.7500 76.10 76.78 8.72
9646 10.7510 77.10 76.76 8.78
9647 10.7520 81.37 76.74 9.02
9648 10.7530 86.97 76.73 9.33
9649 10.7540 82.81 76.71 9.10
9650 10.7550 75.04 76.69 8.66
9651 10.7560 83.20 76.68 9.12
9652 10.7570 74.33 76.66 8.62
9653 10.7580 77.45 76.65 8.80
9654 10.7590 80.25 76.64 8.96
9655 10.7600 77.91 76.64 8.83
9656 10.7610 75.80 76.63 8.71
9657 10.7620 71.86 76.62 8.48
9658 10.7630 75.19 76.62 8.67
9659 10.7640 78.10 76.62 8.84
9660 10.7650 78.97 76.62 8.89
9661 10.7660 79.96 76.63 8.94
9662 10.7670 75.75 76.63 8.70
9663 10.7680 74.83 76.64 8.65
9664 10.7690 80.49 76.61 8.97
9665 10.7700 97.43 76.62 9.87
9666 10.7710 83.67 76.64 9.15
9667 10.7720 81.78 76.65 9.04
9668 10.7730 79.33 76.67 8.91
9669 10.7740 87.58 76.69 9.36
9670 10.7750 87.72 76.70 9.37
9671 10.7760 95.06 76.72 9.75
9672 10.7770 97.25 76.74 9.86
9673 10.7780 81.73 76.76 9.04
9674 10.7790 86.87 76.79 9.32
9675 10.7800 89.53 76.81 9.46
9676 10.7810 95.19 76.83 9.76
9677 10.7820 99.22 76.84 9.96
9678 10.7830 83.15 76.85 9.12
9679 10.7840 78.85 76.86 8.88
9680 10.7850 82.08 76.86 9.06
9681 10.7860 94.10 76.86 9.70
9682 10.7870 95.87 76.86 9.79
9683 10.7880 85.90 76.85 9.27
9684 10.7890 86.30 76.83 9.29
9685 10.7900 89.31 76.82 9.45
9686 10.7910 90.90 76.79 9.53
9687 10.7920 85.43 76.76 9.24
9688 10.7930 80.47 76.73 8.97
9689 10.7940 78.60 76.69 8.87
9690 10.7950 77.31 76.64 8.79
9691 10.7960 79.18 76.59 8.90
9692 10.7970 90.81 76.53 9.53
9693 10.7980 84.99 76.48 9.22
9694 10.7990 74.83 76.42 8.65
9695 10.8000 78.25 76.35 8.85
9696 10.8010 82.43 76.28 9.08
9697 10.8020 83.77 76.19 9.15
9698 10.8030 81.42 76.12 9.02
9699 10.8040 87.64 76.04 9.36
9700 10.8050 81.21 75.95 9.01
9701 10.8060 77.65 75.87 8.81
9702 10.8070 80.34 75.79 8.96
9703 10.8080 91.73 75.71 9.58
9704 10.8090 79.77 75.63 8.93
9705 10.8100 94.95 75.61 9.74
9706 10.8110 85.85 75.46 9.27
9707 10.8120 77.20 75.39 8.79
9708 10.8130 78.10 75.32 8.84
9709 10.8140 70.19 75.26 8.38
9710 10.8150 70.02 75.21 8.37
9711 10.8160 76.38 75.16 8.74
9712 10.8170 77.98 75.12 8.83
9713 10.8180 77.54 75.08 8.81
9714 10.8190 77.12 75.06 8.78
9715 10.8200 77.08 75.04 8.78
9716 10.8210 75.68 75.03 8.70
9717 10.8220 89.00 75.03 9.43
9718 10.8230 74.14 75.04 8.61
9719 10.8240 73.33 75.05 8.56
9720 10.8250 82.71 75.08 9.09
9721 10.8260 80.34 75.12 8.96
9722 10.8270 77.26 75.17 8.79
9723 10.8280 84.68 75.24 9.20
9724 10.8290 81.84 75.31 9.05
9725 10.8300 76.50 75.39 8.75
9726 10.8310 86.69 75.49 9.31
9727 10.8320 78.51 75.60 8.86
9728 10.8330 75.60 75.72 8.69
9729 10.8340 79.40 75.85 8.91
9730 10.8350 70.56 76.00 8.40
9731 10.8360 72.29 76.16 8.50
9732 10.8370 87.26 76.33 9.34
9733 10.8380 89.74 76.51 9.47
9734 10.8390 75.97 76.71 8.72
9735 10.8400 72.56 76.91 8.52
9736 10.8410 81.44 77.14 9.02
9737 10.8420 80.52 77.24 8.97
9738 10.8430 79.00 77.49 8.89
9739 10.8440 85.15 77.75 9.23
9740 10.8450 72.70 78.02 8.53
9741 10.8460 70.07 78.30 8.37
9742 10.8470 81.19 78.60 9.01
9743 10.8480 85.86 78.91 9.27
9744 10.8490 85.47 79.23 9.24
9745 10.8500 92.97 79.57 9.64
9746 10.8510 80.93 79.91 9.00
9747 10.8520 72.77 80.27 8.53
9748 10.8530 82.44 80.63 9.08
9749 10.8540 86.31 81.01 9.29
9750 10.8550 71.34 81.39 8.45
9751 10.8560 77.26 81.79 8.79
9752 10.8570 86.68 82.19 9.31
9753 10.8580 85.95 82.61 9.27
9754 10.8590 97.53 83.02 9.88
9755 10.8600 85.22 83.45 9.23
9756 10.8610 89.99 83.88 9.49
9757 10.8620 80.69 84.32 8.98
9758 10.8630 76.82 84.76 8.76
9759 10.8640 89.84 85.20 9.48
9760 10.8650 91.51 85.65 9.57
9761 10.8660 104.55 86.09 10.23
9762 10.8670 102.91 86.54 10.14
9763 10.8680 110.97 86.98 10.53
9764 10.8690 91.24 87.42 9.55
9765 10.8700 94.10 87.85 9.70
9766 10.8710 98.09 88.28 9.90
9767 10.8720 107.95 88.70 10.39
9768 10.8730 101.75 89.11 10.09
9769 10.8740 97.92 89.51 9.90
9770 10.8750 104.69 89.89 10.23
9771 10.8760 104.82 90.27 10.24
9772 10.8770 103.95 90.62 10.20
9773 10.8780 106.50 90.96 10.32
9774 10.8790 100.47 91.28 10.02
9775 10.8800 108.36 91.57 10.41
9776 10.8810 98.74 91.85 9.94
9777 10.8820 96.34 92.09 9.82
9778 10.8830 107.78 92.32 10.38
9779 10.8840 99.95 92.52 10.00
9780 10.8850 109.42 92.69 10.46
9781 10.8860 117.37 92.83 10.83
9782 10.8870 115.37 92.95 10.74
9783 10.8880 121.43 93.03 11.02
9784 10.8890 106.02 93.09 10.30
9785 10.8900 96.92 93.11 9.84
9786 10.8910 99.09 93.10 9.95
9787 10.8920 97.51 93.07 9.87
9788 10.8930 113.39 93.00 10.65
9789 10.8940 104.39 92.91 10.22
9790 10.8950 107.97 92.79 10.39
9791 10.8960 97.47 92.64 9.87
9792 10.8970 96.68 92.47 9.83
9793 10.8980 95.55 92.29 9.77
9794 10.8990 91.51 92.07 9.57
9795 10.9000 92.14 91.83 9.60
9796 10.9010 93.92 91.56 9.69
9797 10.9020 91.23 91.28 9.55
9798 10.9030 86.72 90.98 9.31
9799 10.9040 90.26 90.66 9.50
9800 10.9050 85.80 90.33 9.26
9801 10.9060 73.61 89.99 8.58
9802 10.9070 90.34 89.64 9.50
9803 10.9080 99.95 89.28 10.00
9804 10.9090 81.54 88.91 9.03
9805 10.9100 77.12 88.54 8.78
9806 10.9110 74.58 88.16 8.64
9807 10.9120 81.21 87.78 9.01
9808 10.9130 96.87 87.40 9.84
9809 10.9140 80.44 87.02 8.97
9810 10.9150 78.36 86.64 8.85
9811 10.9160 80.47 86.26 8.97
9812 10.9170 77.18 85.88 8.79
9813 10.9180 67.33 85.51 8.21
9814 10.9190 78.06 85.15 8.84
9815 10.9200 76.57 84.79 8.75
9816 10.9210 72.58 84.44 8.52
9817 10.9220 70.66 84.09 8.41
9818 10.9230 80.19 83.76 8.95
9819 10.9240 80.08 83.43 8.95
9820 10.9250 70.80 83.11 8.41
9821 10.9260 82.39 82.81 9.08
9822 10.9270 85.57 82.51 9.25
9823 10.9280 77.04 82.23 8.78
9824 10.9290 73.48 81.95 8.57
9825 10.9300 71.27 81.69 8.44
9826 10.9310 66.25 81.44 8.14
9827 10.9320 71.67 81.20 8.47
9828 10.9330 77.79 80.98 8.82
9829 10.9340 75.42 80.77 8.68
9830 10.9350 80.88 80.57 8.99
9831 10.9360 80.18 80.38 8.95
9832 10.9370 72.75 80.21 8.53
9833 10.9380 81.98 80.05 9.05
9834 10.9390 84.13 79.90 9.17
9835 10.9400 77.23 79.76 8.79
9836 10.9410 72.63 79.64 8.52
9837 10.9420 70.46 79.53 8.39
9838 10.9430 69.64 79.44 8.35
9839 10.9440 63.83 79.36 7.99
9840 10.9450 76.02 79.29 8.72
9841 10.9460 77.67 79.23 8.81
9842 10.9470 64.18 79.18 8.01
9843 10.9480 73.95 79.15 8.60
9844 10.9490 71.27 79.13 8.44
9845 10.9500 75.97 79.12 8.72
9846 10.9510 73.56 79.13 8.58
9847 10.9520 74.20 79.14 8.61
9848 10.9530 70.99 79.17 8.43
9849 10.9540 85.82 79.21 9.26
9850 10.9550 83.98 79.26 9.16
9851 10.9560 78.81 79.32 8.88
9852 10.9570 70.35 79.39 8.39
9853 10.9580 69.51 79.47 8.34
9854 10.9590 72.15 79.57 8.49
9855 10.9600 74.89 79.67 8.65
9856 10.9610 79.47 79.79 8.91
9857 10.9620 79.10 79.91 8.89
9858 10.9630 70.29 80.05 8.38
9859 10.9640 81.20 80.19 9.01
9860 10.9650 80.28 80.35 8.96
9861 10.9660 74.66 80.52 8.64
9862 10.9670 72.77 80.70 8.53
9863 10.9680 71.49 80.89 8.46
9864 10.9690 73.83 81.11 8.59
9865 10.9700 74.76 81.33 8.65
9866 10.9710 62.47 81.55 7.90
9867 10.9720 70.31 81.79 8.39
9868 10.9730 86.68 82.04 9.31
9869 10.9740 81.26 82.30 9.01
9870 10.9750 70.67 82.58 8.41
9871 10.9760 71.71 82.87 8.47
9872 10.9770 65.44 83.17 8.09
9873 10.9780 79.38 83.49 8.91
9874 10.9790 83.59 83.82 9.14
9875 10.9800 83.27 84.19 9.13
9876 10.9810 77.21 84.54 8.79
9877 10.9820 74.21 84.92 8.61
9878 10.9830 75.34 85.31 8.68
9879 10.9840 72.41 85.71 8.51
9880 10.9850 82.87 86.13 9.10
9881 10.9860 73.15 86.57 8.55
9882 10.9870 70.26 87.02 8.38
9883 10.9880 79.35 87.49 8.91
9884 10.9890 67.19 87.98 8.20
9885 10.9900 65.02 88.48 8.06
9886 10.9910 69.35 89.00 8.33
9887 10.9920 72.97 89.53 8.54
9888 10.9930 70.98 90.09 8.42
9889 10.9940 76.42 90.65 8.74
9890 10.9950 81.46 91.24 9.03
9891 10.9960 80.73 91.84 8.98
9892 10.9970 82.22 92.46 9.07
9893 10.9980 79.21 93.09 8.90
9894 10.9990 82.16 93.74 9.06
9895 11.0000 85.37 94.40 9.24
9896 11.0010 77.29 95.08 8.79
9897 11.0020 70.49 95.77 8.40
9898 11.0030 77.06 96.48 8.78
9899 11.0040 82.27 97.19 9.07
9900 11.0050 90.00 97.93 9.49
9901 11.0060 84.65 98.67 9.20
9902 11.0070 96.14 99.43 9.81
9903 11.0080 85.93 100.19 9.27
9904 11.0090 74.46 100.96 8.63
9905 11.0100 83.59 101.74 9.14
9906 11.0110 87.71 102.53 9.37
9907 11.0120 87.56 103.32 9.36
9908 11.0130 79.83 104.12 8.93
9909 11.0140 84.49 104.92 9.19
9910 11.0150 87.97 105.68 9.38
9911 11.0160 84.55 106.49 9.20
9912 11.0170 92.67 107.29 9.63
9913 11.0180 94.13 108.10 9.70
9914 11.0190 74.76 108.90 8.65
9915 11.0200 91.00 109.71 9.54
9916 11.0210 102.55 110.50 10.13
9917 11.0220 95.05 111.29 9.75
9918 11.0230 88.42 112.08 9.40
9919 11.0240 90.08 112.86 9.49
9920 11.0250 96.57 113.63 9.83
9921 11.0260 89.10 114.39 9.44
9922 11.0270 91.28 115.15 9.55
9923 11.0280 88.62 115.89 9.41
9924 11.0290 93.10 116.62 9.65
9925 11.0300 98.90 117.35 9.94
9926 11.0310 94.77 118.06 9.73
9927 11.0320 99.07 118.76 9.95
9928 11.0330 94.04 119.45 9.70
9929 11.0340 111.00 120.13 10.54
9930 11.0350 107.64 120.79 10.38
9931 11.0360 88.98 121.45 9.43
9932 11.0370 110.70 122.09 10.52
9933 11.0380 111.89 122.98 10.58
9934 11.0390 101.35 123.61 10.07
9935 11.0400 92.31 124.22 9.61
9936 11.0410 90.84 124.82 9.53
9937 11.0420 99.26 125.41 9.96
9938 11.0430 111.26 125.99 10.55
9939 11.0440 119.04 126.56 10.91
9940 11.0450 116.83 127.11 10.81
9941 11.0460 118.50 127.66 10.89
9942 11.0470 113.35 128.20 10.65
9943 11.0480 123.00 128.73 11.09
9944 11.0490 128.96 129.24 11.36
9945 11.0500 133.71 129.74 11.56
9946 11.0510 127.31 130.23 11.28
9947 11.0520 134.67 130.71 11.60
9948 11.0530 119.51 131.18 10.93
9949 11.0540 137.10 131.63 11.71
9950 11.0550 154.55 132.06 12.43
9951 11.0560 144.19 132.48 12.01
9952 11.0570 144.50 132.88 12.02
9953 11.0580 145.48 133.26 12.06
9954 11.0590 149.27 133.60 12.22
9955 11.0600 135.39 133.93 11.64
9956 11.0610 130.38 134.24 11.42
9957 11.0620 136.10 134.53 11.67
9958 11.0630 153.85 134.79 12.40
9959 11.0640 134.38 135.01 11.59
9960 11.0650 136.40 135.21 11.68
9961 11.0660 141.55 135.38 11.90
9962 11.0670 140.41 135.51 11.85
9963 11.0680 146.84 135.61 12.12
9964 11.0690 147.23 135.67 12.13
9965 11.0700 130.47 135.70 11.42
9966 11.0710 145.08 135.68 12.04
9967 11.0720 140.99 135.63 11.87
9968 11.0730 136.45 135.53 11.68
9969 11.0740 131.12 135.40 11.45
9970 11.0750 152.08 135.23 12.33
9971 11.0760 160.29 135.01 12.66
9972 11.0770 137.48 134.76 11.73
9973 11.0780 150.33 134.47 12.26
9974 11.0790 154.88 134.14 12.45
9975 11.0800 147.95 133.78 12.16
9976 11.0810 132.57 133.38 11.51
9977 11.0820 135.71 132.95 11.65
9978 11.0830 126.37 132.49 11.24
9979 11.0840 132.77 131.99 11.52
9980 11.0850 123.78 131.48 11.13
9981 11.0860 113.97 130.94 10.68
9982 11.0870 113.45 130.38 10.65
9983 11.0880 116.94 129.79 10.81
9984 11.0890 114.98 129.20 10.72
9985 11.0900 110.00 128.58 10.49
9986 11.0910 100.31 127.96 10.02
9987 11.0920 111.49 127.33 10.56
9988 11.0930 111.63 126.69 10.57
9989 11.0940 106.96 126.04 10.34
9990 11.0950 109.05 125.37 10.44
9991 11.0960 110.71 124.72 10.52
9992 11.0970 112.41 124.08 10.60
9993 11.0980 97.57 123.44 9.88
9994 11.0990 102.74 122.81 10.14
9995 11.1000 111.40 122.19 10.55
9996 11.1010 103.44 121.57 10.17
9997 11.1020 101.23 120.97 10.06
9998 11.1030 95.30 120.38 9.76
9999 11.1040 97.37 119.80 9.87
10000 11.1050 111.41 119.24 10.56
10001 11.1060 95.60 118.69 9.78
10002 11.1070 90.32 118.16 9.50
10003 11.1080 106.49 117.64 10.32
10004 11.1090 98.56 117.14 9.93
10005 11.1100 107.06 116.66 10.35
10006 11.1110 115.10 116.20 10.73
10007 11.1120 99.17 115.76 9.96
10008 11.1130 95.99 115.33 9.80
10009 11.1140 99.84 114.93 9.99
10010 11.1150 94.27 114.54 9.71
10011 11.1160 101.16 114.17 10.06
10012 11.1170 107.66 113.82 10.38
10013 11.1180 104.56 113.49 10.23
10014 11.1190 93.47 113.17 9.67
10015 11.1200 91.38 112.88 9.56
10016 11.1210 91.96 112.61 9.59
10017 11.1220 89.18 112.35 9.44
10018 11.1230 87.34 112.10 9.35
10019 11.1240 88.56 111.87 9.41
10020 11.1250 104.56 111.66 10.23
10021 11.1260 87.11 111.46 9.33
10022 11.1270 100.29 111.28 10.01
10023 11.1280 94.46 111.11 9.72
10024 11.1290 87.86 110.95 9.37
10025 11.1300 87.09 110.81 9.33
10026 11.1310 69.68 110.68 8.35
10027 11.1320 91.72 110.57 9.58
10028 11.1330 93.33 110.46 9.66
10029 11.1340 85.45 110.35 9.24
10030 11.1350 88.03 110.27 9.38
10031 11.1360 90.09 110.19 9.49
10032 11.1370 100.59 110.12 10.03
10033 11.1380 100.00 110.06 10.00
10034 11.1390 86.93 110.01 9.32
10035 11.1400 89.21 109.96 9.45
10036 11.1410 90.07 109.92 9.49
10037 11.1420 90.96 109.89 9.54
10038 11.1430 98.20 109.86 9.91
10039 11.1440 100.38 109.83 10.02
10040 11.1450 94.51 109.80 9.72
10041 11.1460 113.92 109.78 10.67
10042 11.1470 98.40 109.76 9.92
10043 11.1480 107.65 109.74 10.38
10044 11.1490 97.84 109.72 9.89
10045 11.1500 85.07 109.56 9.22
10046 11.1510 92.10 109.54 9.60
10047 11.1520 83.02 109.52 9.11
10048 11.1530 76.03 109.50 8.72
10049 11.1540 90.98 109.48 9.54
10050 11.1550 101.82 109.45 10.09
10051 11.1560 103.21 109.42 10.16
10052 11.1570 95.74 109.39 9.78
10053 11.1580 95.17 109.36 9.76
10054 11.1590 111.66 109.32 10.57
10055 11.1600 91.63 109.27 9.57
10056 11.1610 98.23 109.23 9.91
10057 11.1620 100.32 109.18 10.02
10058 11.1630 95.35 109.12 9.76
10059 11.1640 94.74 109.07 9.73
10060 11.1650 102.76 109.00 10.14
10061 11.1660 95.06 108.93 9.75
10062 11.1670 91.94 108.86 9.59
10063 11.1680 110.87 108.79 10.53
10064 11.1690 100.26 108.71 10.01
10065 11.1700 106.88 108.62 10.34
10066 11.1710 111.74 108.56 10.57
10067 11.1720 92.71 108.46 9.63
10068 11.1730 102.40 108.37 10.12
10069 11.1740 107.16 108.27 10.35
10070 11.1750 113.89 108.17 10.67
10071 11.1760 105.44 108.06 10.27
10072 11.1770 96.41 107.94 9.82
10073 11.1780 97.06 107.82 9.85
10074 11.1790 97.94 107.70 9.90
10075 11.1800 104.82 107.58 10.24
10076 11.1810 112.76 107.45 10.62
10077 11.1820 107.58 107.32 10.37
10078 11.1830 109.80 107.20 10.48
10079 11.1840 100.61 107.06 10.03
10080 11.1850 105.87 106.92 10.29
10081 11.1860 108.47 106.78 10.41
10082 11.1870 114.27 106.64 10.69
10083 11.1880 116.98 106.40 10.82
10084 11.1890 114.92 106.25 10.72
10085 11.1900 119.56 106.11 10.93
10086 11.1910 116.52 105.95 10.79
10087 11.1920 115.11 105.80 10.73
10088 11.1930 111.14 105.70 10.54
10089 11.1940 113.64 105.54 10.66
10090 11.1950 135.58 105.39 11.64
10091 11.1960 117.89 105.24 10.86
10092 11.1970 125.34 105.09 11.20
10093 11.1980 118.91 104.94 10.90
10094 11.1990 123.14 104.80 11.10
10095 11.2000 121.11 104.65 11.01
10096 11.2010 139.50 104.50 11.81
10097 11.2020 131.05 104.35 11.45
10098 11.2030 119.58 104.20 10.94
10099 11.2040 123.89 104.05 11.13
10100 11.2050 137.01 103.90 11.71
10101 11.2060 129.84 103.75 11.39
10102 11.2070 128.98 103.60 11.36
10103 11.2080 122.44 103.45 11.07
10104 11.2090 121.77 103.29 11.03
10105 11.2100 134.40 103.14 11.59
10106 11.2110 125.01 102.97 11.18
10107 11.2120 120.27 102.81 10.97
10108 11.2130 117.87 102.59 10.86
10109 11.2140 123.80 102.41 11.13
10110 11.2150 119.27 102.23 10.92
10111 11.2160 119.86 102.04 10.95
10112 11.2170 120.87 101.84 10.99
10113 11.2180 116.79 101.63 10.81
10114 11.2190 126.68 101.41 11.26
10115 11.2200 130.48 101.18 11.42
10116 11.2210 117.99 100.94 10.86
10117 11.2220 112.16 100.69 10.59
10118 11.2230 104.18 100.42 10.21
10119 11.2240 115.40 100.14 10.74
10120 11.2250 127.41 99.85 11.29
10121 11.2260 118.55 99.54 10.89
10122 11.2270 93.47 99.21 9.67
10123 11.2280 110.03 98.88 10.49
10124 11.2290 106.32 98.52 10.31
10125 11.2300 111.97 98.15 10.58
10126 11.2310 114.13 97.77 10.68
10127 11.2320 126.52 97.37 11.25
10128 11.2330 100.60 96.96 10.03
10129 11.2340 97.33 96.54 9.87
10130 11.2350 104.12 96.10 10.20
10131 11.2360 100.00 95.65 10.00
10132 11.2370 97.54 95.19 9.88
10133 11.2380 94.66 94.72 9.73
10134 11.2390 100.24 94.24 10.01
10135 11.2400 87.60 93.75 9.36
10136 11.2410 88.83 93.25 9.42
10137 11.2420 95.51 92.74 9.77
10138 11.2430 95.22 92.23 9.76
10139 11.2440 106.19 91.71 10.30
10140 11.2450 91.91 91.14 9.59
10141 11.2460 86.45 90.62 9.30
10142 11.2470 87.70 90.09 9.36
10143 11.2480 88.96 89.57 9.43
10144 11.2490 90.35 89.04 9.51
10145 11.2500 92.74 88.52 9.63
10146 11.2510 93.35 88.11 9.66
10147 11.2520 85.89 87.60 9.27
10148 11.2530 74.37 87.08 8.62
10149 11.2540 83.09 86.57 9.12
10150 11.2550 91.01 86.06 9.54
10151 11.2560 81.88 85.56 9.05
10152 11.2570 80.41 85.07 8.97
10153 11.2580 90.13 84.58 9.49
10154 11.2590 85.90 84.10 9.27
10155 11.2600 75.62 83.63 8.70
10156 11.2610 81.76 83.17 9.04
10157 11.2620 79.20 82.72 8.90
10158 11.2630 80.39 82.27 8.97
10159 11.2640 94.43 81.84 9.72
10160 11.2650 76.79 81.41 8.76
10161 11.2660 80.01 81.00 8.94
10162 11.2670 81.13 80.60 9.01
10163 11.2680 73.51 80.21 8.57
10164 11.2690 79.54 79.82 8.92
10165 11.2700 75.46 79.45 8.69
10166 11.2710 80.24 79.10 8.96
10167 11.2720 74.91 78.75 8.66
10168 11.2730 82.36 78.42 9.08
10169 11.2740 80.39 78.09 8.97
10170 11.2750 75.18 77.78 8.67
10171 11.2760 89.65 77.48 9.47
10172 11.2770 75.61 77.20 8.70
10173 11.2780 81.23 76.93 9.01
10174 11.2790 76.53 76.66 8.75
10175 11.2800 80.77 76.42 8.99
10176 11.2810 76.43 76.18 8.74
10177 11.2820 69.60 75.96 8.34
10178 11.2830 76.28 75.75 8.73
10179 11.2840 77.30 75.55 8.79
10180 11.2850 84.28 75.36 9.18
10181 11.2860 82.57 75.19 9.09
10182 11.2870 84.79 75.03 9.21
10183 11.2880 85.18 74.88 9.23
10184 11.2890 96.94 74.75 9.85
10185 11.2900 68.00 74.63 8.25
10186 11.2910 75.64 74.52 8.70
10187 11.2920 77.16 74.42 8.78
10188 11.2930 81.86 74.34 9.05
10189 11.2940 80.26 74.27 8.96
10190 11.2950 81.64 74.21 9.04
10191 11.2960 68.99 74.17 8.31
10192 11.2970 79.53 74.13 8.92
10193 11.2980 77.83 74.11 8.82
10194 11.2990 76.85 74.11 8.77
10195 11.3000 76.92 74.11 8.77
10196 11.3010 67.67 74.13 8.23
10197 11.3020 75.15 74.16 8.67
10198 11.3030 76.26 74.20 8.73
10199 11.3040 66.56 74.25 8.16
10200 11.3050 82.70 74.32 9.09
10201 11.3060 82.06 74.40 9.06
10202 11.3070 90.13 74.49 9.49
10203 11.3080 84.73 74.59 9.20
10204 11.3090 82.21 74.71 9.07
10205 11.3100 73.19 74.83 8.56
10206 11.3110 82.31 74.97 9.07
10207 11.3120 97.23 75.12 9.86
10208 11.3130 96.33 75.28 9.81
10209 11.3140 83.69 75.46 9.15
10210 11.3150 92.09 75.64 9.60
10211 11.3160 87.78 75.83 9.37
10212 11.3170 85.92 76.04 9.27
10213 11.3180 80.49 76.26 8.97
10214 11.3190 76.73 76.53 8.76
10215 11.3200 92.37 76.77 9.61
10216 11.3210 98.16 77.01 9.91
10217 11.3220 78.61 77.27 8.87
10218 11.3230 91.58 77.54 9.57
10219 11.3240 94.72 77.82 9.73
10220 11.3250 89.48 78.10 9.46
10221 11.3260 88.32 78.40 9.40
10222 11.3270 91.79 78.70 9.58
10223 11.3280 94.69 79.02 9.73
10224 11.3290 80.92 79.35 9.00
10225 11.3300 85.43 79.68 9.24
10226 11.3310 85.93 80.01 9.27
10227 11.3320 84.38 80.36 9.19
10228 11.3330 86.25 80.70 9.29
10229 11.3340 91.06 81.06 9.54
10230 11.3350 92.37 81.42 9.61
10231 11.3360 89.25 81.78 9.45
10232 11.3370 87.87 82.15 9.37
10233 11.3380 89.58 82.53 9.46
10234 11.3390 82.07 82.90 9.06
10235 11.3400 83.76 83.29 9.15
10236 11.3410 88.83 83.67 9.42
10237 11.3420 88.83 84.05 9.42
10238 11.3430 104.27 84.43 10.21
10239 11.3440 96.92 84.82 9.84
10240 11.3450 96.30 85.20 9.81
10241 11.3460 104.78 85.57 10.24
10242 11.3470 98.97 85.95 9.95
10243 11.3480 100.19 86.32 10.01
10244 11.3490 90.71 86.70 9.52
10245 11.3500 94.45 87.06 9.72
10246 11.3510 101.16 87.42 10.06
10247 11.3520 106.85 87.78 10.34
10248 11.3530 98.16 88.12 9.91
10249 11.3540 100.19 88.46 10.01
10250 11.3550 98.14 88.79 9.91
10251 11.3560 102.27 89.11 10.11
10252 11.3570 99.82 89.43 9.99
10253 11.3580 100.38 89.73 10.02
10254 11.3590 95.92 90.02 9.79
10255 11.3600 100.48 90.30 10.02
10256 11.3610 90.74 90.57 9.53
10257 11.3620 94.90 90.83 9.74
10258 11.3630 111.03 91.08 10.54
10259 11.3640 102.67 91.32 10.13
10260 11.3650 105.23 91.54 10.26
10261 11.3660 96.71 91.75 9.83
10262 11.3670 103.53 91.95 10.18
10263 11.3680 107.48 92.13 10.37
10264 11.3690 98.72 92.30 9.94
10265 11.3700 104.21 92.46 10.21
10266 11.3710 94.74 92.58 9.73
10267 11.3720 87.82 92.74 9.37
10268 11.3730 94.33 92.87 9.71
10269 11.3740 100.82 92.98 10.04
10270 11.3750 106.33 93.08 10.31
10271 11.3760 94.79 93.17 9.74
10272 11.3770 107.77 93.24 10.38
10273 11.3780 102.04 93.31 10.10
10274 11.3790 97.44 93.36 9.87
10275 11.3800 106.70 93.41 10.33
10276 11.3810 112.86 93.44 10.62
10277 11.3820 111.28 93.46 10.55
10278 11.3830 101.44 93.48 10.07
10279 11.3840 93.61 93.48 9.68
10280 11.3850 94.95 93.48 9.74
10281 11.3860 98.12 93.47 9.91
10282 11.3870 107.63 93.45 10.37
10283 11.3880 108.51 93.42 10.42
10284 11.3890 112.57 93.41 10.61
10285 11.3900 114.97 93.37 10.72
10286 11.3910 98.83 93.32 9.94
10287 11.3920 96.18 93.27 9.81
10288 11.3930 92.96 93.21 9.64
10289 11.3940 102.69 93.14 10.13
10290 11.3950 100.56 93.07 10.03
10291 11.3960 103.21 92.99 10.16
10292 11.3970 90.95 92.91 9.54
10293 11.3980 103.20 92.82 10.16
10294 11.3990 108.34 92.73 10.41
10295 11.4000 88.90 92.64 9.43
10296 11.4010 94.00 92.54 9.70
10297 11.4020 87.25 92.44 9.34
10298 11.4030 91.60 92.34 9.57
10299 11.4040 83.77 92.22 9.15
10300 11.4050 93.89 92.11 9.69
10301 11.4060 93.57 92.00 9.67
10302 11.4070 90.25 91.88 9.50
10303 11.4080 95.30 91.77 9.76
10304 11.4090 94.01 91.65 9.70
10305 11.4100 87.07 91.52 9.33
10306 11.4110 85.57 91.40 9.25
10307 11.4120 91.30 91.27 9.56
10308 11.4130 98.25 91.14 9.91
10309 11.4140 88.25 91.01 9.39
10310 11.4150 88.86 90.88 9.43
10311 11.4160 91.91 90.75 9.59
10312 11.4170 91.25 90.62 9.55
10313 11.4180 99.25 90.48 9.96
10314 11.4190 87.04 90.34 9.33
10315 11.4200 78.71 90.20 8.87
10316 11.4210 85.67 90.06 9.26
10317 11.4220 84.66 89.92 9.20
10318 11.4230 87.74 89.77 9.37
10319 11.4240 88.10 89.63 9.39
10320 11.4250 90.34 89.49 9.50
10321 11.4260 73.31 89.35 8.56
10322 11.4270 73.72 89.20 8.59
10323 11.4280 88.09 89.07 9.39
10324 11.4290 80.59 88.93 8.98
10325 11.4300 81.25 88.79 9.01
10326 11.4310 81.01 88.66 9.00
10327 11.4320 73.81 88.53 8.59
10328 11.4330 84.30 88.40 9.18
10329 11.4340 96.09 88.28 9.80
10330 11.4350 81.32 88.17 9.02
10331 11.4360 74.59 88.06 8.64
10332 11.4370 73.34 87.95 8.56
10333 11.4380 71.94 87.85 8.48
10334 11.4390 85.83 87.76 9.26
10335 11.4400 97.20 87.67 9.86
10336 11.4410 80.16 87.59 8.95
10337 11.4420 70.60 87.52 8.40
10338 11.4430 91.26 87.46 9.55
10339 11.4440 75.16 87.40 8.67
10340 11.4450 77.25 87.33 8.79
10341 11.4460 73.78 87.29 8.59
10342 11.4470 72.56 87.26 8.52
10343 11.4480 79.63 87.24 8.92
10344 11.4490 83.65 87.23 9.15
10345 11.4500 85.71 87.24 9.26
10346 11.4510 89.95 87.25 9.48
10347 11.4520 95.22 87.27 9.76
10348 11.4530 93.01 87.30 9.64
10349 11.4540 82.99 87.34 9.11
10350 11.4550 82.69 87.40 9.09
10351 11.4560 79.93 87.46 8.94
10352 11.4570 80.26 87.53 8.96
10353 11.4580 92.59 87.62 9.62
10354 11.4590 101.39 87.71 10.07
10355 11.4600 95.80 87.82 9.79
10356 11.4610 79.49 88.01 8.92
10357 11.4620 74.63 88.14 8.64
10358 11.4630 71.89 88.28 8.48
10359 11.4640 75.85 88.42 8.71
10360 11.4650 72.30 88.58 8.50
10361 11.4660 87.17 88.74 9.34
10362 11.4670 82.16 88.91 9.06
10363 11.4680 87.09 89.10 9.33
10364 11.4690 82.78 89.29 9.10
10365 11.4700 79.26 89.49 8.90
10366 11.4710 73.22 89.69 8.56
10367 11.4720 68.85 89.90 8.30
10368 11.4730 67.87 90.13 8.24
10369 11.4740 72.00 90.35 8.49
10370 11.4750 76.20 90.58 8.73
10371 11.4760 75.59 90.82 8.69
10372 11.4770 73.77 91.07 8.59
10373 11.4780 78.88 91.32 8.88
10374 11.4790 77.94 91.57 8.83
10375 11.4800 82.59 91.82 9.09
10376 11.4810 81.12 92.08 9.01
10377 11.4820 86.11 92.35 9.28
10378 11.4830 87.18 92.61 9.34
10379 11.4840 90.87 92.87 9.53
10380 11.4850 71.68 93.14 8.47
10381 11.4860 81.20 93.41 9.01
10382 11.4870 87.31 93.67 9.34
10383 11.4880 80.09 93.94 8.95
10384 11.4890 78.03 94.20 8.83
10385 11.4900 87.21 94.46 9.34
10386 11.4910 91.88 94.72 9.59
10387 11.4920 91.41 94.97 9.56
10388 11.4930 96.35 95.22 9.82
10389 11.4940 82.63 95.47 9.09
10390 11.4950 84.63 95.71 9.20
10391 11.4960 92.97 95.94 9.64
10392 11.4970 108.03 96.16 10.39
10393 11.4980 91.60 96.38 9.57
10394 11.4990 91.66 96.59 9.57
10395 11.5000 104.40 96.79 10.22
10396 11.5010 95.97 96.97 9.80
10397 11.5020 98.67 97.15 9.93
10398 11.5030 107.83 97.31 10.38
10399 11.5040 99.24 97.46 9.96
10400 11.5050 95.17 97.60 9.76
10401 11.5060 107.46 97.72 10.37
10402 11.5070 114.71 97.83 10.71
10403 11.5080 106.03 97.92 10.30
10404 11.5090 103.90 97.99 10.19
10405 11.5100 104.53 98.05 10.22
10406 11.5110 115.94 98.09 10.77
10407 11.5120 119.22 98.11 10.92
10408 11.5130 107.38 98.11 10.36
10409 11.5140 97.40 98.09 9.87
10410 11.5150 107.19 98.05 10.35
10411 11.5160 100.64 97.99 10.03
10412 11.5170 93.43 97.91 9.67
10413 11.5180 113.63 97.81 10.66
10414 11.5190 115.32 97.69 10.74
10415 11.5200 112.36 97.55 10.60
10416 11.5210 107.89 97.39 10.39
10417 11.5220 111.62 97.21 10.56
10418 11.5230 99.25 97.01 9.96
10419 11.5240 91.36 96.79 9.56
10420 11.5250 100.66 96.55 10.03
10421 11.5260 98.82 96.30 9.94
10422 11.5270 105.39 96.03 10.27
10423 11.5280 87.11 95.75 9.33
10424 11.5290 101.09 95.45 10.05
10425 11.5300 97.95 95.14 9.90
10426 11.5310 96.85 94.81 9.84
10427 11.5320 92.48 94.48 9.62
10428 11.5330 102.48 94.13 10.12
10429 11.5340 101.19 93.78 10.06
10430 11.5350 88.80 93.41 9.42
10431 11.5360 89.26 93.04 9.45
10432 11.5370 93.30 92.67 9.66
10433 11.5380 93.52 92.29 9.67
10434 11.5390 85.61 91.90 9.25
10435 11.5400 84.34 91.52 9.18
10436 11.5410 79.56 91.13 8.92
10437 11.5420 84.92 90.74 9.22
10438 11.5430 82.93 90.35 9.11
10439 11.5440 91.65 90.00 9.57
10440 11.5450 85.35 89.61 9.24
10441 11.5460 77.24 89.23 8.79
10442 11.5470 85.73 88.86 9.26
10443 11.5480 80.83 88.48 8.99
10444 11.5490 83.43 88.04 9.13
10445 11.5500 69.91 87.68 8.36
10446 11.5510 83.55 87.32 9.14
10447 11.5520 78.03 86.97 8.83
10448 11.5530 78.13 86.64 8.84
10449 11.5540 72.45 86.30 8.51
10450 11.5550 77.36 85.98 8.80
10451 11.5560 76.86 85.67 8.77
10452 11.5570 64.99 85.36 8.06
10453 11.5580 65.29 85.07 8.08
10454 11.5590 70.97 84.79 8.42
10455 11.5600 84.51 84.61 9.19
10456 11.5610 81.22 84.34 9.01
10457 11.5620 81.18 84.09 9.01
10458 11.5630 81.40 83.85 9.02
10459 11.5640 66.85 83.62 8.18
10460 11.5650 74.31 83.40 8.62
10461 11.5660 68.36 83.19 8.27
10462 11.5670 72.28 83.00 8.50
10463 11.5680 83.75 82.81 9.15
10464 11.5690 77.24 82.64 8.79
10465 11.5700 87.49 82.48 9.35
10466 11.5710 89.86 82.33 9.48
10467 11.5720 81.89 82.19 9.05
10468 11.5730 68.93 82.07 8.30
10469 11.5740 74.04 81.95 8.60
10470 11.5750 83.07 81.85 9.11
10471 11.5760 79.21 81.76 8.90
10472 11.5770 72.33 81.68 8.50
10473 11.5780 85.27 81.61 9.23
10474 11.5790 84.82 81.56 9.21
10475 11.5800 70.76 81.51 8.41
10476 11.5810 65.86 81.48 8.12
10477 11.5820 78.18 81.45 8.84
10478 11.5830 81.77 81.44 9.04
10479 11.5840 72.94 81.44 8.54
10480 11.5850 74.92 81.45 8.66
10481 11.5860 74.57 81.46 8.64
10482 11.5870 68.35 81.49 8.27
10483 11.5880 72.54 81.52 8.52
10484 11.5890 78.88 81.57 8.88
10485 11.5900 75.75 81.62 8.70
10486 11.5910 76.82 81.68 8.76
10487 11.5920 72.98 81.75 8.54
10488 11.5930 75.57 81.83 8.69
10489 11.5940 66.72 81.91 8.17
10490 11.5950 71.34 82.00 8.45
10491 11.5960 73.29 82.10 8.56
10492 11.5970 93.36 82.20 9.66
10493 11.5980 82.55 82.33 9.09
10494 11.5990 72.09 82.44 8.49
10495 11.6000 73.50 82.56 8.57
10496 11.6010 86.54 82.68 9.30
10497 11.6020 87.15 82.80 9.34
10498 11.6030 84.34 82.92 9.18
10499 11.6040 80.06 83.05 8.95
10500 11.6050 71.91 83.18 8.48
10501 11.6060 70.46 83.31 8.39
10502 11.6070 70.11 83.44 8.37
10503 11.6080 65.70 83.57 8.11
10504 11.6090 69.44 83.70 8.33
10505 11.6100 69.30 83.83 8.32
10506 11.6110 82.00 83.96 9.06
10507 11.6120 78.06 84.12 8.84
10508 11.6130 69.40 84.25 8.33
10509 11.6140 78.27 84.38 8.85
10510 11.6150 91.72 84.50 9.58
10511 11.6160 79.90 84.62 8.94
10512 11.6170 76.95 84.74 8.77
10513 11.6180 78.38 84.85 8.85
10514 11.6190 78.67 84.97 8.87
10515 11.6200 87.50 85.08 9.35
10516 11.6210 79.30 85.19 8.91
10517 11.6220 80.74 85.30 8.99
10518 11.6230 84.56 85.41 9.20
10519 11.6240 83.46 85.51 9.14
10520 11.6250 75.59 85.62 8.69
10521 11.6260 79.01 85.72 8.89
10522 11.6270 75.80 85.82 8.71
10523 11.6280 83.62 85.92 9.14
10524 11.6290 87.76 86.02 9.37
10525 11.6300 83.91 86.12 9.16
10526 11.6310 86.98 86.21 9.33
10527 11.6320 86.38 86.31 9.29
10528 11.6330 83.63 86.41 9.14
10529 11.6340 83.72 86.52 9.15
10530 11.6350 78.74 86.63 8.87
10531 11.6360 83.11 86.73 9.12
10532 11.6370 69.27 86.84 8.32
10533 11.6380 81.03 86.95 9.00
10534 11.6390 81.18 87.07 9.01
10535 11.6400 84.56 87.19 9.20
10536 11.6410 81.35 87.31 9.02
10537 11.6420 84.27 87.44 9.18
10538 11.6430 86.45 87.57 9.30
10539 11.6440 80.57 87.71 8.98
10540 11.6450 82.65 87.85 9.09
10541 11.6460 88.10 88.00 9.39
10542 11.6470 99.54 88.15 9.98
10543 11.6480 86.24 88.31 9.29
10544 11.6490 86.63 88.47 9.31
10545 11.6500 87.56 88.65 9.36
10546 11.6510 87.54 88.83 9.36
10547 11.6520 84.77 89.02 9.21
10548 11.6530 80.15 89.21 8.95
10549 11.6540 82.34 89.42 9.07
10550 11.6550 93.04 89.63 9.65
10551 11.6560 93.73 89.85 9.68
10552 11.6570 99.10 90.08 9.95
10553 11.6580 95.47 90.32 9.77
10554 11.6590 90.21 90.57 9.50
10555 11.6600 87.08 90.83 9.33
10556 11.6610 93.22 91.10 9.66
10557 11.6620 84.91 91.38 9.21
10558 11.6630 95.65 91.67 9.78
10559 11.6640 82.47 91.98 9.08
10560 11.6650 91.22 92.29 9.55
10561 11.6660 84.35 92.62 9.18
10562 11.6670 75.73 92.96 8.70
10563 11.6680 78.70 93.31 8.87
10564 11.6690 80.21 93.67 8.96
10565 11.6700 74.43 94.05 8.63
10566 11.6710 95.05 94.44 9.75
10567 11.6720 91.40 94.84 9.56
10568 11.6730 88.96 95.25 9.43
10569 11.6740 95.34 95.68 9.76
10570 11.6750 88.10 96.13 9.39
10571 11.6760 77.01 96.59 8.78
10572 11.6770 86.11 97.06 9.28
10573 11.6780 95.53 97.53 9.77
10574 11.6790 87.57 98.03 9.36
10575 11.6800 88.11 98.53 9.39
10576 11.6810 96.50 99.05 9.82
10577 11.6820 92.34 99.58 9.61
10578 11.6830 98.09 100.12 9.90
10579 11.6840 94.24 100.68 9.71
10580 11.6850 94.81 101.24 9.74
10581 11.6860 96.40 101.82 9.82
10582 11.6870 92.73 102.41 9.63
10583 11.6880 93.25 103.02 9.66
10584 11.6890 108.57 103.63 10.42
10585 11.6900 95.10 104.26 9.75
10586 11.6910 87.77 104.90 9.37
10587 11.6920 95.69 105.55 9.78
10588 11.6930 93.29 106.21 9.66
10589 11.6940 100.11 106.85 10.01
10590 11.6950 92.14 107.54 9.60
10591 11.6960 93.51 108.23 9.67
10592 11.6970 114.72 108.94 10.71
10593 11.6980 108.76 109.65 10.43
10594 11.6990 94.67 110.38 9.73
10595 11.7000 110.86 111.12 10.53
10596 11.7010 105.93 111.87 10.29
10597 11.7020 108.62 112.63 10.42
10598 11.7030 99.10 113.37 9.95
10599 11.7040 100.41 114.16 10.02
10600 11.7050 107.80 114.96 10.38
10601 11.7060 111.36 115.77 10.55
10602 11.7070 104.53 116.59 10.22
10603 11.7080 118.11 117.43 10.87
10604 11.7090 107.34 118.29 10.36
10605 11.7100 112.70 119.15 10.62
10606 11.7110 117.55 120.03 10.84
10607 11.7120 112.85 120.93 10.62
10608 11.7130 117.66 121.84 10.85
10609 11.7140 107.69 122.76 10.38
10610 11.7150 117.53 123.71 10.84
10611 11.7160 111.97 124.66 10.58
10612 11.7170 109.07 125.62 10.44
10613 11.7180 111.67 126.61 10.57
10614 11.7190 134.67 127.62 11.60
10615 11.7200 114.53 128.65 10.70
10616 11.7210 118.56 129.69 10.89
10617 11.7220 116.39 130.75 10.79
10618 11.7230 114.56 131.82 10.70
10619 11.7240 122.73 132.95 11.08
10620 11.7250 123.61 134.06 11.12
10621 11.7260 133.63 135.18 11.56
10622 11.7270 133.63 136.33 11.56
10623 11.7280 126.09 137.48 11.23
10624 11.7290 141.76 138.65 11.91
10625 11.7300 133.22 139.84 11.54
10626 11.7310 125.10 141.04 11.18
10627 11.7320 147.70 142.25 12.15
10628 11.7330 146.46 143.47 12.10
10629 11.7340 135.50 144.70 11.64
10630 11.7350 147.35 145.94 12.14
10631 11.7360 163.34 147.19 12.78
10632 11.7370 167.35 148.44 12.94
10633 11.7380 165.63 149.70 12.87
10634 11.7390 141.27 150.96 11.89
10635 11.7400 162.69 152.22 12.76
10636 11.7410 165.58 153.47 12.87
10637 11.7420 173.02 154.73 13.15
10638 11.7430 174.48 155.97 13.21
10639 11.7440 165.25 157.20 12.85
10640 11.7450 172.10 158.42 13.12
10641 11.7460 177.58 159.63 13.33
10642 11.7470 185.69 160.81 13.63
10643 11.7480 179.01 161.93 13.38
10644 11.7490 197.75 163.03 14.06
10645 11.7500 180.52 164.14 13.44
10646 11.7510 183.83 165.16 13.56
10647 11.7520 184.28 166.19 13.57
10648 11.7530 187.56 167.19 13.70
10649 11.7540 195.56 168.14 13.98
10650 11.7550 181.12 169.05 13.46
10651 11.7560 177.09 169.90 13.31
10652 11.7570 174.03 170.69 13.19
10653 11.7580 180.76 171.43 13.44
10654 11.7590 200.16 172.11 14.15
10655 11.7600 180.47 172.71 13.43
10656 11.7610 183.01 173.25 13.53
10657 11.7620 202.08 173.72 14.22
10658 11.7630 199.37 174.11 14.12
10659 11.7640 205.89 174.43 14.35
10660 11.7650 187.60 174.66 13.70
10661 11.7660 182.08 174.82 13.49
10662 11.7670 197.56 174.89 14.06
10663 11.7680 190.43 174.88 13.80
10664 11.7690 211.57 174.79 14.55
10665 11.7700 200.91 174.61 14.17
10666 11.7710 173.98 174.35 13.19
10667 11.7720 176.15 174.01 13.27
10668 11.7730 173.09 173.58 13.16
10669 11.7740 179.78 173.08 13.41
10670 11.7750 160.37 172.49 12.66
10671 11.7760 157.61 171.83 12.55
10672 11.7770 152.80 171.10 12.36
10673 11.7780 162.99 170.30 12.77
10674 11.7790 156.74 169.42 12.52
10675 11.7800 163.55 168.49 12.79
10676 11.7810 146.69 167.49 12.11
10677 11.7820 141.25 166.43 11.88
10678 11.7830 166.12 165.32 12.89
10679 11.7840 150.44 164.16 12.27
10680 11.7850 150.56 162.96 12.27
10681 11.7860 137.66 161.71 11.73
10682 11.7870 132.82 160.46 11.52
10683 11.7880 143.07 159.14 11.96
10684 11.7890 140.16 157.79 11.84
10685 11.7900 127.51 156.41 11.29
10686 11.7910 131.36 155.01 11.46
10687 11.7920 124.13 153.59 11.14
10688 11.7930 112.45 152.16 10.60
10689 11.7940 123.08 150.71 11.09
10690 11.7950 129.25 149.25 11.37
10691 11.7960 132.15 147.78 11.50
10692 11.7970 125.94 146.31 11.22
10693 11.7980 126.93 144.84 11.27
10694 11.7990 115.06 143.38 10.73
10695 11.8000 114.95 141.91 10.72
10696 11.8010 116.15 140.43 10.78
10697 11.8020 112.20 138.99 10.59
10698 11.8030 116.88 137.54 10.81
10699 11.8040 121.30 136.12 11.01
10700 11.8050 127.74 134.70 11.30
10701 11.8060 126.50 133.31 11.25
10702 11.8070 115.95 131.93 10.77
10703 11.8080 132.42 130.57 11.51
10704 11.8090 117.33 129.22 10.83
10705 11.8100 104.03 127.90 10.20
10706 11.8110 99.06 126.60 9.95
10707 11.8120 103.40 125.33 10.17
10708 11.8130 106.53 124.08 10.32
10709 11.8140 100.67 122.85 10.03
10710 11.8150 99.44 121.65 9.97
10711 11.8160 115.56 120.47 10.75
10712 11.8170 107.94 119.32 10.39
10713 11.8180 100.26 118.20 10.01
10714 11.8190 104.87 117.10 10.24
10715 11.8200 115.33 116.04 10.74
10716 11.8210 108.08 114.99 10.40
10717 11.8220 110.02 113.98 10.49
10718 11.8230 102.79 113.00 10.14
10719 11.8240 110.27 112.02 10.50
10720 11.8250 102.24 111.11 10.11
10721 11.8260 107.61 110.21 10.37
10722 11.8270 104.08 109.34 10.20
10723 11.8280 99.25 108.50 9.96
10724 11.8290 123.37 107.69 11.11
10725 11.8300 115.79 106.91 10.76
10726 11.8310 104.70 106.15 10.23
10727 11.8320 107.18 105.43 10.35
10728 11.8330 90.88 104.75 9.53
10729 11.8340 88.25 104.08 9.39
10730 11.8350 98.84 103.43 9.94
10731 11.8360 95.21 102.82 9.76
10732 11.8370 108.45 102.23 10.41
10733 11.8380 100.85 101.64 10.04
10734 11.8390 94.27 101.11 9.71
10735 11.8400 91.67 100.60 9.57
10736 11.8410 101.42 100.11 10.07
10737 11.8420 112.82 99.65 10.62
10738 11.8430 101.40 99.22 10.07
10739 11.8440 88.71 98.81 9.42
10740 11.8450 86.99 98.42 9.33
10741 11.8460 91.81 98.06 9.58
10742 11.8470 96.40 97.72 9.82
10743 11.8480 84.36 97.40 9.18
10744 11.8490 88.89 97.13 9.43
10745 11.8500 82.21 96.86 9.07
10746 11.8510 99.86 96.61 9.99
10747 11.8520 104.18 96.36 10.21
10748 11.8530 105.35 96.15 10.26
10749 11.8540 99.98 95.96 10.00
10750 11.8550 87.84 95.79 9.37
10751 11.8560 81.49 95.65 9.03
10752 11.8570 89.61 95.51 9.47
10753 11.8580 101.36 95.40 10.07
10754 11.8590 110.43 95.31 10.51
10755 11.8600 103.40 95.23 10.17
10756 11.8610 93.00 95.18 9.64
10757 11.8620 101.40 95.13 10.07
10758 11.8630 93.77 95.11 9.68
10759 11.8640 93.60 95.10 9.67
10760 11.8650 90.53 95.11 9.51
10761 11.8660 92.53 95.13 9.62
10762 11.8670 92.11 95.18 9.60
10763 11.8680 106.09 95.23 10.30
10764 11.8690 95.84 95.30 9.79
10765 11.8700 104.89 95.39 10.24
10766 11.8710 105.64 95.46 10.28
10767 11.8720 101.55 95.57 10.08
10768 11.8730 121.65 95.70 11.03
10769 11.8740 99.12 95.84 9.96
10770 11.8750 100.64 95.99 10.03
10771 11.8760 102.00 96.16 10.10
10772 11.8770 100.19 96.34 10.01
10773 11.8780 97.09 96.54 9.85
10774 11.8790 93.02 96.74 9.64
10775 11.8800 99.84 96.96 9.99
10776 11.8810 99.88 97.19 9.99
10777 11.8820 85.87 97.44 9.27
10778 11.8830 94.97 97.69 9.75
10779 11.8840 111.61 97.96 10.56
10780 11.8850 105.10 98.24 10.25
10781 11.8860 104.54 98.53 10.22
10782 11.8870 101.31 98.84 10.07
10783 11.8880 116.54 99.15 10.80
10784 11.8890 104.30 99.47 10.21
10785 11.8900 112.34 99.79 10.60
10786 11.8910 102.86 100.13 10.14
10787 11.8920 102.76 100.47 10.14
10788 11.8930 104.94 100.83 10.24
10789 11.8940 117.57 101.19 10.84
10790 11.8950 117.54 101.55 10.84
10791 11.8960 111.29 101.93 10.55
10792 11.8970 106.61 102.31 10.33
10793 11.8980 114.71 102.69 10.71
10794 11.8990 115.13 103.08 10.73
10795 11.9000 113.23 103.48 10.64
10796 11.9010 110.38 103.87 10.51
10797 11.9020 101.80 104.28 10.09
10798 11.9030 112.88 104.68 10.62
10799 11.9040 112.83 105.09 10.62
10800 11.9050 111.25 105.49 10.55
10801 11.9060 115.78 105.90 10.76
10802 11.9070 132.32 106.30 11.50
10803 11.9080 114.98 106.71 10.72
10804 11.9090 121.01 107.11 11.00
10805 11.9100 123.09 107.50 11.09
10806 11.9110 123.32 107.90 11.10
10807 11.9120 118.22 108.29 10.87
10808 11.9130 119.44 108.65 10.93
10809 11.9140 120.15 109.03 10.96
10810 11.9150 100.21 109.41 10.01
10811 11.9160 119.96 109.78 10.95
10812 11.9170 118.98 110.14 10.91
10813 11.9180 114.98 110.47 10.72
10814 11.9190 117.16 110.82 10.82
10815 11.9200 101.67 111.16 10.08
10816 11.9210 106.26 111.49 10.31
10817 11.9220 116.79 111.82 10.81
10818 11.9230 108.19 112.13 10.40
10819 11.9240 106.93 112.44 10.34
10820 11.9250 105.92 112.74 10.29
10821 11.9260 107.36 113.03 10.36
10822 11.9270 106.37 113.31 10.31
10823 11.9280 102.81 113.57 10.14
10824 11.9290 108.68 113.83 10.43
10825 11.9300 107.47 114.08 10.37
10826 11.9310 103.58 114.32 10.18
10827 11.9320 108.97 114.55 10.44
10828 11.9330 107.86 114.77 10.39
10829 11.9340 105.64 114.98 10.28
10830 11.9350 98.42 115.18 9.92
10831 11.9360 96.33 115.37 9.81
10832 11.9370 110.25 115.56 10.50
10833 11.9380 110.37 115.74 10.51
10834 11.9390 98.44 115.91 9.92
10835 11.9400 100.29 116.07 10.01
10836 11.9410 107.49 116.22 10.37
10837 11.9420 114.47 116.38 10.70
10838 11.9430 101.30 116.52 10.06
10839 11.9440 91.91 116.67 9.59
10840 11.9450 94.66 116.80 9.73
10841 11.9460 105.00 116.94 10.25
10842 11.9470 107.44 117.08 10.37
10843 11.9480 93.00 117.21 9.64
10844 11.9490 107.70 117.35 10.38
10845 11.9500 107.27 117.48 10.36
10846 11.9510 103.53 117.61 10.18
10847 11.9520 95.50 117.75 9.77
10848 11.9530 95.04 117.89 9.75
10849 11.9540 108.48 118.03 10.42
10850 11.9550 117.51 118.19 10.84
10851 11.9560 120.39 118.34 10.97
10852 11.9570 95.58 118.50 9.78
10853 11.9580 103.32 118.66 10.16
10854 11.9590 112.72 118.83 10.62
10855 11.9600 114.90 119.00 10.72
10856 11.9610 104.41 119.19 10.22
10857 11.9620 111.50 119.38 10.56
10858 11.9630 98.33 119.57 9.92
10859 11.9640 83.26 119.78 9.12
10860 11.9650 93.05 120.00 9.65
10861 11.9660 110.44 120.22 10.51
10862 11.9670 99.43 120.45 9.97
10863 11.9680 113.47 120.69 10.65
10864 11.9690 121.45 120.93 11.02
10865 11.9700 116.54 121.18 10.80
10866 11.9710 108.43 121.44 10.41
10867 11.9720 108.27 121.71 10.41
10868 11.9730 116.20 121.98 10.78
10869 11.9740 122.58 122.25 11.07
10870 11.9750 121.50 122.53 11.02
10871 11.9760 109.92 122.82 10.48
10872 11.9770 118.52 123.10 10.89
10873 11.9780 113.47 123.39 10.65
10874 11.9790 125.38 123.67 11.20
10875 11.9800 118.41 123.96 10.88
10876 11.9810 131.91 124.24 11.49
10877 11.9820 125.02 124.52 11.18
10878 11.9830 123.83 124.79 11.13
10879 11.9840 114.54 125.05 10.70
10880 11.9850 113.59 125.31 10.66
10881 11.9860 114.93 125.56 10.72
10882 11.9870 121.58 125.80 11.03
10883 11.9880 135.93 126.02 11.66
10884 11.9890 145.48 126.23 12.06
10885 11.9900 124.54 126.42 11.16
10886 11.9910 124.89 126.60 11.18
10887 11.9920 135.28 126.76 11.63
10888 11.9930 126.00 126.90 11.23
10889 11.9940 121.58 127.01 11.03
10890 11.9950 124.12 127.11 11.14
10891 11.9960 132.16 127.19 11.50
10892 11.9970 124.47 127.23 11.16
10893 11.9980 159.90 127.26 12.65
10894 11.9990 152.86 127.25 12.36
10895 12.0000 143.04 127.22 11.96
10896 12.0010 141.63 127.19 11.90
10897 12.0020 151.54 127.11 12.31
10898 12.0030 154.15 127.00 12.42
10899 12.0040 144.98 126.87 12.04
10900 12.0050 150.48 126.71 12.27
10901 12.0060 141.97 126.52 11.92
10902 12.0070 139.03 126.31 11.79
10903 12.0080 123.08 126.07 11.09
10904 12.0090 139.17 125.82 11.80
10905 12.0100 149.83 125.53 12.24
10906 12.0110 139.89 125.23 11.83
10907 12.0120 132.13 124.91 11.49
10908 12.0130 125.24 124.57 11.19
10909 12.0140 123.28 124.21 11.10
10910 12.0150 123.21 123.83 11.10
10911 12.0160 127.44 123.44 11.29
10912 12.0170 137.84 123.04 11.74
10913 12.0180 139.83 122.63 11.82
10914 12.0190 137.35 122.21 11.72
10915 12.0200 136.55 121.78 11.69
10916 12.0210 129.55 121.35 11.38
10917 12.0220 126.88 120.91 11.26
10918 12.0230 129.73 120.46 11.39
10919 12.0240 130.96 120.02 11.44
10920 12.0250 124.55 119.57 11.16
10921 12.0260 135.25 119.13 11.63
10922 12.0270 119.57 118.69 10.93
10923 12.0280 130.60 118.25 11.43
10924 12.0290 119.93 117.82 10.95
10925 12.0300 120.12 117.39 10.96
10926 12.0310 120.94 116.97 11.00
10927 12.0320 115.85 116.56 10.76
10928 12.0330 112.78 116.16 10.62
10929 12.0340 125.51 115.77 11.20
10930 12.0350 123.16 115.39 11.10
10931 12.0360 110.21 115.02 10.50
10932 12.0370 116.65 114.67 10.80
10933 12.0380 124.70 114.33 11.17
10934 12.0390 122.62 114.00 11.07
10935 12.0400 121.64 113.68 11.03
10936 12.0410 116.47 113.37 10.79
10937 12.0420 120.41 113.08 10.97
10938 12.0430 116.58 112.80 10.80
10939 12.0440 125.89 112.54 11.22
10940 12.0450 122.73 112.29 11.08
10941 12.0460 126.06 112.05 11.23
10942 12.0470 132.33 111.83 11.50
10943 12.0480 130.54 111.63 11.43
10944 12.0490 114.94 111.43 10.72
10945 12.0500 132.73 111.24 11.52
10946 12.0510 129.69 111.08 11.39
10947 12.0520 134.19 110.93 11.58
10948 12.0530 138.58 110.79 11.77
10949 12.0540 120.37 110.66 10.97
10950 12.0550 123.32 110.54 11.10
10951 12.0560 124.31 110.44 11.15
10952 12.0570 131.59 110.35 11.47
10953 12.0580 126.49 110.27 11.25
10954 12.0590 125.61 110.19 11.21
10955 12.0600 109.91 110.13 10.48
10956 12.0610 103.03 110.07 10.15
10957 12.0620 103.41 110.00 10.17
10958 12.0630 105.63 109.96 10.28
10959 12.0640 118.07 109.92 10.87
10960 12.0650 110.85 109.89 10.53
10961 12.0660 113.92 109.86 10.67
10962 12.0670 115.95 109.88 10.77
10963 12.0680 108.58 109.86 10.42
10964 12.0690 125.15 109.85 11.19
10965 12.0700 126.57 109.83 11.25
10966 12.0710 116.72 109.81 10.80
10967 12.0720 115.74 109.80 10.76
10968 12.0730 120.67 109.79 10.98
10969 12.0740 122.96 109.77 11.09
10970 12.0750 124.29 109.75 11.15
10971 12.0760 115.62 109.73 10.75
10972 12.0770 110.19 109.70 10.50
10973 12.0780 118.19 109.68 10.87
10974 12.0790 108.87 109.65 10.43
10975 12.0800 102.02 109.62 10.10
10976 12.0810 115.77 109.59 10.76
10977 12.0820 114.93 109.55 10.72
10978 12.0830 116.81 109.51 10.81
10979 12.0840 111.67 109.47 10.57
10980 12.0850 111.84 109.42 10.58
10981 12.0860 130.80 109.37 11.44
10982 12.0870 114.81 109.32 10.71
10983 12.0880 119.56 109.26 10.93
10984 12.0890 109.47 109.20 10.46
10985 12.0900 98.64 109.14 9.93
10986 12.0910 108.84 109.07 10.43
10987 12.0920 107.57 108.99 10.37
10988 12.0930 123.16 108.92 11.10
10989 12.0940 109.96 108.85 10.49
10990 12.0950 105.73 108.77 10.28
10991 12.0960 102.80 108.69 10.14
10992 12.0970 99.88 108.62 9.99
10993 12.0980 98.14 108.54 9.91
10994 12.0990 114.32 108.46 10.69
10995 12.1000 115.86 108.38 10.76
10996 12.1010 114.81 108.30 10.71
10997 12.1020 103.82 108.22 10.19
10998 12.1030 113.99 108.14 10.68
10999 12.1040 110.16 108.06 10.50
11000 12.1050 118.97 107.98 10.91
11001 12.1060 127.44 107.90 11.29
11002 12.1070 109.10 107.82 10.45
11003 12.1080 111.06 107.74 10.54
11004 12.1090 114.22 107.67 10.69
11005 12.1100 123.96 107.60 11.13
11006 12.1110 127.91 107.52 11.31
11007 12.1120 106.36 107.45 10.31
11008 12.1130 99.30 107.38 9.96
11009 12.1140 108.98 107.32 10.44
11010 12.1150 115.51 107.25 10.75
11011 12.1160 115.90 107.18 10.77
11012 12.1170 115.25 107.12 10.74
11013 12.1180 108.30 107.06 10.41
11014 12.1190 125.10 107.00 11.18
11015 12.1200 106.63 106.94 10.33
11016 12.1210 92.59 106.88 9.62
11017 12.1220 113.10 106.83 10.63
11018 12.1230 109.66 106.77 10.47
11019 12.1240 102.62 106.69 10.13
11020 12.1250 111.51 106.63 10.56
11021 12.1260 109.57 106.58 10.47
11022 12.1270 114.53 106.52 10.70
11023 12.1280 119.31 106.47 10.92
11024 12.1290 105.09 106.41 10.25
11025 12.1300 121.74 106.35 11.03
11026 12.1310 110.65 106.29 10.52
11027 12.1320 94.19 106.23 9.71
11028 12.1330 101.23 106.17 10.06
11029 12.1340 99.56 106.11 9.98
11030 12.1350 100.16 106.04 10.01
11031 12.1360 108.01 105.97 10.39
11032 12.1370 116.78 105.90 10.81
11033 12.1380 102.02 105.83 10.10
11034 12.1390 110.87 105.75 10.53
11035 12.1400 124.00 105.67 11.14
11036 12.1410 117.26 105.59 10.83
11037 12.1420 126.97 105.50 11.27
11038 12.1430 115.42 105.42 10.74
11039 12.1440 101.83 105.33 10.09
11040 12.1450 108.34 105.23 10.41
11041 12.1460 98.18 105.14 9.91
11042 12.1470 88.95 105.04 9.43
11043 12.1480 97.54 104.93 9.88
11044 12.1490 113.48 104.83 10.65
11045 12.1500 113.80 104.72 10.67
11046 12.1510 97.96 104.61 9.90
11047 12.1520 107.79 104.50 10.38
11048 12.1530 106.29 104.39 10.31
11049 12.1540 102.10 104.28 10.10
11050 12.1550 108.34 104.17 10.41
11051 12.1560 101.46 104.06 10.07
11052 12.1570 115.28 103.94 10.74
11053 12.1580 106.32 103.83 10.31
11054 12.1590 95.42 103.72 9.77
11055 12.1600 87.27 103.61 9.34
11056 12.1610 105.47 103.50 10.27
11057 12.1620 106.08 103.40 10.30
11058 12.1630 104.59 103.29 10.23
11059 12.1640 107.71 103.20 10.38
11060 12.1650 105.79 103.10 10.29
11061 12.1660 112.17 103.01 10.59
11062 12.1670 109.65 102.92 10.47
11063 12.1680 106.20 102.84 10.31
11064 12.1690 101.97 102.77 10.10
11065 12.1700 95.19 102.70 9.76
11066 12.1710 107.43 102.63 10.36
11067 12.1720 101.32 102.58 10.07
11068 12.1730 111.29 102.52 10.55
11069 12.1740 97.63 102.48 9.88
11070 12.1750 104.98 102.45 10.25
11071 12.1760 103.58 102.42 10.18
11072 12.1770 105.99 102.40 10.30
11073 12.1780 112.99 102.39 10.63
11074 12.1790 112.28 102.39 10.60
11075 12.1800 103.74 102.40 10.19
11076 12.1810 95.17 102.42 9.76
11077 12.1820 106.34 102.45 10.31
11078 12.1830 98.73 102.48 9.94
11079 12.1840 100.07 102.53 10.00
11080 12.1850 97.87 102.58 9.89
11081 12.1860 106.95 102.65 10.34
11082 12.1870 107.81 102.72 10.38
11083 12.1880 104.21 102.81 10.21
11084 12.1890 103.15 102.91 10.16
11085 12.1900 116.20 103.02 10.78
11086 12.1910 113.47 103.13 10.65
11087 12.1920 119.75 103.25 10.94
11088 12.1930 109.02 103.39 10.44
11089 12.1940 113.31 103.53 10.64
11090 12.1950 115.49 103.67 10.75
11091 12.1960 121.07 103.82 11.00
11092 12.1970 127.40 103.99 11.29
11093 12.1980 121.03 104.16 11.00
11094 12.1990 128.08 104.35 11.32
11095 12.2000 117.34 104.53 10.83
11096 12.2010 106.20 104.73 10.31
11097 12.2020 106.85 104.93 10.34
11098 12.2030 110.31 105.14 10.50
11099 12.2040 115.60 105.35 10.75
11100 12.2050 113.86 105.56 10.67
11101 12.2060 122.89 105.78 11.09
11102 12.2070 121.27 106.00 11.01
11103 12.2080 125.97 106.22 11.22
11104 12.2090 118.86 106.44 10.90
11105 12.2100 126.12 106.66 11.23
11106 12.2110 122.77 106.89 11.08
11107 12.2120 130.05 107.11 11.40
11108 12.2130 136.88 107.36 11.70
11109 12.2140 137.77 107.57 11.74
11110 12.2150 123.99 107.78 11.14
11111 12.2160 130.67 107.98 11.43
11112 12.2170 137.25 108.18 11.72
11113 12.2180 127.02 108.35 11.27
11114 12.2190 130.02 108.53 11.40
11115 12.2200 140.44 108.70 11.85
11116 12.2210 140.27 108.86 11.84
11117 12.2220 138.53 109.01 11.77
11118 12.2230 145.84 109.14 12.08
11119 12.2240 153.78 109.26 12.40
11120 12.2250 147.80 109.37 12.16
11121 12.2260 144.39 109.47 12.02
11122 12.2270 143.18 109.54 11.97
11123 12.2280 142.91 109.61 11.95
11124 12.2290 139.29 109.66 11.80
11125 12.2300 126.95 109.69 11.27
11126 12.2310 147.62 109.71 12.15
11127 12.2320 153.09 109.65 12.37
11128 12.2330 139.41 109.64 11.81
11129 12.2340 145.87 109.61 12.08
11130 12.2350 134.17 109.57 11.58
11131 12.2360 124.46 109.51 11.16
11132 12.2370 119.90 109.43 10.95
11133 12.2380 109.68 109.34 10.47
11134 12.2390 127.59 109.24 11.30
11135 12.2400 127.15 109.13 11.28
11136 12.2410 125.44 109.00 11.20
11137 12.2420 119.18 108.87 10.92
11138 12.2430 122.55 108.73 11.07
11139 12.2440 129.13 108.57 11.36
11140 12.2450 129.94 108.41 11.40
11141 12.2460 130.51 108.24 11.42
11142 12.2470 126.06 108.07 11.23
11143 12.2480 112.64 107.89 10.61
11144 12.2490 113.94 107.71 10.67
11145 12.2500 106.48 107.53 10.32
11146 12.2510 107.40 107.35 10.36
11147 12.2520 108.54 107.17 10.42
11148 12.2530 115.34 106.99 10.74
11149 12.2540 109.08 106.81 10.44
11150 12.2550 110.36 106.63 10.51
11151 12.2560 95.12 106.46 9.75
11152 12.2570 102.39 106.29 10.12
11153 12.2580 107.60 106.13 10.37
11154 12.2590 99.79 105.98 9.99
11155 12.2600 98.45 105.84 9.92
11156 12.2610 99.57 105.70 9.98
11157 12.2620 100.16 105.58 10.01
11158 12.2630 108.00 105.46 10.39
11159 12.2640 106.81 105.36 10.33
11160 12.2650 113.66 105.27 10.66
11161 12.2660 100.96 105.19 10.05
11162 12.2670 107.17 105.12 10.35
11163 12.2680 108.17 105.07 10.40
11164 12.2690 100.72 105.04 10.04
11165 12.2700 116.06 105.01 10.77
11166 12.2710 99.97 105.01 10.00
11167 12.2720 108.10 105.02 10.40
11168 12.2730 109.51 105.04 10.46
11169 12.2740 116.02 105.08 10.77
11170 12.2750 100.27 105.14 10.01
11171 12.2760 101.66 105.22 10.08
11172 12.2770 108.20 105.31 10.40
11173 12.2780 106.22 105.43 10.31
11174 12.2790 101.63 105.55 10.08
11175 12.2800 99.21 105.72 9.96
11176 12.2810 99.81 105.89 9.99
11177 12.2820 107.71 106.07 10.38
11178 12.2830 110.32 106.28 10.50
11179 12.2840 112.61 106.50 10.61
11180 12.2850 111.66 106.74 10.57
11181 12.2860 102.82 107.00 10.14
11182 12.2870 111.14 107.27 10.54
11183 12.2880 116.97 107.56 10.82
11184 12.2890 118.64 107.87 10.89
11185 12.2900 110.10 108.20 10.49
11186 12.2910 114.44 108.55 10.70
11187 12.2920 116.12 108.91 10.78
11188 12.2930 106.78 109.29 10.33
11189 12.2940 114.78 109.68 10.71
11190 12.2950 108.58 110.09 10.42
11191 12.2960 108.17 110.52 10.40
11192 12.2970 120.97 110.96 11.00
11193 12.2980 121.91 111.41 11.04
11194 12.2990 133.44 111.88 11.55
11195 12.3000 136.68 112.36 11.69
11196 12.3010 116.93 112.85 10.81
11197 12.3020 136.35 113.35 11.68
11198 12.3030 127.07 113.86 11.27
11199 12.3040 126.95 114.38 11.27
11200 12.3050 129.47 114.90 11.38
11201 12.3060 136.16 115.44 11.67
11202 12.3070 130.23 115.98 11.41
11203 12.3080 132.40 116.52 11.51
11204 12.3090 122.61 117.07 11.07
11205 12.3100 126.77 117.62 11.26
11206 12.3110 131.01 118.18 11.45
11207 12.3120 152.98 118.73 12.37
11208 12.3130 148.28 119.28 12.18
11209 12.3140 142.78 119.83 11.95
11210 12.3150 152.00 120.37 12.33
11211 12.3160 131.47 120.91 11.47
11212 12.3170 142.29 121.44 11.93
11213 12.3180 144.15 121.96 12.01
11214 12.3190 124.72 122.48 11.17
11215 12.3200 126.97 122.98 11.27
11216 12.3210 138.18 123.47 11.76
11217 12.3220 125.82 123.95 11.22
11218 12.3230 142.09 124.41 11.92
11219 12.3240 135.41 124.86 11.64
11220 12.3250 136.38 125.29 11.68
11221 12.3260 135.13 125.70 11.62
11222 12.3270 130.80 126.10 11.44
11223 12.3280 135.33 126.47 11.63
11224 12.3290 143.57 126.82 11.98
11225 12.3300 152.92 127.15 12.37
11226 12.3310 158.74 127.46 12.60
11227 12.3320 132.18 127.74 11.50
11228 12.3330 137.40 128.05 11.72
11229 12.3340 137.91 128.29 11.74
11230 12.3350 132.02 128.50 11.49
11231 12.3360 138.37 128.66 11.76
11232 12.3370 150.33 128.82 12.26
11233 12.3380 118.97 128.95 10.91
11234 12.3390 122.32 129.06 11.06
11235 12.3400 135.40 129.14 11.64
11236 12.3410 129.20 129.21 11.37
11237 12.3420 122.25 129.24 11.06
11238 12.3430 119.06 129.25 10.91
11239 12.3440 140.78 129.24 11.87
11240 12.3450 120.55 129.20 10.98
11241 12.3460 121.97 129.14 11.04
11242 12.3470 125.75 129.06 11.21
11243 12.3480 124.76 128.96 11.17
11244 12.3490 123.04 128.83 11.09
11245 12.3500 130.02 128.69 11.40
11246 12.3510 141.32 128.53 11.89
11247 12.3520 127.83 128.35 11.31
11248 12.3530 121.56 128.16 11.03
11249 12.3540 127.07 127.95 11.27
11250 12.3550 127.94 127.73 11.31
11251 12.3560 111.29 127.49 10.55
11252 12.3570 121.48 127.24 11.02
11253 12.3580 130.89 126.98 11.44
11254 12.3590 132.26 126.71 11.50
11255 12.3600 129.03 126.43 11.36
11256 12.3610 132.85 126.14 11.53
11257 12.3620 136.74 125.84 11.69
11258 12.3630 139.07 125.53 11.79
11259 12.3640 137.59 125.22 11.73
11260 12.3650 126.78 124.90 11.26
11261 12.3660 131.07 124.57 11.45
11262 12.3670 139.87 124.24 11.83
11263 12.3680 128.17 123.90 11.32
11264 12.3690 134.22 123.56 11.59
11265 12.3700 128.81 123.20 11.35
11266 12.3710 135.49 122.85 11.64
11267 12.3720 140.60 122.49 11.86
11268 12.3730 133.17 122.13 11.54
11269 12.3740 122.93 121.77 11.09
11270 12.3750 127.79 121.40 11.30
11271 12.3760 121.16 121.02 11.01
11272 12.3770 129.96 120.64 11.40
11273 12.3780 116.22 120.26 10.78
11274 12.3790 118.61 119.87 10.89
11275 12.3800 123.24 119.48 11.10
11276 12.3810 126.20 119.09 11.23
11277 12.3820 135.60 118.68 11.64
11278 12.3830 128.25 118.28 11.32
11279 12.3840 122.50 117.87 11.07
11280 12.3850 119.78 117.45 10.94
11281 12.3860 109.39 117.03 10.46
11282 12.3870 115.05 116.61 10.73
11283 12.3880 128.12 116.18 11.32
11284 12.3890 129.26 115.74 11.37
11285 12.3900 129.67 115.30 11.39
11286 12.3910 143.86 114.86 11.99
11287 12.3920 138.84 114.41 11.78
11288 12.3930 124.91 113.95 11.18
11289 12.3940 129.45 113.50 11.38
11290 12.3950 126.69 113.03 11.26
11291 12.3960 138.20 112.57 11.76
11292 12.3970 132.44 112.10 11.51
11293 12.3980 113.38 111.63 10.65
11294 12.3990 111.77 111.15 10.57
11295 12.4000 119.22 110.67 10.92
11296 12.4010 133.83 110.19 11.57
11297 12.4020 128.29 109.71 11.33
11298 12.4030 145.85 109.22 12.08
11299 12.4040 129.21 108.74 11.37
11300 12.4050 120.95 108.25 11.00
11301 12.4060 115.52 107.76 10.75
11302 12.4070 125.71 107.28 11.21
11303 12.4080 138.27 106.79 11.76
11304 12.4090 129.64 106.30 11.39
11305 12.4100 120.18 105.82 10.96
11306 12.4110 100.41 105.34 10.02
11307 12.4120 112.27 104.86 10.60
11308 12.4130 119.86 104.38 10.95
11309 12.4140 126.82 103.91 11.26
11310 12.4150 107.47 103.44 10.37
11311 12.4160 116.22 102.97 10.78
11312 12.4170 117.51 102.51 10.84
11313 12.4180 131.70 102.05 11.48
11314 12.4190 120.58 101.60 10.98
11315 12.4200 107.71 101.14 10.38
11316 12.4210 117.04 100.69 10.82
11317 12.4220 123.68 100.26 11.12
11318 12.4230 103.88 99.83 10.19
11319 12.4240 102.99 99.41 10.15
11320 12.4250 97.92 99.00 9.90
11321 12.4260 103.51 98.60 10.17
11322 12.4270 113.14 98.20 10.64
11323 12.4280 116.02 97.81 10.77
11324 12.4290 111.35 97.43 10.55
11325 12.4300 97.18 97.05 9.86
11326 12.4310 100.62 96.68 10.03
11327 12.4320 99.42 96.30 9.97
11328 12.4330 85.99 95.95 9.27
11329 12.4340 95.97 95.61 9.80
11330 12.4350 104.31 95.28 10.21
11331 12.4360 92.64 94.96 9.62
11332 12.4370 99.04 94.64 9.95
11333 12.4380 96.45 94.34 9.82
11334 12.4390 90.31 94.05 9.50
11335 12.4400 106.32 93.76 10.31
11336 12.4410 102.57 93.48 10.13
11337 12.4420 104.93 93.22 10.24
11338 12.4430 102.60 92.96 10.13
11339 12.4440 106.81 92.71 10.33
11340 12.4450 102.77 92.47 10.14
11341 12.4460 92.14 92.24 9.60
11342 12.4470 87.94 92.01 9.38
11343 12.4480 86.45 91.80 9.30
11344 12.4490 97.56 91.59 9.88
11345 12.4500 93.55 91.39 9.67
11346 12.4510 97.88 91.20 9.89
11347 12.4520 89.91 91.02 9.48
11348 12.4530 104.28 90.84 10.21
11349 12.4540 97.19 90.68 9.86
11350 12.4550 106.18 90.51 10.30
11351 12.4560 98.92 90.36 9.95
11352 12.4570 106.15 90.21 10.30
11353 12.4580 91.25 90.07 9.55
11354 12.4590 87.19 89.94 9.34
11355 12.4600 92.67 89.81 9.63
11356 12.4610 94.99 89.69 9.75
11357 12.4620 88.79 89.56 9.42
11358 12.4630 82.28 89.45 9.07
11359 12.4640 83.47 89.34 9.14
11360 12.4650 91.09 89.23 9.54
11361 12.4660 84.35 89.13 9.18
11362 12.4670 88.63 89.04 9.41
11363 12.4680 84.86 88.95 9.21
11364 12.4690 91.69 88.86 9.58
11365 12.4700 99.62 88.78 9.98
11366 12.4710 96.73 88.70 9.84
11367 12.4720 96.27 88.63 9.81
11368 12.4730 87.05 88.56 9.33
11369 12.4740 89.00 88.50 9.43
11370 12.4750 104.47 88.44 10.22
11371 12.4760 98.70 88.38 9.93
11372 12.4770 92.78 88.33 9.63
11373 12.4780 90.49 88.28 9.51
11374 12.4790 90.45 88.23 9.51
11375 12.4800 95.31 88.19 9.76
11376 12.4810 91.46 88.16 9.56
11377 12.4820 82.12 88.12 9.06
11378 12.4830 93.59 88.09 9.67
11379 12.4840 98.20 88.07 9.91
11380 12.4850 99.54 88.05 9.98
11381 12.4860 94.07 88.03 9.70
11382 12.4870 86.80 88.01 9.32
11383 12.4880 82.96 88.00 9.11
11384 12.4890 90.25 87.99 9.50
11385 12.4900 92.19 87.99 9.60
11386 12.4910 93.99 87.98 9.69
11387 12.4920 97.32 87.98 9.87
11388 12.4930 103.85 87.98 10.19
11389 12.4940 99.44 87.99 9.97
11390 12.4950 87.58 87.99 9.36
11391 12.4960 96.84 88.00 9.84
11392 12.4970 91.53 88.01 9.57
11393 12.4980 82.62 88.02 9.09
11394 12.4990 89.72 88.03 9.47
11395 12.5000 96.34 88.04 9.82
11396 12.5010 94.47 87.80 9.72
11397 12.5020 93.17 87.81 9.65
11398 12.5030 92.51 87.82 9.62
11399 12.5040 90.80 87.83 9.53
11400 12.5050 81.11 87.84 9.01
11401 12.5060 82.73 87.85 9.10
11402 12.5070 95.01 87.86 9.75
11403 12.5080 99.58 87.86 9.98
11404 12.5090 98.31 87.86 9.92
11405 12.5100 93.47 87.86 9.67
11406 12.5110 88.14 87.86 9.39
11407 12.5120 89.93 87.86 9.48
11408 12.5130 84.45 87.85 9.19
11409 12.5140 89.95 87.83 9.48
11410 12.5150 106.27 87.82 10.31
11411 12.5160 93.26 87.80 9.66
11412 12.5170 96.25 87.78 9.81
11413 12.5180 89.82 87.75 9.48
11414 12.5190 83.43 87.72 9.13
11415 12.5200 83.70 87.69 9.15
11416 12.5210 90.91 87.66 9.53
11417 12.5220 95.27 87.62 9.76
11418 12.5230 88.73 87.58 9.42
11419 12.5240 82.86 87.53 9.10
11420 12.5250 84.38 87.49 9.19
11421 12.5260 91.11 87.44 9.55
11422 12.5270 90.55 87.39 9.52
11423 12.5280 78.87 87.34 8.88
11424 12.5290 78.87 87.29 8.88
11425 12.5300 90.76 87.24 9.53
11426 12.5310 85.15 87.18 9.23
11427 12.5320 75.06 87.13 8.66
11428 12.5330 82.86 87.08 9.10
11429 12.5340 87.40 87.03 9.35
11430 12.5350 93.09 86.98 9.65
11431 12.5360 83.60 86.93 9.14
11432 12.5370 86.78 86.89 9.32
11433 12.5380 86.10 86.86 9.28
11434 12.5390 91.02 86.82 9.54
11435 12.5400 86.41 86.78 9.30
11436 12.5410 88.91 86.75 9.43
11437 12.5420 78.36 86.72 8.85
11438 12.5430 89.11 86.69 9.44
11439 12.5440 81.59 86.67 9.03
11440 12.5450 80.43 86.65 8.97
11441 12.5460 78.57 86.64 8.86
11442 12.5470 79.21 86.64 8.90
11443 12.5480 74.79 86.63 8.65
11444 12.5490 86.86 86.64 9.32
11445 12.5500 80.83 86.65 8.99
11446 12.5510 81.36 86.66 9.02
11447 12.5520 85.12 86.68 9.23
11448 12.5530 88.61 86.70 9.41
11449 12.5540 92.47 86.74 9.62
11450 12.5550 78.84 86.77 8.88
11451 12.5560 85.45 86.82 9.24
11452 12.5570 76.38 86.86 8.74
11453 12.5580 93.25 86.92 9.66
11454 12.5590 78.84 86.97 8.88
11455 12.5600 77.66 87.04 8.81
11456 12.5610 82.01 87.11 9.06
11457 12.5620 88.89 87.18 9.43
11458 12.5630 92.11 87.26 9.60
11459 12.5640 74.89 87.34 8.65
11460 12.5650 85.51 87.42 9.25
11461 12.5660 92.35 87.51 9.61
11462 12.5670 79.20 87.61 8.90
11463 12.5680 82.72 87.70 9.10
11464 12.5690 83.47 87.80 9.14
11465 12.5700 75.45 87.90 8.69
11466 12.5710 79.64 88.00 8.92
11467 12.5720 82.84 88.11 9.10
11468 12.5730 84.65 88.22 9.20
11469 12.5740 73.12 88.33 8.55
11470 12.5750 77.98 88.43 8.83
11471 12.5760 80.80 88.54 8.99
11472 12.5770 76.47 88.65 8.74
11473 12.5780 79.56 88.76 8.92
11474 12.5790 77.08 88.87 8.78
11475 12.5800 87.01 88.98 9.33
11476 12.5810 94.62 89.09 9.73
11477 12.5820 84.86 89.19 9.21
11478 12.5830 92.53 89.30 9.62
11479 12.5840 85.62 89.40 9.25
11480 12.5850 74.65 89.51 8.64
11481 12.5860 68.51 89.61 8.28
11482 12.5870 73.07 89.70 8.55
11483 12.5880 73.06 89.80 8.55
11484 12.5890 78.37 89.89 8.85
11485 12.5900 78.71 89.99 8.87
11486 12.5910 83.20 90.07 9.12
11487 12.5920 72.34 90.16 8.51
11488 12.5930 94.32 90.25 9.71
11489 12.5940 86.91 90.33 9.32
11490 12.5950 91.35 90.41 9.56
11491 12.5960 85.55 90.56 9.25
11492 12.5970 88.12 90.64 9.39
11493 12.5980 102.61 90.72 10.13
11494 12.5990 82.00 90.79 9.06
11495 12.6000 78.99 90.86 8.89
11496 12.6010 93.12 90.93 9.65
11497 12.6020 98.13 91.00 9.91
11498 12.6030 92.58 91.07 9.62
11499 12.6040 107.23 91.14 10.36
11500 12.6050 109.77 91.21 10.48
11501 12.6060 86.04 91.28 9.28
11502 12.6070 86.15 91.35 9.28
11503 12.6080 89.36 91.42 9.45
11504 12.6090 91.27 91.48 9.55
11505 12.6100 81.73 91.55 9.04
11506 12.6110 84.92 91.61 9.22
11507 12.6120 84.90 91.68 9.21
11508 12.6130 88.58 91.74 9.41
11509 12.6140 90.60 91.81 9.52
11510 12.6150 94.54 91.87 9.72
11511 12.6160 89.22 91.93 9.45
11512 12.6170 85.92 91.99 9.27
11513 12.6180 101.64 92.04 10.08
11514 12.6190 102.48 92.10 10.12
11515 12.6200 90.80 92.15 9.53
11516 12.6210 96.54 92.20 9.83
11517 12.6220 95.83 92.25 9.79
11518 12.6230 96.26 92.30 9.81
11519 12.6240 87.69 92.34 9.36
11520 12.6250 93.87 92.38 9.69
11521 12.6260 96.37 92.42 9.82
11522 12.6270 95.89 92.45 9.79
11523 12.6280 97.92 92.48 9.90
11524 12.6290 91.67 92.51 9.57
11525 12.6300 102.41 92.53 10.12
11526 12.6310 103.52 92.55 10.17
11527 12.6320 107.21 92.56 10.35
11528 12.6330 89.62 92.57 9.47
11529 12.6340 96.35 92.57 9.82
11530 12.6350 97.34 92.57 9.87
11531 12.6360 88.87 92.57 9.43
11532 12.6370 90.35 92.56 9.51
11533 12.6380 95.11 92.54 9.75
11534 12.6390 85.96 92.52 9.27
11535 12.6400 90.26 92.50 9.50
11536 12.6410 100.41 92.47 10.02
11537 12.6420 93.93 92.43 9.69
11538 12.6430 90.41 92.39 9.51
11539 12.6440 87.01 92.35 9.33
11540 12.6450 92.64 92.36 9.62
11541 12.6460 89.31 92.30 9.45
11542 12.6470 99.09 92.24 9.95
11543 12.6480 88.92 92.18 9.43
11544 12.6490 76.28 92.11 8.73
11545 12.6500 95.23 92.03 9.76
11546 12.6510 93.65 91.95 9.68
11547 12.6520 90.98 91.87 9.54
11548 12.6530 91.03 91.78 9.54
11549 12.6540 81.11 91.69 9.01
11550 12.6550 88.85 91.60 9.43
11551 12.6560 81.32 91.50 9.02
11552 12.6570 81.80 91.40 9.04
11553 12.6580 84.49 91.30 9.19
11554 12.6590 77.98 91.17 8.83
11555 12.6600 87.46 91.06 9.35
11556 12.6610 90.83 90.94 9.53
11557 12.6620 86.06 90.82 9.28
11558 12.6630 82.59 90.71 9.09
11559 12.6640 82.80 90.59 9.10
11560 12.6650 89.22 90.47 9.45
11561 12.6660 73.24 90.35 8.56
11562 12.6670 78.72 90.23 8.87
11563 12.6680 92.74 90.10 9.63
11564 12.6690 84.18 89.98 9.17
11565 12.6700 92.05 89.88 9.59
11566 12.6710 94.33 89.75 9.71
11567 12.6720 75.53 89.62 8.69
11568 12.6730 82.36 89.49 9.08
11569 12.6740 70.03 89.36 8.37
11570 12.6750 75.12 89.23 8.67
11571 12.6760 88.61 89.09 9.41
11572 12.6770 98.53 88.96 9.93
11573 12.6780 82.78 88.83 9.10
11574 12.6790 81.53 88.70 9.03
11575 12.6800 80.07 88.56 8.95
11576 12.6810 76.16 88.43 8.73
11577 12.6820 80.34 88.30 8.96
11578 12.6830 81.67 88.16 9.04
11579 12.6840 81.02 88.03 9.00
11580 12.6850 84.46 87.85 9.19
11581 12.6860 87.82 87.71 9.37
11582 12.6870 83.45 87.57 9.14
11583 12.6880 81.62 87.44 9.03
11584 12.6890 72.88 87.30 8.54
11585 12.6900 86.26 87.17 9.29
11586 12.6910 87.93 87.03 9.38
11587 12.6920 73.61 86.89 8.58
11588 12.6930 83.51 86.75 9.14
11589 12.6940 79.91 86.61 8.94
11590 12.6950 87.47 86.47 9.35
11591 12.6960 82.28 86.33 9.07
11592 12.6970 88.95 86.19 9.43
11593 12.6980 89.65 86.04 9.47
11594 12.6990 81.12 85.90 9.01
11595 12.7000 80.46 85.76 8.97
11596 12.7010 82.14 85.61 9.06
11597 12.7020 78.39 85.47 8.85
11598 12.7030 91.68 85.32 9.57
11599 12.7040 86.88 85.17 9.32
11600 12.7050 81.19 85.03 9.01
11601 12.7060 79.93 84.88 8.94
11602 12.7070 82.71 84.74 9.09
11603 12.7080 80.24 84.59 8.96
11604 12.7090 75.78 84.45 8.71
11605 12.7100 71.69 84.31 8.47
11606 12.7110 79.70 84.16 8.93
11607 12.7120 74.55 84.02 8.63
11608 12.7130 76.33 83.88 8.74
11609 12.7140 84.80 83.74 9.21
11610 12.7150 84.59 83.60 9.20
11611 12.7160 82.08 83.46 9.06
11612 12.7170 78.80 83.33 8.88
11613 12.7180 84.69 83.20 9.20
11614 12.7190 80.91 83.07 8.99
11615 12.7200 86.98 82.94 9.33
11616 12.7210 81.96 82.81 9.05
11617 12.7220 84.19 82.69 9.18
11618 12.7230 79.89 82.57 8.94
11619 12.7240 92.44 82.45 9.61
11620 12.7250 86.15 82.33 9.28
11621 12.7260 84.92 82.22 9.22
11622 12.7270 75.05 82.14 8.66
11623 12.7280 75.30 82.04 8.68
11624 12.7290 78.06 81.94 8.84
11625 12.7300 71.57 81.84 8.46
11626 12.7310 77.53 81.75 8.81
11627 12.7320 87.20 81.66 9.34
11628 12.7330 90.57 81.57 9.52
11629 12.7340 74.50 81.49 8.63
11630 12.7350 69.69 81.41 8.35
11631 12.7360 69.52 81.34 8.34
11632 12.7370 79.54 81.27 8.92
11633 12.7380 84.38 81.20 9.19
11634 12.7390 80.50 81.14 8.97
11635 12.7400 71.30 81.09 8.44
11636 12.7410 65.56 81.03 8.10
11637 12.7420 70.16 80.99 8.38
11638 12.7430 62.37 80.94 7.90
11639 12.7440 76.07 80.90 8.72
11640 12.7450 84.41 80.87 9.19
11641 12.7460 73.07 80.84 8.55
11642 12.7470 78.83 80.81 8.88
11643 12.7480 91.12 80.79 9.55
11644 12.7490 74.69 80.77 8.64
11645 12.7500 71.16 80.76 8.44
11646 12.7510 84.32 80.75 9.18
11647 12.7520 81.62 80.74 9.03
11648 12.7530 77.64 80.63 8.81
11649 12.7540 79.04 80.63 8.89
11650 12.7550 77.13 80.63 8.78
11651 12.7560 78.46 80.64 8.86
11652 12.7570 68.57 80.66 8.28
11653 12.7580 86.70 80.67 9.31
11654 12.7590 88.77 80.70 9.42
11655 12.7600 79.55 80.72 8.92
11656 12.7610 77.59 80.75 8.81
11657 12.7620 78.58 80.78 8.86
11658 12.7630 77.41 80.81 8.80
11659 12.7640 90.59 80.94 9.52
11660 12.7650 81.83 80.98 9.05
11661 12.7660 73.74 81.03 8.59
11662 12.7670 78.24 81.07 8.85
11663 12.7680 83.32 81.12 9.13
11664 12.7690 79.85 81.18 8.94
11665 12.7700 83.22 81.24 9.12
11666 12.7710 77.04 81.30 8.78
11667 12.7720 88.11 81.36 9.39
11668 12.7730 79.56 81.43 8.92
11669 12.7740 75.89 81.50 8.71
11670 12.7750 78.26 81.57 8.85
11671 12.7760 83.28 81.65 9.13
11672 12.7770 91.01 81.74 9.54
11673 12.7780 81.95 81.82 9.05
11674 12.7790 79.42 81.91 8.91
11675 12.7800 82.93 82.00 9.11
11676 12.7810 88.11 82.10 9.39
11677 12.7820 89.88 82.20 9.48
11678 12.7830 79.74 82.30 8.93
11679 12.7840 81.38 82.41 9.02
11680 12.7850 84.98 82.52 9.22
11681 12.7860 70.91 82.63 8.42
11682 12.7870 80.36 82.75 8.96
11683 12.7880 73.35 82.87 8.56
11684 12.7890 85.63 82.99 9.25
11685 12.7900 76.29 83.12 8.73
11686 12.7910 77.04 83.25 8.78
11687 12.7920 82.24 83.39 9.07
11688 12.7930 78.40 83.52 8.85
11689 12.7940 76.65 83.66 8.76
11690 12.7950 82.32 83.80 9.07
11691 12.7960 81.94 83.95 9.05
11692 12.7970 81.04 84.10 9.00
11693 12.7980 78.44 84.24 8.86
11694 12.7990 91.84 84.39 9.58
11695 12.8000 78.37 84.55 8.85
11696 12.8010 82.84 84.70 9.10
11697 12.8020 87.07 84.85 9.33
11698 12.8030 78.51 85.01 8.86
11699 12.8040 84.75 85.16 9.21
11700 12.8050 81.08 85.32 9.00
11701 12.8060 87.12 85.47 9.33
11702 12.8070 84.53 85.63 9.19
11703 12.8080 75.20 85.78 8.67
11704 12.8090 82.96 85.93 9.11
11705 12.8100 89.22 86.08 9.45
11706 12.8110 88.49 86.23 9.41
11707 12.8120 85.10 86.38 9.22
11708 12.8130 82.20 86.53 9.07
11709 12.8140 79.43 86.67 8.91
11710 12.8150 81.46 86.81 9.03
11711 12.8160 79.35 86.95 8.91
11712 12.8170 82.15 87.09 9.06
11713 12.8180 79.29 87.22 8.90
11714 12.8190 74.69 87.35 8.64
11715 12.8200 76.87 87.48 8.77
11716 12.8210 83.44 87.60 9.13
11717 12.8220 78.09 87.72 8.84
11718 12.8230 81.69 87.84 9.04
11719 12.8240 82.14 87.96 9.06
11720 12.8250 75.38 88.07 8.68
11721 12.8260 69.21 88.18 8.32
11722 12.8270 87.52 88.28 9.36
11723 12.8280 85.70 88.38 9.26
11724 12.8290 85.35 88.48 9.24
11725 12.8300 84.74 88.58 9.21
11726 12.8310 86.88 88.67 9.32
11727 12.8320 78.32 88.77 8.85
11728 12.8330 96.55 88.81 9.83
11729 12.8340 83.56 88.90 9.14
11730 12.8350 79.98 88.99 8.94
11731 12.8360 87.96 89.07 9.38
11732 12.8370 77.03 89.15 8.78
11733 12.8380 75.72 89.23 8.70
11734 12.8390 72.28 89.31 8.50
11735 12.8400 82.94 89.39 9.11
11736 12.8410 82.38 89.46 9.08
11737 12.8420 89.08 89.54 9.44
11738 12.8430 81.18 89.61 9.01
11739 12.8440 89.16 89.68 9.44
11740 12.8450 82.51 89.74 9.08
11741 12.8460 72.75 89.81 8.53
11742 12.8470 72.42 89.88 8.51
11743 12.8480 67.87 89.95 8.24
11744 12.8490 86.38 90.02 9.29
11745 12.8500 86.70 90.09 9.31
11746 12.8510 72.59 90.15 8.52
11747 12.8520 75.99 90.21 8.72
11748 12.8530 84.68 90.28 9.20
11749 12.8540 86.46 90.34 9.30
11750 12.8550 73.75 90.39 8.59
11751 12.8560 71.33 90.45 8.45
11752 12.8570 79.76 90.51 8.93
11753 12.8580 69.72 90.55 8.35
11754 12.8590 79.75 90.60 8.93
11755 12.8600 63.13 90.65 7.95
11756 12.8610 78.05 90.69 8.83
11757 12.8620 89.43 90.73 9.46
11758 12.8630 80.46 90.77 8.97
11759 12.8640 86.40 90.81 9.30
11760 12.8650 83.28 90.84 9.13
11761 12.8660 85.24 90.87 9.23
11762 12.8670 75.82 90.89 8.71
11763 12.8680 73.62 90.92 8.58
11764 12.8690 74.94 90.94 8.66
11765 12.8700 76.79 90.94 8.76
11766 12.8710 81.58 90.95 9.03
11767 12.8720 87.54 90.95 9.36
11768 12.8730 99.20 90.94 9.96
11769 12.8740 85.32 90.92 9.24
11770 12.8750 86.00 90.90 9.27
11771 12.8760 79.86 90.87 8.94
11772 12.8770 76.81 90.83 8.76
11773 12.8780 92.91 90.79 9.64
11774 12.8790 82.00 90.74 9.06
11775 12.8800 93.98 90.67 9.69
11776 12.8810 97.59 90.60 9.88
11777 12.8820 92.05 90.52 9.59
11778 12.8830 86.46 90.44 9.30
11779 12.8840 84.33 90.34 9.18
11780 12.8850 94.12 90.23 9.70
11781 12.8860 92.80 90.12 9.63
11782 12.8870 100.02 89.99 10.00
11783 12.8880 98.95 89.85 9.95
11784 12.8890 92.79 89.70 9.63
11785 12.8900 84.52 89.55 9.19
11786 12.8910 93.14 89.38 9.65
11787 12.8920 98.55 89.20 9.93
11788 12.8930 83.04 89.01 9.11
11789 12.8940 92.48 88.81 9.62
11790 12.8950 91.73 88.61 9.58
11791 12.8960 82.44 88.37 9.08
11792 12.8970 85.39 88.14 9.24
11793 12.8980 83.22 87.90 9.12
11794 12.8990 77.63 87.66 8.81
11795 12.9000 79.73 87.41 8.93
11796 12.9010 63.66 87.15 7.98
11797 12.9020 77.84 86.89 8.82
11798 12.9030 88.71 86.62 9.42
11799 12.9040 81.08 86.34 9.00
11800 12.9050 72.24 86.05 8.50
11801 12.9060 83.08 85.76 9.11
11802 12.9070 84.42 85.47 9.19
11803 12.9080 88.81 85.17 9.42
11804 12.9090 81.64 84.86 9.04
11805 12.9100 71.38 84.56 8.45
11806 12.9110 72.41 84.25 8.51
11807 12.9120 70.41 83.94 8.39
11808 12.9130 81.56 83.62 9.03
11809 12.9140 77.44 83.31 8.80
11810 12.9150 79.98 82.99 8.94
11811 12.9160 69.24 82.64 8.32
11812 12.9170 77.53 82.33 8.81
11813 12.9180 80.62 82.01 8.98
11814 12.9190 70.44 81.70 8.39
11815 12.9200 77.40 81.38 8.80
11816 12.9210 72.37 81.07 8.51
11817 12.9220 76.92 80.76 8.77
11818 12.9230 70.53 80.46 8.40
11819 12.9240 70.90 80.15 8.42
11820 12.9250 72.06 79.85 8.49
11821 12.9260 77.52 79.56 8.80
11822 12.9270 84.99 79.27 9.22
11823 12.9280 78.79 78.98 8.88
11824 12.9290 73.87 78.69 8.59
11825 12.9300 65.66 78.41 8.10
11826 12.9310 60.21 78.14 7.76
11827 12.9320 61.02 77.87 7.81
11828 12.9330 69.73 77.61 8.35
11829 12.9340 73.17 77.35 8.55
11830 12.9350 72.24 77.10 8.50
11831 12.9360 67.39 76.85 8.21
11832 12.9370 65.64 76.61 8.10
11833 12.9380 60.80 76.38 7.80
11834 12.9390 76.74 76.15 8.76
11835 12.9400 75.39 75.93 8.68
11836 12.9410 77.20 75.71 8.79
11837 12.9420 74.48 75.50 8.63
11838 12.9430 78.58 75.30 8.86
11839 12.9440 74.23 75.10 8.62
11840 12.9450 73.17 74.92 8.55
11841 12.9460 71.83 74.73 8.48
11842 12.9470 72.64 74.55 8.52
11843 12.9480 73.26 74.38 8.56
11844 12.9490 69.29 74.22 8.32
11845 12.9500 76.25 74.07 8.73
11846 12.9510 68.59 73.93 8.28
11847 12.9520 69.48 73.79 8.34
11848 12.9530 73.37 73.66 8.57
11849 12.9540 61.02 73.54 7.81
11850 12.9550 78.25 73.42 8.85
11851 12.9560 70.49 73.31 8.40
11852 12.9570 60.96 73.21 7.81
11853 12.9580 78.02 73.12 8.83
11854 12.9590 76.60 73.03 8.75
11855 12.9600 79.45 72.95 8.91
11856 12.9610 73.08 72.88 8.55
11857 12.9620 65.60 72.82 8.10
11858 12.9630 64.61 72.76 8.04
11859 12.9640 76.79 72.72 8.76
11860 12.9650 60.44 72.68 7.77
11861 12.9660 68.29 72.64 8.26
11862 12.9670 64.19 72.62 8.01
11863 12.9680 74.04 72.60 8.60
11864 12.9690 62.29 72.59 7.89
11865 12.9700 61.86 72.59 7.87
11866 12.9710 68.31 72.60 8.26
11867 12.9720 68.94 72.61 8.30
11868 12.9730 72.18 72.64 8.50
11869 12.9740 81.34 72.67 9.02
11870 12.9750 80.27 72.71 8.96
11871 12.9760 66.76 72.75 8.17
11872 12.9770 64.23 72.80 8.01
11873 12.9780 65.01 72.86 8.06
11874 12.9790 68.39 72.93 8.27
11875 12.9800 66.73 73.01 8.17
11876 12.9810 66.02 73.09 8.13
11877 12.9820 68.59 73.18 8.28
11878 12.9830 77.33 73.28 8.79
11879 12.9840 77.46 73.39 8.80
11880 12.9850 72.61 73.50 8.52
11881 12.9860 63.75 73.62 7.98
11882 12.9870 68.09 73.74 8.25
11883 12.9880 64.56 73.88 8.03
11884 12.9890 73.71 74.02 8.59
11885 12.9900 81.12 74.16 9.01
11886 12.9910 70.95 74.32 8.42
11887 12.9920 79.41 74.48 8.91
11888 12.9930 69.40 74.64 8.33
11889 12.9940 69.28 74.81 8.32
11890 12.9950 68.69 74.99 8.29
11891 12.9960 79.10 75.17 8.89
11892 12.9970 67.82 75.36 8.24
11893 12.9980 70.09 75.56 8.37
11894 12.9990 79.96 75.75 8.94
11895 13.0000 76.92 75.96 8.77
11896 13.0010 77.71 76.09 8.82
11897 13.0020 74.13 76.30 8.61
11898 13.0030 75.16 76.52 8.67
11899 13.0040 72.94 76.74 8.54
11900 13.0050 77.16 76.96 8.78
11901 13.0060 70.02 77.19 8.37
11902 13.0070 78.45 77.42 8.86
11903 13.0080 79.15 77.65 8.90
11904 13.0090 100.90 77.91 10.04
11905 13.0100 83.71 78.15 9.15
11906 13.0110 73.92 78.39 8.60
11907 13.0120 69.57 78.63 8.34
11908 13.0130 67.86 78.87 8.24
11909 13.0140 75.38 79.11 8.68
11910 13.0150 76.48 79.36 8.75
11911 13.0160 72.49 79.60 8.51
11912 13.0170 68.07 79.84 8.25
11913 13.0180 82.43 80.09 9.08
11914 13.0190 82.28 80.33 9.07
11915 13.0200 84.73 80.57 9.20
11916 13.0210 81.90 80.81 9.05
11917 13.0220 81.28 81.05 9.02
11918 13.0230 80.82 81.28 8.99
11919 13.0240 81.52 81.51 9.03
11920 13.0250 91.93 81.74 9.59
11921 13.0260 92.89 81.96 9.64
11922 13.0270 85.12 82.18 9.23
11923 13.0280 78.20 82.40 8.84
11924 13.0290 78.88 82.61 8.88
11925 13.0300 89.06 82.82 9.44
11926 13.0310 77.00 83.02 8.77
11927 13.0320 89.01 83.22 9.43
11928 13.0330 83.69 83.41 9.15
11929 13.0340 86.35 83.59 9.29
11930 13.0350 94.33 83.77 9.71
11931 13.0360 100.75 83.94 10.04
11932 13.0370 95.73 84.10 9.78
11933 13.0380 92.26 84.26 9.61
11934 13.0390 91.08 84.41 9.54
11935 13.0400 92.26 84.55 9.61
11936 13.0410 88.90 84.68 9.43
11937 13.0420 87.60 84.81 9.36
11938 13.0430 93.76 84.93 9.68
11939 13.0440 97.45 85.04 9.87
11940 13.0450 99.83 85.14 9.99
11941 13.0460 102.50 85.24 10.12
11942 13.0470 93.39 85.33 9.66
11943 13.0480 100.04 85.41 10.00
11944 13.0490 96.02 85.48 9.80
11945 13.0500 97.01 85.54 9.85
11946 13.0510 89.42 85.60 9.46
11947 13.0520 93.40 85.64 9.66
11948 13.0530 89.91 85.68 9.48
11949 13.0540 87.87 85.72 9.37
11950 13.0550 85.54 85.74 9.25
11951 13.0560 100.11 85.76 10.01
11952 13.0570 85.72 85.78 9.26
11953 13.0580 88.73 85.79 9.42
11954 13.0590 88.32 85.79 9.40
11955 13.0600 96.12 85.78 9.80
11956 13.0610 89.20 85.78 9.44
11957 13.0620 87.32 85.76 9.34
11958 13.0630 89.53 85.75 9.46
11959 13.0640 89.32 85.73 9.45
11960 13.0650 84.22 85.70 9.18
11961 13.0660 83.60 85.68 9.14
11962 13.0670 90.30 85.65 9.50
11963 13.0680 83.79 85.62 9.15
11964 13.0690 82.13 85.59 9.06
11965 13.0700 86.83 85.56 9.32
11966 13.0710 98.09 85.53 9.90
11967 13.0720 95.62 85.50 9.78
11968 13.0730 88.78 85.46 9.42
11969 13.0740 88.68 85.43 9.42
11970 13.0750 83.80 85.41 9.15
11971 13.0760 84.80 85.38 9.21
11972 13.0770 94.22 85.36 9.71
11973 13.0780 79.46 85.33 8.91
11974 13.0790 83.04 85.32 9.11
11975 13.0800 84.55 85.30 9.20
11976 13.0810 90.12 85.29 9.49
11977 13.0820 93.34 85.28 9.66
11978 13.0830 80.47 85.28 8.97
11979 13.0840 92.72 85.28 9.63
11980 13.0850 94.07 85.28 9.70
11981 13.0860 93.34 85.29 9.66
11982 13.0870 82.23 85.31 9.07
11983 13.0880 88.49 85.33 9.41
11984 13.0890 89.29 85.35 9.45
11985 13.0900 100.42 85.38 10.02
11986 13.0910 93.50 85.42 9.67
11987 13.0920 81.32 85.46 9.02
11988 13.0930 90.55 85.50 9.52
11989 13.0940 83.63 85.56 9.14
11990 13.0950 91.79 85.61 9.58
11991 13.0960 104.78 85.68 10.24
11992 13.0970 95.99 85.74 9.80
11993 13.0980 93.17 85.81 9.65
11994 13.0990 94.88 85.87 9.74
11995 13.1000 90.27 85.95 9.50
11996 13.1010 92.46 86.04 9.62
11997 13.1020 94.02 86.13 9.70
11998 13.1030 103.94 86.23 10.20
11999 13.1040 97.67 86.33 9.88
12000 13.1050 100.66 86.44 10.03
12001 13.1060 92.31 86.55 9.61
12002 13.1070 86.49 86.66 9.30
12003 13.1080 100.37 86.78 10.02
12004 13.1090 94.92 86.90 9.74
12005 13.1100 94.48 87.02 9.72
12006 13.1110 85.42 87.15 9.24
12007 13.1120 86.79 87.28 9.32
12008 13.1130 97.49 87.41 9.87
12009 13.1140 100.93 87.54 10.05
12010 13.1150 82.08 87.68 9.06
12011 13.1160 81.25 87.81 9.01
12012 13.1170 88.50 87.95 9.41
12013 13.1180 100.03 88.00 10.00
12014 13.1190 93.76 88.14 9.68
12015 13.1200 89.48 88.28 9.46
12016 13.1210 80.35 88.42 8.96
12017 13.1220 93.65 88.57 9.68
12018 13.1230 96.31 88.71 9.81
12019 13.1240 94.13 88.86 9.70
12020 13.1250 104.97 89.00 10.25
12021 13.1260 91.52 89.15 9.57
12022 13.1270 94.63 89.29 9.73
12023 13.1280 82.19 89.44 9.07
12024 13.1290 88.99 89.58 9.43
12025 13.1300 86.41 89.73 9.30
12026 13.1310 89.41 89.87 9.46
12027 13.1320 81.92 90.03 9.05
12028 13.1330 85.18 90.17 9.23
12029 13.1340 87.48 90.32 9.35
12030 13.1350 92.76 90.46 9.63
12031 13.1360 90.28 90.60 9.50
12032 13.1370 98.39 90.75 9.92
12033 13.1380 95.64 90.89 9.78
12034 13.1390 95.33 91.03 9.76
12035 13.1400 96.43 91.18 9.82
12036 13.1410 88.22 91.32 9.39
12037 13.1420 91.00 91.46 9.54
12038 13.1430 90.12 91.60 9.49
12039 13.1440 98.31 91.74 9.92
12040 13.1450 85.39 91.90 9.24
12041 13.1460 90.19 92.03 9.50
12042 13.1470 88.12 92.17 9.39
12043 13.1480 94.96 92.30 9.74
12044 13.1490 99.67 92.44 9.98
12045 13.1500 111.42 92.57 10.56
12046 13.1510 101.86 92.69 10.09
12047 13.1520 92.12 92.82 9.60
12048 13.1530 99.39 92.94 9.97
12049 13.1540 87.57 93.06 9.36
12050 13.1550 112.35 93.17 10.60
12051 13.1560 106.63 93.28 10.33
12052 13.1570 123.52 93.39 11.11
12053 13.1580 116.38 93.49 10.79
12054 13.1590 106.91 93.59 10.34
12055 13.1600 101.24 93.68 10.06
12056 13.1610 92.11 93.76 9.60
12057 13.1620 95.44 93.81 9.77
12058 13.1630 102.08 93.88 10.10
12059 13.1640 100.26 93.94 10.01
12060 13.1650 107.97 94.00 10.39
12061 13.1660 103.06 94.04 10.15
12062 13.1670 115.39 94.10 10.74
12063 13.1680 115.24 94.12 10.73
12064 13.1690 113.35 94.14 10.65
12065 13.1700 106.95 94.15 10.34
12066 13.1710 113.11 94.19 10.64
12067 13.1720 97.26 94.17 9.86
12068 13.1730 100.95 94.14 10.05
12069 13.1740 106.32 94.10 10.31
12070 13.1750 93.67 94.05 9.68
12071 13.1760 91.53 93.98 9.57
12072 13.1770 96.46 93.90 9.82
12073 13.1780 100.62 93.81 10.03
12074 13.1790 99.76 93.67 9.99
12075 13.1800 102.49 93.55 10.12
12076 13.1810 98.64 93.42 9.93
12077 13.1820 100.79 93.27 10.04
12078 13.1830 95.88 93.11 9.79
12079 13.1840 89.17 92.94 9.44
12080 13.1850 100.64 92.75 10.03
12081 13.1860 102.28 92.55 10.11
12082 13.1870 105.81 92.34 10.29
12083 13.1880 117.78 92.12 10.85
12084 13.1890 93.17 91.88 9.65
12085 13.1900 96.19 91.63 9.81
12086 13.1910 92.38 91.36 9.61
12087 13.1920 93.99 91.09 9.69
12088 13.1930 110.98 90.81 10.53
12089 13.1940 99.76 90.52 9.99
12090 13.1950 91.49 90.21 9.57
12091 13.1960 94.16 89.90 9.70
12092 13.1970 97.90 89.58 9.89
12093 13.1980 97.92 89.25 9.90
12094 13.1990 93.29 88.91 9.66
12095 13.2000 94.30 88.57 9.71
12096 13.2010 100.07 88.22 10.00
12097 13.2020 94.27 87.87 9.71
12098 13.2030 85.45 87.51 9.24
12099 13.2040 97.43 87.15 9.87
12100 13.2050 94.70 86.78 9.73
12101 13.2060 101.39 86.40 10.07
12102 13.2070 94.34 86.03 9.71
12103 13.2080 84.10 85.65 9.17
12104 13.2090 88.95 85.28 9.43
12105 13.2100 84.01 84.90 9.17
12106 13.2110 84.06 84.53 9.17
12107 13.2120 91.22 84.15 9.55
12108 13.2130 92.89 83.78 9.64
12109 13.2140 99.29 83.41 9.96
12110 13.2150 95.79 83.03 9.79
12111 13.2160 100.14 82.67 10.01
12112 13.2170 96.97 82.30 9.85
12113 13.2180 82.79 81.94 9.10
12114 13.2190 84.25 81.58 9.18
12115 13.2200 91.65 81.22 9.57
12116 13.2210 86.61 80.87 9.31
12117 13.2220 95.22 80.52 9.76
12118 13.2230 87.31 80.18 9.34
12119 13.2240 82.27 79.85 9.07
12120 13.2250 82.59 79.51 9.09
12121 13.2260 81.33 79.19 9.02
12122 13.2270 74.23 78.91 8.62
12123 13.2280 84.28 78.60 9.18
12124 13.2290 85.17 78.29 9.23
12125 13.2300 84.97 77.99 9.22
12126 13.2310 78.66 77.70 8.87
12127 13.2320 80.67 77.41 8.98
12128 13.2330 75.19 77.13 8.67
12129 13.2340 76.63 76.85 8.75
12130 13.2350 79.16 76.59 8.90
12131 13.2360 74.12 76.33 8.61
12132 13.2370 76.87 76.08 8.77
12133 13.2380 79.25 75.83 8.90
12134 13.2390 85.59 75.59 9.25
12135 13.2400 84.46 75.36 9.19
12136 13.2410 83.01 75.14 9.11
12137 13.2420 75.33 74.93 8.68
12138 13.2430 66.84 74.72 8.18
12139 13.2440 77.80 74.52 8.82
12140 13.2450 68.16 74.33 8.26
12141 13.2460 92.69 74.14 9.63
12142 13.2470 89.59 73.96 9.47
12143 13.2480 73.13 73.79 8.55
12144 13.2490 69.74 73.63 8.35
12145 13.2500 70.34 73.47 8.39
12146 13.2510 70.22 73.32 8.38
12147 13.2520 69.75 73.18 8.35
12148 13.2530 72.63 73.04 8.52
12149 13.2540 75.63 72.90 8.70
12150 13.2550 80.91 72.77 8.99
12151 13.2560 75.80 72.65 8.71
12152 13.2570 76.96 72.54 8.77
12153 13.2580 70.31 72.44 8.39
12154 13.2590 81.42 72.36 9.02
12155 13.2600 81.06 72.26 9.00
12156 13.2610 63.58 72.18 7.97
12157 13.2620 66.38 72.10 8.15
12158 13.2630 73.46 72.02 8.57
12159 13.2640 73.89 71.95 8.60
12160 13.2650 78.34 71.88 8.85
12161 13.2660 83.83 71.82 9.16
12162 13.2670 80.95 71.77 9.00
12163 13.2680 81.86 71.71 9.05
12164 13.2690 76.44 71.67 8.74
12165 13.2700 75.17 71.62 8.67
12166 13.2710 78.60 71.58 8.87
12167 13.2720 81.92 71.55 9.05
12168 13.2730 71.71 71.52 8.47
12169 13.2740 73.91 71.49 8.60
12170 13.2750 68.07 71.46 8.25
12171 13.2760 80.97 71.43 9.00
12172 13.2770 76.33 71.41 8.74
12173 13.2780 74.51 71.39 8.63
12174 13.2790 79.22 71.38 8.90
12175 13.2800 74.90 71.36 8.65
12176 13.2810 65.69 71.35 8.10
12177 13.2820 76.46 71.34 8.74
12178 13.2830 73.61 71.33 8.58
12179 13.2840 84.42 71.32 9.19
12180 13.2850 79.10 71.31 8.89
12181 13.2860 68.37 71.30 8.27
12182 13.2870 85.75 71.31 9.26
12183 13.2880 69.97 71.31 8.36
12184 13.2890 64.31 71.30 8.02
12185 13.2900 75.66 71.30 8.70
12186 13.2910 76.47 71.30 8.74
12187 13.2920 79.77 71.29 8.93
12188 13.2930 83.36 71.29 9.13
12189 13.2940 68.92 71.29 8.30
12190 13.2950 68.79 71.29 8.29
12191 13.2960 77.01 71.29 8.78
12192 13.2970 76.05 71.28 8.72
12193 13.2980 73.50 71.28 8.57
12194 13.2990 75.06 71.28 8.66
12195 13.3000 78.40 71.28 8.85
12196 13.3010 65.09 71.28 8.07
12197 13.3020 65.25 71.27 8.08
12198 13.3030 67.26 71.27 8.20
12199 13.3040 69.78 71.26 8.35
12200 13.3050 81.12 71.26 9.01
12201 13.3060 80.67 71.25 8.98
12202 13.3070 83.16 71.25 9.12
12203 13.3080 83.17 71.24 9.12
12204 13.3090 72.83 71.23 8.53
12205 13.3100 79.18 71.22 8.90
12206 13.3110 73.97 71.18 8.60
12207 13.3120 76.51 71.17 8.75
12208 13.3130 76.03 71.16 8.72
12209 13.3140 65.68 71.15 8.10
12210 13.3150 64.61 71.14 8.04
12211 13.3160 67.51 71.13 8.22
12212 13.3170 75.35 71.11 8.68
12213 13.3180 74.01 71.10 8.60
12214 13.3190 73.88 71.08 8.60
12215 13.3200 69.20 71.07 8.32
12216 13.3210 69.51 71.05 8.34
12217 13.3220 77.01 71.04 8.78
12218 13.3230 76.06 71.02 8.72
12219 13.3240 76.66 71.01 8.76
12220 13.3250 71.63 70.99 8.46
12221 13.3260 74.95 70.97 8.66
12222 13.3270 74.99 70.96 8.66
12223 13.3280 79.47 70.94 8.91
12224 13.3290 74.90 70.93 8.65
12225 13.3300 70.29 70.92 8.38
12226 13.3310 74.90 70.90 8.65
12227 13.3320 66.28 70.89 8.14
12228 13.3330 71.37 70.88 8.45
12229 13.3340 76.87 70.87 8.77
12230 13.3350 62.81 70.86 7.93
12231 13.3360 65.74 70.86 8.11
12232 13.3370 67.91 70.85 8.24
12233 13.3380 73.38 70.85 8.57
12234 13.3390 63.66 70.85 7.98
12235 13.3400 77.77 70.85 8.82
12236 13.3410 77.74 70.86 8.82
12237 13.3420 69.03 70.87 8.31
12238 13.3430 64.52 70.88 8.03
12239 13.3440 62.49 70.89 7.91
12240 13.3450 59.53 70.91 7.72
12241 13.3460 68.68 70.93 8.29
12242 13.3470 72.94 70.96 8.54
12243 13.3480 70.82 70.99 8.42
12244 13.3490 75.22 71.02 8.67
12245 13.3500 62.62 71.06 7.91
12246 13.3510 64.22 71.10 8.01
12247 13.3520 71.25 71.14 8.44
12248 13.3530 82.85 71.19 9.10
12249 13.3540 68.23 71.25 8.26
12250 13.3550 69.22 71.31 8.32
12251 13.3560 66.15 71.38 8.13
12252 13.3570 78.05 71.44 8.83
12253 13.3580 78.46 71.52 8.86
12254 13.3590 70.23 71.60 8.38
12255 13.3600 75.91 71.68 8.71
12256 13.3610 78.90 71.77 8.88
12257 13.3620 65.94 71.87 8.12
12258 13.3630 64.78 71.97 8.05
12259 13.3640 69.55 72.07 8.34
12260 13.3650 80.58 72.19 8.98
12261 13.3660 77.70 72.30 8.81
12262 13.3670 73.86 72.43 8.59
12263 13.3680 74.12 72.55 8.61
12264 13.3690 70.55 72.69 8.40
12265 13.3700 72.52 72.83 8.52
12266 13.3710 72.17 72.97 8.50
12267 13.3720 70.40 73.12 8.39
12268 13.3730 79.82 73.28 8.93
12269 13.3740 69.34 73.44 8.33
12270 13.3750 64.23 73.61 8.01
12271 13.3760 69.33 73.78 8.33
12272 13.3770 87.67 73.96 9.36
12273 13.3780 81.91 74.14 9.05
12274 13.3790 73.66 74.33 8.58
12275 13.3800 71.76 74.53 8.47
12276 13.3810 63.57 74.73 7.97
12277 13.3820 75.95 74.94 8.71
12278 13.3830 76.60 75.15 8.75
12279 13.3840 76.73 75.37 8.76
12280 13.3850 71.77 75.59 8.47
12281 13.3860 67.44 75.78 8.21
12282 13.3870 76.31 76.02 8.74
12283 13.3880 79.68 76.25 8.93
12284 13.3890 78.77 76.50 8.88
12285 13.3900 73.94 76.74 8.60
12286 13.3910 67.82 77.00 8.24
12287 13.3920 80.65 77.25 8.98
12288 13.3930 77.57 77.52 8.81
12289 13.3940 73.62 77.78 8.58
12290 13.3950 78.90 78.05 8.88
12291 13.3960 79.44 78.33 8.91
12292 13.3970 72.66 78.61 8.52
12293 13.3980 78.81 78.89 8.88
12294 13.3990 88.40 79.18 9.40
12295 13.4000 86.40 79.48 9.30
12296 13.4010 83.64 79.78 9.15
12297 13.4020 90.83 80.17 9.53
12298 13.4030 82.10 80.48 9.06
12299 13.4040 83.20 80.79 9.12
12300 13.4050 87.73 81.11 9.37
12301 13.4060 79.49 81.43 8.92
12302 13.4070 82.85 81.75 9.10
12303 13.4080 90.48 82.08 9.51
12304 13.4090 91.84 82.43 9.58
12305 13.4100 87.83 82.76 9.37
12306 13.4110 90.28 83.11 9.50
12307 13.4120 95.04 83.45 9.75
12308 13.4130 92.07 83.81 9.60
12309 13.4140 79.18 84.16 8.90
12310 13.4150 72.81 84.52 8.53
12311 13.4160 81.94 84.89 9.05
12312 13.4170 89.25 85.26 9.45
12313 13.4180 90.97 85.64 9.54
12314 13.4190 90.46 86.02 9.51
12315 13.4200 91.11 86.40 9.55
12316 13.4210 90.28 86.79 9.50
12317 13.4220 86.17 87.19 9.28
12318 13.4230 93.05 87.59 9.65
12319 13.4240 81.39 88.00 9.02
12320 13.4250 96.47 88.41 9.82
12321 13.4260 90.84 88.83 9.53
12322 13.4270 83.23 89.25 9.12
12323 13.4280 78.41 89.67 8.85
12324 13.4290 80.83 90.11 8.99
12325 13.4300 87.43 90.53 9.35
12326 13.4310 98.63 90.97 9.93
12327 13.4320 97.66 91.42 9.88
12328 13.4330 92.83 91.87 9.63
12329 13.4340 94.56 92.32 9.72
12330 13.4350 76.46 92.78 8.74
12331 13.4360 77.55 93.24 8.81
12332 13.4370 82.21 93.71 9.07
12333 13.4380 91.03 94.18 9.54
12334 13.4390 91.81 94.65 9.58
12335 13.4400 96.15 95.10 9.81
12336 13.4410 90.62 95.58 9.52
12337 13.4420 102.55 96.06 10.13
12338 13.4430 102.77 96.54 10.14
12339 13.4440 80.95 97.02 9.00
12340 13.4450 93.99 97.50 9.69
12341 13.4460 104.72 97.98 10.23
12342 13.4470 93.61 98.46 9.68
12343 13.4480 88.53 98.95 9.41
12344 13.4490 89.84 99.43 9.48
12345 13.4500 96.79 99.91 9.84
12346 13.4510 102.11 100.39 10.10
12347 13.4520 94.45 100.87 9.72
12348 13.4530 84.99 101.34 9.22
12349 13.4540 94.66 101.80 9.73
12350 13.4550 104.95 102.27 10.24
12351 13.4560 104.07 102.72 10.20
12352 13.4570 95.13 103.18 9.75
12353 13.4580 100.61 103.62 10.03
12354 13.4590 95.24 104.05 9.76
12355 13.4600 114.56 104.48 10.70
12356 13.4610 110.28 104.91 10.50
12357 13.4620 85.61 105.33 9.25
12358 13.4630 100.20 105.74 10.01
12359 13.4640 97.37 106.14 9.87
12360 13.4650 97.97 106.54 9.90
12361 13.4660 114.82 106.93 10.72
12362 13.4670 103.63 107.31 10.18
12363 13.4680 97.08 107.68 9.85
12364 13.4690 111.97 108.04 10.58
12365 13.4700 112.76 108.40 10.62
12366 13.4710 108.52 108.75 10.42
12367 13.4720 120.41 109.08 10.97
12368 13.4730 113.83 109.41 10.67
12369 13.4740 104.93 109.73 10.24
12370 13.4750 113.08 110.05 10.63
12371 13.4760 114.87 110.35 10.72
12372 13.4770 99.02 110.65 9.95
12373 13.4780 122.68 110.94 11.08
12374 13.4790 114.49 111.22 10.70
12375 13.4800 109.26 111.50 10.45
12376 13.4810 108.83 111.76 10.43
12377 13.4820 120.33 112.03 10.97
12378 13.4830 109.70 112.28 10.47
12379 13.4840 115.13 112.53 10.73
12380 13.4850 104.50 112.78 10.22
12381 13.4860 102.75 113.02 10.14
12382 13.4870 109.09 113.25 10.44
12383 13.4880 94.33 113.48 9.71
12384 13.4890 106.42 113.71 10.32
12385 13.4900 97.72 113.93 9.89
12386 13.4910 117.90 114.15 10.86
12387 13.4920 118.79 114.36 10.90
12388 13.4930 118.65 114.57 10.89
12389 13.4940 126.47 114.78 11.25
12390 13.4950 122.35 114.98 11.06
12391 13.4960 118.15 115.18 10.87
12392 13.4970 123.19 115.38 11.10
12393 13.4980 120.02 115.57 10.96
12394 13.4990 120.21 115.76 10.96
12395 13.5000 120.73 115.94 10.99
12396 13.5010 133.44 116.12 11.55
12397 13.5020 138.46 116.30 11.77
12398 13.5030 125.72 116.47 11.21
12399 13.5040 119.98 116.62 10.95
12400 13.5050 142.81 116.78 11.95
12401 13.5060 124.37 116.94 11.15
12402 13.5070 138.17 117.09 11.75
12403 13.5080 134.19 117.24 11.58
12404 13.5090 119.12 117.38 10.91
12405 13.5100 127.76 117.51 11.30
12406 13.5110 116.07 117.64 10.77
12407 13.5120 120.87 117.76 10.99
12408 13.5130 120.41 117.87 10.97
12409 13.5140 134.85 117.98 11.61
12410 13.5150 121.76 118.08 11.03
12411 13.5160 117.85 118.17 10.86
12412 13.5170 118.50 118.25 10.89
12413 13.5180 117.15 118.32 10.82
12414 13.5190 115.93 118.39 10.77
12415 13.5200 118.27 118.44 10.88
12416 13.5210 127.77 118.49 11.30
12417 13.5220 117.37 118.51 10.83
12418 13.5230 125.38 118.54 11.20
12419 13.5240 126.93 118.56 11.27
12420 13.5250 117.91 118.56 10.86
12421 13.5260 124.86 118.56 11.17
12422 13.5270 139.04 118.55 11.79
12423 13.5280 121.45 118.53 11.02
12424 13.5290 136.21 118.50 11.67
12425 13.5300 122.87 118.46 11.08
12426 13.5310 126.60 118.41 11.25
12427 13.5320 112.62 118.35 10.61
12428 13.5330 110.89 118.28 10.53
12429 13.5340 109.52 118.21 10.47
12430 13.5350 102.48 118.12 10.12
12431 13.5360 117.37 118.03 10.83
12432 13.5370 122.94 117.93 11.09
12433 13.5380 127.56 117.82 11.29
12434 13.5390 119.98 117.71 10.95
12435 13.5400 133.57 117.58 11.56
12436 13.5410 122.63 117.45 11.07
12437 13.5420 123.57 117.32 11.12
12438 13.5430 113.39 117.18 10.65
12439 13.5440 118.27 117.03 10.88
12440 13.5450 118.34 116.88 10.88
12441 13.5460 125.87 116.72 11.22
12442 13.5470 125.87 116.56 11.22
12443 13.5480 111.15 116.39 10.54
12444 13.5490 117.05 116.22 10.82
12445 13.5500 123.00 116.05 11.09
12446 13.5510 114.69 115.87 10.71
12447 13.5520 115.20 115.69 10.73
12448 13.5530 128.36 115.51 11.33
12449 13.5540 128.51 115.33 11.34
12450 13.5550 100.17 115.15 10.01
12451 13.5560 105.76 114.97 10.28
12452 13.5570 121.53 114.78 11.02
12453 13.5580 106.39 114.60 10.31
12454 13.5590 99.06 114.41 9.95
12455 13.5600 95.35 114.23 9.76
12456 13.5610 115.51 114.05 10.75
12457 13.5620 115.43 113.87 10.74
12458 13.5630 90.20 113.69 9.50
12459 13.5640 95.75 113.51 9.79
12460 13.5650 101.74 113.34 10.09
12461 13.5660 119.48 113.17 10.93
12462 13.5670 103.07 113.00 10.15
12463 13.5680 92.60 112.84 9.62
12464 13.5690 108.20 112.68 10.40
12465 13.5700 103.33 112.52 10.17
12466 13.5710 109.41 112.37 10.46
12467 13.5720 112.75 112.22 10.62
12468 13.5730 109.85 112.08 10.48
12469 13.5740 102.85 111.94 10.14
12470 13.5750 102.33 111.80 10.12
12471 13.5760 104.07 111.68 10.20
12472 13.5770 104.98 111.56 10.25
12473 13.5780 106.88 111.44 10.34
12474 13.5790 121.39 111.33 11.02
12475 13.5800 104.02 111.23 10.20
12476 13.5810 110.67 111.14 10.52
12477 13.5820 108.06 111.05 10.40
12478 13.5830 107.81 110.96 10.38
12479 13.5840 100.22 110.88 10.01
12480 13.5850 105.99 110.81 10.30
12481 13.5860 106.99 110.75 10.34
12482 13.5870 96.45 110.69 9.82
12483 13.5880 122.80 110.64 11.08
12484 13.5890 112.82 110.60 10.62
12485 13.5900 111.16 110.57 10.54
12486 13.5910 120.90 110.54 11.00
12487 13.5920 114.35 110.52 10.69
12488 13.5930 126.41 110.50 11.24
12489 13.5940 111.51 110.49 10.56
12490 13.5950 110.31 110.49 10.50
12491 13.5960 121.09 110.49 11.00
12492 13.5970 106.69 110.50 10.33
12493 13.5980 110.10 110.52 10.49
12494 13.5990 103.30 110.54 10.16
12495 13.6000 106.62 110.57 10.33
12496 13.6010 112.95 110.60 10.63
12497 13.6020 116.32 110.63 10.79
12498 13.6030 115.95 110.67 10.77
12499 13.6040 117.38 110.72 10.83
12500 13.6050 100.74 110.76 10.04
12501 13.6060 106.37 110.82 10.31
12502 13.6070 124.30 110.87 11.15
12503 13.6080 121.35 110.93 11.02
12504 13.6090 100.12 110.99 10.01
12505 13.6100 105.13 111.05 10.25
12506 13.6110 106.11 111.12 10.30
12507 13.6120 107.93 111.18 10.39
12508 13.6130 108.47 111.25 10.41
12509 13.6140 124.57 111.32 11.16
12510 13.6150 113.41 111.39 10.65
12511 13.6160 118.64 111.46 10.89
12512 13.6170 111.13 111.53 10.54
12513 13.6180 118.04 111.60 10.86
12514 13.6190 113.86 111.66 10.67
12515 13.6200 113.77 111.72 10.67
12516 13.6210 111.24 111.79 10.55
12517 13.6220 108.97 111.85 10.44
12518 13.6230 103.60 111.90 10.18
12519 13.6240 107.35 111.96 10.36
12520 13.6250 122.53 112.00 11.07
12521 13.6260 117.93 112.05 10.86
12522 13.6270 115.40 112.09 10.74
12523 13.6280 113.74 112.12 10.66
12524 13.6290 115.42 112.15 10.74
12525 13.6300 115.25 112.17 10.74
12526 13.6310 116.58 112.18 10.80
12527 13.6320 114.61 112.18 10.71
12528 13.6330 117.37 112.17 10.83
12529 13.6340 121.13 112.16 11.01
12530 13.6350 118.08 112.13 10.87
12531 13.6360 119.38 112.10 10.93
12532 13.6370 140.42 112.05 11.85
12533 13.6380 122.57 111.99 11.07
12534 13.6390 122.28 111.89 11.06
12535 13.6400 136.92 111.83 11.70
12536 13.6410 129.23 111.73 11.37
12537 13.6420 136.59 111.62 11.69
12538 13.6430 136.26 111.49 11.67
12539 13.6440 133.35 111.35 11.55
12540 13.6450 139.95 111.23 11.83
12541 13.6460 133.21 111.06 11.54
12542 13.6470 129.54 110.87 11.38
12543 13.6480 132.43 110.66 11.51
12544 13.6490 138.85 110.44 11.78
12545 13.6500 136.08 110.20 11.67
12546 13.6510 142.58 109.95 11.94
12547 13.6520 133.86 109.67 11.57
12548 13.6530 133.38 109.39 11.55
12549 13.6540 117.25 109.08 10.83
12550 13.6550 129.55 108.76 11.38
12551 13.6560 123.45 108.42 11.11
12552 13.6570 121.29 108.06 11.01
12553 13.6580 114.60 107.69 10.71
12554 13.6590 119.53 107.31 10.93
12555 13.6600 127.26 106.92 11.28
12556 13.6610 141.98 106.50 11.92
12557 13.6620 123.17 106.07 11.10
12558 13.6630 119.47 105.63 10.93
12559 13.6640 112.54 105.17 10.61
12560 13.6650 120.09 104.70 10.96
12561 13.6660 126.30 104.22 11.24
12562 13.6670 115.42 103.74 10.74
12563 13.6680 114.18 103.23 10.69
12564 13.6690 106.26 102.73 10.31
12565 13.6700 109.77 102.20 10.48
12566 13.6710 95.04 101.71 9.75
12567 13.6720 109.94 101.17 10.49
12568 13.6730 119.71 100.63 10.94
12569 13.6740 109.17 100.08 10.45
12570 13.6750 109.20 99.52 10.45
12571 13.6760 106.31 98.97 10.31
12572 13.6770 94.34 98.40 9.71
12573 13.6780 87.72 97.84 9.37
12574 13.6790 97.04 97.28 9.85
12575 13.6800 99.56 96.71 9.98
12576 13.6810 93.93 96.13 9.69
12577 13.6820 88.71 95.56 9.42
12578 13.6830 88.88 94.99 9.43
12579 13.6840 89.58 94.42 9.46
12580 13.6850 90.37 93.85 9.51
12581 13.6860 85.82 93.29 9.26
12582 13.6870 88.49 92.73 9.41
12583 13.6880 86.83 92.17 9.32
12584 13.6890 90.75 91.62 9.53
12585 13.6900 98.13 91.07 9.91
12586 13.6910 90.16 90.53 9.50
12587 13.6920 94.33 89.99 9.71
12588 13.6930 83.49 89.46 9.14
12589 13.6940 84.21 88.93 9.18
12590 13.6950 85.51 88.41 9.25
12591 13.6960 88.79 87.92 9.42
12592 13.6970 85.69 87.42 9.26
12593 13.6980 85.38 86.92 9.24
12594 13.6990 81.84 86.43 9.05
12595 13.7000 77.47 85.94 8.80
12596 13.7010 78.96 85.47 8.89
12597 13.7020 80.93 85.00 9.00
12598 13.7030 80.45 84.54 8.97
12599 13.7040 89.89 84.08 9.48
12600 13.7050 92.49 83.65 9.62
12601 13.7060 80.40 83.22 8.97
12602 13.7070 77.25 82.79 8.79
12603 13.7080 69.16 82.38 8.32
12604 13.7090 83.06 81.97 9.11
12605 13.7100 78.46 81.57 8.86
12606 13.7110 83.04 81.18 9.11
12607 13.7120 73.74 80.80 8.59
12608 13.7130 71.62 80.43 8.46
12609 13.7140 73.11 80.11 8.55
12610 13.7150 68.42 79.76 8.27
12611 13.7160 63.88 79.41 7.99
12612 13.7170 69.70 79.04 8.35
12613 13.7180 79.82 78.71 8.93
12614 13.7190 78.22 78.40 8.84
12615 13.7200 83.89 78.09 9.16
12616 13.7210 78.49 77.80 8.86
12617 13.7220 71.40 77.51 8.45
12618 13.7230 81.28 77.24 9.02
12619 13.7240 78.27 76.97 8.85
12620 13.7250 71.15 76.71 8.44
12621 13.7260 66.61 76.47 8.16
12622 13.7270 71.54 76.23 8.46
12623 13.7280 70.73 76.00 8.41
12624 13.7290 64.64 75.77 8.04
12625 13.7300 65.48 75.55 8.09
12626 13.7310 73.97 75.35 8.60
12627 13.7320 70.92 75.15 8.42
12628 13.7330 81.14 74.95 9.01
12629 13.7340 77.55 74.77 8.81
12630 13.7350 80.78 74.60 8.99
12631 13.7360 75.79 74.45 8.71
12632 13.7370 68.08 74.29 8.25
12633 13.7380 69.90 74.13 8.36
12634 13.7390 76.84 73.98 8.77
12635 13.7400 77.48 73.83 8.80
12636 13.7410 71.43 73.70 8.45
12637 13.7420 78.57 73.56 8.86
12638 13.7430 68.95 73.44 8.30
12639 13.7440 77.28 73.31 8.79
12640 13.7450 70.57 73.20 8.40
12641 13.7460 71.33 73.09 8.45
12642 13.7470 68.73 72.98 8.29
12643 13.7480 76.29 72.88 8.73
12644 13.7490 74.50 72.78 8.63
12645 13.7500 73.21 72.68 8.56
12646 13.7510 82.59 72.59 9.09
12647 13.7520 67.22 72.50 8.20
12648 13.7530 75.91 72.42 8.71
12649 13.7540 74.68 72.34 8.64
12650 13.7550 68.07 72.26 8.25
12651 13.7560 63.69 72.18 7.98
12652 13.7570 63.58 72.10 7.97
12653 13.7580 68.30 72.03 8.26
12654 13.7590 74.62 71.96 8.64
12655 13.7600 73.50 71.89 8.57
12656 13.7610 77.36 71.83 8.80
12657 13.7620 77.74 71.77 8.82
12658 13.7630 73.87 71.70 8.59
12659 13.7640 70.58 71.64 8.40
12660 13.7650 75.84 71.57 8.71
12661 13.7660 75.18 71.51 8.67
12662 13.7670 66.38 71.44 8.15
12663 13.7680 72.79 71.38 8.53
12664 13.7690 65.83 71.32 8.11
12665 13.7700 81.09 71.25 9.01
12666 13.7710 79.28 71.20 8.90
12667 13.7720 84.10 71.13 9.17
12668 13.7730 71.39 71.07 8.45
12669 13.7740 72.63 71.00 8.52
12670 13.7750 77.07 70.94 8.78
12671 13.7760 68.69 70.87 8.29
12672 13.7770 76.03 70.81 8.72
12673 13.7780 69.62 70.74 8.34
12674 13.7790 73.04 70.68 8.55
12675 13.7800 77.18 70.61 8.79
12676 13.7810 89.29 70.55 9.45
12677 13.7820 81.54 70.48 9.03
12678 13.7830 67.44 70.42 8.21
12679 13.7840 75.38 70.35 8.68
12680 13.7850 70.34 70.28 8.39
12681 13.7860 74.32 70.21 8.62
12682 13.7870 74.32 70.15 8.62
12683 13.7880 75.67 70.08 8.70
12684 13.7890 69.64 70.01 8.35
12685 13.7900 67.77 69.94 8.23
12686 13.7910 78.14 69.90 8.84
12687 13.7920 73.07 69.83 8.55
12688 13.7930 72.48 69.77 8.51
12689 13.7940 73.39 69.70 8.57
12690 13.7950 77.15 69.64 8.78
12691 13.7960 71.47 69.57 8.45
12692 13.7970 67.25 69.51 8.20
12693 13.7980 68.19 69.44 8.26
12694 13.7990 78.37 69.38 8.85
12695 13.8000 78.29 69.32 8.85
12696 13.8010 74.27 69.25 8.62
12697 13.8020 71.09 69.19 8.43
12698 13.8030 70.56 69.13 8.40
12699 13.8040 80.34 69.07 8.96
12700 13.8050 72.37 69.01 8.51
12701 13.8060 73.80 68.95 8.59
12702 13.8070 73.56 68.89 8.58
12703 13.8080 79.78 68.84 8.93
12704 13.8090 76.19 68.79 8.73
12705 13.8100 78.46 68.73 8.86
12706 13.8110 80.42 68.68 8.97
12707 13.8120 65.92 68.62 8.12
12708 13.8130 68.54 68.58 8.28
12709 13.8140 72.38 68.53 8.51
12710 13.8150 83.43 68.48 9.13
12711 13.8160 81.08 68.43 9.00
12712 13.8170 66.25 68.40 8.14
12713 13.8180 71.28 68.35 8.44
12714 13.8190 63.48 68.31 7.97
12715 13.8200 73.55 68.26 8.58
12716 13.8210 77.99 68.22 8.83
12717 13.8220 72.49 68.20 8.51
12718 13.8230 54.49 68.16 7.38
12719 13.8240 72.38 68.13 8.51
12720 13.8250 74.19 68.09 8.61
12721 13.8260 69.50 68.06 8.34
12722 13.8270 63.63 68.02 7.98
12723 13.8280 64.86 67.99 8.05
12724 13.8290 66.46 67.96 8.15
12725 13.8300 64.00 67.93 8.00
12726 13.8310 57.87 67.91 7.61
12727 13.8320 55.30 67.88 7.44
12728 13.8330 67.38 67.85 8.21
12729 13.8340 70.92 67.83 8.42
12730 13.8350 69.66 67.81 8.35
12731 13.8360 73.82 67.79 8.59
12732 13.8370 64.72 67.77 8.04
12733 13.8380 80.24 67.75 8.96
12734 13.8390 73.65 67.79 8.58
12735 13.8400 70.03 67.77 8.37
12736 13.8410 76.64 67.76 8.75
12737 13.8420 75.99 67.74 8.72
12738 13.8430 66.58 67.73 8.16
12739 13.8440 57.17 67.72 7.56
12740 13.8450 60.41 67.71 7.77
12741 13.8460 63.69 67.71 7.98
12742 13.8470 68.64 67.70 8.28
12743 13.8480 62.30 67.69 7.89
12744 13.8490 63.24 67.69 7.95
12745 13.8500 66.49 67.69 8.15
12746 13.8510 65.38 67.69 8.09
12747 13.8520 60.12 67.68 7.75
12748 13.8530 61.05 67.69 7.81
12749 13.8540 61.95 67.69 7.87
12750 13.8550 63.33 67.70 7.96
12751 13.8560 70.90 67.70 8.42
12752 13.8570 66.04 67.71 8.13
12753 13.8580 68.09 67.71 8.25
12754 13.8590 66.94 67.74 8.18
12755 13.8600 63.77 67.75 7.99
12756 13.8610 67.88 67.75 8.24
12757 13.8620 62.40 67.76 7.90
12758 13.8630 63.83 67.77 7.99
12759 13.8640 71.32 67.79 8.45
12760 13.8650 77.70 67.81 8.81
12761 13.8660 52.80 67.82 7.27
12762 13.8670 54.13 67.84 7.36
12763 13.8680 59.67 67.86 7.72
12764 13.8690 53.83 67.88 7.34
12765 13.8700 66.90 67.90 8.18
12766 13.8710 73.25 67.93 8.56
12767 13.8720 64.39 67.95 8.02
12768 13.8730 75.53 67.98 8.69
12769 13.8740 82.37 68.01 9.08
12770 13.8750 67.53 68.03 8.22
12771 13.8760 69.02 68.06 8.31
12772 13.8770 63.21 68.10 7.95
12773 13.8780 63.62 68.13 7.98
12774 13.8790 62.77 68.16 7.92
12775 13.8800 67.04 68.20 8.19
12776 13.8810 64.21 68.23 8.01
12777 13.8820 64.35 68.27 8.02
12778 13.8830 76.19 68.30 8.73
12779 13.8840 78.76 68.34 8.87
12780 13.8850 62.48 68.38 7.90
12781 13.8860 63.58 68.42 7.97
12782 13.8870 72.39 68.46 8.51
12783 13.8880 70.94 68.50 8.42
12784 13.8890 68.87 68.54 8.30
12785 13.8900 69.60 68.54 8.34
12786 13.8910 66.94 68.58 8.18
12787 13.8920 65.07 68.62 8.07
12788 13.8930 62.88 68.66 7.93
12789 13.8940 63.53 68.70 7.97
12790 13.8950 58.85 68.74 7.67
12791 13.8960 63.98 68.78 8.00
12792 13.8970 65.28 68.81 8.08
12793 13.8980 61.62 68.85 7.85
12794 13.8990 66.33 68.89 8.14
12795 13.9000 68.72 68.92 8.29
12796 13.9010 69.10 68.95 8.31
12797 13.9020 71.80 68.98 8.47
12798 13.9030 65.31 69.01 8.08
12799 13.9040 69.31 69.04 8.33
12800 13.9050 59.96 69.06 7.74
12801 13.9060 67.39 69.09 8.21
12802 13.9070 76.72 69.11 8.76
12803 13.9080 69.27 69.13 8.32
12804 13.9090 56.16 69.14 7.49
12805 13.9100 71.96 69.16 8.48
12806 13.9110 69.59 69.17 8.34
12807 13.9120 68.77 69.18 8.29
12808 13.9130 76.37 69.18 8.74
12809 13.9140 72.79 69.19 8.53
12810 13.9150 73.50 69.18 8.57
12811 13.9160 72.66 69.18 8.52
12812 13.9170 68.06 69.17 8.25
12813 13.9180 67.40 69.16 8.21
12814 13.9190 68.50 69.14 8.28
12815 13.9200 74.54 69.12 8.63
12816 13.9210 80.39 69.10 8.97
12817 13.9220 73.04 69.07 8.55
12818 13.9230 62.98 69.04 7.94
12819 13.9240 58.33 69.01 7.64
12820 13.9250 77.06 68.98 8.78
12821 13.9260 68.03 68.94 8.25
12822 13.9270 67.57 68.90 8.22
12823 13.9280 63.70 68.85 7.98
12824 13.9290 71.40 68.81 8.45
12825 13.9300 68.34 68.76 8.27
12826 13.9310 72.22 68.71 8.50
12827 13.9320 66.48 68.66 8.15
12828 13.9330 78.91 68.60 8.88
12829 13.9340 63.74 68.55 7.98
12830 13.9350 73.56 68.49 8.58
12831 13.9360 65.29 68.43 8.08
12832 13.9370 62.94 68.37 7.93
12833 13.9380 72.96 68.31 8.54
12834 13.9390 68.83 68.24 8.30
12835 13.9400 70.88 68.18 8.42
12836 13.9410 67.97 68.11 8.24
12837 13.9420 67.60 68.05 8.22
12838 13.9430 68.13 67.99 8.25
12839 13.9440 63.69 67.93 7.98
12840 13.9450 68.33 67.86 8.27
12841 13.9460 76.19 67.80 8.73
12842 13.9470 75.50 67.74 8.69
12843 13.9480 69.79 67.68 8.35
12844 13.9490 62.54 67.62 7.91
12845 13.9500 59.41 67.56 7.71
12846 13.9510 56.06 67.51 7.49
12847 13.9520 66.01 67.46 8.12
12848 13.9530 59.87 67.41 7.74
12849 13.9540 63.43 67.36 7.96
12850 13.9550 58.18 67.31 7.63
12851 13.9560 65.60 67.27 8.10
12852 13.9570 69.05 67.23 8.31
12853 13.9580 63.99 67.19 8.00
12854 13.9590 55.82 67.16 7.47
12855 13.9600 64.49 67.13 8.03
12856 13.9610 59.42 67.10 7.71
12857 13.9620 60.18 67.08 7.76
12858 13.9630 54.63 67.06 7.39
12859 13.9640 52.95 67.05 7.28
12860 13.9650 57.30 67.04 7.57
12861 13.9660 60.31 67.04 7.77
12862 13.9670 62.51 67.04 7.91
12863 13.9680 66.61 67.04 8.16
12864 13.9690 62.81 67.03 7.93
12865 13.9700 67.76 67.04 8.23
12866 13.9710 66.43 67.06 8.15
12867 13.9720 66.73 67.09 8.17
12868 13.9730 63.66 67.15 7.98
12869 13.9740 64.05 67.18 8.00
12870 13.9750 62.66 67.23 7.92
12871 13.9760 64.97 67.28 8.06
12872 13.9770 54.92 67.36 7.41
12873 13.9780 59.08 67.42 7.69
12874 13.9790 63.92 67.49 7.99
12875 13.9800 59.87 67.56 7.74
12876 13.9810 61.41 67.64 7.84
12877 13.9820 68.35 67.73 8.27
12878 13.9830 71.13 67.82 8.43
12879 13.9840 60.73 67.92 7.79
12880 13.9850 58.26 68.03 7.63
12881 13.9860 66.38 68.15 8.15
12882 13.9870 73.77 68.27 8.59
12883 13.9880 68.43 68.39 8.27
12884 13.9890 67.21 68.53 8.20
12885 13.9900 64.87 68.67 8.05
12886 13.9910 71.53 68.82 8.46
12887 13.9920 73.89 68.98 8.60
12888 13.9930 71.40 69.14 8.45
12889 13.9940 69.62 69.31 8.34
12890 13.9950 68.54 69.49 8.28
12891 13.9960 57.00 69.68 7.55
12892 13.9970 61.00 69.87 7.81
12893 13.9980 63.18 70.07 7.95
12894 13.9990 62.18 70.28 7.89
12895 14.0000 63.16 70.50 7.95
12896 14.0010 52.35 70.72 7.24
12897 14.0020 54.50 70.96 7.38
12898 14.0030 61.01 71.20 7.81
12899 14.0040 59.71 71.45 7.73
12900 14.0050 67.93 71.70 8.24
12901 14.0060 61.65 71.96 7.85
12902 14.0070 63.24 72.23 7.95
12903 14.0080 61.49 72.51 7.84
12904 14.0090 72.79 72.80 8.53
12905 14.0100 66.89 73.10 8.18
12906 14.0110 68.86 73.40 8.30
12907 14.0120 59.55 73.72 7.72
12908 14.0130 69.58 74.04 8.34
12909 14.0140 75.41 74.37 8.68
12910 14.0150 68.59 74.70 8.28
12911 14.0160 67.27 75.05 8.20
12912 14.0170 64.81 75.41 8.05
12913 14.0180 76.03 75.76 8.72
12914 14.0190 82.54 76.13 9.09
12915 14.0200 68.42 76.50 8.27
12916 14.0210 77.49 76.89 8.80
12917 14.0220 78.18 77.28 8.84
12918 14.0230 74.28 77.67 8.62
12919 14.0240 73.89 78.07 8.60
12920 14.0250 77.45 78.48 8.80
12921 14.0260 68.42 78.90 8.27
12922 14.0270 72.20 79.32 8.50
12923 14.0280 69.20 79.75 8.32
12924 14.0290 62.77 80.18 7.92
12925 14.0300 78.92 80.62 8.88
12926 14.0310 73.62 81.02 8.58
12927 14.0320 75.66 81.47 8.70
12928 14.0330 66.07 81.93 8.13
12929 14.0340 85.51 82.39 9.25
12930 14.0350 80.26 82.86 8.96
12931 14.0360 80.98 83.33 9.00
12932 14.0370 70.68 83.81 8.41
12933 14.0380 72.58 84.29 8.52
12934 14.0390 76.15 84.77 8.73
12935 14.0400 79.15 85.26 8.90
12936 14.0410 83.77 85.74 9.15
12937 14.0420 71.93 86.24 8.48
12938 14.0430 83.85 86.73 9.16
12939 14.0440 76.18 87.23 8.73
12940 14.0450 78.16 87.73 8.84
12941 14.0460 82.17 88.24 9.06
12942 14.0470 83.37 88.74 9.13
12943 14.0480 81.53 89.24 9.03
12944 14.0490 82.11 89.75 9.06
12945 14.0500 69.92 90.25 8.36
12946 14.0510 76.73 90.76 8.76
12947 14.0520 74.28 91.26 8.62
12948 14.0530 86.43 91.76 9.30
12949 14.0540 90.78 92.26 9.53
12950 14.0550 84.45 92.76 9.19
12951 14.0560 88.65 93.26 9.42
12952 14.0570 90.95 93.75 9.54
12953 14.0580 95.23 94.25 9.76
12954 14.0590 88.47 94.73 9.41
12955 14.0600 98.97 95.22 9.95
12956 14.0610 94.86 95.70 9.74
12957 14.0620 95.11 96.17 9.75
12958 14.0630 85.93 96.64 9.27
12959 14.0640 92.16 97.10 9.60
12960 14.0650 115.67 97.56 10.76
12961 14.0660 108.60 98.01 10.42
12962 14.0670 103.59 98.46 10.18
12963 14.0680 98.27 98.90 9.91
12964 14.0690 85.41 99.33 9.24
12965 14.0700 103.31 99.75 10.16
12966 14.0710 116.05 100.16 10.77
12967 14.0720 109.68 100.56 10.47
12968 14.0730 108.24 100.96 10.40
12969 14.0740 103.73 101.44 10.18
12970 14.0750 112.53 101.82 10.61
12971 14.0760 128.56 102.18 11.34
12972 14.0770 124.11 102.54 11.14
12973 14.0780 137.75 102.88 11.74
12974 14.0790 128.16 103.21 11.32
12975 14.0800 126.28 103.53 11.24
12976 14.0810 128.38 103.84 11.33
12977 14.0820 127.32 104.13 11.28
12978 14.0830 117.06 104.41 10.82
12979 14.0840 123.12 104.68 11.10
12980 14.0850 121.43 104.94 11.02
12981 14.0860 136.09 105.18 11.67
12982 14.0870 128.10 105.41 11.32
12983 14.0880 114.84 105.63 10.72
12984 14.0890 130.65 105.83 11.43
12985 14.0900 125.93 106.02 11.22
12986 14.0910 117.51 106.19 10.84
12987 14.0920 117.93 106.35 10.86
12988 14.0930 118.27 106.50 10.88
12989 14.0940 110.21 106.63 10.50
12990 14.0950 110.36 106.75 10.51
12991 14.0960 130.21 106.86 11.41
12992 14.0970 129.88 106.95 11.40
12993 14.0980 119.52 107.03 10.93
12994 14.0990 116.39 107.09 10.79
12995 14.1000 120.99 107.15 11.00
12996 14.1010 119.44 107.19 10.93
12997 14.1020 110.71 107.22 10.52
12998 14.1030 97.36 107.23 9.87
12999 14.1040 94.03 107.24 9.70
13000 14.1050 97.12 107.23 9.85
13001 14.1060 108.65 107.22 10.42
13002 14.1070 97.75 107.19 9.89
13003 14.1080 106.88 107.16 10.34
13004 14.1090 113.96 107.11 10.68
13005 14.1100 105.06 107.06 10.25
13006 14.1110 99.38 107.00 9.97
13007 14.1120 88.44 106.93 9.40
13008 14.1130 99.36 106.86 9.97
13009 14.1140 102.13 106.78 10.11
13010 14.1150 106.77 106.69 10.33
13011 14.1160 98.29 106.60 9.91
13012 14.1170 96.65 106.50 9.83
13013 14.1180 101.52 106.39 10.08
13014 14.1190 100.22 106.28 10.01
13015 14.1200 111.05 106.17 10.54
13016 14.1210 103.52 106.05 10.17
13017 14.1220 108.12 105.93 10.40
13018 14.1230 106.53 105.81 10.32
13019 14.1240 105.47 105.68 10.27
13020 14.1250 94.30 105.56 9.71
13021 14.1260 104.34 105.43 10.21
13022 14.1270 105.00 105.30 10.25
13023 14.1280 106.34 105.16 10.31
13024 14.1290 107.59 105.03 10.37
13025 14.1300 92.86 104.90 9.64
13026 14.1310 103.67 104.80 10.18
13027 14.1320 105.49 104.66 10.27
13028 14.1330 107.99 104.52 10.39
13029 14.1340 91.55 104.38 9.57
13030 14.1350 108.71 104.24 10.43
13031 14.1360 102.46 104.13 10.12
13032 14.1370 106.50 103.99 10.32
13033 14.1380 114.52 103.85 10.70
13034 14.1390 107.30 103.70 10.36
13035 14.1400 112.53 103.56 10.61
13036 14.1410 102.02 103.41 10.10
13037 14.1420 101.81 103.26 10.09
13038 14.1430 107.35 103.12 10.36
13039 14.1440 109.84 102.97 10.48
13040 14.1450 120.33 102.82 10.97
13041 14.1460 102.49 102.68 10.12
13042 14.1470 110.75 102.53 10.52
13043 14.1480 115.28 102.37 10.74
13044 14.1490 94.14 102.22 9.70
13045 14.1500 106.63 102.06 10.33
13046 14.1510 103.30 101.90 10.16
13047 14.1520 105.47 101.78 10.27
13048 14.1530 105.02 101.62 10.25
13049 14.1540 103.17 101.45 10.16
13050 14.1550 107.28 101.28 10.36
13051 14.1560 104.00 101.11 10.20
13052 14.1570 102.06 100.94 10.10
13053 14.1580 97.96 100.76 9.90
13054 14.1590 112.09 100.58 10.59
13055 14.1600 99.25 100.40 9.96
13056 14.1610 110.06 100.22 10.49
13057 14.1620 107.28 100.03 10.36
13058 14.1630 101.03 99.84 10.05
13059 14.1640 102.33 99.64 10.12
13060 14.1650 100.17 99.44 10.01
13061 14.1660 102.49 99.24 10.12
13062 14.1670 104.74 99.04 10.23
13063 14.1680 105.90 98.83 10.29
13064 14.1690 106.90 98.62 10.34
13065 14.1700 110.12 98.41 10.49
13066 14.1710 99.13 98.20 9.96
13067 14.1720 104.17 97.98 10.21
13068 14.1730 109.32 97.76 10.46
13069 14.1740 84.15 97.54 9.17
13070 14.1750 94.08 97.34 9.70
13071 14.1760 96.73 97.11 9.84
13072 14.1770 90.59 96.88 9.52
13073 14.1780 83.21 96.65 9.12
13074 14.1790 91.93 96.43 9.59
13075 14.1800 95.39 96.18 9.77
13076 14.1810 93.21 95.94 9.65
13077 14.1820 96.46 95.71 9.82
13078 14.1830 100.43 95.47 10.02
13079 14.1840 89.49 95.23 9.46
13080 14.1850 99.36 94.99 9.97
13081 14.1860 95.86 94.74 9.79
13082 14.1870 92.44 94.50 9.61
13083 14.1880 90.13 94.25 9.49
13084 14.1890 104.25 94.01 10.21
13085 14.1900 102.45 93.77 10.12
13086 14.1910 92.61 93.52 9.62
13087 14.1920 79.87 93.27 8.94
13088 14.1930 96.64 93.02 9.83
13089 14.1940 87.65 92.77 9.36
13090 14.1950 103.81 92.52 10.19
13091 14.1960 91.80 92.27 9.58
13092 14.1970 107.80 92.02 10.38
13093 14.1980 107.22 91.77 10.35
13094 14.1990 99.17 91.51 9.96
13095 14.2000 94.15 91.26 9.70
13096 14.2010 93.70 91.01 9.68
13097 14.2020 97.11 90.76 9.85
13098 14.2030 101.88 90.51 10.09
13099 14.2040 96.03 90.25 9.80
13100 14.2050 93.70 90.00 9.68
13101 14.2060 102.13 89.75 10.11
13102 14.2070 93.15 89.50 9.65
13103 14.2080 90.83 89.25 9.53
13104 14.2090 79.26 89.00 8.90
13105 14.2100 81.68 88.75 9.04
13106 14.2110 90.41 88.51 9.51
13107 14.2120 88.20 88.26 9.39
13108 14.2130 87.00 88.02 9.33
13109 14.2140 82.89 87.77 9.10
13110 14.2150 83.08 87.53 9.11
13111 14.2160 85.00 87.29 9.22
13112 14.2170 88.14 87.05 9.39
13113 14.2180 88.39 86.82 9.40
13114 14.2190 91.92 86.58 9.59
13115 14.2200 83.55 86.35 9.14
13116 14.2210 86.14 86.12 9.28
13117 14.2220 84.47 85.90 9.19
13118 14.2230 92.68 85.68 9.63
13119 14.2240 79.81 85.46 8.93
13120 14.2250 74.78 85.28 8.65
13121 14.2260 79.65 85.07 8.92
13122 14.2270 85.84 84.86 9.26
13123 14.2280 93.78 84.65 9.68
13124 14.2290 89.88 84.45 9.48
13125 14.2300 81.92 84.26 9.05
13126 14.2310 70.74 84.06 8.41
13127 14.2320 68.11 83.88 8.25
13128 14.2330 90.05 83.70 9.49
13129 14.2340 83.38 83.52 9.13
13130 14.2350 77.15 83.35 8.78
13131 14.2360 90.80 83.19 9.53
13132 14.2370 85.83 83.03 9.26
13133 14.2380 77.86 82.88 8.82
13134 14.2390 79.10 82.73 8.89
13135 14.2400 77.12 82.60 8.78
13136 14.2410 75.00 82.46 8.66
13137 14.2420 84.91 82.34 9.21
13138 14.2430 73.38 82.22 8.57
13139 14.2440 79.43 82.11 8.91
13140 14.2450 67.47 82.01 8.21
13141 14.2460 74.07 81.92 8.61
13142 14.2470 81.54 81.84 9.03
13143 14.2480 72.52 81.76 8.52
13144 14.2490 79.47 81.69 8.91
13145 14.2500 77.03 81.64 8.78
13146 14.2510 74.89 81.59 8.65
13147 14.2520 70.60 81.55 8.40
13148 14.2530 77.82 81.52 8.82
13149 14.2540 75.95 81.50 8.71
13150 14.2550 85.65 81.49 9.25
13151 14.2560 76.96 81.49 8.77
13152 14.2570 74.36 81.49 8.62
13153 14.2580 85.49 81.51 9.25
13154 14.2590 83.60 81.54 9.14
13155 14.2600 85.23 81.58 9.23
13156 14.2610 79.47 81.63 8.91
13157 14.2620 99.51 81.69 9.98
13158 14.2630 76.53 81.76 8.75
13159 14.2640 80.13 81.85 8.95
13160 14.2650 80.85 81.94 8.99
13161 14.2660 81.77 82.04 9.04
13162 14.2670 76.77 82.16 8.76
13163 14.2680 65.91 82.28 8.12
13164 14.2690 74.00 82.42 8.60
13165 14.2700 77.54 82.57 8.81
13166 14.2710 75.76 82.73 8.70
13167 14.2720 81.93 82.89 9.05
13168 14.2730 84.42 83.06 9.19
13169 14.2740 81.27 83.25 9.01
13170 14.2750 69.20 83.45 8.32
13171 14.2760 75.23 83.67 8.67
13172 14.2770 78.00 83.89 8.83
13173 14.2780 76.58 84.13 8.75
13174 14.2790 93.45 84.37 9.67
13175 14.2800 82.67 84.63 9.09
13176 14.2810 80.45 84.90 8.97
13177 14.2820 74.64 85.18 8.64
13178 14.2830 84.52 85.47 9.19
13179 14.2840 83.87 85.77 9.16
13180 14.2850 85.41 86.08 9.24
13181 14.2860 79.78 86.40 8.93
13182 14.2870 83.19 86.73 9.12
13183 14.2880 80.59 87.07 8.98
13184 14.2890 84.42 87.42 9.19
13185 14.2900 93.02 87.77 9.64
13186 14.2910 97.04 88.14 9.85
13187 14.2920 91.20 88.52 9.55
13188 14.2930 83.44 88.91 9.13
13189 14.2940 81.19 89.30 9.01
13190 14.2950 81.57 89.70 9.03
13191 14.2960 84.35 90.12 9.18
13192 14.2970 87.85 90.54 9.37
13193 14.2980 87.49 90.96 9.35
13194 14.2990 89.40 91.40 9.46
13195 14.3000 91.74 91.84 9.58
13196 14.3010 93.35 92.29 9.66
13197 14.3020 83.99 92.74 9.16
13198 14.3030 92.47 93.20 9.62
13199 14.3040 89.46 93.67 9.46
13200 14.3050 110.80 94.14 10.53
13201 14.3060 107.68 94.61 10.38
13202 14.3070 108.42 95.10 10.41
13203 14.3080 111.15 95.58 10.54
13204 14.3090 101.71 96.07 10.09
13205 14.3100 108.13 96.56 10.40
13206 14.3110 109.74 97.05 10.48
13207 14.3120 113.87 97.55 10.67
13208 14.3130 103.60 98.05 10.18
13209 14.3140 102.86 98.54 10.14
13210 14.3150 108.67 99.04 10.42
13211 14.3160 115.09 99.54 10.73
13212 14.3170 116.98 100.03 10.82
13213 14.3180 105.41 100.53 10.27
13214 14.3190 117.09 101.02 10.82
13215 14.3200 110.10 101.51 10.49
13216 14.3210 109.16 101.99 10.45
13217 14.3220 111.44 102.47 10.56
13218 14.3230 115.37 102.95 10.74
13219 14.3240 105.03 103.41 10.25
13220 14.3250 114.74 103.87 10.71
13221 14.3260 135.00 104.32 11.62
13222 14.3270 114.57 104.77 10.70
13223 14.3280 115.82 105.20 10.76
13224 14.3290 104.02 105.63 10.20
13225 14.3300 123.96 106.04 11.13
13226 14.3310 102.02 106.44 10.10
13227 14.3320 101.25 106.83 10.06
13228 14.3330 116.97 107.21 10.82
13229 14.3340 126.55 107.57 11.25
13230 14.3350 125.92 107.92 11.22
13231 14.3360 115.30 108.25 10.74
13232 14.3370 112.56 108.57 10.61
13233 14.3380 98.54 108.87 9.93
13234 14.3390 104.05 109.15 10.20
13235 14.3400 109.78 109.41 10.48
13236 14.3410 107.26 109.65 10.36
13237 14.3420 108.71 109.81 10.43
13238 14.3430 117.55 110.02 10.84
13239 14.3440 110.91 110.21 10.53
13240 14.3450 112.39 110.37 10.60
13241 14.3460 121.90 110.51 11.04
13242 14.3470 111.46 110.64 10.56
13243 14.3480 110.53 110.74 10.51
13244 14.3490 122.77 110.82 11.08
13245 14.3500 96.79 110.88 9.84
13246 14.3510 104.42 110.92 10.22
13247 14.3520 100.78 110.94 10.04
13248 14.3530 117.79 110.94 10.85
13249 14.3540 118.09 110.91 10.87
13250 14.3550 106.05 110.87 10.30
13251 14.3560 101.74 110.80 10.09
13252 14.3570 95.45 110.71 9.77
13253 14.3580 104.49 110.61 10.22
13254 14.3590 103.03 110.48 10.15
13255 14.3600 108.43 110.34 10.41
13256 14.3610 115.15 110.18 10.73
13257 14.3620 124.26 110.00 11.15
13258 14.3630 108.22 109.80 10.40
13259 14.3640 97.84 109.59 9.89
13260 14.3650 94.74 109.36 9.73
13261 14.3660 102.86 109.11 10.14
13262 14.3670 94.93 108.85 9.74
13263 14.3680 104.07 108.57 10.20
13264 14.3690 99.13 108.29 9.96
13265 14.3700 115.93 107.98 10.77
13266 14.3710 112.95 107.67 10.63
13267 14.3720 105.11 107.35 10.25
13268 14.3730 93.92 107.01 9.69
13269 14.3740 96.22 106.66 9.81
13270 14.3750 105.45 106.34 10.27
13271 14.3760 107.62 105.97 10.37
13272 14.3770 93.04 105.60 9.65
13273 14.3780 95.98 105.21 9.80
13274 14.3790 101.57 104.82 10.08
13275 14.3800 101.39 104.43 10.07
13276 14.3810 89.57 104.03 9.46
13277 14.3820 88.57 103.62 9.41
13278 14.3830 81.35 103.20 9.02
13279 14.3840 90.05 102.78 9.49
13280 14.3850 87.19 102.36 9.34
13281 14.3860 100.68 101.93 10.03
13282 14.3870 85.91 101.50 9.27
13283 14.3880 98.95 101.06 9.95
13284 14.3890 92.38 100.63 9.61
13285 14.3900 75.73 100.19 8.70
13286 14.3910 80.03 99.75 8.95
13287 14.3920 91.24 99.30 9.55
13288 14.3930 91.37 98.86 9.56
13289 14.3940 92.27 98.41 9.61
13290 14.3950 93.91 97.96 9.69
13291 14.3960 90.34 97.51 9.50
13292 14.3970 86.16 97.07 9.28
13293 14.3980 105.03 96.62 10.25
13294 14.3990 91.63 96.17 9.57
13295 14.4000 99.09 95.66 9.95
13296 14.4010 95.07 95.22 9.75
13297 14.4020 85.39 94.78 9.24
13298 14.4030 94.24 94.33 9.71
13299 14.4040 87.79 93.89 9.37
13300 14.4050 90.54 93.45 9.52
13301 14.4060 87.80 93.02 9.37
13302 14.4070 73.25 92.58 8.56
13303 14.4080 81.63 92.14 9.03
13304 14.4090 79.77 91.72 8.93
13305 14.4100 92.84 91.29 9.64
13306 14.4110 93.06 90.86 9.65
13307 14.4120 84.40 90.44 9.19
13308 14.4130 78.86 90.01 8.88
13309 14.4140 78.83 89.60 8.88
13310 14.4150 83.32 89.18 9.13
13311 14.4160 85.70 88.77 9.26
13312 14.4170 73.13 88.36 8.55
13313 14.4180 88.41 87.96 9.40
13314 14.4190 86.56 87.56 9.30
13315 14.4200 73.40 87.17 8.57
13316 14.4210 75.22 86.77 8.67
13317 14.4220 76.64 86.39 8.75
13318 14.4230 76.16 86.00 8.73
13319 14.4240 87.48 85.63 9.35
13320 14.4250 84.05 85.25 9.17
13321 14.4260 68.13 84.89 8.25
13322 14.4270 73.86 84.52 8.59
13323 14.4280 75.03 84.17 8.66
13324 14.4290 85.46 83.78 9.24
13325 14.4300 96.88 83.44 9.84
13326 14.4310 94.86 83.09 9.74
13327 14.4320 80.57 82.76 8.98
13328 14.4330 80.31 82.42 8.96
13329 14.4340 75.86 82.10 8.71
13330 14.4350 80.03 81.78 8.95
13331 14.4360 83.39 81.46 9.13
13332 14.4370 79.25 81.15 8.90
13333 14.4380 71.33 80.85 8.45
13334 14.4390 84.34 80.55 9.18
13335 14.4400 80.06 80.25 8.95
13336 14.4410 68.72 79.96 8.29
13337 14.4420 72.13 79.68 8.49
13338 14.4430 80.37 79.40 8.96
13339 14.4440 63.81 79.13 7.99
13340 14.4450 71.63 78.86 8.46
13341 14.4460 82.58 78.60 9.09
13342 14.4470 74.32 78.35 8.62
13343 14.4480 60.77 78.10 7.80
13344 14.4490 74.89 77.85 8.65
13345 14.4500 83.91 77.61 9.16
13346 14.4510 76.78 77.38 8.76
13347 14.4520 60.62 77.15 7.79
13348 14.4530 65.70 76.92 8.11
13349 14.4540 70.73 76.70 8.41
13350 14.4550 76.53 76.49 8.75
13351 14.4560 66.37 76.29 8.15
13352 14.4570 82.42 76.09 9.08
13353 14.4580 73.90 75.89 8.60
13354 14.4590 75.57 75.70 8.69
13355 14.4600 66.48 75.51 8.15
13356 14.4610 66.72 75.33 8.17
13357 14.4620 65.76 75.16 8.11
13358 14.4630 67.42 74.99 8.21
13359 14.4640 62.47 74.83 7.90
13360 14.4650 72.91 74.67 8.54
13361 14.4660 73.86 74.52 8.59
13362 14.4670 63.75 74.38 7.98
13363 14.4680 71.45 74.24 8.45
13364 14.4690 76.16 74.11 8.73
13365 14.4700 77.04 73.99 8.78
13366 14.4710 69.52 73.87 8.34
13367 14.4720 68.16 73.75 8.26
13368 14.4730 76.15 73.64 8.73
13369 14.4740 78.00 73.54 8.83
13370 14.4750 86.41 73.44 9.30
13371 14.4760 81.52 73.35 9.03
13372 14.4770 81.34 73.27 9.02
13373 14.4780 66.85 73.19 8.18
13374 14.4790 70.25 73.11 8.38
13375 14.4800 71.71 73.05 8.47
13376 14.4810 65.15 72.98 8.07
13377 14.4820 71.50 72.93 8.46
13378 14.4830 71.83 72.88 8.48
13379 14.4840 68.59 72.84 8.28
13380 14.4850 69.05 72.80 8.31
13381 14.4860 74.77 72.77 8.65
13382 14.4870 65.85 72.75 8.11
13383 14.4880 58.37 72.73 7.64
13384 14.4890 76.98 72.72 8.77
13385 14.4900 72.72 72.72 8.53
13386 14.4910 67.37 72.72 8.21
13387 14.4920 67.43 72.73 8.21
13388 14.4930 71.94 72.77 8.48
13389 14.4940 71.73 72.79 8.47
13390 14.4950 64.05 72.82 8.00
13391 14.4960 82.48 72.86 9.08
13392 14.4970 77.06 72.90 8.78
13393 14.4980 76.13 72.92 8.73
13394 14.4990 69.59 72.98 8.34
13395 14.5000 66.95 73.04 8.18
13396 14.5010 71.51 73.11 8.46
13397 14.5020 74.84 73.19 8.65
13398 14.5030 75.82 73.27 8.71
13399 14.5040 63.19 73.36 7.95
13400 14.5050 67.79 73.46 8.23
13401 14.5060 67.96 73.56 8.24
13402 14.5070 65.06 73.68 8.07
13403 14.5080 74.08 73.80 8.61
13404 14.5090 71.89 73.92 8.48
13405 14.5100 76.46 74.06 8.74
13406 14.5110 77.63 74.20 8.81
13407 14.5120 77.40 74.34 8.80
13408 14.5130 73.44 74.50 8.57
13409 14.5140 76.05 74.66 8.72
13410 14.5150 63.45 74.83 7.97
13411 14.5160 64.82 75.01 8.05
13412 14.5170 71.50 75.20 8.46
13413 14.5180 67.88 75.39 8.24
13414 14.5190 64.59 75.59 8.04
13415 14.5200 64.21 75.80 8.01
13416 14.5210 73.04 76.01 8.55
13417 14.5220 69.68 76.24 8.35
13418 14.5230 73.11 76.47 8.55
13419 14.5240 71.29 76.71 8.44
13420 14.5250 77.37 76.96 8.80
13421 14.5260 69.62 77.22 8.34
13422 14.5270 84.87 77.48 9.21
13423 14.5280 82.15 77.75 9.06
13424 14.5290 70.85 78.04 8.42
13425 14.5300 68.90 78.33 8.30
13426 14.5310 72.00 78.62 8.49
13427 14.5320 82.70 78.93 9.09
13428 14.5330 84.32 79.25 9.18
13429 14.5340 90.94 79.57 9.54
13430 14.5350 82.03 79.90 9.06
13431 14.5360 77.89 80.25 8.83
13432 14.5370 74.52 80.60 8.63
13433 14.5380 91.58 80.96 9.57
13434 14.5390 81.19 81.33 9.01
13435 14.5400 77.36 81.71 8.80
13436 14.5410 101.47 82.01 10.07
13437 14.5420 89.97 82.41 9.49
13438 14.5430 94.76 82.82 9.73
13439 14.5440 88.53 83.23 9.41
13440 14.5450 94.55 83.66 9.72
13441 14.5460 87.60 84.10 9.36
13442 14.5470 84.56 84.55 9.20
13443 14.5480 87.56 85.00 9.36
13444 14.5490 85.74 85.47 9.26
13445 14.5500 81.97 85.95 9.05
13446 14.5510 80.90 86.43 8.99
13447 14.5520 90.80 86.93 9.53
13448 14.5530 88.99 87.44 9.43
13449 14.5540 84.81 87.96 9.21
13450 14.5550 96.02 88.49 9.80
13451 14.5560 104.05 89.02 10.20
13452 14.5570 94.89 89.57 9.74
13453 14.5580 102.50 90.13 10.12
13454 14.5590 93.98 90.70 9.69
13455 14.5600 99.23 91.28 9.96
13456 14.5610 114.18 91.87 10.69
13457 14.5620 114.08 92.47 10.68
13458 14.5630 115.03 93.11 10.73
13459 14.5640 107.57 93.73 10.37
13460 14.5650 97.40 94.36 9.87
13461 14.5660 98.39 95.01 9.92
13462 14.5670 98.54 95.66 9.93
13463 14.5680 98.64 96.34 9.93
13464 14.5690 105.45 97.01 10.27
13465 14.5700 95.32 97.69 9.76
13466 14.5710 117.39 98.38 10.83
13467 14.5720 107.59 99.08 10.37
13468 14.5730 119.39 99.79 10.93
13469 14.5740 124.70 100.51 11.17
13470 14.5750 127.14 101.24 11.28
13471 14.5760 126.61 101.98 11.25
13472 14.5770 136.81 102.73 11.70
13473 14.5780 131.50 103.48 11.47
13474 14.5790 138.61 104.24 11.77
13475 14.5800 145.98 105.01 12.08
13476 14.5810 125.13 105.79 11.19
13477 14.5820 139.48 106.58 11.81
13478 14.5830 135.47 107.37 11.64
13479 14.5840 127.60 108.17 11.30
13480 14.5850 137.63 108.97 11.73
13481 14.5860 135.47 109.79 11.64
13482 14.5870 138.86 110.60 11.78
13483 14.5880 150.45 111.42 12.27
13484 14.5890 142.21 112.25 11.93
13485 14.5900 149.45 113.08 12.23
13486 14.5910 160.75 113.91 12.68
13487 14.5920 163.35 114.75 12.78
13488 14.5930 166.56 115.59 12.91
13489 14.5940 161.49 116.43 12.71
13490 14.5950 162.41 117.27 12.74
13491 14.5960 158.50 118.12 12.59
13492 14.5970 162.19 118.96 12.74
13493 14.5980 162.17 119.81 12.73
13494 14.5990 146.48 120.65 12.10
13495 14.6000 136.97 121.50 11.70
13496 14.6010 169.19 122.34 13.01
13497 14.6020 141.93 123.18 11.91
13498 14.6030 159.06 124.02 12.61
13499 14.6040 157.77 124.85 12.56
13500 14.6050 146.16 125.69 12.09
13501 14.6060 154.02 126.51 12.41
13502 14.6070 143.02 127.34 11.96
13503 14.6080 142.13 128.15 11.92
13504 14.6090 162.22 128.97 12.74
13505 14.6100 163.23 129.77 12.78
13506 14.6110 154.17 130.57 12.42
13507 14.6120 164.55 131.37 12.83
13508 14.6130 173.96 132.15 13.19
13509 14.6140 164.07 132.93 12.81
13510 14.6150 158.23 133.72 12.58
13511 14.6160 141.78 134.48 11.91
13512 14.6170 141.48 135.23 11.89
13513 14.6180 153.02 135.97 12.37
13514 14.6190 161.31 136.70 12.70
13515 14.6200 167.82 137.42 12.95
13516 14.6210 155.99 138.13 12.49
13517 14.6220 146.08 138.82 12.09
13518 14.6230 159.15 139.51 12.62
13519 14.6240 158.03 140.19 12.57
13520 14.6250 150.44 140.85 12.27
13521 14.6260 173.00 141.52 13.15
13522 14.6270 159.57 142.16 12.63
13523 14.6280 161.70 142.78 12.72
13524 14.6290 185.19 143.39 13.61
13525 14.6300 163.99 143.99 12.81
13526 14.6310 164.55 144.58 12.83
13527 14.6320 185.32 145.15 13.61
13528 14.6330 175.89 145.71 13.26
13529 14.6340 175.81 146.26 13.26
13530 14.6350 156.98 146.79 12.53
13531 14.6360 166.68 147.30 12.91
13532 14.6370 173.71 147.82 13.18
13533 14.6380 175.50 148.31 13.25
13534 14.6390 165.37 148.78 12.86
13535 14.6400 160.32 149.24 12.66
13536 14.6410 168.12 149.69 12.97
13537 14.6420 161.87 150.13 12.72
13538 14.6430 161.77 150.55 12.72
13539 14.6440 149.34 150.95 12.22
13540 14.6450 162.02 151.35 12.73
13541 14.6460 155.43 151.72 12.47
13542 14.6470 153.80 152.09 12.40
13543 14.6480 152.98 152.44 12.37
13544 14.6490 162.04 152.78 12.73
13545 14.6500 177.53 153.10 13.32
13546 14.6510 159.30 153.41 12.62
13547 14.6520 158.31 153.71 12.58
13548 14.6530 161.99 153.99 12.73
13549 14.6540 163.67 154.26 12.79
13550 14.6550 142.58 154.51 11.94
13551 14.6560 155.35 154.76 12.46
13552 14.6570 146.63 154.98 12.11
13553 14.6580 143.75 155.20 11.99
13554 14.6590 165.95 155.40 12.88
13555 14.6600 156.56 155.59 12.51
13556 14.6610 156.11 155.76 12.49
13557 14.6620 160.04 155.92 12.65
13558 14.6630 163.59 156.07 12.79
13559 14.6640 157.00 156.19 12.53
13560 14.6650 161.73 156.31 12.72
13561 14.6660 153.00 156.42 12.37
13562 14.6670 142.64 156.51 11.94
13563 14.6680 158.31 156.59 12.58
13564 14.6690 184.34 156.66 13.58
13565 14.6700 175.55 156.71 13.25
13566 14.6710 171.95 156.75 13.11
13567 14.6720 161.80 156.78 12.72
13568 14.6730 172.41 156.79 13.13
13569 14.6740 173.02 156.79 13.15
13570 14.6750 163.29 156.78 12.78
13571 14.6760 150.68 156.75 12.28
13572 14.6770 154.17 156.71 12.42
13573 14.6780 165.87 156.66 12.88
13574 14.6790 159.05 156.60 12.61
13575 14.6800 160.95 156.52 12.69
13576 14.6810 171.86 156.43 13.11
13577 14.6820 168.32 156.32 12.97
13578 14.6830 157.85 156.21 12.56
13579 14.6840 165.31 156.07 12.86
13580 14.6850 153.15 155.93 12.38
13581 14.6860 144.97 155.77 12.04
13582 14.6870 143.31 155.62 11.97
13583 14.6880 157.33 155.45 12.54
13584 14.6890 140.48 155.25 11.85
13585 14.6900 139.91 155.05 11.83
13586 14.6910 141.78 154.84 11.91
13587 14.6920 150.28 154.61 12.26
13588 14.6930 168.77 154.38 12.99
13589 14.6940 152.48 154.13 12.35
13590 14.6950 148.17 153.88 12.17
13591 14.6960 150.48 153.61 12.27
13592 14.6970 138.67 153.34 11.78
13593 14.6980 142.95 153.05 11.96
13594 14.6990 131.95 152.76 11.49
13595 14.7000 137.76 152.45 11.74
13596 14.7010 140.69 152.16 11.86
13597 14.7020 149.93 151.85 12.24
13598 14.7030 163.38 151.52 12.78
13599 14.7040 151.65 151.19 12.31
13600 14.7050 153.00 150.85 12.37
13601 14.7060 152.65 150.51 12.36
13602 14.7070 148.43 150.15 12.18
13603 14.7080 143.75 149.80 11.99
13604 14.7090 155.74 149.43 12.48
13605 14.7100 159.34 149.07 12.62
13606 14.7110 151.19 148.70 12.30
13607 14.7120 159.98 148.32 12.65
13608 14.7130 147.46 147.94 12.14
13609 14.7140 160.89 147.56 12.68
13610 14.7150 139.08 147.17 11.79
13611 14.7160 147.37 146.79 12.14
13612 14.7170 153.44 146.40 12.39
13613 14.7180 152.81 146.01 12.36
13614 14.7190 155.66 145.62 12.48
13615 14.7200 146.89 145.24 12.12
13616 14.7210 146.26 144.85 12.09
13617 14.7220 139.83 144.46 11.82
13618 14.7230 164.02 144.07 12.81
13619 14.7240 150.42 143.69 12.26
13620 14.7250 155.96 143.30 12.49
13621 14.7260 167.46 142.92 12.94
13622 14.7270 157.26 142.54 12.54
13623 14.7280 147.09 142.17 12.13
13624 14.7290 151.02 141.81 12.29
13625 14.7300 159.21 141.44 12.62
13626 14.7310 154.51 141.07 12.43
13627 14.7320 154.51 140.71 12.43
13628 14.7330 150.88 140.36 12.28
13629 14.7340 147.67 140.01 12.15
13630 14.7350 151.07 139.67 12.29
13631 14.7360 152.70 139.33 12.36
13632 14.7370 139.54 139.00 11.81
13633 14.7380 145.20 138.67 12.05
13634 14.7390 144.98 138.35 12.04
13635 14.7400 148.77 138.03 12.20
13636 14.7410 146.11 137.73 12.09
13637 14.7420 135.20 137.42 11.63
13638 14.7430 127.93 137.13 11.31
13639 14.7440 131.86 136.85 11.48
13640 14.7450 125.15 136.57 11.19
13641 14.7460 123.55 136.29 11.12
13642 14.7470 139.56 136.03 11.81
13643 14.7480 121.88 135.77 11.04
13644 14.7490 120.30 135.53 10.97
13645 14.7500 112.15 135.28 10.59
13646 14.7510 134.54 135.05 11.60
13647 14.7520 127.71 134.82 11.30
13648 14.7530 129.43 134.61 11.38
13649 14.7540 143.43 134.40 11.98
13650 14.7550 140.83 134.19 11.87
13651 14.7560 131.29 133.99 11.46
13652 14.7570 127.38 133.80 11.29
13653 14.7580 125.08 133.62 11.18
13654 14.7590 132.56 133.45 11.51
13655 14.7600 116.14 133.28 10.78
13656 14.7610 117.11 133.12 10.82
13657 14.7620 129.41 132.96 11.38
13658 14.7630 120.14 132.81 10.96
13659 14.7640 124.71 132.67 11.17
13660 14.7650 131.33 132.53 11.46
13661 14.7660 114.25 132.40 10.69
13662 14.7670 115.89 132.28 10.77
13663 14.7680 117.86 132.16 10.86
13664 14.7690 130.56 132.05 11.43
13665 14.7700 115.56 131.94 10.75
13666 14.7710 125.14 131.88 11.19
13667 14.7720 132.85 131.79 11.53
13668 14.7730 129.43 131.70 11.38
13669 14.7740 113.91 131.61 10.67
13670 14.7750 120.79 131.52 10.99
13671 14.7760 124.59 131.45 11.16
13672 14.7770 130.14 131.37 11.41
13673 14.7780 127.29 131.30 11.28
13674 14.7790 123.46 131.23 11.11
13675 14.7800 135.71 131.16 11.65
13676 14.7810 143.70 131.09 11.99
13677 14.7820 123.17 131.03 11.10
13678 14.7830 141.54 130.97 11.90
13679 14.7840 120.35 130.91 10.97
13680 14.7850 116.73 130.85 10.80
13681 14.7860 111.89 130.79 10.58
13682 14.7870 108.73 130.74 10.43
13683 14.7880 117.32 130.68 10.83
13684 14.7890 126.44 130.62 11.24
13685 14.7900 126.09 130.56 11.23
13686 14.7910 126.32 130.51 11.24
13687 14.7920 108.17 130.45 10.40
13688 14.7930 104.92 130.38 10.24
13689 14.7940 107.85 130.32 10.39
13690 14.7950 117.09 130.25 10.82
13691 14.7960 124.65 130.18 11.16
13692 14.7970 124.85 130.11 11.17
13693 14.7980 109.77 130.04 10.48
13694 14.7990 120.52 129.96 10.98
13695 14.8000 115.72 129.87 10.76
13696 14.8010 122.16 129.79 11.05
13697 14.8020 139.82 129.69 11.82
13698 14.8030 128.40 129.59 11.33
13699 14.8040 121.35 129.49 11.02
13700 14.8050 117.39 129.38 10.83
13701 14.8060 126.42 129.27 11.24
13702 14.8070 129.67 129.15 11.39
13703 14.8080 118.63 129.02 10.89
13704 14.8090 122.39 128.88 11.06
13705 14.8100 115.98 128.74 10.77
13706 14.8110 122.57 128.59 11.07
13707 14.8120 119.97 128.43 10.95
13708 14.8130 122.70 128.27 11.08
13709 14.8140 126.39 128.09 11.24
13710 14.8150 138.25 127.91 11.76
13711 14.8160 116.40 127.72 10.79
13712 14.8170 128.72 127.52 11.35
13713 14.8180 128.76 127.31 11.35
13714 14.8190 133.83 127.10 11.57
13715 14.8200 131.04 126.87 11.45
13716 14.8210 121.27 126.66 11.01
13717 14.8220 130.28 126.42 11.41
13718 14.8230 141.05 126.17 11.88
13719 14.8240 136.63 125.90 11.69
13720 14.8250 141.49 125.63 11.90
13721 14.8260 138.55 125.35 11.77
13722 14.8270 141.40 125.07 11.89
13723 14.8280 122.51 124.77 11.07
13724 14.8290 127.04 124.47 11.27
13725 14.8300 134.34 124.14 11.59
13726 14.8310 147.17 123.82 12.13
13727 14.8320 130.15 123.49 11.41
13728 14.8330 137.34 123.15 11.72
13729 14.8340 139.97 122.80 11.83
13730 14.8350 140.66 122.45 11.86
13731 14.8360 125.28 122.09 11.19
13732 14.8370 139.40 121.72 11.81
13733 14.8380 136.27 121.35 11.67
13734 14.8390 124.55 120.97 11.16
13735 14.8400 128.63 120.59 11.34
13736 14.8410 131.32 120.20 11.46
13737 14.8420 123.91 119.80 11.13
13738 14.8430 126.94 119.40 11.27
13739 14.8440 122.73 119.00 11.08
13740 14.8450 129.18 118.59 11.37
13741 14.8460 108.39 118.18 10.41
13742 14.8470 98.54 117.77 9.93
13743 14.8480 115.73 117.36 10.76
13744 14.8490 113.89 116.94 10.67
13745 14.8500 97.74 116.52 9.89
13746 14.8510 95.42 116.10 9.77
13747 14.8520 98.20 115.68 9.91
13748 14.8530 109.72 115.26 10.47
13749 14.8540 119.95 114.84 10.95
13750 14.8550 125.09 114.42 11.18
13751 14.8560 107.76 114.01 10.38
13752 14.8570 106.45 113.59 10.32
13753 14.8580 108.75 113.18 10.43
13754 14.8590 124.96 112.76 11.18
13755 14.8600 119.01 112.36 10.91
13756 14.8610 107.71 111.95 10.38
13757 14.8620 91.35 111.55 9.56
13758 14.8630 107.05 111.15 10.35
13759 14.8640 108.26 110.75 10.40
13760 14.8650 100.12 110.36 10.01
13761 14.8660 103.42 109.98 10.17
13762 14.8670 110.24 109.60 10.50
13763 14.8680 100.93 109.22 10.05
13764 14.8690 104.74 108.85 10.23
13765 14.8700 91.31 108.49 9.56
13766 14.8710 103.27 108.13 10.16
13767 14.8720 106.79 107.79 10.33
13768 14.8730 99.14 107.44 9.96
13769 14.8740 78.76 107.11 8.87
13770 14.8750 83.81 106.78 9.15
13771 14.8760 95.35 106.46 9.76
13772 14.8770 117.03 106.14 10.82
13773 14.8780 95.86 105.84 9.79
13774 14.8790 94.70 105.54 9.73
13775 14.8800 96.92 105.25 9.84
13776 14.8810 89.99 104.97 9.49
13777 14.8820 99.81 104.69 9.99
13778 14.8830 91.98 104.43 9.59
13779 14.8840 93.00 104.17 9.64
13780 14.8850 99.57 103.92 9.98
13781 14.8860 108.43 103.68 10.41
13782 14.8870 105.38 103.45 10.27
13783 14.8880 92.95 103.23 9.64
13784 14.8890 89.29 103.02 9.45
13785 14.8900 92.61 102.82 9.62
13786 14.8910 94.94 102.62 9.74
13787 14.8920 103.67 102.43 10.18
13788 14.8930 96.26 102.25 9.81
13789 14.8940 98.49 102.09 9.92
13790 14.8950 92.18 101.93 9.60
13791 14.8960 85.43 101.78 9.24
13792 14.8970 91.64 101.63 9.57
13793 14.8980 93.85 101.50 9.69
13794 14.8990 89.95 101.37 9.48
13795 14.9000 94.65 101.26 9.73
13796 14.9010 88.38 101.15 9.40
13797 14.9020 89.26 101.05 9.45
13798 14.9030 99.57 100.96 9.98
13799 14.9040 104.71 100.88 10.23
13800 14.9050 98.59 100.80 9.93
13801 14.9060 89.52 100.74 9.46
13802 14.9070 90.15 100.68 9.49
13803 14.9080 83.33 100.63 9.13
13804 14.9090 92.74 100.59 9.63
13805 14.9100 92.89 100.56 9.64
13806 14.9110 102.78 100.54 10.14
13807 14.9120 95.42 100.52 9.77
13808 14.9130 95.35 100.51 9.76
13809 14.9140 94.03 100.51 9.70
13810 14.9150 93.14 100.51 9.65
13811 14.9160 88.22 100.53 9.39
13812 14.9170 97.55 100.55 9.88
13813 14.9180 98.95 100.58 9.95
13814 14.9190 90.17 100.62 9.50
13815 14.9200 116.78 100.66 10.81
13816 14.9210 100.10 100.71 10.01
13817 14.9220 96.90 100.77 9.84
13818 14.9230 100.22 100.83 10.01
13819 14.9240 100.93 100.90 10.05
13820 14.9250 100.13 100.98 10.01
13821 14.9260 90.38 101.07 9.51
13822 14.9270 89.11 101.16 9.44
13823 14.9280 102.71 101.25 10.13
13824 14.9290 116.92 101.36 10.81
13825 14.9300 118.07 101.46 10.87
13826 14.9310 102.70 101.58 10.13
13827 14.9320 91.33 101.70 9.56
13828 14.9330 97.75 101.82 9.89
13829 14.9340 88.96 101.95 9.43
13830 14.9350 94.85 102.09 9.74
13831 14.9360 105.75 102.23 10.28
13832 14.9370 109.62 102.37 10.47
13833 14.9380 104.03 102.52 10.20
13834 14.9390 99.46 102.67 9.97
13835 14.9400 106.76 102.83 10.33
13836 14.9410 113.22 102.99 10.64
13837 14.9420 118.21 103.15 10.87
13838 14.9430 118.43 103.32 10.88
13839 14.9440 118.04 103.49 10.86
13840 14.9450 115.48 103.66 10.75
13841 14.9460 121.95 103.84 11.04
13842 14.9470 129.46 104.01 11.38
13843 14.9480 130.41 104.19 11.42
13844 14.9490 121.20 104.37 11.01
13845 14.9500 125.24 104.56 11.19
13846 14.9510 122.36 104.74 11.06
13847 14.9520 121.49 104.92 11.02
13848 14.9530 124.48 105.10 11.16
13849 14.9540 123.86 105.29 11.13
13850 14.9550 128.05 105.47 11.32
13851 14.9560 127.32 105.65 11.28
13852 14.9570 136.76 105.85 11.69
13853 14.9580 124.27 106.03 11.15
13854 14.9590 115.86 106.21 10.76
13855 14.9600 126.47 106.39 11.25
13856 14.9610 146.89 106.57 12.12
13857 14.9620 133.25 106.74 11.54
13858 14.9630 149.64 106.92 12.23
13859 14.9640 136.34 107.08 11.68
13860 14.9650 145.46 107.25 12.06
13861 14.9660 150.10 107.42 12.25
13862 14.9670 142.54 107.58 11.94
13863 14.9680 145.09 107.74 12.05
13864 14.9690 129.67 107.89 11.39
13865 14.9700 135.38 108.04 11.64
13866 14.9710 138.53 108.18 11.77
13867 14.9720 145.11 108.33 12.05
13868 14.9730 136.94 108.47 11.70
13869 14.9740 152.85 108.60 12.36
13870 14.9750 134.87 108.73 11.61
13871 14.9760 130.65 108.85 11.43
13872 14.9770 154.44 108.97 12.43
13873 14.9780 143.78 109.09 11.99
13874 14.9790 129.94 109.21 11.40
13875 14.9800 129.10 109.32 11.36
13876 14.9810 137.37 109.44 11.72
13877 14.9820 134.05 109.54 11.58
13878 14.9830 130.71 109.65 11.43
13879 14.9840 117.06 109.75 10.82
13880 14.9850 113.30 109.90 10.64
13881 14.9860 121.75 110.00 11.03
13882 14.9870 113.86 110.09 10.67
13883 14.9880 117.00 110.19 10.82
13884 14.9890 127.72 110.29 11.30
13885 14.9900 130.25 110.38 11.41
13886 14.9910 116.58 110.47 10.80
13887 14.9920 110.28 110.55 10.50
13888 14.9930 122.48 110.64 11.07
13889 14.9940 113.43 110.74 10.65
13890 14.9950 116.49 110.84 10.79
13891 14.9960 115.80 110.94 10.76
13892 14.9970 129.59 111.04 11.38
13893 14.9980 128.60 111.14 11.34
13894 14.9990 116.97 111.24 10.82
13895 15.0000 127.66 111.35 11.30
13896 15.0010 130.08 111.46 11.41
13897 15.0020 122.45 111.58 11.07
13898 15.0030 131.56 111.69 11.47
13899 15.0040 124.30 111.82 11.15
13900 15.0050 118.59 111.94 10.89
13901 15.0060 100.40 112.08 10.02
13902 15.0070 98.07 112.21 9.90
13903 15.0080 123.06 112.36 11.09
13904 15.0090 111.40 112.50 10.55
13905 15.0100 117.29 112.66 10.83
13906 15.0110 116.02 112.82 10.77
13907 15.0120 114.00 112.99 10.68
13908 15.0130 105.49 113.16 10.27
13909 15.0140 112.98 113.34 10.63
13910 15.0150 113.83 113.53 10.67
13911 15.0160 102.21 113.73 10.11
13912 15.0170 98.59 113.93 9.93
13913 15.0180 119.43 114.12 10.93
13914 15.0190 120.89 114.33 10.99
13915 15.0200 118.81 114.56 10.90
13916 15.0210 124.71 114.80 11.17
13917 15.0220 115.06 114.99 10.73
13918 15.0230 109.02 115.24 10.44
13919 15.0240 99.67 115.50 9.98
13920 15.0250 108.99 115.76 10.44
13921 15.0260 114.07 116.04 10.68
13922 15.0270 107.75 116.32 10.38
13923 15.0280 101.02 116.61 10.05
13924 15.0290 106.13 116.91 10.30
13925 15.0300 110.81 117.22 10.53
13926 15.0310 116.27 117.54 10.78
13927 15.0320 103.07 117.86 10.15
13928 15.0330 109.82 118.20 10.48
13929 15.0340 105.48 118.54 10.27
13930 15.0350 112.93 118.89 10.63
13931 15.0360 116.49 119.24 10.79
13932 15.0370 98.52 119.61 9.93
13933 15.0380 93.53 119.98 9.67
13934 15.0390 114.20 120.36 10.69
13935 15.0400 115.31 120.75 10.74
13936 15.0410 113.47 121.14 10.65
13937 15.0420 111.49 121.54 10.56
13938 15.0430 113.72 121.94 10.66
13939 15.0440 126.39 122.35 11.24
13940 15.0450 126.14 122.77 11.23
13941 15.0460 113.61 123.19 10.66
13942 15.0470 102.87 123.62 10.14
13943 15.0480 114.67 124.05 10.71
13944 15.0490 124.12 124.49 11.14
13945 15.0500 116.41 124.93 10.79
13946 15.0510 121.55 125.37 11.02
13947 15.0520 131.38 125.82 11.46
13948 15.0530 127.45 126.27 11.29
13949 15.0540 118.49 126.71 10.89
13950 15.0550 118.41 127.17 10.88
13951 15.0560 133.30 127.62 11.55
13952 15.0570 131.44 128.07 11.46
13953 15.0580 123.17 128.52 11.10
13954 15.0590 134.89 128.97 11.61
13955 15.0600 141.07 129.41 11.88
13956 15.0610 139.91 129.86 11.83
13957 15.0620 141.94 130.30 11.91
13958 15.0630 143.48 130.74 11.98
13959 15.0640 138.52 131.18 11.77
13960 15.0650 140.51 131.60 11.85
13961 15.0660 155.66 132.03 12.48
13962 15.0670 152.66 132.45 12.36
13963 15.0680 165.57 132.86 12.87
13964 15.0690 139.83 133.26 11.82
13965 15.0700 145.32 133.66 12.05
13966 15.0710 139.16 134.05 11.80
13967 15.0720 165.49 134.43 12.86
13968 15.0730 165.59 134.80 12.87
13969 15.0740 171.68 135.16 13.10
13970 15.0750 173.92 135.52 13.19
13971 15.0760 176.23 135.87 13.28
13972 15.0770 170.70 136.20 13.07
13973 15.0780 170.92 136.52 13.07
13974 15.0790 172.21 136.83 13.12
13975 15.0800 156.51 137.13 12.51
13976 15.0810 180.61 137.42 13.44
13977 15.0820 188.62 137.69 13.73
13978 15.0830 175.74 137.96 13.26
13979 15.0840 166.83 138.21 12.92
13980 15.0850 173.17 138.45 13.16
13981 15.0860 162.47 138.68 12.75
13982 15.0870 162.13 138.90 12.73
13983 15.0880 167.50 139.11 12.94
13984 15.0890 157.69 139.26 12.56
13985 15.0900 142.31 139.45 11.93
13986 15.0910 158.57 139.62 12.59
13987 15.0920 147.21 139.78 12.13
13988 15.0930 137.14 139.94 11.71
13989 15.0940 144.77 140.08 12.03
13990 15.0950 151.02 140.21 12.29
13991 15.0960 154.97 140.34 12.45
13992 15.0970 150.48 140.46 12.27
13993 15.0980 159.16 140.56 12.62
13994 15.0990 147.21 140.66 12.13
13995 15.1000 155.27 140.75 12.46
13996 15.1010 129.75 140.84 11.39
13997 15.1020 148.23 140.91 12.18
13998 15.1030 142.76 140.99 11.95
13999 15.1040 132.00 141.05 11.49
14000 15.1050 130.48 141.12 11.42
14001 15.1060 124.56 141.17 11.16
14002 15.1070 128.12 141.22 11.32
14003 15.1080 120.36 141.26 10.97
14004 15.1090 130.49 141.30 11.42
14005 15.1100 138.82 141.33 11.78
14006 15.1110 123.58 141.36 11.12
14007 15.1120 123.95 141.39 11.13
14008 15.1130 136.10 141.41 11.67
14009 15.1140 132.58 141.43 11.51
14010 15.1150 122.83 141.44 11.08
14011 15.1160 122.65 141.45 11.07
14012 15.1170 133.25 141.47 11.54
14013 15.1180 130.63 141.47 11.43
14014 15.1190 140.28 141.48 11.84
14015 15.1200 133.10 141.47 11.54
14016 15.1210 126.95 141.47 11.27
14017 15.1220 156.16 141.46 12.50
14018 15.1230 133.91 141.45 11.57
14019 15.1240 134.88 141.44 11.61
14020 15.1250 143.14 141.42 11.96
14021 15.1260 135.06 141.40 11.62
14022 15.1270 142.76 141.36 11.95
14023 15.1280 121.88 141.33 11.04
14024 15.1290 120.45 141.29 10.98
14025 15.1300 137.01 141.26 11.71
14026 15.1310 137.08 141.22 11.71
14027 15.1320 139.14 141.17 11.80
14028 15.1330 149.15 141.12 12.21
14029 15.1340 146.91 141.07 12.12
14030 15.1350 137.83 141.00 11.74
14031 15.1360 151.98 140.94 12.33
14032 15.1370 139.68 140.86 11.82
14033 15.1380 132.76 140.79 11.52
14034 15.1390 148.62 140.70 12.19
14035 15.1400 142.94 140.61 11.96
14036 15.1410 148.28 140.51 12.18
14037 15.1420 147.65 140.40 12.15
14038 15.1430 126.96 140.28 11.27
14039 15.1440 150.23 140.16 12.26
14040 15.1450 145.73 140.03 12.07
14041 15.1460 138.41 139.89 11.76
14042 15.1470 150.68 139.75 12.28
14043 15.1480 157.10 139.59 12.53
14044 15.1490 139.53 139.43 11.81
14045 15.1500 137.96 139.26 11.75
14046 15.1510 146.67 139.08 12.11
14047 15.1520 136.46 138.89 11.68
14048 15.1530 141.37 138.69 11.89
14049 15.1540 152.65 138.48 12.36
14050 15.1550 137.37 138.26 11.72
14051 15.1560 147.93 138.04 12.16
14052 15.1570 134.71 137.80 11.61
14053 15.1580 142.31 137.55 11.93
14054 15.1590 135.42 137.30 11.64
14055 15.1600 135.22 137.02 11.63
14056 15.1610 137.72 136.75 11.74
14057 15.1620 137.19 136.47 11.71
14058 15.1630 136.56 136.18 11.69
14059 15.1640 152.91 135.88 12.37
14060 15.1650 130.48 135.57 11.42
14061 15.1660 128.13 135.25 11.32
14062 15.1670 136.36 134.92 11.68
14063 15.1680 132.19 134.59 11.50
14064 15.1690 131.61 134.24 11.47
14065 15.1700 133.40 133.89 11.55
14066 15.1710 135.58 133.53 11.64
14067 15.1720 129.02 133.16 11.36
14068 15.1730 132.60 132.79 11.52
14069 15.1740 123.20 132.41 11.10
14070 15.1750 119.46 132.02 10.93
14071 15.1760 125.80 131.62 11.22
14072 15.1770 126.87 131.22 11.26
14073 15.1780 132.51 130.81 11.51
14074 15.1790 124.98 130.39 11.18
14075 15.1800 135.86 129.97 11.66
14076 15.1810 116.64 129.55 10.80
14077 15.1820 103.91 129.11 10.19
14078 15.1830 131.80 128.68 11.48
14079 15.1840 114.29 128.24 10.69
14080 15.1850 117.12 127.79 10.82
14081 15.1860 116.09 127.34 10.77
14082 15.1870 129.60 126.88 11.38
14083 15.1880 113.70 126.42 10.66
14084 15.1890 114.89 125.96 10.72
14085 15.1900 102.50 125.49 10.12
14086 15.1910 103.04 125.02 10.15
14087 15.1920 119.52 124.55 10.93
14088 15.1930 109.09 124.08 10.44
14089 15.1940 106.22 123.60 10.31
14090 15.1950 95.18 123.12 9.76
14091 15.1960 99.88 122.64 9.99
14092 15.1970 107.30 122.16 10.36
14093 15.1980 107.06 121.68 10.35
14094 15.1990 108.40 121.19 10.41
14095 15.2000 124.68 120.71 11.17
14096 15.2010 119.92 120.22 10.95
14097 15.2020 99.30 119.74 9.96
14098 15.2030 97.66 119.25 9.88
14099 15.2040 92.36 118.76 9.61
14100 15.2050 98.40 118.27 9.92
14101 15.2060 96.21 117.79 9.81
14102 15.2070 94.53 117.30 9.72
14103 15.2080 93.36 116.82 9.66
14104 15.2090 94.66 116.33 9.73
14105 15.2100 104.12 115.85 10.20
14106 15.2110 92.34 115.36 9.61
14107 15.2120 102.58 114.90 10.13
14108 15.2130 102.37 114.43 10.12
14109 15.2140 93.72 113.95 9.68
14110 15.2150 98.02 113.47 9.90
14111 15.2160 103.43 113.00 10.17
14112 15.2170 90.55 112.52 9.52
14113 15.2180 92.14 112.05 9.60
14114 15.2190 92.68 111.58 9.63
14115 15.2200 92.52 111.11 9.62
14116 15.2210 92.56 110.65 9.62
14117 15.2220 106.68 110.18 10.33
14118 15.2230 92.73 109.72 9.63
14119 15.2240 89.29 109.26 9.45
14120 15.2250 89.68 108.81 9.47
14121 15.2260 104.81 108.35 10.24
14122 15.2270 96.96 107.89 9.85
14123 15.2280 89.19 107.44 9.44
14124 15.2290 85.15 106.99 9.23
14125 15.2300 91.55 106.54 9.57
14126 15.2310 94.17 106.10 9.70
14127 15.2320 94.77 105.65 9.73
14128 15.2330 104.31 105.21 10.21
14129 15.2340 104.80 104.77 10.24
14130 15.2350 102.90 104.33 10.14
14131 15.2360 93.13 103.89 9.65
14132 15.2370 103.33 103.46 10.17
14133 15.2380 94.74 103.02 9.73
14134 15.2390 99.48 102.58 9.97
14135 15.2400 100.91 102.15 10.05
14136 15.2410 98.95 101.72 9.95
14137 15.2420 116.18 101.29 10.78
14138 15.2430 98.66 100.86 9.93
14139 15.2440 103.72 100.43 10.18
14140 15.2450 103.99 100.00 10.20
14141 15.2460 109.12 99.58 10.45
14142 15.2470 103.04 99.16 10.15
14143 15.2480 98.21 98.73 9.91
14144 15.2490 111.84 98.31 10.58
14145 15.2500 107.04 97.89 10.35
14146 15.2510 87.55 97.47 9.36
14147 15.2520 97.41 97.05 9.87
14148 15.2530 105.65 96.64 10.28
14149 15.2540 113.99 96.22 10.68
14150 15.2550 102.69 95.81 10.13
14151 15.2560 101.33 95.40 10.07
14152 15.2570 112.24 94.99 10.59
14153 15.2580 103.04 94.59 10.15
14154 15.2590 101.02 94.18 10.05
14155 15.2600 104.63 93.79 10.23
14156 15.2610 114.46 93.40 10.70
14157 15.2620 114.17 93.00 10.69
14158 15.2630 101.39 92.61 10.07
14159 15.2640 98.91 92.22 9.95
14160 15.2650 89.03 91.83 9.44
14161 15.2660 92.43 91.44 9.61
14162 15.2670 99.83 91.06 9.99
14163 15.2680 92.50 90.69 9.62
14164 15.2690 94.36 90.31 9.71
14165 15.2700 92.11 89.95 9.60
14166 15.2710 81.66 89.58 9.04
14167 15.2720 82.74 89.22 9.10
14168 15.2730 89.52 88.86 9.46
14169 15.2740 86.96 88.51 9.33
14170 15.2750 96.14 88.17 9.81
14171 15.2760 87.73 87.82 9.37
14172 15.2770 87.35 87.49 9.35
14173 15.2780 83.25 87.16 9.12
14174 15.2790 80.92 86.83 9.00
14175 15.2800 82.52 86.51 9.08
14176 15.2810 86.37 86.19 9.29
14177 15.2820 88.90 85.88 9.43
14178 15.2830 82.92 85.58 9.11
14179 15.2840 92.99 85.28 9.64
14180 15.2850 88.53 84.99 9.41
14181 15.2860 87.55 84.71 9.36
14182 15.2870 81.42 84.43 9.02
14183 15.2880 85.68 84.15 9.26
14184 15.2890 90.34 83.89 9.50
14185 15.2900 86.37 83.63 9.29
14186 15.2910 96.83 83.37 9.84
14187 15.2920 84.23 83.13 9.18
14188 15.2930 99.24 82.89 9.96
14189 15.2940 85.79 82.65 9.26
14190 15.2950 83.27 82.33 9.13
14191 15.2960 78.34 82.11 8.85
14192 15.2970 88.00 81.90 9.38
14193 15.2980 89.98 81.69 9.49
14194 15.2990 85.89 81.49 9.27
14195 15.3000 94.07 81.30 9.70
14196 15.3010 88.19 81.11 9.39
14197 15.3020 69.20 80.93 8.32
14198 15.3030 71.49 80.76 8.46
14199 15.3040 93.81 80.60 9.69
14200 15.3050 85.50 80.44 9.25
14201 15.3060 76.68 80.28 8.76
14202 15.3070 86.26 80.14 9.29
14203 15.3080 79.65 80.00 8.92
14204 15.3090 74.99 79.86 8.66
14205 15.3100 73.69 79.74 8.58
14206 15.3110 74.75 79.62 8.65
14207 15.3120 81.89 79.50 9.05
14208 15.3130 82.72 79.39 9.10
14209 15.3140 68.04 79.29 8.25
14210 15.3150 85.69 79.20 9.26
14211 15.3160 80.88 79.11 8.99
14212 15.3170 73.62 79.02 8.58
14213 15.3180 86.92 78.95 9.32
14214 15.3190 71.77 78.88 8.47
14215 15.3200 68.46 78.82 8.27
14216 15.3210 76.95 78.76 8.77
14217 15.3220 71.78 78.71 8.47
14218 15.3230 79.63 78.66 8.92
14219 15.3240 79.82 78.62 8.93
14220 15.3250 76.06 78.58 8.72
14221 15.3260 72.73 78.56 8.53
14222 15.3270 83.38 78.53 9.13
14223 15.3280 83.16 78.52 9.12
14224 15.3290 76.46 78.50 8.74
14225 15.3300 76.56 78.50 8.75
14226 15.3310 78.13 78.50 8.84
14227 15.3320 87.84 78.51 9.37
14228 15.3330 85.17 78.52 9.23
14229 15.3340 83.24 78.53 9.12
14230 15.3350 66.52 78.55 8.16
14231 15.3360 87.50 78.58 9.35
14232 15.3370 92.44 78.61 9.61
14233 15.3380 66.53 78.64 8.16
14234 15.3390 70.47 78.68 8.39
14235 15.3400 74.32 78.72 8.62
14236 15.3410 71.51 78.77 8.46
14237 15.3420 80.61 78.83 8.98
14238 15.3430 80.19 78.89 8.95
14239 15.3440 75.73 78.95 8.70
14240 15.3450 86.91 79.02 9.32
14241 15.3460 87.19 79.09 9.34
14242 15.3470 83.08 79.16 9.11
14243 15.3480 79.48 79.24 8.92
14244 15.3490 77.63 79.32 8.81
14245 15.3500 79.55 79.41 8.92
14246 15.3510 88.32 79.51 9.40
14247 15.3520 81.10 79.61 9.01
14248 15.3530 92.74 79.71 9.63
14249 15.3540 77.81 79.81 8.82
14250 15.3550 75.56 79.91 8.69
14251 15.3560 81.61 80.03 9.03
14252 15.3570 86.03 80.14 9.28
14253 15.3580 76.31 80.26 8.74
14254 15.3590 86.74 80.38 9.31
14255 15.3600 93.93 80.51 9.69
14256 15.3610 83.15 80.64 9.12
14257 15.3620 80.17 80.77 8.95
14258 15.3630 81.50 80.90 9.03
14259 15.3640 98.23 81.04 9.91
14260 15.3650 82.10 81.18 9.06
14261 15.3660 79.81 81.33 8.93
14262 15.3670 76.35 81.47 8.74
14263 15.3680 89.46 81.62 9.46
14264 15.3690 89.12 81.77 9.44
14265 15.3700 82.20 81.93 9.07
14266 15.3710 76.60 82.08 8.75
14267 15.3720 76.61 82.24 8.75
14268 15.3730 85.26 82.40 9.23
14269 15.3740 87.12 82.56 9.33
14270 15.3750 83.93 82.72 9.16
14271 15.3760 87.27 82.89 9.34
14272 15.3770 100.65 83.05 10.03
14273 15.3780 83.55 83.22 9.14
14274 15.3790 81.02 83.39 9.00
14275 15.3800 82.99 83.56 9.11
14276 15.3810 82.96 83.72 9.11
14277 15.3820 82.45 83.89 9.08
14278 15.3830 84.56 84.06 9.20
14279 15.3840 82.89 84.23 9.10
14280 15.3850 76.25 84.40 8.73
14281 15.3860 80.59 84.56 8.98
14282 15.3870 88.49 84.73 9.41
14283 15.3880 76.19 84.90 8.73
14284 15.3890 84.89 85.08 9.21
14285 15.3900 92.41 85.24 9.61
14286 15.3910 90.74 85.41 9.53
14287 15.3920 90.65 85.57 9.52
14288 15.3930 93.96 85.72 9.69
14289 15.3940 99.13 85.88 9.96
14290 15.3950 105.08 86.03 10.25
14291 15.3960 110.14 86.18 10.49
14292 15.3970 88.71 86.33 9.42
14293 15.3980 91.14 86.47 9.55
14294 15.3990 89.13 86.62 9.44
14295 15.4000 97.12 86.75 9.85
14296 15.4010 105.65 86.89 10.28
14297 15.4020 94.09 87.02 9.70
14298 15.4030 87.74 87.14 9.37
14299 15.4040 102.22 87.26 10.11
14300 15.4050 100.63 87.38 10.03
14301 15.4060 110.09 87.49 10.49
14302 15.4070 95.59 87.59 9.78
14303 15.4080 104.73 87.70 10.23
14304 15.4090 107.84 87.78 10.38
14305 15.4100 104.08 87.87 10.20
14306 15.4110 109.92 87.96 10.48
14307 15.4120 118.12 88.04 10.87
14308 15.4130 103.10 88.11 10.15
14309 15.4140 104.75 88.18 10.23
14310 15.4150 101.08 88.24 10.05
14311 15.4160 108.17 88.30 10.40
14312 15.4170 116.50 88.35 10.79
14313 15.4180 102.04 88.41 10.10
14314 15.4190 99.68 88.45 9.98
14315 15.4200 93.93 88.48 9.69
14316 15.4210 94.89 88.51 9.74
14317 15.4220 106.68 88.52 10.33
14318 15.4230 103.85 88.54 10.19
14319 15.4240 103.15 88.54 10.16
14320 15.4250 101.67 88.54 10.08
14321 15.4260 96.09 88.54 9.80
14322 15.4270 91.40 88.53 9.56
14323 15.4280 100.54 88.51 10.03
14324 15.4290 98.43 88.49 9.92
14325 15.4300 99.32 88.46 9.97
14326 15.4310 105.10 88.42 10.25
14327 15.4320 97.26 88.38 9.86
14328 15.4330 91.33 88.34 9.56
14329 15.4340 97.63 88.29 9.88
14330 15.4350 93.36 88.23 9.66
14331 15.4360 82.04 88.17 9.06
14332 15.4370 83.40 88.11 9.13
14333 15.4380 90.16 88.03 9.50
14334 15.4390 107.99 87.96 10.39
14335 15.4400 91.35 87.87 9.56
14336 15.4410 91.07 87.79 9.54
14337 15.4420 106.77 87.70 10.33
14338 15.4430 96.26 87.60 9.81
14339 15.4440 87.36 87.50 9.35
14340 15.4450 98.36 87.40 9.92
14341 15.4460 92.21 87.30 9.60
14342 15.4470 97.71 87.19 9.88
14343 15.4480 82.04 87.08 9.06
14344 15.4490 107.62 86.96 10.37
14345 15.4500 96.58 86.84 9.83
14346 15.4510 85.00 86.72 9.22
14347 15.4520 93.71 86.60 9.68
14348 15.4530 81.16 86.47 9.01
14349 15.4540 84.89 86.35 9.21
14350 15.4550 90.18 86.22 9.50
14351 15.4560 74.15 86.09 8.61
14352 15.4570 80.60 85.96 8.98
14353 15.4580 75.44 85.83 8.69
14354 15.4590 91.16 85.69 9.55
14355 15.4600 97.13 85.56 9.86
14356 15.4610 88.85 85.43 9.43
14357 15.4620 80.78 85.29 8.99
14358 15.4630 82.54 85.16 9.09
14359 15.4640 92.23 85.03 9.60
14360 15.4650 91.44 84.89 9.56
14361 15.4660 72.31 84.76 8.50
14362 15.4670 82.01 84.63 9.06
14363 15.4680 83.18 84.50 9.12
14364 15.4690 91.56 84.37 9.57
14365 15.4700 84.27 84.25 9.18
14366 15.4710 74.84 84.13 8.65
14367 15.4720 69.70 84.01 8.35
14368 15.4730 82.99 83.89 9.11
14369 15.4740 77.90 83.77 8.83
14370 15.4750 73.19 83.66 8.56
14371 15.4760 84.49 83.55 9.19
14372 15.4770 79.84 83.44 8.94
14373 15.4780 81.68 83.33 9.04
14374 15.4790 73.04 83.23 8.55
14375 15.4800 70.65 83.13 8.41
14376 15.4810 73.84 83.03 8.59
14377 15.4820 84.59 82.93 9.20
14378 15.4830 76.32 82.85 8.74
14379 15.4840 72.03 82.76 8.49
14380 15.4850 69.51 82.68 8.34
14381 15.4860 71.79 82.60 8.47
14382 15.4870 64.58 82.52 8.04
14383 15.4880 61.42 82.45 7.84
14384 15.4890 64.86 82.38 8.05
14385 15.4900 80.95 82.32 9.00
14386 15.4910 72.90 82.25 8.54
14387 15.4920 74.25 82.20 8.62
14388 15.4930 71.34 82.14 8.45
14389 15.4940 69.23 82.09 8.32
14390 15.4950 75.30 82.06 8.68
14391 15.4960 73.03 82.02 8.55
14392 15.4970 77.09 81.98 8.78
14393 15.4980 75.48 81.95 8.69
14394 15.4990 76.10 81.91 8.72
14395 15.5000 84.43 81.89 9.19
14396 15.5010 83.23 81.86 9.12
14397 15.5020 83.21 81.84 9.12
14398 15.5030 84.52 81.83 9.19
14399 15.5040 87.60 81.82 9.36
14400 15.5050 79.92 81.81 8.94
14401 15.5060 71.73 81.80 8.47
14402 15.5070 72.98 81.80 8.54
14403 15.5080 85.41 81.80 9.24
14404 15.5090 77.40 81.81 8.80
14405 15.5100 76.69 81.81 8.76
14406 15.5110 80.26 81.83 8.96
14407 15.5120 76.25 81.84 8.73
14408 15.5130 77.04 81.86 8.78
14409 15.5140 71.60 81.88 8.46
14410 15.5150 80.59 81.90 8.98
14411 15.5160 76.46 81.93 8.74
14412 15.5170 68.86 81.95 8.30
14413 15.5180 78.13 81.99 8.84
14414 15.5190 67.51 82.02 8.22
14415 15.5200 79.02 82.05 8.89
14416 15.5210 85.56 82.09 9.25
14417 15.5220 90.30 82.13 9.50
14418 15.5230 79.40 82.17 8.91
14419 15.5240 73.61 82.24 8.58
14420 15.5250 88.31 82.28 9.40
14421 15.5260 86.92 82.33 9.32
14422 15.5270 74.04 82.38 8.60
14423 15.5280 85.14 82.44 9.23
14424 15.5290 80.54 82.50 8.97
14425 15.5300 90.51 82.56 9.51
14426 15.5310 93.25 82.62 9.66
14427 15.5320 90.10 82.68 9.49
14428 15.5330 92.37 82.74 9.61
14429 15.5340 73.90 82.80 8.60
14430 15.5350 91.68 82.86 9.57
14431 15.5360 90.60 82.93 9.52
14432 15.5370 81.75 83.00 9.04
14433 15.5380 79.73 83.07 8.93
14434 15.5390 85.18 83.15 9.23
14435 15.5400 82.42 83.22 9.08
14436 15.5410 85.24 83.29 9.23
14437 15.5420 95.49 83.37 9.77
14438 15.5430 97.75 83.45 9.89
14439 15.5440 90.02 83.54 9.49
14440 15.5450 99.35 83.62 9.97
14441 15.5460 90.39 83.74 9.51
14442 15.5470 87.84 83.83 9.37
14443 15.5480 87.13 83.92 9.33
14444 15.5490 90.67 84.01 9.52
14445 15.5500 87.62 84.10 9.36
14446 15.5510 83.87 84.19 9.16
14447 15.5520 83.76 84.29 9.15
14448 15.5530 93.83 84.40 9.69
14449 15.5540 81.78 84.50 9.04
14450 15.5550 85.73 84.62 9.26
14451 15.5560 90.48 84.73 9.51
14452 15.5570 94.13 84.83 9.70
14453 15.5580 85.84 84.96 9.26
14454 15.5590 76.80 85.07 8.76
14455 15.5600 96.48 85.19 9.82
14456 15.5610 88.92 85.31 9.43
14457 15.5620 83.74 85.42 9.15
14458 15.5630 92.69 85.55 9.63
14459 15.5640 88.50 85.67 9.41
14460 15.5650 99.83 85.80 9.99
14461 15.5660 98.99 85.93 9.95
14462 15.5670 89.46 86.06 9.46
14463 15.5680 85.28 86.20 9.23
14464 15.5690 79.09 86.34 8.89
14465 15.5700 81.44 86.48 9.02
14466 15.5710 91.47 86.63 9.56
14467 15.5720 93.70 86.77 9.68
14468 15.5730 89.13 86.92 9.44
14469 15.5740 94.92 87.08 9.74
14470 15.5750 95.24 87.23 9.76
14471 15.5760 86.74 87.39 9.31
14472 15.5770 92.70 87.55 9.63
14473 15.5780 92.17 87.70 9.60
14474 15.5790 99.36 87.87 9.97
14475 15.5800 101.44 88.04 10.07
14476 15.5810 86.72 88.21 9.31
14477 15.5820 87.67 88.38 9.36
14478 15.5830 96.36 88.56 9.82
14479 15.5840 94.64 88.70 9.73
14480 15.5850 100.22 88.89 10.01
14481 15.5860 93.13 89.07 9.65
14482 15.5870 97.23 89.25 9.86
14483 15.5880 104.25 89.44 10.21
14484 15.5890 94.23 89.63 9.71
14485 15.5900 87.37 89.82 9.35
14486 15.5910 80.06 90.01 8.95
14487 15.5920 87.84 90.20 9.37
14488 15.5930 101.20 90.39 10.06
14489 15.5940 87.43 90.59 9.35
14490 15.5950 79.72 90.78 8.93
14491 15.5960 89.52 90.98 9.46
14492 15.5970 92.86 91.18 9.64
14493 15.5980 93.22 91.37 9.66
14494 15.5990 82.49 91.57 9.08
14495 15.6000 101.83 91.77 10.09
14496 15.6010 96.32 91.94 9.81
14497 15.6020 88.96 92.14 9.43
14498 15.6030 83.85 92.34 9.16
14499 15.6040 94.20 92.53 9.71
14500 15.6050 93.48 92.73 9.67
14501 15.6060 81.16 92.95 9.01
14502 15.6070 85.01 93.15 9.22
14503 15.6080 80.22 93.34 8.96
14504 15.6090 91.99 93.52 9.59
14505 15.6100 90.02 93.71 9.49
14506 15.6110 88.43 93.90 9.40
14507 15.6120 95.27 94.08 9.76
14508 15.6130 104.85 94.26 10.24
14509 15.6140 85.69 94.42 9.26
14510 15.6150 89.66 94.60 9.47
14511 15.6160 92.63 94.78 9.62
14512 15.6170 89.86 94.96 9.48
14513 15.6180 95.58 95.13 9.78
14514 15.6190 93.37 95.30 9.66
14515 15.6200 100.19 95.47 10.01
14516 15.6210 86.14 95.64 9.28
14517 15.6220 97.42 95.80 9.87
14518 15.6230 93.89 95.97 9.69
14519 15.6240 101.27 96.13 10.06
14520 15.6250 92.39 96.29 9.61
14521 15.6260 104.98 96.45 10.25
14522 15.6270 111.03 96.60 10.54
14523 15.6280 100.99 96.75 10.05
14524 15.6290 94.23 96.90 9.71
14525 15.6300 93.69 97.05 9.68
14526 15.6310 82.13 97.20 9.06
14527 15.6320 89.81 97.35 9.48
14528 15.6330 91.59 97.49 9.57
14529 15.6340 97.46 97.63 9.87
14530 15.6350 105.21 97.77 10.26
14531 15.6360 98.39 97.91 9.92
14532 15.6370 105.55 98.05 10.27
14533 15.6380 97.78 98.18 9.89
14534 15.6390 100.01 98.31 10.00
14535 15.6400 92.55 98.45 9.62
14536 15.6410 100.54 98.58 10.03
14537 15.6420 83.17 98.70 9.12
14538 15.6430 92.02 98.83 9.59
14539 15.6440 104.76 98.92 10.24
14540 15.6450 100.54 99.04 10.03
14541 15.6460 96.14 99.16 9.81
14542 15.6470 100.81 99.27 10.04
14543 15.6480 99.86 99.39 9.99
14544 15.6490 97.40 99.50 9.87
14545 15.6500 95.62 99.61 9.78
14546 15.6510 79.34 99.72 8.91
14547 15.6520 102.67 99.82 10.13
14548 15.6530 110.33 99.94 10.50
14549 15.6540 102.14 100.04 10.11
14550 15.6550 112.63 100.15 10.61
14551 15.6560 95.76 100.25 9.79
14552 15.6570 114.78 100.34 10.71
14553 15.6580 119.94 100.44 10.95
14554 15.6590 106.58 100.53 10.32
14555 15.6600 113.33 100.62 10.65
14556 15.6610 105.76 100.71 10.28
14557 15.6620 111.45 100.79 10.56
14558 15.6630 106.78 100.87 10.33
14559 15.6640 101.12 100.95 10.06
14560 15.6650 93.68 100.98 9.68
14561 15.6660 104.54 101.06 10.22
14562 15.6670 111.76 101.12 10.57
14563 15.6680 122.66 101.19 11.08
14564 15.6690 120.56 101.25 10.98
14565 15.6700 108.90 101.30 10.44
14566 15.6710 117.69 101.36 10.85
14567 15.6720 106.81 101.40 10.33
14568 15.6730 106.28 101.45 10.31
14569 15.6740 120.81 101.49 10.99
14570 15.6750 110.04 101.53 10.49
14571 15.6760 115.50 101.57 10.75
14572 15.6770 100.02 101.60 10.00
14573 15.6780 111.92 101.62 10.58
14574 15.6790 107.00 101.63 10.34
14575 15.6800 101.47 101.65 10.07
14576 15.6810 105.55 101.66 10.27
14577 15.6820 102.26 101.67 10.11
14578 15.6830 106.59 101.68 10.32
14579 15.6840 121.95 101.68 11.04
14580 15.6850 109.03 101.68 10.44
14581 15.6860 97.06 101.68 9.85
14582 15.6870 94.26 101.68 9.71
14583 15.6880 103.16 101.67 10.16
14584 15.6890 85.74 101.66 9.26
14585 15.6900 100.63 101.63 10.03
14586 15.6910 96.37 101.59 9.82
14587 15.6920 114.57 101.57 10.70
14588 15.6930 109.29 101.56 10.45
14589 15.6940 100.17 101.53 10.01
14590 15.6950 104.28 101.51 10.21
14591 15.6960 95.42 101.48 9.77
14592 15.6970 91.77 101.45 9.58
14593 15.6980 101.62 101.42 10.08
14594 15.6990 99.14 101.39 9.96
14595 15.7000 103.23 101.37 10.16
14596 15.7010 101.45 101.34 10.07
14597 15.7020 104.74 101.31 10.23
14598 15.7030 93.22 101.27 9.66
14599 15.7040 105.07 101.24 10.25
14600 15.7050 101.80 101.21 10.09
14601 15.7060 113.64 101.18 10.66
14602 15.7070 94.96 101.15 9.74
14603 15.7080 92.04 101.14 9.59
14604 15.7090 103.24 101.11 10.16
14605 15.7100 107.75 101.09 10.38
14606 15.7110 95.27 101.06 9.76
14607 15.7120 114.81 101.04 10.71
14608 15.7130 102.49 101.02 10.12
14609 15.7140 95.21 101.00 9.76
14610 15.7150 96.88 100.99 9.84
14611 15.7160 103.84 100.98 10.19
14612 15.7170 92.21 100.96 9.60
14613 15.7180 110.58 100.95 10.52
14614 15.7190 103.13 100.94 10.16
14615 15.7200 108.59 100.94 10.42
14616 15.7210 102.85 100.93 10.14
14617 15.7220 103.47 100.93 10.17
14618 15.7230 95.88 100.93 9.79
14619 15.7240 98.19 100.93 9.91
14620 15.7250 95.96 100.94 9.80
14621 15.7260 107.86 100.95 10.39
14622 15.7270 110.04 100.96 10.49
14623 15.7280 95.18 100.98 9.76
14624 15.7290 111.82 100.99 10.57
14625 15.7300 100.89 101.01 10.04
14626 15.7310 103.34 101.04 10.17
14627 15.7320 113.62 101.06 10.66
14628 15.7330 111.25 101.08 10.55
14629 15.7340 106.06 101.11 10.30
14630 15.7350 98.33 101.16 9.92
14631 15.7360 106.23 101.19 10.31
14632 15.7370 113.16 101.22 10.64
14633 15.7380 116.12 101.26 10.78
14634 15.7390 108.58 101.30 10.42
14635 15.7400 105.79 101.34 10.29
14636 15.7410 112.94 101.38 10.63
14637 15.7420 106.73 101.42 10.33
14638 15.7430 120.46 101.46 10.98
14639 15.7440 121.36 101.51 11.02
14640 15.7450 125.16 101.55 11.19
14641 15.7460 118.93 101.59 10.91
14642 15.7470 121.34 101.64 11.02
14643 15.7480 123.35 101.68 11.11
14644 15.7490 115.76 101.73 10.76
14645 15.7500 118.82 101.77 10.90
14646 15.7510 104.07 101.82 10.20
14647 15.7520 106.63 101.86 10.33
14648 15.7530 105.30 101.91 10.26
14649 15.7540 106.06 101.95 10.30
14650 15.7550 116.36 101.99 10.79
14651 15.7560 103.09 102.01 10.15
14652 15.7570 101.75 102.05 10.09
14653 15.7580 97.56 102.09 9.88
14654 15.7590 121.17 102.13 11.01
14655 15.7600 111.56 102.17 10.56
14656 15.7610 110.44 102.20 10.51
14657 15.7620 102.28 102.23 10.11
14658 15.7630 107.42 102.26 10.36
14659 15.7640 106.60 102.29 10.32
14660 15.7650 102.54 102.32 10.13
14661 15.7660 92.95 102.35 9.64
14662 15.7670 94.97 102.38 9.75
14663 15.7680 99.34 102.40 9.97
14664 15.7690 102.72 102.42 10.14
14665 15.7700 104.76 102.44 10.24
14666 15.7710 108.76 102.46 10.43
14667 15.7720 99.41 102.48 9.97
14668 15.7730 94.10 102.50 9.70
14669 15.7740 99.83 102.51 9.99
14670 15.7750 103.56 102.53 10.18
14671 15.7760 96.80 102.54 9.84
14672 15.7770 97.52 102.54 9.88
14673 15.7780 99.60 102.55 9.98
14674 15.7790 106.75 102.56 10.33
14675 15.7800 88.70 102.57 9.42
14676 15.7810 101.57 102.57 10.08
14677 15.7820 94.74 102.57 9.73
14678 15.7830 99.54 102.57 9.98
14679 15.7840 100.39 102.58 10.02
14680 15.7850 94.29 102.58 9.71
14681 15.7860 96.79 102.59 9.84
14682 15.7870 96.02 102.59 9.80
14683 15.7880 103.22 102.59 10.16
14684 15.7890 104.24 102.59 10.21
14685 15.7900 98.61 102.59 9.93
14686 15.7910 83.31 102.59 9.13
14687 15.7920 95.65 102.57 9.78
14688 15.7930 106.62 102.57 10.33
14689 15.7940 104.38 102.57 10.22
14690 15.7950 90.21 102.57 9.50
14691 15.7960 98.26 102.57 9.91
14692 15.7970 83.35 102.57 9.13
14693 15.7980 92.43 102.57 9.61
14694 15.7990 95.90 102.57 9.79
14695 15.8000 92.50 102.57 9.62
14696 15.8010 90.67 102.57 9.52
14697 15.8020 90.19 102.57 9.50
14698 15.8030 95.86 102.57 9.79
14699 15.8040 104.21 102.57 10.21
14700 15.8050 99.04 102.57 9.95
14701 15.8060 107.80 102.57 10.38
14702 15.8070 89.43 102.57 9.46
14703 15.8080 93.84 102.57 9.69
14704 15.8090 105.02 102.57 10.25
14705 15.8100 94.01 102.57 9.70
14706 15.8110 86.93 102.57 9.32
14707 15.8120 85.91 102.56 9.27
14708 15.8130 100.47 102.51 10.02
14709 15.8140 106.19 102.51 10.30
14710 15.8150 113.06 102.50 10.63
14711 15.8160 94.63 102.50 9.73
14712 15.8170 107.97 102.51 10.39
14713 15.8180 107.48 102.50 10.37
14714 15.8190 113.94 102.50 10.67
14715 15.8200 102.23 102.49 10.11
14716 15.8210 85.95 102.48 9.27
14717 15.8220 107.18 102.47 10.35
14718 15.8230 124.26 102.45 11.15
14719 15.8240 98.05 102.44 9.90
14720 15.8250 108.39 102.42 10.41
14721 15.8260 108.53 102.40 10.42
14722 15.8270 102.43 102.38 10.12
14723 15.8280 107.77 102.36 10.38
14724 15.8290 108.15 102.32 10.40
14725 15.8300 101.22 102.29 10.06
14726 15.8310 120.46 102.26 10.98
14727 15.8320 115.71 102.23 10.76
14728 15.8330 106.27 102.19 10.31
14729 15.8340 104.07 102.15 10.20
14730 15.8350 118.02 102.10 10.86
14731 15.8360 124.75 102.06 11.17
14732 15.8370 106.72 101.99 10.33
14733 15.8380 113.68 101.93 10.66
14734 15.8390 120.64 101.88 10.98
14735 15.8400 122.94 101.82 11.09
14736 15.8410 123.84 101.75 11.13
14737 15.8420 123.52 101.68 11.11
14738 15.8430 109.66 101.60 10.47
14739 15.8440 123.33 101.53 11.11
14740 15.8450 134.88 101.45 11.61
14741 15.8460 123.51 101.36 11.11
14742 15.8470 114.19 101.27 10.69
14743 15.8480 114.56 101.18 10.70
14744 15.8490 131.77 101.08 11.48
14745 15.8500 118.23 100.98 10.87
14746 15.8510 109.52 100.88 10.47
14747 15.8520 125.52 100.77 11.20
14748 15.8530 111.36 100.66 10.55
14749 15.8540 127.45 100.54 11.29
14750 15.8550 116.64 100.43 10.80
14751 15.8560 107.94 100.30 10.39
14752 15.8570 107.28 100.18 10.36
14753 15.8580 111.34 100.05 10.55
14754 15.8590 118.07 99.92 10.87
14755 15.8600 121.44 99.79 11.02
14756 15.8610 112.53 99.65 10.61
14757 15.8620 106.53 99.51 10.32
14758 15.8630 114.73 99.36 10.71
14759 15.8640 119.73 99.21 10.94
14760 15.8650 111.76 99.06 10.57
14761 15.8660 94.75 98.91 9.73
14762 15.8670 91.87 98.75 9.58
14763 15.8680 90.26 98.59 9.50
14764 15.8690 104.84 98.43 10.24
14765 15.8700 117.73 98.27 10.85
14766 15.8710 104.07 98.11 10.20
14767 15.8720 107.64 97.94 10.38
14768 15.8730 103.59 97.76 10.18
14769 15.8740 114.59 97.58 10.70
14770 15.8750 105.09 97.41 10.25
14771 15.8760 115.06 97.22 10.73
14772 15.8770 101.79 97.04 10.09
14773 15.8780 109.33 96.85 10.46
14774 15.8790 110.02 96.66 10.49
14775 15.8800 107.13 96.47 10.35
14776 15.8810 100.89 96.27 10.04
14777 15.8820 104.89 96.07 10.24
14778 15.8830 94.18 95.87 9.70
14779 15.8840 101.13 95.67 10.06
14780 15.8850 106.52 95.46 10.32
14781 15.8860 106.66 95.25 10.33
14782 15.8870 105.63 95.04 10.28
14783 15.8880 106.04 94.82 10.30
14784 15.8890 99.97 94.60 10.00
14785 15.8900 100.25 94.38 10.01
14786 15.8910 105.53 94.15 10.27
14787 15.8920 98.27 93.93 9.91
14788 15.8930 104.30 93.70 10.21
14789 15.8940 99.77 93.46 9.99
14790 15.8950 108.49 93.22 10.42
14791 15.8960 100.32 92.98 10.02
14792 15.8970 103.21 92.74 10.16
14793 15.8980 105.73 92.49 10.28
14794 15.8990 99.52 92.24 9.98
14795 15.9000 99.72 91.99 9.99
14796 15.9010 89.43 91.73 9.46
14797 15.9020 90.32 91.47 9.50
14798 15.9030 76.21 91.21 8.73
14799 15.9040 96.98 90.95 9.85
14800 15.9050 111.23 90.68 10.55
14801 15.9060 87.41 90.41 9.35
14802 15.9070 87.41 90.14 9.35
14803 15.9080 94.22 89.86 9.71
14804 15.9090 91.95 89.59 9.59
14805 15.9100 82.97 89.31 9.11
14806 15.9110 89.59 89.03 9.47
14807 15.9120 87.62 88.75 9.36
14808 15.9130 88.75 88.47 9.42
14809 15.9140 84.45 88.18 9.19
14810 15.9150 81.37 87.90 9.02
14811 15.9160 79.60 87.61 8.92
14812 15.9170 77.72 87.33 8.82
14813 15.9180 85.09 87.04 9.22
14814 15.9190 84.37 86.76 9.19
14815 15.9200 91.45 86.47 9.56
14816 15.9210 80.46 86.19 8.97
14817 15.9220 70.92 85.91 8.42
14818 15.9230 73.56 85.62 8.58
14819 15.9240 72.09 85.34 8.49
14820 15.9250 70.59 85.06 8.40
14821 15.9260 78.52 84.78 8.86
14822 15.9270 80.36 84.50 8.96
14823 15.9280 74.75 84.23 8.65
14824 15.9290 79.68 83.95 8.93
14825 15.9300 74.86 83.68 8.65
14826 15.9310 69.75 83.42 8.35
14827 15.9320 74.84 83.15 8.65
14828 15.9330 69.82 82.89 8.36
14829 15.9340 78.67 82.63 8.87
14830 15.9350 77.74 82.38 8.82
14831 15.9360 76.26 82.13 8.73
14832 15.9370 83.25 81.88 9.12
14833 15.9380 78.07 81.64 8.84
14834 15.9390 57.32 81.40 7.57
14835 15.9400 63.20 81.17 7.95
14836 15.9410 73.92 80.94 8.60
14837 15.9420 68.08 80.72 8.25
14838 15.9430 75.83 80.50 8.71
14839 15.9440 82.31 80.28 9.07
14840 15.9450 88.59 80.07 9.41
14841 15.9460 72.09 79.87 8.49
14842 15.9470 74.23 79.67 8.62
14843 15.9480 76.37 79.48 8.74
14844 15.9490 72.78 79.30 8.53
14845 15.9500 67.36 79.12 8.21
14846 15.9510 65.51 78.94 8.09
14847 15.9520 67.53 78.78 8.22
14848 15.9530 62.42 78.61 7.90
14849 15.9540 76.74 78.46 8.76
14850 15.9550 69.91 78.31 8.36
14851 15.9560 73.88 78.17 8.60
14852 15.9570 61.08 78.03 7.82
14853 15.9580 76.68 77.91 8.76
14854 15.9590 73.15 77.78 8.55
14855 15.9600 83.86 77.69 9.16
14856 15.9610 67.81 77.58 8.23
14857 15.9620 68.88 77.48 8.30
14858 15.9630 68.15 77.38 8.26
14859 15.9640 67.21 77.29 8.20
14860 15.9650 71.41 77.21 8.45
14861 15.9660 70.22 77.14 8.38
14862 15.9670 75.30 77.07 8.68
14863 15.9680 71.84 77.02 8.48
14864 15.9690 67.39 76.96 8.21
14865 15.9700 82.39 76.92 9.08
14866 15.9710 66.06 76.88 8.13
14867 15.9720 65.78 76.83 8.11
14868 15.9730 76.78 76.81 8.76
14869 15.9740 75.45 76.79 8.69
14870 15.9750 70.42 76.78 8.39
14871 15.9760 66.59 76.75 8.16
14872 15.9770 72.45 76.76 8.51
14873 15.9780 78.83 76.77 8.88
14874 15.9790 74.31 76.79 8.62
14875 15.9800 70.24 76.82 8.38
14876 15.9810 78.15 76.86 8.84
14877 15.9820 78.27 76.90 8.85
14878 15.9830 66.77 76.95 8.17
14879 15.9840 73.12 77.01 8.55
14880 15.9850 66.69 77.07 8.17
14881 15.9860 59.26 77.14 7.70
14882 15.9870 72.54 77.23 8.52
14883 15.9880 79.49 77.32 8.92
14884 15.9890 100.41 77.41 10.02
14885 15.9900 83.24 77.51 9.12
14886 15.9910 72.35 77.62 8.51
14887 15.9920 70.27 77.73 8.38
14888 15.9930 79.64 77.85 8.92
14889 15.9940 68.63 77.98 8.28
14890 15.9950 80.06 78.11 8.95
14891 15.9960 86.13 78.25 9.28
14892 15.9970 79.50 78.40 8.92
14893 15.9980 76.82 78.55 8.76
14894 15.9990 82.24 78.71 9.07
14895 16.0000 82.65 78.87 9.09
14896 16.0010 68.05 79.04 8.25
14897 16.0020 65.70 79.21 8.11
14898 16.0030 85.59 79.40 9.25
14899 16.0040 77.67 79.58 8.81
14900 16.0050 75.98 79.77 8.72
14901 16.0060 70.46 79.97 8.39
14902 16.0070 75.47 80.17 8.69
14903 16.0080 75.35 80.38 8.68
14904 16.0090 78.37 80.59 8.85
14905 16.0100 79.11 80.81 8.89
14906 16.0110 74.43 81.03 8.63
14907 16.0120 77.47 81.25 8.80
14908 16.0130 80.09 81.48 8.95
14909 16.0140 81.32 81.71 9.02
14910 16.0150 70.34 81.94 8.39
14911 16.0160 84.16 82.19 9.17
14912 16.0170 77.30 82.43 8.79
14913 16.0180 81.63 82.67 9.03
14914 16.0190 88.19 82.92 9.39
14915 16.0200 76.07 83.17 8.72
14916 16.0210 83.69 83.42 9.15
14917 16.0220 86.95 83.67 9.32
14918 16.0230 69.35 83.92 8.33
14919 16.0240 87.08 84.18 9.33
14920 16.0250 95.51 84.44 9.77
14921 16.0260 80.34 84.69 8.96
14922 16.0270 85.03 84.95 9.22
14923 16.0280 89.93 85.23 9.48
14924 16.0290 85.93 85.48 9.27
14925 16.0300 84.12 85.74 9.17
14926 16.0310 77.59 86.00 8.81
14927 16.0320 89.55 86.26 9.46
14928 16.0330 86.08 86.51 9.28
14929 16.0340 95.41 86.77 9.77
14930 16.0350 79.57 87.02 8.92
14931 16.0360 88.86 87.27 9.43
14932 16.0370 94.62 87.51 9.73
14933 16.0380 97.97 87.76 9.90
14934 16.0390 101.11 88.00 10.06
14935 16.0400 107.00 88.24 10.34
14936 16.0410 94.25 88.47 9.71
14937 16.0420 93.71 88.70 9.68
14938 16.0430 94.86 88.93 9.74
14939 16.0440 106.42 89.15 10.32
14940 16.0450 97.67 89.37 9.88
14941 16.0460 95.97 89.58 9.80
14942 16.0470 111.53 89.79 10.56
14943 16.0480 100.93 89.99 10.05
14944 16.0490 96.97 90.19 9.85
14945 16.0500 93.75 90.38 9.68
14946 16.0510 101.06 90.56 10.05
14947 16.0520 101.72 90.74 10.09
14948 16.0530 114.84 90.91 10.72
14949 16.0540 117.80 91.07 10.85
14950 16.0550 103.45 91.23 10.17
14951 16.0560 112.96 91.38 10.63
14952 16.0570 111.33 91.52 10.55
14953 16.0580 108.38 91.65 10.41
14954 16.0590 105.53 91.78 10.27
14955 16.0600 96.13 91.89 9.80
14956 16.0610 114.50 92.00 10.70
14957 16.0620 123.60 92.10 11.12
14958 16.0630 108.96 92.19 10.44
14959 16.0640 96.92 92.28 9.84
14960 16.0650 97.79 92.35 9.89
14961 16.0660 118.06 92.42 10.87
14962 16.0670 109.60 92.48 10.47
14963 16.0680 113.66 92.52 10.66
14964 16.0690 110.63 92.56 10.52
14965 16.0700 115.69 92.59 10.76
14966 16.0710 121.29 92.61 11.01
14967 16.0720 106.11 92.63 10.30
14968 16.0730 108.77 92.63 10.43
14969 16.0740 114.47 92.63 10.70
14970 16.0750 114.20 92.61 10.69
14971 16.0760 128.04 92.59 11.32
14972 16.0770 102.42 92.56 10.12
14973 16.0780 102.42 92.52 10.12
14974 16.0790 97.50 92.47 9.87
14975 16.0800 105.99 92.41 10.30
14976 16.0810 104.69 92.36 10.23
14977 16.0820 93.19 92.28 9.65
14978 16.0830 90.84 92.20 9.53
14979 16.0840 104.96 92.11 10.24
14980 16.0850 94.21 92.01 9.71
14981 16.0860 103.71 91.90 10.18
14982 16.0870 99.33 91.79 9.97
14983 16.0880 104.47 91.67 10.22
14984 16.0890 103.44 91.55 10.17
14985 16.0900 98.08 91.41 9.90
14986 16.0910 94.87 91.17 9.74
14987 16.0920 100.13 91.03 10.01
14988 16.0930 102.84 90.87 10.14
14989 16.0940 86.75 90.72 9.31
14990 16.0950 102.30 90.55 10.11
14991 16.0960 94.70 90.39 9.73
14992 16.0970 100.08 90.21 10.00
14993 16.0980 98.74 90.03 9.94
14994 16.0990 91.84 89.85 9.58
14995 16.1000 96.41 89.67 9.82
14996 16.1010 86.65 89.48 9.31
14997 16.1020 88.51 89.28 9.41
14998 16.1030 92.28 89.09 9.61
14999 16.1040 82.80 88.89 9.10
15000 16.1050 95.14 88.68 9.75
15001 16.1060 82.41 88.48 9.08
15002 16.1070 93.48 88.27 9.67
15003 16.1080 91.78 88.06 9.58
15004 16.1090 80.91 87.85 8.99
15005 16.1100 67.28 87.63 8.20
15006 16.1110 89.40 87.42 9.46
15007 16.1120 82.29 87.20 9.07
15008 16.1130 79.89 86.98 8.94
15009 16.1140 73.52 86.76 8.57
15010 16.1150 73.68 86.54 8.58
15011 16.1160 81.98 86.32 9.05
15012 16.1170 81.71 86.10 9.04
15013 16.1180 76.87 85.89 8.77
15014 16.1190 80.12 85.67 8.95
15015 16.1200 79.43 85.45 8.91
15016 16.1210 93.63 85.23 9.68
15017 16.1220 86.31 85.01 9.29
15018 16.1230 86.31 84.79 9.29
15019 16.1240 82.83 84.58 9.10
15020 16.1250 77.48 84.36 8.80
15021 16.1260 76.62 84.15 8.75
15022 16.1270 83.36 83.94 9.13
15023 16.1280 65.99 83.73 8.12
15024 16.1290 65.19 83.52 8.07
15025 16.1300 82.91 83.32 9.11
15026 16.1310 82.20 83.12 9.07
15027 16.1320 81.91 82.92 9.05
15028 16.1330 75.96 82.71 8.72
15029 16.1340 75.18 82.52 8.67
15030 16.1350 73.75 82.33 8.59
15031 16.1360 79.57 82.14 8.92
15032 16.1370 85.81 81.95 9.26
15033 16.1380 79.68 81.77 8.93
15034 16.1390 77.23 81.58 8.79
15035 16.1400 85.98 81.40 9.27
15036 16.1410 82.83 81.23 9.10
15037 16.1420 75.11 81.06 8.67
15038 16.1430 78.54 80.90 8.86
15039 16.1440 83.50 80.74 9.14
15040 16.1450 81.17 80.57 9.01
15041 16.1460 77.98 80.42 8.83
15042 16.1470 76.48 80.26 8.75
15043 16.1480 71.88 80.11 8.48
15044 16.1490 71.92 79.96 8.48
15045 16.1500 66.52 79.81 8.16
15046 16.1510 69.91 79.67 8.36
15047 16.1520 79.96 79.54 8.94
15048 16.1530 69.34 79.40 8.33
15049 16.1540 68.04 79.27 8.25
15050 16.1550 62.71 79.14 7.92
15051 16.1560 74.65 79.02 8.64
15052 16.1570 80.29 78.89 8.96
15053 16.1580 74.50 78.74 8.63
15054 16.1590 63.85 78.63 7.99
15055 16.1600 70.01 78.51 8.37
15056 16.1610 63.93 78.40 8.00
15057 16.1620 71.67 78.30 8.47
15058 16.1630 82.55 78.19 9.09
15059 16.1640 81.89 78.07 9.05
15060 16.1650 76.62 77.97 8.75
15061 16.1660 68.13 77.88 8.25
15062 16.1670 77.16 77.78 8.78
15063 16.1680 74.49 77.69 8.63
15064 16.1690 68.09 77.60 8.25
15065 16.1700 71.53 77.52 8.46
15066 16.1710 72.72 77.43 8.53
15067 16.1720 67.81 77.35 8.23
15068 16.1730 69.43 77.27 8.33
15069 16.1740 77.68 77.20 8.81
15070 16.1750 77.83 77.12 8.82
15071 16.1760 65.32 77.04 8.08
15072 16.1770 66.25 76.97 8.14
15073 16.1780 69.11 76.90 8.31
15074 16.1790 72.20 76.83 8.50
15075 16.1800 79.59 76.76 8.92
15076 16.1810 76.93 76.70 8.77
15077 16.1820 79.68 76.63 8.93
15078 16.1830 74.42 76.53 8.63
15079 16.1840 73.27 76.47 8.56
15080 16.1850 84.07 76.41 9.17
15081 16.1860 82.87 76.35 9.10
15082 16.1870 75.60 76.29 8.69
15083 16.1880 82.37 76.23 9.08
15084 16.1890 67.59 76.17 8.22
15085 16.1900 68.69 76.12 8.29
15086 16.1910 77.34 76.06 8.79
15087 16.1920 74.03 76.00 8.60
15088 16.1930 75.06 75.95 8.66
15089 16.1940 80.04 75.89 8.95
15090 16.1950 87.54 75.84 9.36
15091 16.1960 84.94 75.79 9.22
15092 16.1970 89.36 75.73 9.45
15093 16.1980 86.64 75.68 9.31
15094 16.1990 83.22 75.63 9.12
15095 16.2000 93.12 75.57 9.65
15096 16.2010 85.73 75.52 9.26
15097 16.2020 88.04 75.46 9.38
15098 16.2030 85.69 75.41 9.26
15099 16.2040 83.48 75.36 9.14
15100 16.2050 81.10 75.30 9.01
15101 16.2060 75.69 75.25 8.70
15102 16.2070 72.79 75.19 8.53
15103 16.2080 72.66 75.14 8.52
15104 16.2090 84.92 75.09 9.22
15105 16.2100 77.56 75.03 8.81
15106 16.2110 80.87 74.95 8.99
15107 16.2120 84.52 74.90 9.19
15108 16.2130 89.28 74.85 9.45
15109 16.2140 78.44 74.79 8.86
15110 16.2150 80.91 74.73 8.99
15111 16.2160 91.42 74.68 9.56
15112 16.2170 91.31 74.62 9.56
15113 16.2180 86.53 74.57 9.30
15114 16.2190 90.50 74.51 9.51
15115 16.2200 85.70 74.46 9.26
15116 16.2210 91.32 74.40 9.56
15117 16.2220 78.27 74.35 8.85
15118 16.2230 83.93 74.29 9.16
15119 16.2240 85.40 74.24 9.24
15120 16.2250 76.78 74.19 8.76
15121 16.2260 75.84 74.14 8.71
15122 16.2270 81.18 74.08 9.01
15123 16.2280 83.26 74.03 9.12
15124 16.2290 80.32 73.98 8.96
15125 16.2300 82.99 73.93 9.11
15126 16.2310 69.28 73.88 8.32
15127 16.2320 64.46 73.83 8.03
15128 16.2330 72.04 73.78 8.49
15129 16.2340 74.52 73.74 8.63
15130 16.2350 86.86 73.70 9.32
15131 16.2360 71.16 73.65 8.44
15132 16.2370 67.45 73.61 8.21
15133 16.2380 65.49 73.57 8.09
15134 16.2390 75.93 73.54 8.71
15135 16.2400 71.33 73.50 8.45
15136 16.2410 73.57 73.46 8.58
15137 16.2420 70.66 73.43 8.41
15138 16.2430 72.34 73.40 8.51
15139 16.2440 79.42 73.38 8.91
15140 16.2450 82.28 73.35 9.07
15141 16.2460 70.47 73.32 8.39
15142 16.2470 68.91 73.30 8.30
15143 16.2480 67.36 73.28 8.21
15144 16.2490 64.89 73.27 8.06
15145 16.2500 71.53 73.25 8.46
15146 16.2510 68.29 73.24 8.26
15147 16.2520 59.58 73.23 7.72
15148 16.2530 64.77 73.22 8.05
15149 16.2540 60.72 73.22 7.79
15150 16.2550 70.67 73.22 8.41
15151 16.2560 57.66 73.22 7.59
15152 16.2570 70.77 73.22 8.41
15153 16.2580 69.85 73.23 8.36
15154 16.2590 75.28 73.24 8.68
15155 16.2600 66.48 73.28 8.15
15156 16.2610 70.93 73.29 8.42
15157 16.2620 71.29 73.31 8.44
15158 16.2630 72.75 73.36 8.53
15159 16.2640 69.43 73.38 8.33
15160 16.2650 70.37 73.41 8.39
15161 16.2660 64.05 73.44 8.00
15162 16.2670 69.01 73.47 8.31
15163 16.2680 72.71 73.51 8.53
15164 16.2690 60.35 73.55 7.77
15165 16.2700 59.48 73.55 7.71
15166 16.2710 69.82 73.60 8.36
15167 16.2720 73.95 73.65 8.60
15168 16.2730 66.50 73.70 8.15
15169 16.2740 73.08 73.76 8.55
15170 16.2750 86.73 73.81 9.31
15171 16.2760 62.79 73.87 7.92
15172 16.2770 68.38 73.94 8.27
15173 16.2780 58.86 74.00 7.67
15174 16.2790 75.19 74.07 8.67
15175 16.2800 57.59 74.14 7.59
15176 16.2810 69.40 74.21 8.33
15177 16.2820 70.44 74.29 8.39
15178 16.2830 65.47 74.37 8.09
15179 16.2840 69.36 74.45 8.33
15180 16.2850 69.19 74.54 8.32
15181 16.2860 62.07 74.62 7.88
15182 16.2870 77.46 74.71 8.80
15183 16.2880 68.13 74.80 8.25
15184 16.2890 67.93 74.89 8.24
15185 16.2900 64.88 74.99 8.05
15186 16.2910 79.69 75.08 8.93
15187 16.2920 58.24 75.18 7.63
15188 16.2930 53.81 75.28 7.34
15189 16.2940 66.02 75.38 8.13
15190 16.2950 80.22 75.48 8.96
15191 16.2960 70.79 75.59 8.41
15192 16.2970 77.67 75.69 8.81
15193 16.2980 73.44 75.80 8.57
15194 16.2990 68.72 75.91 8.29
15195 16.3000 75.18 76.02 8.67
15196 16.3010 62.73 76.13 7.92
15197 16.3020 75.14 76.24 8.67
15198 16.3030 71.50 76.35 8.46
15199 16.3040 66.80 76.46 8.17
15200 16.3050 73.32 76.57 8.56
15201 16.3060 71.24 76.68 8.44
15202 16.3070 68.44 76.80 8.27
15203 16.3080 69.99 76.91 8.37
15204 16.3090 73.73 77.02 8.59
15205 16.3100 71.90 77.13 8.48
15206 16.3110 83.14 77.25 9.12
15207 16.3120 75.76 77.36 8.70
15208 16.3130 60.95 77.47 7.81
15209 16.3140 63.59 77.59 7.97
15210 16.3150 76.33 77.70 8.74
15211 16.3160 68.04 77.81 8.25
15212 16.3170 75.09 77.92 8.67
15213 16.3180 71.93 78.03 8.48
15214 16.3190 71.91 78.15 8.48
15215 16.3200 79.63 78.26 8.92
15216 16.3210 75.08 78.37 8.66
15217 16.3220 63.71 78.48 7.98
15218 16.3230 68.96 78.58 8.30
15219 16.3240 77.27 78.69 8.79
15220 16.3250 74.94 78.80 8.66
15221 16.3260 73.10 78.90 8.55
15222 16.3270 74.63 79.01 8.64
15223 16.3280 75.42 79.11 8.68
15224 16.3290 77.39 79.22 8.80
15225 16.3300 74.61 79.32 8.64
15226 16.3310 69.33 79.42 8.33
15227 16.3320 74.60 79.52 8.64
15228 16.3330 78.56 79.62 8.86
15229 16.3340 81.39 79.72 9.02
15230 16.3350 70.66 79.82 8.41
15231 16.3360 78.66 79.92 8.87
15232 16.3370 86.01 80.02 9.27
15233 16.3380 81.36 80.12 9.02
15234 16.3390 95.15 80.22 9.75
15235 16.3400 77.33 80.32 8.79
15236 16.3410 77.40 80.41 8.80
15237 16.3420 75.62 80.51 8.70
15238 16.3430 68.00 80.60 8.25
15239 16.3440 76.40 80.70 8.74
15240 16.3450 79.45 80.80 8.91
15241 16.3460 74.76 80.89 8.65
15242 16.3470 74.58 80.99 8.64
15243 16.3480 71.44 81.09 8.45
15244 16.3490 66.86 81.18 8.18
15245 16.3500 67.19 81.28 8.20
15246 16.3510 82.79 81.37 9.10
15247 16.3520 77.45 81.47 8.80
15248 16.3530 69.57 81.57 8.34
15249 16.3540 78.33 81.67 8.85
15250 16.3550 80.38 81.76 8.97
15251 16.3560 78.30 81.86 8.85
15252 16.3570 77.53 81.96 8.81
15253 16.3580 75.85 82.06 8.71
15254 16.3590 72.63 82.16 8.52
15255 16.3600 80.22 82.26 8.96
15256 16.3610 77.79 82.36 8.82
15257 16.3620 83.50 82.46 9.14
15258 16.3630 80.27 82.56 8.96
15259 16.3640 86.25 82.66 9.29
15260 16.3650 91.84 82.76 9.58
15261 16.3660 83.81 82.86 9.15
15262 16.3670 86.33 82.97 9.29
15263 16.3680 75.11 83.07 8.67
15264 16.3690 75.78 83.18 8.71
15265 16.3700 73.36 83.28 8.57
15266 16.3710 80.76 83.39 8.99
15267 16.3720 84.36 83.49 9.18
15268 16.3730 88.58 83.60 9.41
15269 16.3740 72.83 83.70 8.53
15270 16.3750 83.93 83.81 9.16
15271 16.3760 86.90 83.92 9.32
15272 16.3770 95.53 84.03 9.77
15273 16.3780 86.70 84.14 9.31
15274 16.3790 87.10 84.25 9.33
15275 16.3800 75.28 84.36 8.68
15276 16.3810 77.67 84.47 8.81
15277 16.3820 81.40 84.58 9.02
15278 16.3830 73.42 84.69 8.57
15279 16.3840 92.42 84.81 9.61
15280 16.3850 93.15 84.92 9.65
15281 16.3860 83.02 85.03 9.11
15282 16.3870 82.64 85.14 9.09
15283 16.3880 83.76 85.25 9.15
15284 16.3890 82.14 85.37 9.06
15285 16.3900 83.00 85.48 9.11
15286 16.3910 94.18 85.59 9.70
15287 16.3920 83.99 85.70 9.16
15288 16.3930 86.53 85.82 9.30
15289 16.3940 85.19 85.93 9.23
15290 16.3950 78.01 86.05 8.83
15291 16.3960 71.74 86.16 8.47
15292 16.3970 82.55 86.28 9.09
15293 16.3980 84.42 86.39 9.19
15294 16.3990 83.42 86.50 9.13
15295 16.4000 82.21 86.61 9.07
15296 16.4010 86.88 86.72 9.32
15297 16.4020 83.27 86.83 9.13
15298 16.4030 91.84 86.94 9.58
15299 16.4040 84.32 87.05 9.18
15300 16.4050 77.98 87.16 8.83
15301 16.4060 85.48 87.29 9.25
15302 16.4070 86.34 87.39 9.29
15303 16.4080 85.78 87.50 9.26
15304 16.4090 73.74 87.61 8.59
15305 16.4100 83.75 87.71 9.15
15306 16.4110 82.95 87.81 9.11
15307 16.4120 84.99 87.92 9.22
15308 16.4130 87.52 88.02 9.36
15309 16.4140 87.03 88.12 9.33
15310 16.4150 93.28 88.22 9.66
15311 16.4160 89.50 88.31 9.46
15312 16.4170 76.35 88.41 8.74
15313 16.4180 88.51 88.51 9.41
15314 16.4190 92.11 88.60 9.60
15315 16.4200 89.34 88.69 9.45
15316 16.4210 85.51 88.78 9.25
15317 16.4220 86.42 88.88 9.30
15318 16.4230 91.03 88.96 9.54
15319 16.4240 79.26 89.05 8.90
15320 16.4250 86.97 89.14 9.33
15321 16.4260 90.81 89.22 9.53
15322 16.4270 83.61 89.30 9.14
15323 16.4280 77.40 89.38 8.80
15324 16.4290 80.11 89.46 8.95
15325 16.4300 80.58 89.54 8.98
15326 16.4310 84.77 89.62 9.21
15327 16.4320 89.63 89.69 9.47
15328 16.4330 95.32 89.77 9.76
15329 16.4340 88.14 89.84 9.39
15330 16.4350 79.85 89.91 8.94
15331 16.4360 86.48 89.98 9.30
15332 16.4370 77.36 90.05 8.80
15333 16.4380 90.22 90.12 9.50
15334 16.4390 99.80 90.18 9.99
15335 16.4400 92.59 90.25 9.62
15336 16.4410 85.94 90.31 9.27
15337 16.4420 80.77 90.37 8.99
15338 16.4430 80.82 90.43 8.99
15339 16.4440 90.24 90.50 9.50
15340 16.4450 84.57 90.56 9.20
15341 16.4460 85.18 90.62 9.23
15342 16.4470 82.70 90.67 9.09
15343 16.4480 78.24 90.70 8.85
15344 16.4490 74.13 90.76 8.61
15345 16.4500 83.46 90.82 9.14
15346 16.4510 85.35 90.88 9.24
15347 16.4520 85.59 90.93 9.25
15348 16.4530 88.87 90.99 9.43
15349 16.4540 79.49 91.05 8.92
15350 16.4550 82.06 91.10 9.06
15351 16.4560 82.12 91.16 9.06
15352 16.4570 76.20 91.21 8.73
15353 16.4580 89.31 91.27 9.45
15354 16.4590 77.06 91.32 8.78
15355 16.4600 96.20 91.38 9.81
15356 16.4610 97.27 91.43 9.86
15357 16.4620 93.77 91.49 9.68
15358 16.4630 81.88 91.54 9.05
15359 16.4640 84.35 91.60 9.18
15360 16.4650 81.87 91.67 9.05
15361 16.4660 83.49 91.73 9.14
15362 16.4670 78.44 91.79 8.86
15363 16.4680 81.86 91.85 9.05
15364 16.4690 77.94 91.90 8.83
15365 16.4700 68.69 91.97 8.29
15366 16.4710 80.83 92.03 8.99
15367 16.4720 81.74 92.09 9.04
15368 16.4730 86.88 92.15 9.32
15369 16.4740 86.22 92.21 9.29
15370 16.4750 80.19 92.28 8.95
15371 16.4760 95.28 92.34 9.76
15372 16.4770 87.38 92.41 9.35
15373 16.4780 85.66 92.46 9.26
15374 16.4790 79.13 92.53 8.90
15375 16.4800 83.30 92.60 9.13
15376 16.4810 84.67 92.67 9.20
15377 16.4820 85.09 92.73 9.22
15378 16.4830 90.14 92.80 9.49
15379 16.4840 93.92 92.88 9.69
15380 16.4850 92.53 92.95 9.62
15381 16.4860 83.93 93.03 9.16
15382 16.4870 87.68 93.10 9.36
15383 16.4880 74.77 93.18 8.65
15384 16.4890 80.19 93.27 8.95
15385 16.4900 95.93 93.35 9.79
15386 16.4910 96.18 93.43 9.81
15387 16.4920 78.40 93.52 8.85
15388 16.4930 77.10 93.60 8.78
15389 16.4940 89.59 93.69 9.47
15390 16.4950 89.79 93.78 9.48
15391 16.4960 91.91 93.87 9.59
15392 16.4970 84.58 93.97 9.20
15393 16.4980 79.05 94.06 8.89
15394 16.4990 87.37 94.16 9.35
15395 16.5000 83.31 94.26 9.13
15396 16.5010 86.38 94.36 9.29
15397 16.5020 87.78 94.46 9.37
15398 16.5030 85.11 94.56 9.23
15399 16.5040 74.15 94.67 8.61
15400 16.5050 92.51 94.77 9.62
15401 16.5060 97.40 94.88 9.87
15402 16.5070 86.72 95.04 9.31
15403 16.5080 87.45 95.15 9.35
15404 16.5090 86.08 95.27 9.28
15405 16.5100 88.09 95.39 9.39
15406 16.5110 79.84 95.51 8.94
15407 16.5120 91.16 95.63 9.55
15408 16.5130 91.20 95.75 9.55
15409 16.5140 92.44 95.87 9.61
15410 16.5150 96.77 96.00 9.84
15411 16.5160 91.61 96.12 9.57
15412 16.5170 79.38 96.25 8.91
15413 16.5180 93.84 96.38 9.69
15414 16.5190 85.73 96.51 9.26
15415 16.5200 89.85 96.65 9.48
15416 16.5210 84.46 96.78 9.19
15417 16.5220 86.04 96.92 9.28
15418 16.5230 76.51 97.05 8.75
15419 16.5240 75.66 97.19 8.70
15420 16.5250 86.39 97.33 9.29
15421 16.5260 86.02 97.48 9.27
15422 16.5270 84.40 97.62 9.19
15423 16.5280 97.76 97.77 9.89
15424 16.5290 94.44 97.92 9.72
15425 16.5300 96.67 98.07 9.83
15426 16.5310 93.35 98.22 9.66
15427 16.5320 96.08 98.38 9.80
15428 16.5330 85.89 98.53 9.27
15429 16.5340 85.37 98.69 9.24
15430 16.5350 90.42 98.85 9.51
15431 16.5360 90.41 99.01 9.51
15432 16.5370 91.42 99.17 9.56
15433 16.5380 84.26 99.34 9.18
15434 16.5390 98.34 99.51 9.92
15435 16.5400 83.68 99.68 9.15
15436 16.5410 88.64 99.85 9.41
15437 16.5420 105.68 100.02 10.28
15438 16.5430 92.17 100.19 9.60
15439 16.5440 101.58 100.37 10.08
15440 16.5450 93.91 100.55 9.69
15441 16.5460 93.61 100.73 9.68
15442 16.5470 101.58 100.92 10.08
15443 16.5480 85.51 101.10 9.25
15444 16.5490 95.27 101.29 9.76
15445 16.5500 99.22 101.48 9.96
15446 16.5510 98.87 101.67 9.94
15447 16.5520 106.82 101.87 10.34
15448 16.5530 108.19 102.07 10.40
15449 16.5540 104.74 102.27 10.23
15450 16.5550 105.44 102.48 10.27
15451 16.5560 110.78 102.68 10.53
15452 16.5570 109.90 102.90 10.48
15453 16.5580 99.79 103.11 9.99
15454 16.5590 104.64 103.32 10.23
15455 16.5600 108.18 103.53 10.40
15456 16.5610 107.42 103.75 10.36
15457 16.5620 104.71 103.98 10.23
15458 16.5630 94.21 104.20 9.71
15459 16.5640 98.49 104.43 9.92
15460 16.5650 109.77 104.67 10.48
15461 16.5660 107.49 104.90 10.37
15462 16.5670 106.88 105.14 10.34
15463 16.5680 97.13 105.39 9.86
15464 16.5690 102.63 105.63 10.13
15465 16.5700 98.54 105.88 9.93
15466 16.5710 87.14 106.14 9.33
15467 16.5720 99.40 106.39 9.97
15468 16.5730 83.21 106.66 9.12
15469 16.5740 99.72 106.92 9.99
15470 16.5750 101.02 107.19 10.05
15471 16.5760 105.53 107.48 10.27
15472 16.5770 92.26 107.76 9.61
15473 16.5780 93.06 108.04 9.65
15474 16.5790 88.72 108.32 9.42
15475 16.5800 91.91 108.61 9.59
15476 16.5810 99.49 108.90 9.97
15477 16.5820 99.17 109.20 9.96
15478 16.5830 103.23 109.50 10.16
15479 16.5840 104.38 109.81 10.22
15480 16.5850 114.86 110.11 10.72
15481 16.5860 107.53 110.43 10.37
15482 16.5870 106.05 110.74 10.30
15483 16.5880 99.78 111.04 9.99
15484 16.5890 119.28 111.37 10.92
15485 16.5900 105.85 111.69 10.29
15486 16.5910 107.86 112.03 10.39
15487 16.5920 96.43 112.36 9.82
15488 16.5930 99.77 112.70 9.99
15489 16.5940 104.41 113.04 10.22
15490 16.5950 114.46 113.39 10.70
15491 16.5960 103.65 113.75 10.18
15492 16.5970 107.48 114.10 10.37
15493 16.5980 105.14 114.46 10.25
15494 16.5990 102.62 114.82 10.13
15495 16.6000 112.50 115.18 10.61
15496 16.6010 110.45 115.54 10.51
15497 16.6020 109.06 115.91 10.44
15498 16.6030 103.85 116.29 10.19
15499 16.6040 96.56 116.66 9.83
15500 16.6050 99.74 117.04 9.99
15501 16.6060 119.61 117.42 10.94
15502 16.6070 110.86 117.80 10.53
15503 16.6080 117.64 118.19 10.85
15504 16.6090 116.06 118.57 10.77
15505 16.6100 113.12 118.96 10.64
15506 16.6110 104.41 119.35 10.22
15507 16.6120 104.52 119.75 10.22
15508 16.6130 121.27 120.14 11.01
15509 16.6140 117.50 120.54 10.84
15510 16.6150 108.30 120.93 10.41
15511 16.6160 117.13 121.33 10.82
15512 16.6170 93.93 121.73 9.69
15513 16.6180 108.67 122.13 10.42
15514 16.6190 111.15 122.54 10.54
15515 16.6200 107.18 122.94 10.35
15516 16.6210 118.93 123.34 10.91
15517 16.6220 111.42 123.75 10.56
15518 16.6230 119.61 124.16 10.94
15519 16.6240 124.67 124.57 11.17
15520 16.6250 109.68 124.97 10.47
15521 16.6260 123.25 125.38 11.10
15522 16.6270 132.70 125.78 11.52
15523 16.6280 112.23 126.18 10.59
15524 16.6290 120.76 126.59 10.99
15525 16.6300 119.08 127.00 10.91
15526 16.6310 116.36 127.40 10.79
15527 16.6320 115.29 127.80 10.74
15528 16.6330 124.06 128.21 11.14
15529 16.6340 127.01 128.60 11.27
15530 16.6350 119.15 129.01 10.92
15531 16.6360 124.29 129.41 11.15
15532 16.6370 119.26 129.80 10.92
15533 16.6380 122.54 130.20 11.07
15534 16.6390 125.43 130.59 11.20
15535 16.6400 129.31 130.98 11.37
15536 16.6410 136.61 131.37 11.69
15537 16.6420 143.78 131.76 11.99
15538 16.6430 125.20 132.14 11.19
15539 16.6440 125.84 132.53 11.22
15540 16.6450 130.24 132.91 11.41
15541 16.6460 119.51 133.28 10.93
15542 16.6470 134.04 133.66 11.58
15543 16.6480 124.37 134.03 11.15
15544 16.6490 133.14 134.39 11.54
15545 16.6500 135.27 134.76 11.63
15546 16.6510 128.55 135.11 11.34
15547 16.6520 132.63 135.47 11.52
15548 16.6530 141.09 135.82 11.88
15549 16.6540 146.81 136.16 12.12
15550 16.6550 144.72 136.52 12.03
15551 16.6560 150.79 136.85 12.28
15552 16.6570 163.77 137.18 12.80
15553 16.6580 142.21 137.50 11.93
15554 16.6590 141.60 137.82 11.90
15555 16.6600 163.95 138.13 12.80
15556 16.6610 160.13 138.44 12.65
15557 16.6620 147.22 138.74 12.13
15558 16.6630 153.79 139.03 12.40
15559 16.6640 154.42 139.31 12.43
15560 16.6650 148.15 139.59 12.17
15561 16.6660 176.78 139.86 13.30
15562 16.6670 156.09 140.12 12.49
15563 16.6680 156.44 140.37 12.51
15564 16.6690 150.16 140.61 12.25
15565 16.6700 167.38 140.82 12.94
15566 16.6710 172.08 141.05 13.12
15567 16.6720 172.93 141.27 13.15
15568 16.6730 152.63 141.47 12.35
15569 16.6740 166.18 141.66 12.89
15570 16.6750 156.15 141.85 12.50
15571 16.6760 175.33 142.01 13.24
15572 16.6770 161.46 142.18 12.71
15573 16.6780 160.10 142.33 12.65
15574 16.6790 158.22 142.47 12.58
15575 16.6800 173.77 142.60 13.18
15576 16.6810 163.91 142.73 12.80
15577 16.6820 167.02 142.83 12.92
15578 16.6830 167.13 142.93 12.93
15579 16.6840 166.25 143.01 12.89
15580 16.6850 180.68 143.09 13.44
15581 16.6860 163.96 143.15 12.80
15582 16.6870 173.00 143.20 13.15
15583 16.6880 181.68 143.23 13.48
15584 16.6890 178.02 143.26 13.34
15585 16.6900 180.22 143.27 13.42
15586 16.6910 181.59 143.27 13.48
15587 16.6920 171.69 143.26 13.10
15588 16.6930 160.80 143.23 12.68
15589 16.6940 173.93 143.20 13.19
15590 16.6950 178.28 143.15 13.35
15591 16.6960 164.06 143.10 12.81
15592 16.6970 158.17 143.03 12.58
15593 16.6980 156.66 142.95 12.52
15594 16.6990 159.69 142.85 12.64
15595 16.7000 143.36 142.75 11.97
15596 16.7010 154.56 142.63 12.43
15597 16.7020 154.57 142.51 12.43
15598 16.7030 157.52 142.37 12.55
15599 16.7040 163.12 142.22 12.77
15600 16.7050 159.73 142.06 12.64
15601 16.7060 150.45 141.90 12.27
15602 16.7070 149.98 141.72 12.25
15603 16.7080 146.44 141.54 12.10
15604 16.7090 145.21 141.34 12.05
15605 16.7100 147.66 141.14 12.15
15606 16.7110 134.81 140.93 11.61
15607 16.7120 131.90 140.71 11.48
15608 16.7130 135.21 140.49 11.63
15609 16.7140 132.79 140.26 11.52
15610 16.7150 137.03 140.02 11.71
15611 16.7160 127.64 139.77 11.30
15612 16.7170 130.88 139.52 11.44
15613 16.7180 128.55 139.27 11.34
15614 16.7190 128.98 139.01 11.36
15615 16.7200 124.23 138.74 11.15
15616 16.7210 131.04 138.47 11.45
15617 16.7220 139.00 138.20 11.79
15618 16.7230 131.19 137.92 11.45
15619 16.7240 134.08 137.64 11.58
15620 16.7250 133.15 137.35 11.54
15621 16.7260 124.21 137.06 11.15
15622 16.7270 118.94 136.77 10.91
15623 16.7280 113.99 136.48 10.68
15624 16.7290 113.76 136.19 10.67
15625 16.7300 123.11 135.89 11.10
15626 16.7310 132.43 135.57 11.51
15627 16.7320 130.97 135.27 11.44
15628 16.7330 110.50 134.97 10.51
15629 16.7340 130.05 134.67 11.40
15630 16.7350 127.19 134.36 11.28
15631 16.7360 129.81 134.06 11.39
15632 16.7370 123.90 133.76 11.13
15633 16.7380 116.81 133.46 10.81
15634 16.7390 127.85 133.15 11.31
15635 16.7400 130.62 132.85 11.43
15636 16.7410 127.89 132.55 11.31
15637 16.7420 142.10 132.25 11.92
15638 16.7430 132.69 131.95 11.52
15639 16.7440 115.83 131.65 10.76
15640 16.7450 131.05 131.33 11.45
15641 16.7460 137.42 131.03 11.72
15642 16.7470 125.21 130.73 11.19
15643 16.7480 129.53 130.43 11.38
15644 16.7490 119.43 130.14 10.93
15645 16.7500 103.51 129.85 10.17
15646 16.7510 110.20 129.55 10.50
15647 16.7520 120.51 129.26 10.98
15648 16.7530 117.31 128.97 10.83
15649 16.7540 116.86 128.68 10.81
15650 16.7550 124.76 128.39 11.17
15651 16.7560 118.88 128.11 10.90
15652 16.7570 130.38 127.82 11.42
15653 16.7580 136.45 127.53 11.68
15654 16.7590 126.81 127.25 11.26
15655 16.7600 131.28 126.97 11.46
15656 16.7610 133.70 126.69 11.56
15657 16.7620 136.46 126.41 11.68
15658 16.7630 142.70 126.14 11.95
15659 16.7640 136.65 125.86 11.69
15660 16.7650 128.80 125.59 11.35
15661 16.7660 122.53 125.32 11.07
15662 16.7670 117.86 125.06 10.86
15663 16.7680 139.50 124.79 11.81
15664 16.7690 129.04 124.53 11.36
15665 16.7700 138.51 124.27 11.77
15666 16.7710 126.69 124.01 11.26
15667 16.7720 131.39 123.75 11.46
15668 16.7730 118.81 123.49 10.90
15669 16.7740 136.66 123.24 11.69
15670 16.7750 126.00 122.99 11.23
15671 16.7760 121.84 122.74 11.04
15672 16.7770 114.18 122.49 10.69
15673 16.7780 126.51 122.24 11.25
15674 16.7790 123.35 122.00 11.11
15675 16.7800 120.65 121.76 10.98
15676 16.7810 129.18 121.52 11.37
15677 16.7820 127.65 121.28 11.30
15678 16.7830 118.06 121.04 10.87
15679 16.7840 121.00 120.81 11.00
15680 16.7850 107.46 120.57 10.37
15681 16.7860 115.56 120.34 10.75
15682 16.7870 114.93 120.11 10.72
15683 16.7880 110.72 119.89 10.52
15684 16.7890 121.60 119.66 11.03
15685 16.7900 127.30 119.44 11.28
15686 16.7910 135.10 119.22 11.62
15687 16.7920 128.41 119.00 11.33
15688 16.7930 124.23 118.79 11.15
15689 16.7940 117.51 118.57 10.84
15690 16.7950 114.85 118.36 10.72
15691 16.7960 118.92 118.14 10.90
15692 16.7970 127.49 117.93 11.29
15693 16.7980 125.96 117.73 11.22
15694 16.7990 123.47 117.52 11.11
15695 16.8000 123.63 117.32 11.12
15696 16.8010 124.51 117.11 11.16
15697 16.8020 116.52 116.91 10.79
15698 16.8030 128.54 116.71 11.34
15699 16.8040 120.18 116.51 10.96
15700 16.8050 116.27 116.31 10.78
15701 16.8060 114.65 116.12 10.71
15702 16.8070 120.06 115.92 10.96
15703 16.8080 126.31 115.73 11.24
15704 16.8090 128.01 115.54 11.31
15705 16.8100 124.72 115.35 11.17
15706 16.8110 129.84 115.16 11.39
15707 16.8120 124.20 114.97 11.14
15708 16.8130 125.40 114.79 11.20
15709 16.8140 111.24 114.60 10.55
15710 16.8150 117.34 114.42 10.83
15711 16.8160 121.06 114.23 11.00
15712 16.8170 103.17 114.04 10.16
15713 16.8180 112.18 113.86 10.59
15714 16.8190 117.81 113.68 10.85
15715 16.8200 116.71 113.50 10.80
15716 16.8210 122.11 113.32 11.05
15717 16.8220 134.38 113.15 11.59
15718 16.8230 125.12 112.97 11.19
15719 16.8240 110.14 112.80 10.49
15720 16.8250 119.93 112.62 10.95
15721 16.8260 104.71 112.45 10.23
15722 16.8270 116.82 112.29 10.81
15723 16.8280 129.48 112.12 11.38
15724 16.8290 127.86 111.96 11.31
15725 16.8300 112.07 111.79 10.59
15726 16.8310 112.14 111.62 10.59
15727 16.8320 117.27 111.46 10.83
15728 16.8330 121.69 111.29 11.03
15729 16.8340 114.87 111.10 10.72
15730 16.8350 119.69 110.93 10.94
15731 16.8360 115.99 110.77 10.77
15732 16.8370 117.78 110.61 10.85
15733 16.8380 118.63 110.44 10.89
15734 16.8390 119.64 110.27 10.94
15735 16.8400 124.54 110.11 11.16
15736 16.8410 121.45 109.95 11.02
15737 16.8420 130.83 109.79 11.44
15738 16.8430 120.77 109.63 10.99
15739 16.8440 132.18 109.47 11.50
15740 16.8450 116.22 109.31 10.78
15741 16.8460 116.27 109.15 10.78
15742 16.8470 114.36 108.99 10.69
15743 16.8480 113.46 108.83 10.65
15744 16.8490 118.25 108.67 10.87
15745 16.8500 122.29 108.53 11.06
15746 16.8510 109.72 108.37 10.47
15747 16.8520 116.60 108.21 10.80
15748 16.8530 124.81 108.05 11.17
15749 16.8540 126.08 107.89 11.23
15750 16.8550 112.38 107.73 10.60
15751 16.8560 98.26 107.58 9.91
15752 16.8570 107.53 107.42 10.37
15753 16.8580 100.89 107.25 10.04
15754 16.8590 118.04 107.09 10.86
15755 16.8600 127.52 106.93 11.29
15756 16.8610 120.79 106.76 10.99
15757 16.8620 109.22 106.60 10.45
15758 16.8630 105.26 106.43 10.26
15759 16.8640 116.85 106.27 10.81
15760 16.8650 112.54 106.10 10.61
15761 16.8660 107.49 105.93 10.37
15762 16.8670 115.78 105.76 10.76
15763 16.8680 112.71 105.59 10.62
15764 16.8690 105.38 105.42 10.27
15765 16.8700 108.99 105.24 10.44
15766 16.8710 98.74 105.07 9.94
15767 16.8720 107.12 104.89 10.35
15768 16.8730 100.03 104.72 10.00
15769 16.8740 97.53 104.54 9.88
15770 16.8750 99.68 104.36 9.98
15771 16.8760 116.21 104.18 10.78
15772 16.8770 97.17 104.00 9.86
15773 16.8780 95.23 103.84 9.76
15774 16.8790 98.07 103.66 9.90
15775 16.8800 96.77 103.47 9.84
15776 16.8810 100.10 103.29 10.01
15777 16.8820 92.51 103.10 9.62
15778 16.8830 93.89 102.92 9.69
15779 16.8840 97.80 102.73 9.89
15780 16.8850 103.39 102.54 10.17
15781 16.8860 111.81 102.35 10.57
15782 16.8870 100.74 102.16 10.04
15783 16.8880 86.50 101.97 9.30
15784 16.8890 86.69 101.78 9.31
15785 16.8900 92.30 101.59 9.61
15786 16.8910 104.26 101.39 10.21
15787 16.8920 89.44 101.20 9.46
15788 16.8930 78.01 101.01 8.83
15789 16.8940 83.33 100.82 9.13
15790 16.8950 85.81 100.62 9.26
15791 16.8960 96.91 100.42 9.84
15792 16.8970 85.44 100.23 9.24
15793 16.8980 75.42 100.04 8.68
15794 16.8990 89.18 99.85 9.44
15795 16.9000 89.53 99.65 9.46
15796 16.9010 87.16 99.46 9.34
15797 16.9020 88.13 99.27 9.39
15798 16.9030 96.60 99.07 9.83
15799 16.9040 100.67 98.88 10.03
15800 16.9050 88.60 98.69 9.41
15801 16.9060 84.36 98.50 9.18
15802 16.9070 89.36 98.31 9.45
15803 16.9080 92.99 98.13 9.64
15804 16.9090 94.23 97.95 9.71
15805 16.9100 96.62 97.76 9.83
15806 16.9110 84.74 97.57 9.21
15807 16.9120 81.62 97.39 9.03
15808 16.9130 85.36 97.21 9.24
15809 16.9140 88.17 97.03 9.39
15810 16.9150 90.04 96.85 9.49
15811 16.9160 87.96 96.63 9.38
15812 16.9170 85.11 96.46 9.23
15813 16.9180 93.12 96.28 9.65
15814 16.9190 105.94 96.11 10.29
15815 16.9200 86.67 95.94 9.31
15816 16.9210 77.14 95.77 8.78
15817 16.9220 95.76 95.60 9.79
15818 16.9230 99.23 95.43 9.96
15819 16.9240 91.13 95.27 9.55
15820 16.9250 83.72 95.10 9.15
15821 16.9260 87.99 94.94 9.38
15822 16.9270 96.26 94.78 9.81
15823 16.9280 89.11 94.63 9.44
15824 16.9290 100.38 94.47 10.02
15825 16.9300 86.35 94.32 9.29
15826 16.9310 95.10 94.17 9.75
15827 16.9320 97.10 94.02 9.85
15828 16.9330 97.37 93.87 9.87
15829 16.9340 95.07 93.72 9.75
15830 16.9350 86.73 93.58 9.31
15831 16.9360 96.92 93.43 9.84
15832 16.9370 98.93 93.29 9.95
15833 16.9380 96.99 93.15 9.85
15834 16.9390 101.17 93.02 10.06
15835 16.9400 96.66 92.88 9.83
15836 16.9410 103.72 92.75 10.18
15837 16.9420 109.12 92.62 10.45
15838 16.9430 88.42 92.49 9.40
15839 16.9440 97.31 92.36 9.86
15840 16.9450 90.63 92.23 9.52
15841 16.9460 92.77 92.12 9.63
15842 16.9470 86.87 91.99 9.32
15843 16.9480 97.07 91.87 9.85
15844 16.9490 90.17 91.75 9.50
15845 16.9500 102.29 91.63 10.11
15846 16.9510 93.92 91.51 9.69
15847 16.9520 85.60 91.40 9.25
15848 16.9530 91.13 91.29 9.55
15849 16.9540 85.53 91.17 9.25
15850 16.9550 80.25 91.06 8.96
15851 16.9560 86.45 90.95 9.30
15852 16.9570 94.44 90.85 9.72
15853 16.9580 98.32 90.74 9.92
15854 16.9590 86.75 90.63 9.31
15855 16.9600 87.71 90.53 9.37
15856 16.9610 84.75 90.43 9.21
15857 16.9620 83.00 90.33 9.11
15858 16.9630 79.29 90.23 8.90
15859 16.9640 77.56 90.13 8.81
15860 16.9650 104.97 90.03 10.25
15861 16.9660 102.95 89.94 10.15
15862 16.9670 85.12 89.84 9.23
15863 16.9680 88.02 89.75 9.38
15864 16.9690 93.59 89.66 9.67
15865 16.9700 94.69 89.57 9.73
15866 16.9710 91.65 89.48 9.57
15867 16.9720 90.89 89.39 9.53
15868 16.9730 77.85 89.31 8.82
15869 16.9740 77.37 89.22 8.80
15870 16.9750 88.52 89.14 9.41
15871 16.9760 85.19 89.03 9.23
15872 16.9770 79.52 88.95 8.92
15873 16.9780 78.93 88.87 8.88
15874 16.9790 89.99 88.80 9.49
15875 16.9800 90.44 88.72 9.51
15876 16.9810 101.39 88.65 10.07
15877 16.9820 97.76 88.57 9.89
15878 16.9830 87.07 88.50 9.33
15879 16.9840 84.37 88.43 9.19
15880 16.9850 82.80 88.35 9.10
15881 16.9860 87.05 88.29 9.33
15882 16.9870 85.73 88.22 9.26
15883 16.9880 78.68 88.16 8.87
15884 16.9890 67.92 88.10 8.24
15885 16.9900 78.26 88.04 8.85
15886 16.9910 87.98 87.98 9.38
15887 16.9920 89.67 87.92 9.47
15888 16.9930 85.09 87.87 9.22
15889 16.9940 82.20 87.81 9.07
15890 16.9950 83.62 87.76 9.14
15891 16.9960 92.20 87.71 9.60
15892 16.9970 85.47 87.66 9.24
15893 16.9980 83.09 87.62 9.12
15894 16.9990 77.60 87.57 8.81
15895 17.0000 93.31 87.55 9.66
15896 17.0010 83.50 87.50 9.14
15897 17.0020 91.53 87.46 9.57
15898 17.0030 94.73 87.43 9.73
15899 17.0040 88.62 87.39 9.41
15900 17.0050 80.74 87.37 8.99
15901 17.0060 95.27 87.34 9.76
15902 17.0070 94.17 87.31 9.70
15903 17.0080 88.42 87.28 9.40
15904 17.0090 93.97 87.25 9.69
15905 17.0100 87.46 87.23 9.35
15906 17.0110 75.09 87.20 8.67
15907 17.0120 92.37 87.18 9.61
15908 17.0130 84.45 87.16 9.19
15909 17.0140 92.08 87.14 9.60
15910 17.0150 88.46 87.13 9.41
15911 17.0160 92.47 87.11 9.62
15912 17.0170 80.25 87.10 8.96
15913 17.0180 87.42 87.09 9.35
15914 17.0190 89.64 87.08 9.47
15915 17.0200 86.46 87.07 9.30
15916 17.0210 86.19 87.06 9.28
15917 17.0220 90.16 87.06 9.50
15918 17.0230 86.06 87.05 9.28
15919 17.0240 101.50 87.06 10.07
15920 17.0250 91.67 87.06 9.57
15921 17.0260 95.42 87.06 9.77
15922 17.0270 94.85 87.06 9.74
15923 17.0280 82.19 87.07 9.07
15924 17.0290 95.72 87.07 9.78
15925 17.0300 85.96 87.08 9.27
15926 17.0310 99.97 87.08 10.00
15927 17.0320 84.38 87.10 9.19
15928 17.0330 97.64 87.10 9.88
15929 17.0340 102.93 87.11 10.15
15930 17.0350 86.30 87.12 9.29
15931 17.0360 91.05 87.13 9.54
15932 17.0370 99.26 87.14 9.96
15933 17.0380 89.68 87.15 9.47
15934 17.0390 103.16 87.17 10.16
15935 17.0400 98.37 87.18 9.92
15936 17.0410 88.13 87.19 9.39
15937 17.0420 86.17 87.20 9.28
15938 17.0430 98.79 87.22 9.94
15939 17.0440 97.29 87.23 9.86
15940 17.0450 98.42 87.24 9.92
15941 17.0460 88.72 87.26 9.42
15942 17.0470 100.99 87.27 10.05
15943 17.0480 113.30 87.28 10.64
15944 17.0490 103.59 87.30 10.18
15945 17.0500 104.50 87.31 10.22
15946 17.0510 104.93 87.32 10.24
15947 17.0520 89.34 87.33 9.45
15948 17.0530 86.15 87.34 9.28
15949 17.0540 104.14 87.35 10.20
15950 17.0550 95.88 87.37 9.79
15951 17.0560 93.96 87.38 9.69
15952 17.0570 91.43 87.38 9.56
15953 17.0580 107.21 87.39 10.35
15954 17.0590 97.50 87.40 9.87
15955 17.0600 96.65 87.41 9.83
15956 17.0610 111.87 87.42 10.58
15957 17.0620 106.93 87.42 10.34
15958 17.0630 108.76 87.43 10.43
15959 17.0640 101.96 87.43 10.10
15960 17.0650 107.13 87.43 10.35
15961 17.0660 104.29 87.43 10.21
15962 17.0670 100.27 87.44 10.01
15963 17.0680 85.58 87.44 9.25
15964 17.0690 96.54 87.43 9.83
15965 17.0700 94.75 87.43 9.73
15966 17.0710 98.25 87.43 9.91
15967 17.0720 97.90 87.43 9.89
15968 17.0730 95.75 87.42 9.79
15969 17.0740 109.71 87.42 10.47
15970 17.0750 100.56 87.41 10.03
15971 17.0760 102.97 87.40 10.15
15972 17.0770 97.65 87.39 9.88
15973 17.0780 103.63 87.38 10.18
15974 17.0790 92.27 87.37 9.61
15975 17.0800 97.96 87.36 9.90
15976 17.0810 90.57 87.35 9.52
15977 17.0820 92.70 87.34 9.63
15978 17.0830 91.99 87.33 9.59
15979 17.0840 92.63 87.33 9.62
15980 17.0850 88.21 87.31 9.39
15981 17.0860 95.88 87.30 9.79
15982 17.0870 93.57 87.29 9.67
15983 17.0880 87.49 87.27 9.35
15984 17.0890 90.03 87.26 9.49
15985 17.0900 93.23 87.25 9.66
15986 17.0910 82.12 87.23 9.06
15987 17.0920 87.25 87.22 9.34
15988 17.0930 97.59 87.20 9.88
15989 17.0940 85.36 87.19 9.24
15990 17.0950 93.34 87.18 9.66
15991 17.0960 94.52 87.16 9.72
15992 17.0970 108.56 87.15 10.42
15993 17.0980 104.06 87.14 10.20
15994 17.0990 90.02 87.13 9.49
15995 17.1000 97.74 87.11 9.89
15996 17.1010 97.25 87.10 9.86
15997 17.1020 92.42 87.09 9.61
15998 17.1030 86.78 87.08 9.32
15999 17.1040 101.66 87.07 10.08
16000 17.1050 91.37 87.06 9.56
16001 17.1060 92.16 87.05 9.60
16002 17.1070 103.25 87.05 10.16
16003 17.1080 91.92 87.04 9.59
16004 17.1090 99.32 87.03 9.97
16005 17.1100 99.68 87.02 9.98
16006 17.1110 92.53 87.02 9.62
16007 17.1120 95.08 87.01 9.75
16008 17.1130 86.62 87.01 9.31
16009 17.1140 89.74 87.01 9.47
16010 17.1150 82.70 87.00 9.09
16011 17.1160 83.37 87.00 9.13
16012 17.1170 95.49 87.00 9.77
16013 17.1180 88.93 87.00 9.43
16014 17.1190 83.04 87.00 9.11
16015 17.1200 82.66 87.00 9.09
16016 17.1210 93.38 87.00 9.66
16017 17.1220 90.23 87.01 9.50
16018 17.1230 89.80 87.01 9.48
16019 17.1240 82.06 87.01 9.06
16020 17.1250 86.45 87.01 9.30
16021 17.1260 78.21 87.01 8.84
16022 17.1270 78.30 87.02 8.85
16023 17.1280 70.54 87.02 8.40
16024 17.1290 86.41 87.02 9.30
16025 17.1300 97.49 87.03 9.87
16026 17.1310 84.80 87.03 9.21
16027 17.1320 80.18 87.03 8.95
16028 17.1330 88.99 87.03 9.43
16029 17.1340 88.96 87.04 9.43
16030 17.1350 85.46 87.04 9.24
16031 17.1360 83.27 87.03 9.13
16032 17.1370 85.55 87.03 9.25
16033 17.1380 81.69 87.03 9.04
16034 17.1390 82.27 87.03 9.07
16035 17.1400 86.22 87.03 9.29
16036 17.1410 91.06 87.03 9.54
16037 17.1420 88.14 87.03 9.39
16038 17.1430 90.55 87.03 9.52
16039 17.1440 100.29 87.03 10.01
16040 17.1450 78.56 87.02 8.86
16041 17.1460 92.39 87.02 9.61
16042 17.1470 89.22 87.02 9.45
16043 17.1480 93.52 87.00 9.67
16044 17.1490 80.94 87.00 9.00
16045 17.1500 89.20 86.99 9.44
16046 17.1510 78.61 86.99 8.87
16047 17.1520 89.64 86.98 9.47
16048 17.1530 75.18 86.97 8.67
16049 17.1540 86.64 86.96 9.31
16050 17.1550 88.42 86.95 9.40
16051 17.1560 89.68 86.94 9.47
16052 17.1570 78.99 86.92 8.89
16053 17.1580 83.23 86.91 9.12
16054 17.1590 77.49 86.89 8.80
16055 17.1600 66.99 86.88 8.18
16056 17.1610 79.19 86.87 8.90
16057 17.1620 83.46 86.85 9.14
16058 17.1630 92.76 86.83 9.63
16059 17.1640 95.32 86.81 9.76
16060 17.1650 90.08 86.79 9.49
16061 17.1660 84.34 86.77 9.18
16062 17.1670 82.46 86.75 9.08
16063 17.1680 80.88 86.72 8.99
16064 17.1690 94.16 86.70 9.70
16065 17.1700 104.13 86.63 10.20
16066 17.1710 82.69 86.60 9.09
16067 17.1720 75.21 86.57 8.67
16068 17.1730 75.01 86.54 8.66
16069 17.1740 80.14 86.51 8.95
16070 17.1750 80.21 86.48 8.96
16071 17.1760 65.52 86.45 8.09
16072 17.1770 81.57 86.42 9.03
16073 17.1780 89.41 86.38 9.46
16074 17.1790 88.76 86.36 9.42
16075 17.1800 86.22 86.32 9.29
16076 17.1810 88.52 86.29 9.41
16077 17.1820 80.30 86.25 8.96
16078 17.1830 79.63 86.21 8.92
16079 17.1840 81.79 86.17 9.04
16080 17.1850 86.28 86.13 9.29
16081 17.1860 91.40 86.09 9.56
16082 17.1870 96.58 86.04 9.83
16083 17.1880 98.45 86.00 9.92
16084 17.1890 88.70 85.95 9.42
16085 17.1900 82.36 85.91 9.08
16086 17.1910 81.14 85.86 9.01
16087 17.1920 89.14 85.81 9.44
16088 17.1930 81.99 85.76 9.05
16089 17.1940 97.02 85.71 9.85
16090 17.1950 87.66 85.67 9.36
16091 17.1960 74.63 85.62 8.64
16092 17.1970 86.36 85.56 9.29
16093 17.1980 84.54 85.50 9.19
16094 17.1990 85.43 85.45 9.24
16095 17.2000 91.72 85.39 9.58
16096 17.2010 88.68 85.33 9.42
16097 17.2020 78.12 85.28 8.84
16098 17.2030 84.24 85.22 9.18
16099 17.2040 85.12 85.16 9.23
16100 17.2050 79.51 85.09 8.92
16101 17.2060 86.97 85.03 9.33
16102 17.2070 100.63 84.97 10.03
16103 17.2080 85.60 84.90 9.25
16104 17.2090 85.76 84.84 9.26
16105 17.2100 92.29 84.77 9.61
16106 17.2110 85.34 84.70 9.24
16107 17.2120 87.50 84.63 9.35
16108 17.2130 104.44 84.56 10.22
16109 17.2140 87.29 84.49 9.34
16110 17.2150 92.97 84.42 9.64
16111 17.2160 93.54 84.35 9.67
16112 17.2170 94.29 84.28 9.71
16113 17.2180 96.28 84.20 9.81
16114 17.2190 85.35 84.13 9.24
16115 17.2200 75.07 84.05 8.66
16116 17.2210 86.36 83.98 9.29
16117 17.2220 92.38 83.90 9.61
16118 17.2230 77.71 83.83 8.82
16119 17.2240 82.82 83.75 9.10
16120 17.2250 81.80 83.68 9.04
16121 17.2260 89.64 83.60 9.47
16122 17.2270 81.16 83.53 9.01
16123 17.2280 82.34 83.45 9.07
16124 17.2290 87.01 83.37 9.33
16125 17.2300 79.61 83.30 8.92
16126 17.2310 84.77 83.22 9.21
16127 17.2320 75.66 83.15 8.70
16128 17.2330 86.08 83.07 9.28
16129 17.2340 86.79 82.99 9.32
16130 17.2350 81.80 82.93 9.04
16131 17.2360 74.06 82.85 8.61
16132 17.2370 82.33 82.78 9.07
16133 17.2380 82.79 82.70 9.10
16134 17.2390 81.92 82.63 9.05
16135 17.2400 69.52 82.56 8.34
16136 17.2410 77.41 82.48 8.80
16137 17.2420 88.91 82.41 9.43
16138 17.2430 81.12 82.34 9.01
16139 17.2440 82.57 82.28 9.09
16140 17.2450 75.74 82.21 8.70
16141 17.2460 79.52 82.14 8.92
16142 17.2470 92.09 82.07 9.60
16143 17.2480 80.01 82.02 8.94
16144 17.2490 95.80 81.95 9.79
16145 17.2500 84.44 81.89 9.19
16146 17.2510 84.49 81.83 9.19
16147 17.2520 83.98 81.77 9.16
16148 17.2530 91.51 81.71 9.57
16149 17.2540 87.61 81.65 9.36
16150 17.2550 76.82 81.59 8.76
16151 17.2560 84.14 81.53 9.17
16152 17.2570 77.64 81.48 8.81
16153 17.2580 94.70 81.43 9.73
16154 17.2590 97.09 81.37 9.85
16155 17.2600 82.88 81.32 9.10
16156 17.2610 94.04 81.27 9.70
16157 17.2620 84.37 81.22 9.19
16158 17.2630 78.95 81.18 8.89
16159 17.2640 85.81 81.13 9.26
16160 17.2650 85.97 81.09 9.27
16161 17.2660 82.76 81.04 9.10
16162 17.2670 79.85 81.00 8.94
16163 17.2680 85.91 80.96 9.27
16164 17.2690 86.37 80.92 9.29
16165 17.2700 84.03 80.88 9.17
16166 17.2710 85.68 80.84 9.26
16167 17.2720 80.84 80.81 8.99
16168 17.2730 85.98 80.77 9.27
16169 17.2740 88.34 80.74 9.40
16170 17.2750 86.70 80.70 9.31
16171 17.2760 87.48 80.67 9.35
16172 17.2770 74.76 80.66 8.65
16173 17.2780 90.16 80.62 9.50
16174 17.2790 92.71 80.59 9.63
16175 17.2800 81.10 80.56 9.01
16176 17.2810 91.81 80.54 9.58
16177 17.2820 82.17 80.51 9.06
16178 17.2830 75.02 80.49 8.66
16179 17.2840 86.45 80.46 9.30
16180 17.2850 89.53 80.44 9.46
16181 17.2860 83.29 80.42 9.13
16182 17.2870 83.51 80.40 9.14
16183 17.2880 73.48 80.38 8.57
16184 17.2890 93.16 80.36 9.65
16185 17.2900 80.98 80.34 9.00
16186 17.2910 78.70 80.32 8.87
16187 17.2920 83.92 80.31 9.16
16188 17.2930 85.00 80.29 9.22
16189 17.2940 85.14 80.28 9.23
16190 17.2950 89.07 80.26 9.44
16191 17.2960 88.70 80.25 9.42
16192 17.2970 82.45 80.24 9.08
16193 17.2980 77.49 80.23 8.80
16194 17.2990 78.52 80.22 8.86
16195 17.3000 86.97 80.21 9.33
16196 17.3010 81.97 80.21 9.05
16197 17.3020 77.05 80.20 8.78
16198 17.3030 78.87 80.19 8.88
16199 17.3040 82.18 80.19 9.07
16200 17.3050 75.55 80.18 8.69
16201 17.3060 76.61 80.18 8.75
16202 17.3070 87.15 80.18 9.34
16203 17.3080 81.27 80.18 9.01
16204 17.3090 69.95 80.18 8.36
16205 17.3100 91.71 80.18 9.58
16206 17.3110 84.82 80.18 9.21
16207 17.3120 86.61 80.18 9.31
16208 17.3130 93.04 80.17 9.65
16209 17.3140 89.91 80.18 9.48
16210 17.3150 88.31 80.18 9.40
16211 17.3160 84.25 80.19 9.18
16212 17.3170 104.04 80.20 10.20
16213 17.3180 95.27 80.20 9.76
16214 17.3190 92.72 80.21 9.63
16215 17.3200 87.82 80.22 9.37
16216 17.3210 93.51 80.23 9.67
16217 17.3220 79.72 80.25 8.93
16218 17.3230 87.94 80.26 9.38
16219 17.3240 81.27 80.27 9.01
16220 17.3250 89.41 80.29 9.46
16221 17.3260 89.56 80.29 9.46
16222 17.3270 89.69 80.31 9.47
16223 17.3280 75.09 80.33 8.67
16224 17.3290 80.30 80.35 8.96
16225 17.3300 73.80 80.37 8.59
16226 17.3310 72.76 80.39 8.53
16227 17.3320 80.75 80.43 8.99
16228 17.3330 93.44 80.45 9.67
16229 17.3340 86.75 80.47 9.31
16230 17.3350 82.09 80.50 9.06
16231 17.3360 84.75 80.55 9.21
16232 17.3370 77.88 80.57 8.82
16233 17.3380 81.33 80.60 9.02
16234 17.3390 83.78 80.63 9.15
16235 17.3400 93.66 80.66 9.68
16236 17.3410 87.54 80.69 9.36
16237 17.3420 82.71 80.72 9.09
16238 17.3430 80.33 80.76 8.96
16239 17.3440 81.37 80.79 9.02
16240 17.3450 93.94 80.83 9.69
16241 17.3460 70.88 80.86 8.42
16242 17.3470 86.39 80.90 9.29
16243 17.3480 75.78 80.94 8.71
16244 17.3490 77.46 80.98 8.80
16245 17.3500 84.39 81.03 9.19
16246 17.3510 87.68 81.07 9.36
16247 17.3520 74.64 81.12 8.64
16248 17.3530 79.75 81.16 8.93
16249 17.3540 78.56 81.21 8.86
16250 17.3550 71.29 81.26 8.44
16251 17.3560 84.57 81.31 9.20
16252 17.3570 68.93 81.37 8.30
16253 17.3580 75.01 81.42 8.66
16254 17.3590 78.52 81.48 8.86
16255 17.3600 76.69 81.54 8.76
16256 17.3610 81.14 81.60 9.01
16257 17.3620 72.66 81.66 8.52
16258 17.3630 85.49 81.72 9.25
16259 17.3640 78.26 81.79 8.85
16260 17.3650 76.72 81.86 8.76
16261 17.3660 78.98 81.93 8.89
16262 17.3670 81.06 82.00 9.00
16263 17.3680 76.65 82.07 8.76
16264 17.3690 82.32 82.15 9.07
16265 17.3700 82.14 82.23 9.06
16266 17.3710 72.97 82.31 8.54
16267 17.3720 82.75 82.39 9.10
16268 17.3730 90.96 82.48 9.54
16269 17.3740 74.71 82.56 8.64
16270 17.3750 92.75 82.65 9.63
16271 17.3760 84.58 82.75 9.20
16272 17.3770 78.41 82.84 8.85
16273 17.3780 83.15 82.94 9.12
16274 17.3790 86.14 83.04 9.28
16275 17.3800 77.78 83.14 8.82
16276 17.3810 93.77 83.24 9.68
16277 17.3820 95.13 83.35 9.75
16278 17.3830 80.46 83.46 8.97
16279 17.3840 88.08 83.57 9.39
16280 17.3850 85.84 83.69 9.26
16281 17.3860 74.55 83.80 8.63
16282 17.3870 88.09 83.92 9.39
16283 17.3880 70.92 84.05 8.42
16284 17.3890 60.98 84.17 7.81
16285 17.3900 79.34 84.30 8.91
16286 17.3910 85.45 84.43 9.24
16287 17.3920 80.66 84.56 8.98
16288 17.3930 72.99 84.70 8.54
16289 17.3940 72.27 84.83 8.50
16290 17.3950 85.63 84.98 9.25
16291 17.3960 81.77 85.12 9.04
16292 17.3970 87.14 85.26 9.33
16293 17.3980 80.57 85.41 8.98
16294 17.3990 94.79 85.56 9.74
16295 17.4000 82.12 85.72 9.06
16296 17.4010 89.46 85.87 9.46
16297 17.4020 72.58 86.03 8.52
16298 17.4030 82.04 86.19 9.06
16299 17.4040 70.73 86.35 8.41
16300 17.4050 86.39 86.52 9.29
16301 17.4060 90.16 86.68 9.50
16302 17.4070 86.89 86.85 9.32
16303 17.4080 80.61 87.03 8.98
16304 17.4090 78.58 87.20 8.86
16305 17.4100 74.70 87.37 8.64
16306 17.4110 81.13 87.55 9.01
16307 17.4120 85.55 87.73 9.25
16308 17.4130 97.17 87.91 9.86
16309 17.4140 97.26 88.09 9.86
16310 17.4150 87.37 88.28 9.35
16311 17.4160 79.58 88.46 8.92
16312 17.4170 81.92 88.65 9.05
16313 17.4180 84.95 88.84 9.22
16314 17.4190 86.76 89.03 9.31
16315 17.4200 92.64 89.21 9.62
16316 17.4210 90.49 89.41 9.51
16317 17.4220 79.93 89.60 8.94
16318 17.4230 96.65 89.79 9.83
16319 17.4240 97.39 89.98 9.87
16320 17.4250 83.26 90.18 9.12
16321 17.4260 95.97 90.37 9.80
16322 17.4270 97.77 90.57 9.89
16323 17.4280 90.39 90.76 9.51
16324 17.4290 96.73 90.97 9.84
16325 17.4300 93.03 91.16 9.65
16326 17.4310 91.73 91.35 9.58
16327 17.4320 85.08 91.55 9.22
16328 17.4330 99.78 91.74 9.99
16329 17.4340 104.82 91.93 10.24
16330 17.4350 99.36 92.12 9.97
16331 17.4360 107.62 92.31 10.37
16332 17.4370 94.19 92.50 9.71
16333 17.4380 102.46 92.69 10.12
16334 17.4390 101.30 92.85 10.06
16335 17.4400 100.01 93.03 10.00
16336 17.4410 93.70 93.21 9.68
16337 17.4420 84.98 93.39 9.22
16338 17.4430 80.64 93.56 8.98
16339 17.4440 87.32 93.73 9.34
16340 17.4450 96.07 93.90 9.80
16341 17.4460 100.68 94.07 10.03
16342 17.4470 95.05 94.23 9.75
16343 17.4480 102.10 94.39 10.10
16344 17.4490 98.58 94.54 9.93
16345 17.4500 94.61 94.69 9.73
16346 17.4510 105.04 94.84 10.25
16347 17.4520 101.64 94.98 10.08
16348 17.4530 107.37 95.12 10.36
16349 17.4540 114.22 95.25 10.69
16350 17.4550 105.56 95.38 10.27
16351 17.4560 108.67 95.51 10.42
16352 17.4570 105.85 95.62 10.29
16353 17.4580 98.93 95.74 9.95
16354 17.4590 92.30 95.84 9.61
16355 17.4600 106.60 95.95 10.32
16356 17.4610 102.88 96.04 10.14
16357 17.4620 96.86 96.13 9.84
16358 17.4630 96.26 96.22 9.81
16359 17.4640 110.35 96.30 10.50
16360 17.4650 110.66 96.37 10.52
16361 17.4660 97.71 96.43 9.88
16362 17.4670 90.40 96.50 9.51
16363 17.4680 94.55 96.55 9.72
16364 17.4690 106.09 96.60 10.30
16365 17.4700 104.69 96.64 10.23
16366 17.4710 96.53 96.68 9.82
16367 17.4720 92.07 96.70 9.60
16368 17.4730 81.67 96.73 9.04
16369 17.4740 106.35 96.75 10.31
16370 17.4750 101.60 96.76 10.08
16371 17.4760 102.57 96.76 10.13
16372 17.4770 101.60 96.76 10.08
16373 17.4780 94.08 96.76 9.70
16374 17.4790 95.07 96.74 9.75
16375 17.4800 98.66 96.72 9.93
16376 17.4810 102.60 96.70 10.13
16377 17.4820 96.47 96.67 9.82
16378 17.4830 88.76 96.63 9.42
16379 17.4840 101.72 96.59 10.09
16380 17.4850 93.22 96.54 9.66
16381 17.4860 104.37 96.49 10.22
16382 17.4870 88.65 96.43 9.42
16383 17.4880 95.72 96.37 9.78
16384 17.4890 106.86 96.31 10.34
16385 17.4900 87.95 96.24 9.38
16386 17.4910 89.96 96.16 9.48
16387 17.4920 79.37 96.08 8.91
16388 17.4930 107.89 96.00 10.39
16389 17.4940 108.03 95.91 10.39
16390 17.4950 108.03 95.81 10.39
16391 17.4960 88.05 95.71 9.38
16392 17.4970 87.35 95.62 9.35
16393 17.4980 90.86 95.52 9.53
16394 17.4990 90.65 95.41 9.52
16395 17.5000 94.74 95.31 9.73
16396 17.5010 88.79 95.20 9.42
16397 17.5020 100.79 95.09 10.04
16398 17.5030 96.79 94.97 9.84
16399 17.5040 85.95 94.86 9.27
16400 17.5050 83.91 94.74 9.16
16401 17.5060 90.35 94.62 9.51
16402 17.5070 97.58 94.50 9.88
16403 17.5080 90.99 94.38 9.54
16404 17.5090 101.33 94.26 10.07
16405 17.5100 85.43 94.14 9.24
16406 17.5110 74.42 94.01 8.63
16407 17.5120 87.58 93.89 9.36
16408 17.5130 83.18 93.77 9.12
16409 17.5140 82.92 93.64 9.11
16410 17.5150 80.63 93.51 8.98
16411 17.5160 95.30 93.39 9.76
16412 17.5170 90.66 93.26 9.52
16413 17.5180 80.58 93.14 8.98
16414 17.5190 78.14 93.02 8.84
16415 17.5200 82.50 92.89 9.08
16416 17.5210 76.70 92.77 8.76
16417 17.5220 82.59 92.65 9.09
16418 17.5230 90.55 92.53 9.52
16419 17.5240 82.43 92.41 9.08
16420 17.5250 88.52 92.29 9.41
16421 17.5260 96.66 92.17 9.83
16422 17.5270 91.67 92.06 9.57
16423 17.5280 99.64 91.95 9.98
16424 17.5290 99.61 91.84 9.98
16425 17.5300 84.38 91.73 9.19
16426 17.5310 95.78 91.62 9.79
16427 17.5320 87.54 91.51 9.36
16428 17.5330 77.13 91.41 8.78
16429 17.5340 92.93 91.31 9.64
16430 17.5350 85.35 91.21 9.24
16431 17.5360 78.14 91.12 8.84
16432 17.5370 100.61 91.03 10.03
16433 17.5380 107.72 90.94 10.38
16434 17.5390 95.95 90.85 9.80
16435 17.5400 100.76 90.77 10.04
16436 17.5410 96.06 90.69 9.80
16437 17.5420 85.15 90.61 9.23
16438 17.5430 86.75 90.54 9.31
16439 17.5440 86.68 90.47 9.31
16440 17.5450 90.92 90.40 9.54
16441 17.5460 103.00 90.34 10.15
16442 17.5470 83.51 90.29 9.14
16443 17.5480 92.68 90.21 9.63
16444 17.5490 89.59 90.16 9.47
16445 17.5500 102.01 90.11 10.10
16446 17.5510 80.53 90.07 8.97
16447 17.5520 80.61 90.03 8.98
16448 17.5530 95.06 90.00 9.75
16449 17.5540 95.94 89.97 9.79
16450 17.5550 102.34 89.94 10.12
16451 17.5560 85.56 89.92 9.25
16452 17.5570 88.78 89.90 9.42
16453 17.5580 88.53 89.88 9.41
16454 17.5590 87.35 89.88 9.35
16455 17.5600 91.93 89.87 9.59
16456 17.5610 100.80 89.87 10.04
16457 17.5620 92.13 89.87 9.60
16458 17.5630 95.73 89.88 9.78
16459 17.5640 87.37 89.90 9.35
16460 17.5650 95.76 89.91 9.79
16461 17.5660 106.44 89.93 10.32
16462 17.5670 101.75 89.96 10.09
16463 17.5680 98.90 89.99 9.94
16464 17.5690 96.96 90.02 9.85
16465 17.5700 98.02 90.06 9.90
16466 17.5710 103.35 90.11 10.17
16467 17.5720 101.62 90.16 10.08
16468 17.5730 96.18 90.21 9.81
16469 17.5740 95.31 90.27 9.76
16470 17.5750 95.27 90.33 9.76
16471 17.5760 121.47 90.40 11.02
16472 17.5770 107.81 90.47 10.38
16473 17.5780 111.17 90.54 10.54
16474 17.5790 88.27 90.62 9.40
16475 17.5800 81.59 90.70 9.03
16476 17.5810 99.01 90.79 9.95
16477 17.5820 94.54 90.88 9.72
16478 17.5830 91.84 90.97 9.58
16479 17.5840 109.19 91.07 10.45
16480 17.5850 101.42 91.18 10.07
16481 17.5860 88.24 91.28 9.39
16482 17.5870 95.51 91.40 9.77
16483 17.5880 90.88 91.51 9.53
16484 17.5890 106.99 91.63 10.34
16485 17.5900 89.88 91.75 9.48
16486 17.5910 108.59 91.87 10.42
16487 17.5920 111.56 92.00 10.56
16488 17.5930 102.23 92.13 10.11
16489 17.5940 97.76 92.27 9.89
16490 17.5950 90.89 92.41 9.53
16491 17.5960 95.93 92.55 9.79
16492 17.5970 105.41 92.69 10.27
16493 17.5980 92.49 92.84 9.62
16494 17.5990 106.90 92.99 10.34
16495 17.6000 108.54 93.14 10.42
16496 17.6010 111.71 93.29 10.57
16497 17.6020 102.97 93.45 10.15
16498 17.6030 103.84 93.59 10.19
16499 17.6040 117.68 93.75 10.85
16500 17.6050 113.00 93.92 10.63
16501 17.6060 102.39 94.08 10.12
16502 17.6070 103.08 94.25 10.15
16503 17.6080 101.53 94.42 10.08
16504 17.6090 107.53 94.59 10.37
16505 17.6100 102.20 94.76 10.11
16506 17.6110 114.37 94.93 10.69
16507 17.6120 125.24 95.11 11.19
16508 17.6130 109.06 95.29 10.44
16509 17.6140 110.36 95.47 10.51
16510 17.6150 119.49 95.65 10.93
16511 17.6160 113.06 95.83 10.63
16512 17.6170 98.83 96.01 9.94
16513 17.6180 99.25 96.19 9.96
16514 17.6190 104.23 96.38 10.21
16515 17.6200 104.21 96.56 10.21
16516 17.6210 102.97 96.75 10.15
16517 17.6220 99.01 96.94 9.95
16518 17.6230 105.67 97.13 10.28
16519 17.6240 104.15 97.32 10.21
16520 17.6250 112.80 97.51 10.62
16521 17.6260 105.06 97.70 10.25
16522 17.6270 110.09 97.89 10.49
16523 17.6280 112.46 98.09 10.60
16524 17.6290 111.35 98.28 10.55
16525 17.6300 119.44 98.48 10.93
16526 17.6310 106.28 98.67 10.31
16527 17.6320 115.79 98.87 10.76
16528 17.6330 115.21 99.07 10.73
16529 17.6340 110.05 99.27 10.49
16530 17.6350 105.56 99.47 10.27
16531 17.6360 109.82 99.68 10.48
16532 17.6370 99.13 99.88 9.96
16533 17.6380 100.11 100.08 10.01
16534 17.6390 115.16 100.28 10.73
16535 17.6400 113.60 100.49 10.66
16536 17.6410 95.90 100.69 9.79
16537 17.6420 107.62 100.90 10.37
16538 17.6430 97.89 101.11 9.89
16539 17.6440 111.83 101.32 10.57
16540 17.6450 113.36 101.53 10.65
16541 17.6460 111.22 101.74 10.55
16542 17.6470 111.89 101.95 10.58
16543 17.6480 117.13 102.16 10.82
16544 17.6490 100.35 102.35 10.02
16545 17.6500 112.04 102.57 10.58
16546 17.6510 109.33 102.78 10.46
16547 17.6520 113.00 103.00 10.63
16548 17.6530 125.43 103.22 11.20
16549 17.6540 113.40 103.43 10.65
16550 17.6550 109.70 103.65 10.47
16551 17.6560 103.88 103.87 10.19
16552 17.6570 124.60 104.09 11.16
16553 17.6580 109.38 104.31 10.46
16554 17.6590 116.37 104.54 10.79
16555 17.6600 114.52 104.76 10.70
16556 17.6610 112.26 104.98 10.60
16557 17.6620 112.54 105.21 10.61
16558 17.6630 122.28 105.43 11.06
16559 17.6640 119.79 105.66 10.94
16560 17.6650 124.97 105.88 11.18
16561 17.6660 129.30 106.11 11.37
16562 17.6670 136.41 106.34 11.68
16563 17.6680 127.78 106.56 11.30
16564 17.6690 113.89 106.79 10.67
16565 17.6700 116.48 107.02 10.79
16566 17.6710 119.19 107.25 10.92
16567 17.6720 126.04 107.47 11.23
16568 17.6730 128.72 107.70 11.35
16569 17.6740 135.61 107.93 11.65
16570 17.6750 126.92 108.15 11.27
16571 17.6760 137.32 108.38 11.72
16572 17.6770 136.99 108.61 11.70
16573 17.6780 136.57 108.84 11.69
16574 17.6790 119.89 109.06 10.95
16575 17.6800 126.72 109.29 11.26
16576 17.6810 127.16 109.51 11.28
16577 17.6820 140.66 109.73 11.86
16578 17.6830 131.83 109.95 11.48
16579 17.6840 154.18 110.15 12.42
16580 17.6850 138.26 110.38 11.76
16581 17.6860 142.86 110.59 11.95
16582 17.6870 150.55 110.81 12.27
16583 17.6880 137.81 111.02 11.74
16584 17.6890 132.00 111.24 11.49
16585 17.6900 144.66 111.45 12.03
16586 17.6910 132.39 111.65 11.51
16587 17.6920 128.77 111.86 11.35
16588 17.6930 150.13 112.07 12.25
16589 17.6940 144.29 112.27 12.01
16590 17.6950 137.36 112.47 11.72
16591 17.6960 140.06 112.66 11.83
16592 17.6970 134.33 112.86 11.59
16593 17.6980 132.15 113.05 11.50
16594 17.6990 142.97 113.24 11.96
16595 17.7000 146.32 113.43 12.10
16596 17.7010 136.30 113.60 11.67
16597 17.7020 141.95 113.78 11.91
16598 17.7030 129.38 113.96 11.37
16599 17.7040 135.75 114.13 11.65
16600 17.7050 155.48 114.30 12.47
16601 17.7060 141.44 114.46 11.89
16602 17.7070 144.63 114.62 12.03
16603 17.7080 132.93 114.77 11.53
16604 17.7090 133.13 114.93 11.54
16605 17.7100 145.35 115.07 12.06
16606 17.7110 148.56 115.21 12.19
16607 17.7120 154.47 115.35 12.43
16608 17.7130 162.34 115.48 12.74
16609 17.7140 146.13 115.61 12.09
16610 17.7150 139.43 115.73 11.81
16611 17.7160 128.24 115.85 11.32
16612 17.7170 143.46 115.96 11.98
16613 17.7180 155.92 116.07 12.49
16614 17.7190 146.78 116.17 12.12
16615 17.7200 141.32 116.26 11.89
16616 17.7210 141.94 116.35 11.91
16617 17.7220 137.61 116.43 11.73
16618 17.7230 144.08 116.51 12.00
16619 17.7240 133.45 116.58 11.55
16620 17.7250 139.09 116.65 11.79
16621 17.7260 156.33 116.71 12.50
16622 17.7270 163.27 116.76 12.78
16623 17.7280 136.40 116.81 11.68
16624 17.7290 141.64 116.85 11.90
16625 17.7300 121.68 116.88 11.03
16626 17.7310 141.87 116.91 11.91
16627 17.7320 138.71 116.93 11.78
16628 17.7330 135.83 116.95 11.65
16629 17.7340 125.65 116.96 11.21
16630 17.7350 124.96 116.96 11.18
16631 17.7360 131.96 116.95 11.49
16632 17.7370 123.56 116.94 11.12
16633 17.7380 121.43 116.92 11.02
16634 17.7390 121.95 116.89 11.04
16635 17.7400 137.41 116.86 11.72
16636 17.7410 135.51 116.82 11.64
16637 17.7420 119.06 116.78 10.91
16638 17.7430 128.63 116.73 11.34
16639 17.7440 136.56 116.67 11.69
16640 17.7450 134.68 116.61 11.61
16641 17.7460 134.12 116.53 11.58
16642 17.7470 134.16 116.45 11.58
16643 17.7480 124.87 116.38 11.17
16644 17.7490 114.42 116.29 10.70
16645 17.7500 129.03 116.19 11.36
16646 17.7510 133.12 116.09 11.54
16647 17.7520 132.23 115.98 11.50
16648 17.7530 132.47 115.87 11.51
16649 17.7540 123.85 115.75 11.13
16650 17.7550 130.91 115.63 11.44
16651 17.7560 126.41 115.51 11.24
16652 17.7570 121.75 115.38 11.03
16653 17.7580 123.05 115.24 11.09
16654 17.7590 123.79 115.10 11.13
16655 17.7600 124.05 114.95 11.14
16656 17.7610 127.36 114.80 11.29
16657 17.7620 125.23 114.65 11.19
16658 17.7630 122.49 114.48 11.07
16659 17.7640 114.34 114.32 10.69
16660 17.7650 122.77 114.16 11.08
16661 17.7660 110.08 113.99 10.49
16662 17.7670 127.57 113.82 11.29
16663 17.7680 114.86 113.64 10.72
16664 17.7690 125.81 113.46 11.22
16665 17.7700 125.80 113.28 11.22
16666 17.7710 107.13 113.09 10.35
16667 17.7720 121.34 112.90 11.02
16668 17.7730 118.10 112.71 10.87
16669 17.7740 114.22 112.51 10.69
16670 17.7750 107.00 112.31 10.34
16671 17.7760 102.87 112.11 10.14
16672 17.7770 109.73 111.92 10.48
16673 17.7780 111.31 111.71 10.55
16674 17.7790 120.62 111.51 10.98
16675 17.7800 115.81 111.31 10.76
16676 17.7810 114.05 111.10 10.68
16677 17.7820 97.22 110.89 9.86
16678 17.7830 105.12 110.68 10.25
16679 17.7840 115.24 110.46 10.73
16680 17.7850 101.42 110.25 10.07
16681 17.7860 122.48 110.04 11.07
16682 17.7870 113.31 109.82 10.64
16683 17.7880 112.26 109.61 10.60
16684 17.7890 114.30 109.39 10.69
16685 17.7900 120.67 109.17 10.98
16686 17.7910 99.97 108.96 10.00
16687 17.7920 108.97 108.74 10.44
16688 17.7930 106.30 108.52 10.31
16689 17.7940 115.87 108.30 10.76
16690 17.7950 103.12 108.07 10.15
16691 17.7960 95.69 107.85 9.78
16692 17.7970 109.66 107.63 10.47
16693 17.7980 110.56 107.40 10.51
16694 17.7990 115.84 107.18 10.76
16695 17.8000 99.50 106.95 9.97
16696 17.8010 97.69 106.73 9.88
16697 17.8020 98.47 106.50 9.92
16698 17.8030 114.12 106.28 10.68
16699 17.8040 116.29 106.05 10.78
16700 17.8050 106.33 105.82 10.31
16701 17.8060 111.23 105.60 10.55
16702 17.8070 107.16 105.37 10.35
16703 17.8080 98.84 105.14 9.94
16704 17.8090 94.97 104.90 9.75
16705 17.8100 98.84 104.67 9.94
16706 17.8110 108.31 104.45 10.41
16707 17.8120 116.25 104.22 10.78
16708 17.8130 109.47 103.99 10.46
16709 17.8140 103.58 103.76 10.18
16710 17.8150 119.92 103.53 10.95
16711 17.8160 108.61 103.31 10.42
16712 17.8170 94.70 103.08 9.73
16713 17.8180 96.47 102.86 9.82
16714 17.8190 89.85 102.63 9.48
16715 17.8200 102.59 102.41 10.13
16716 17.8210 101.58 102.18 10.08
16717 17.8220 105.76 101.96 10.28
16718 17.8230 96.27 101.74 9.81
16719 17.8240 100.00 101.52 10.00
16720 17.8250 118.60 101.29 10.89
16721 17.8260 97.12 101.07 9.85
16722 17.8270 91.93 100.85 9.59
16723 17.8280 88.58 100.64 9.41
16724 17.8290 97.12 100.43 9.85
16725 17.8300 100.97 100.21 10.05
16726 17.8310 100.77 99.99 10.04
16727 17.8320 92.27 99.77 9.61
16728 17.8330 90.66 99.56 9.52
16729 17.8340 95.97 99.30 9.80
16730 17.8350 102.07 99.09 10.10
16731 17.8360 90.09 98.89 9.49
16732 17.8370 89.60 98.68 9.47
16733 17.8380 90.14 98.47 9.49
16734 17.8390 96.87 98.26 9.84
16735 17.8400 100.46 98.06 10.02
16736 17.8410 101.64 97.85 10.08
16737 17.8420 91.58 97.65 9.57
16738 17.8430 98.57 97.43 9.93
16739 17.8440 114.58 97.23 10.70
16740 17.8450 106.48 97.01 10.32
16741 17.8460 102.34 96.81 10.12
16742 17.8470 91.71 96.62 9.58
16743 17.8480 95.38 96.42 9.77
16744 17.8490 87.44 96.21 9.35
16745 17.8500 89.57 96.01 9.46
16746 17.8510 101.62 95.82 10.08
16747 17.8520 87.74 95.63 9.37
16748 17.8530 91.72 95.44 9.58
16749 17.8540 92.16 95.25 9.60
16750 17.8550 102.26 95.06 10.11
16751 17.8560 101.49 94.87 10.07
16752 17.8570 105.08 94.69 10.25
16753 17.8580 98.06 94.50 9.90
16754 17.8590 95.11 94.32 9.75
16755 17.8600 94.13 94.14 9.70
16756 17.8610 109.80 93.96 10.48
16757 17.8620 91.12 93.78 9.55
16758 17.8630 91.64 93.60 9.57
16759 17.8640 97.53 93.42 9.88
16760 17.8650 90.03 93.24 9.49
16761 17.8660 88.34 93.07 9.40
16762 17.8670 109.11 92.90 10.45
16763 17.8680 89.44 92.72 9.46
16764 17.8690 98.98 92.55 9.95
16765 17.8700 95.97 92.38 9.80
16766 17.8710 90.41 92.21 9.51
16767 17.8720 93.72 92.04 9.68
16768 17.8730 97.31 91.87 9.86
16769 17.8740 95.80 91.70 9.79
16770 17.8750 92.51 91.54 9.62
16771 17.8760 94.35 91.37 9.71
16772 17.8770 105.29 91.21 10.26
16773 17.8780 93.27 91.04 9.66
16774 17.8790 87.52 90.88 9.36
16775 17.8800 92.73 90.72 9.63
16776 17.8810 88.82 90.56 9.42
16777 17.8820 86.94 90.40 9.32
16778 17.8830 90.65 90.24 9.52
16779 17.8840 89.73 90.08 9.47
16780 17.8850 84.18 89.93 9.17
16781 17.8860 99.56 89.77 9.98
16782 17.8870 108.50 89.61 10.42
16783 17.8880 110.08 89.46 10.49
16784 17.8890 97.48 89.30 9.87
16785 17.8900 97.87 89.15 9.89
16786 17.8910 96.50 89.00 9.82
16787 17.8920 95.40 88.85 9.77
16788 17.8930 81.76 88.70 9.04
16789 17.8940 86.06 88.55 9.28
16790 17.8950 94.91 88.40 9.74
16791 17.8960 92.72 88.25 9.63
16792 17.8970 87.82 88.10 9.37
16793 17.8980 94.36 87.96 9.71
16794 17.8990 88.26 87.81 9.39
16795 17.9000 84.55 87.67 9.20
16796 17.9010 90.79 87.53 9.53
16797 17.9020 86.43 87.38 9.30
16798 17.9030 82.39 87.24 9.08
16799 17.9040 92.84 87.10 9.64
16800 17.9050 85.23 86.97 9.23
16801 17.9060 87.55 86.80 9.36
16802 17.9070 77.96 86.67 8.83
16803 17.9080 86.09 86.53 9.28
16804 17.9090 87.24 86.39 9.34
16805 17.9100 95.26 86.26 9.76
16806 17.9110 81.25 86.13 9.01
16807 17.9120 83.44 86.00 9.13
16808 17.9130 89.61 85.86 9.47
16809 17.9140 81.55 85.74 9.03
16810 17.9150 80.89 85.61 8.99
16811 17.9160 87.32 85.47 9.34
16812 17.9170 85.52 85.35 9.25
16813 17.9180 98.38 85.22 9.92
16814 17.9190 92.38 85.10 9.61
16815 17.9200 91.38 84.98 9.56
16816 17.9210 80.21 84.86 8.96
16817 17.9220 82.86 84.75 9.10
16818 17.9230 90.59 84.65 9.52
16819 17.9240 83.45 84.53 9.14
16820 17.9250 88.50 84.42 9.41
16821 17.9260 82.34 84.30 9.07
16822 17.9270 84.89 84.19 9.21
16823 17.9280 82.41 84.08 9.08
16824 17.9290 77.26 83.97 8.79
16825 17.9300 84.38 83.86 9.19
16826 17.9310 72.64 83.76 8.52
16827 17.9320 81.79 83.65 9.04
16828 17.9330 75.90 83.55 8.71
16829 17.9340 79.86 83.45 8.94
16830 17.9350 89.85 83.35 9.48
16831 17.9360 82.49 83.25 9.08
16832 17.9370 79.17 83.15 8.90
16833 17.9380 72.24 83.06 8.50
16834 17.9390 77.45 82.97 8.80
16835 17.9400 87.92 82.88 9.38
16836 17.9410 71.66 82.78 8.47
16837 17.9420 79.25 82.69 8.90
16838 17.9430 86.97 82.61 9.33
16839 17.9440 98.40 82.52 9.92
16840 17.9450 103.90 82.44 10.19
16841 17.9460 83.88 82.36 9.16
16842 17.9470 75.93 82.28 8.71
16843 17.9480 88.36 82.20 9.40
16844 17.9490 87.17 82.13 9.34
16845 17.9500 73.52 82.06 8.57
16846 17.9510 90.50 81.99 9.51
16847 17.9520 82.19 81.92 9.07
16848 17.9530 92.46 81.85 9.62
16849 17.9540 88.23 81.79 9.39
16850 17.9550 84.30 81.73 9.18
16851 17.9560 66.57 81.67 8.16
16852 17.9570 74.87 81.61 8.65
16853 17.9580 86.23 81.56 9.29
16854 17.9590 91.77 81.50 9.58
16855 17.9600 85.14 81.45 9.23
16856 17.9610 85.37 81.40 9.24
16857 17.9620 69.62 81.35 8.34
16858 17.9630 65.93 81.31 8.12
16859 17.9640 82.17 81.27 9.06
16860 17.9650 73.68 81.23 8.58
16861 17.9660 73.62 81.20 8.58
16862 17.9670 81.46 81.17 9.03
16863 17.9680 74.08 81.14 8.61
16864 17.9690 70.83 81.11 8.42
16865 17.9700 66.71 81.09 8.17
16866 17.9710 68.87 81.07 8.30
16867 17.9720 74.00 81.04 8.60
16868 17.9730 78.56 81.03 8.86
16869 17.9740 75.62 81.02 8.70
16870 17.9750 75.83 81.01 8.71
16871 17.9760 80.74 81.00 8.99
16872 17.9770 82.17 80.99 9.06
16873 17.9780 78.24 80.99 8.85
16874 17.9790 78.78 80.99 8.88
16875 17.9800 73.02 80.99 8.55
16876 17.9810 71.82 81.00 8.47
16877 17.9820 74.07 81.01 8.61
16878 17.9830 75.51 81.04 8.69
16879 17.9840 67.94 81.06 8.24
16880 17.9850 81.48 81.08 9.03
16881 17.9860 83.46 81.10 9.14
16882 17.9870 89.97 81.12 9.49
16883 17.9880 90.68 81.15 9.52
16884 17.9890 76.49 81.18 8.75
16885 17.9900 87.32 81.21 9.34
16886 17.9910 74.79 81.25 8.65
16887 17.9920 91.30 81.29 9.56
16888 17.9930 92.84 81.33 9.64
16889 17.9940 86.39 81.37 9.29
16890 17.9950 73.80 81.42 8.59
16891 17.9960 93.11 81.47 9.65
16892 17.9970 84.91 81.52 9.21
16893 17.9980 76.35 81.57 8.74
16894 17.9990 83.61 81.63 9.14
16895 18.0000 76.77 81.69 8.76
16896 18.0010 82.26 81.75 9.07
16897 18.0020 83.75 81.81 9.15
16898 18.0030 93.82 81.88 9.69
16899 18.0040 75.35 81.95 8.68
16900 18.0050 82.64 82.02 9.09
16901 18.0060 80.82 82.10 8.99
16902 18.0070 74.52 82.17 8.63
16903 18.0080 86.73 82.25 9.31
16904 18.0090 96.97 82.33 9.85
16905 18.0100 82.28 82.42 9.07
16906 18.0110 79.82 82.50 8.93
16907 18.0120 82.33 82.59 9.07
16908 18.0130 83.40 82.68 9.13
16909 18.0140 84.01 82.77 9.17
16910 18.0150 72.10 82.87 8.49
16911 18.0160 82.96 82.96 9.11
16912 18.0170 75.18 83.06 8.67
16913 18.0180 78.23 83.16 8.84
16914 18.0190 75.05 83.26 8.66
16915 18.0200 90.13 83.37 9.49
16916 18.0210 92.20 83.47 9.60
16917 18.0220 84.55 83.58 9.20
16918 18.0230 80.03 83.69 8.95
16919 18.0240 76.17 83.81 8.73
16920 18.0250 90.99 83.92 9.54
16921 18.0260 76.68 84.04 8.76
16922 18.0270 87.67 84.14 9.36
16923 18.0280 86.27 84.26 9.29
16924 18.0290 82.38 84.38 9.08
16925 18.0300 87.03 84.51 9.33
16926 18.0310 75.42 84.63 8.68
16927 18.0320 76.74 84.75 8.76
16928 18.0330 80.00 84.88 8.94
16929 18.0340 87.55 85.01 9.36
16930 18.0350 73.00 85.14 8.54
16931 18.0360 79.95 85.27 8.94
16932 18.0370 82.50 85.40 9.08
16933 18.0380 79.92 85.54 8.94
16934 18.0390 89.93 85.67 9.48
16935 18.0400 85.38 85.81 9.24
16936 18.0410 82.24 85.95 9.07
16937 18.0420 84.10 86.09 9.17
16938 18.0430 87.67 86.23 9.36
16939 18.0440 91.32 86.37 9.56
16940 18.0450 94.07 86.52 9.70
16941 18.0460 94.02 86.67 9.70
16942 18.0470 92.04 86.82 9.59
16943 18.0480 91.59 86.97 9.57
16944 18.0490 89.54 87.12 9.46
16945 18.0500 93.18 87.27 9.65
16946 18.0510 103.11 87.42 10.15
16947 18.0520 94.96 87.57 9.74
16948 18.0530 78.30 87.73 8.85
16949 18.0540 83.25 87.88 9.12
16950 18.0550 88.39 88.04 9.40
16951 18.0560 82.51 88.19 9.08
16952 18.0570 94.92 88.34 9.74
16953 18.0580 82.90 88.50 9.10
16954 18.0590 90.22 88.65 9.50
16955 18.0600 93.85 88.81 9.69
16956 18.0610 87.03 88.97 9.33
16957 18.0620 75.79 89.13 8.71
16958 18.0630 97.48 89.29 9.87
16959 18.0640 86.38 89.45 9.29
16960 18.0650 96.21 89.61 9.81
16961 18.0660 81.03 89.77 9.00
16962 18.0670 100.45 89.93 10.02
16963 18.0680 90.74 90.09 9.53
16964 18.0690 94.30 90.25 9.71
16965 18.0700 91.84 90.41 9.58
16966 18.0710 101.96 90.57 10.10
16967 18.0720 81.39 90.73 9.02
16968 18.0730 81.92 90.89 9.05
16969 18.0740 94.25 91.05 9.71
16970 18.0750 103.38 91.20 10.17
16971 18.0760 84.96 91.36 9.22
16972 18.0770 97.73 91.53 9.89
16973 18.0780 96.58 91.69 9.83
16974 18.0790 82.39 91.84 9.08
16975 18.0800 95.18 92.00 9.76
16976 18.0810 83.17 92.15 9.12
16977 18.0820 98.36 92.30 9.92
16978 18.0830 82.33 92.44 9.07
16979 18.0840 90.82 92.59 9.53
16980 18.0850 96.06 92.74 9.80
16981 18.0860 100.68 92.88 10.03
16982 18.0870 99.24 93.02 9.96
16983 18.0880 95.97 93.16 9.80
16984 18.0890 91.96 93.30 9.59
16985 18.0900 86.60 93.43 9.31
16986 18.0910 104.80 93.58 10.24
16987 18.0920 95.77 93.71 9.79
16988 18.0930 88.48 93.83 9.41
16989 18.0940 91.26 93.98 9.55
16990 18.0950 97.09 94.10 9.85
16991 18.0960 80.28 94.22 8.96
16992 18.0970 81.02 94.34 9.00
16993 18.0980 96.46 94.46 9.82
16994 18.0990 94.52 94.57 9.72
16995 18.1000 95.09 94.68 9.75
16996 18.1010 96.68 94.78 9.83
16997 18.1020 99.88 94.89 9.99
16998 18.1030 92.22 94.99 9.60
16999 18.1040 97.05 95.09 9.85
17000 18.1050 100.21 95.18 10.01
17001 18.1060 102.71 95.27 10.13
17002 18.1070 97.48 95.36 9.87
17003 18.1080 91.81 95.45 9.58
17004 18.1090 85.42 95.54 9.24
17005 18.1100 100.37 95.62 10.02
17006 18.1110 101.51 95.70 10.08
17007 18.1120 108.43 95.77 10.41
17008 18.1130 101.91 95.84 10.10
17009 18.1140 92.40 95.90 9.61
17010 18.1150 89.92 95.97 9.48
17011 18.1160 87.94 96.02 9.38
17012 18.1170 104.61 96.08 10.23
17013 18.1180 100.92 96.13 10.05
17014 18.1190 85.97 96.18 9.27
17015 18.1200 91.63 96.21 9.57
17016 18.1210 94.31 96.25 9.71
17017 18.1220 105.11 96.29 10.25
17018 18.1230 85.93 96.32 9.27
17019 18.1240 94.00 96.36 9.70
17020 18.1250 102.14 96.38 10.11
17021 18.1260 99.75 96.41 9.99
17022 18.1270 97.31 96.43 9.86
17023 18.1280 95.58 96.45 9.78
17024 18.1290 85.25 96.47 9.23
17025 18.1300 93.48 96.48 9.67
17026 18.1310 89.37 96.49 9.45
17027 18.1320 81.37 96.50 9.02
17028 18.1330 98.93 96.50 9.95
17029 18.1340 95.95 96.50 9.80
17030 18.1350 91.77 96.50 9.58
17031 18.1360 93.86 96.50 9.69
17032 18.1370 90.53 96.49 9.51
17033 18.1380 93.94 96.49 9.69
17034 18.1390 101.47 96.48 10.07
17035 18.1400 77.18 96.46 8.79
17036 18.1410 91.86 96.44 9.58
17037 18.1420 94.04 96.44 9.70
17038 18.1430 84.34 96.42 9.18
17039 18.1440 89.40 96.40 9.46
17040 18.1450 83.14 96.37 9.12
17041 18.1460 92.44 96.34 9.61
17042 18.1470 102.21 96.31 10.11
17043 18.1480 85.62 96.28 9.25
17044 18.1490 86.24 96.25 9.29
17045 18.1500 84.99 96.22 9.22
17046 18.1510 92.62 96.18 9.62
17047 18.1520 98.87 96.14 9.94
17048 18.1530 89.78 96.10 9.48
17049 18.1540 92.40 96.06 9.61
17050 18.1550 93.25 96.01 9.66
17051 18.1560 90.56 95.95 9.52
17052 18.1570 97.68 95.91 9.88
17053 18.1580 108.72 95.86 10.43
17054 18.1590 97.04 95.82 9.85
17055 18.1600 97.33 95.77 9.87
17056 18.1610 93.03 95.72 9.65
17057 18.1620 76.97 95.67 8.77
17058 18.1630 74.27 95.62 8.62
17059 18.1640 79.19 95.57 8.90
17060 18.1650 88.16 95.52 9.39
17061 18.1660 95.09 95.46 9.75
17062 18.1670 88.72 95.41 9.42
17063 18.1680 77.59 95.35 8.81
17064 18.1690 81.68 95.30 9.04
17065 18.1700 80.66 95.24 8.98
17066 18.1710 95.03 95.19 9.75
17067 18.1720 93.55 95.14 9.67
17068 18.1730 95.23 95.08 9.76
17069 18.1740 98.06 95.03 9.90
17070 18.1750 92.06 94.97 9.59
17071 18.1760 96.08 94.92 9.80
17072 18.1770 88.05 94.86 9.38
17073 18.1780 79.63 94.81 8.92
17074 18.1790 78.42 94.75 8.86
17075 18.1800 78.18 94.70 8.84
17076 18.1810 90.70 94.65 9.52
17077 18.1820 74.72 94.60 8.64
17078 18.1830 92.77 94.55 9.63
17079 18.1840 101.89 94.50 10.09
17080 18.1850 92.77 94.45 9.63
17081 18.1860 83.05 94.40 9.11
17082 18.1870 86.17 94.35 9.28
17083 18.1880 93.87 94.31 9.69
17084 18.1890 82.38 94.26 9.08
17085 18.1900 66.47 94.22 8.15
17086 18.1910 76.18 94.17 8.73
17087 18.1920 82.93 94.13 9.11
17088 18.1930 84.46 94.09 9.19
17089 18.1940 90.75 94.05 9.53
17090 18.1950 86.87 94.01 9.32
17091 18.1960 85.33 93.97 9.24
17092 18.1970 84.14 93.94 9.17
17093 18.1980 90.46 93.90 9.51
17094 18.1990 77.46 93.87 8.80
17095 18.2000 92.92 93.84 9.64
17096 18.2010 88.60 93.81 9.41
17097 18.2020 85.16 93.78 9.23
17098 18.2030 90.38 93.76 9.51
17099 18.2040 86.28 93.73 9.29
17100 18.2050 85.64 93.71 9.25
17101 18.2060 87.16 93.68 9.34
17102 18.2070 105.31 93.66 10.26
17103 18.2080 91.50 93.64 9.57
17104 18.2090 88.49 93.62 9.41
17105 18.2100 101.45 93.60 10.07
17106 18.2110 91.91 93.59 9.59
17107 18.2120 84.51 93.58 9.19
17108 18.2130 86.36 93.56 9.29
17109 18.2140 89.08 93.55 9.44
17110 18.2150 99.51 93.55 9.98
17111 18.2160 90.41 93.54 9.51
17112 18.2170 83.60 93.54 9.14
17113 18.2180 92.09 93.53 9.60
17114 18.2190 84.19 93.52 9.18
17115 18.2200 97.11 93.52 9.85
17116 18.2210 98.21 93.52 9.91
17117 18.2220 77.89 93.53 8.83
17118 18.2230 107.90 93.53 10.39
17119 18.2240 95.84 93.54 9.79
17120 18.2250 94.77 93.54 9.73
17121 18.2260 97.24 93.56 9.86
17122 18.2270 93.45 93.57 9.67
17123 18.2280 92.67 93.58 9.63
17124 18.2290 88.19 93.60 9.39
17125 18.2300 96.17 93.61 9.81
17126 18.2310 87.99 93.63 9.38
17127 18.2320 96.07 93.64 9.80
17128 18.2330 94.54 93.66 9.72
17129 18.2340 89.07 93.68 9.44
17130 18.2350 81.91 93.71 9.05
17131 18.2360 92.11 93.73 9.60
17132 18.2370 100.02 93.75 10.00
17133 18.2380 99.40 93.78 9.97
17134 18.2390 95.33 93.80 9.76
17135 18.2400 98.48 93.83 9.92
17136 18.2410 101.77 93.86 10.09
17137 18.2420 101.40 93.89 10.07
17138 18.2430 92.46 93.92 9.62
17139 18.2440 98.81 93.95 9.94
17140 18.2450 96.75 93.98 9.84
17141 18.2460 96.15 94.01 9.81
17142 18.2470 86.95 94.04 9.32
17143 18.2480 93.67 94.08 9.68
17144 18.2490 84.16 94.11 9.17
17145 18.2500 75.97 94.13 8.72
17146 18.2510 87.11 94.16 9.33
17147 18.2520 87.20 94.20 9.34
17148 18.2530 102.02 94.24 10.10
17149 18.2540 79.59 94.27 8.92
17150 18.2550 90.24 94.31 9.50
17151 18.2560 89.96 94.35 9.48
17152 18.2570 83.06 94.38 9.11
17153 18.2580 92.90 94.42 9.64
17154 18.2590 87.20 94.45 9.34
17155 18.2600 80.79 94.48 8.99
17156 18.2610 99.71 94.52 9.99
17157 18.2620 96.97 94.55 9.85
17158 18.2630 92.37 94.58 9.61
17159 18.2640 97.50 94.61 9.87
17160 18.2650 90.79 94.64 9.53
17161 18.2660 74.80 94.67 8.65
17162 18.2670 83.69 94.70 9.15
17163 18.2680 100.36 94.72 10.02
17164 18.2690 93.78 94.75 9.68
17165 18.2700 103.42 94.77 10.17
17166 18.2710 96.30 94.80 9.81
17167 18.2720 88.71 94.82 9.42
17168 18.2730 98.51 94.83 9.93
17169 18.2740 85.21 94.85 9.23
17170 18.2750 96.87 94.87 9.84
17171 18.2760 87.49 94.88 9.35
17172 18.2770 85.34 94.89 9.24
17173 18.2780 93.20 94.90 9.65
17174 18.2790 93.62 94.90 9.68
17175 18.2800 103.86 94.91 10.19
17176 18.2810 99.61 94.91 9.98
17177 18.2820 93.26 94.91 9.66
17178 18.2830 95.48 94.90 9.77
17179 18.2840 112.13 94.91 10.59
17180 18.2850 92.80 94.90 9.63
17181 18.2860 92.81 94.89 9.63
17182 18.2870 91.98 94.87 9.59
17183 18.2880 98.54 94.86 9.93
17184 18.2890 94.36 94.84 9.71
17185 18.2900 93.34 94.81 9.66
17186 18.2910 91.05 94.79 9.54
17187 18.2920 89.89 94.76 9.48
17188 18.2930 96.17 94.73 9.81
17189 18.2940 91.88 94.69 9.59
17190 18.2950 84.08 94.65 9.17
17191 18.2960 95.65 94.61 9.78
17192 18.2970 88.71 94.57 9.42
17193 18.2980 94.60 94.52 9.73
17194 18.2990 88.78 94.47 9.42
17195 18.3000 88.73 94.42 9.42
17196 18.3010 86.21 94.37 9.28
17197 18.3020 98.46 94.31 9.92
17198 18.3030 98.77 94.25 9.94
17199 18.3040 86.05 94.18 9.28
17200 18.3050 95.76 94.12 9.79
17201 18.3060 111.64 94.05 10.57
17202 18.3070 95.37 93.98 9.77
17203 18.3080 92.76 93.90 9.63
17204 18.3090 88.67 93.83 9.42
17205 18.3100 92.98 93.75 9.64
17206 18.3110 99.22 93.67 9.96
17207 18.3120 90.82 93.58 9.53
17208 18.3130 86.86 93.50 9.32
17209 18.3140 93.00 93.41 9.64
17210 18.3150 79.36 93.32 8.91
17211 18.3160 82.54 93.23 9.09
17212 18.3170 89.22 93.14 9.45
17213 18.3180 74.38 93.04 8.62
17214 18.3190 96.70 92.95 9.83
17215 18.3200 93.89 92.84 9.69
17216 18.3210 93.68 92.74 9.68
17217 18.3220 83.24 92.64 9.12
17218 18.3230 96.02 92.54 9.80
17219 18.3240 87.08 92.44 9.33
17220 18.3250 84.76 92.31 9.21
17221 18.3260 90.53 92.20 9.51
17222 18.3270 87.52 92.09 9.36
17223 18.3280 87.76 91.99 9.37
17224 18.3290 80.52 91.88 8.97
17225 18.3300 80.71 91.77 8.98
17226 18.3310 79.12 91.66 8.89
17227 18.3320 104.14 91.54 10.20
17228 18.3330 100.55 91.43 10.03
17229 18.3340 81.63 91.32 9.03
17230 18.3350 86.18 91.21 9.28
17231 18.3360 80.45 91.09 8.97
17232 18.3370 80.37 90.98 8.96
17233 18.3380 83.31 90.86 9.13
17234 18.3390 89.91 90.75 9.48
17235 18.3400 101.95 90.64 10.10
17236 18.3410 85.33 90.53 9.24
17237 18.3420 78.04 90.41 8.83
17238 18.3430 84.19 90.30 9.18
17239 18.3440 74.30 90.18 8.62
17240 18.3450 87.12 90.07 9.33
17241 18.3460 75.44 89.96 8.69
17242 18.3470 86.59 89.84 9.31
17243 18.3480 80.80 89.73 8.99
17244 18.3490 79.26 89.62 8.90
17245 18.3500 71.70 89.51 8.47
17246 18.3510 80.51 89.39 8.97
17247 18.3520 87.58 89.28 9.36
17248 18.3530 86.70 89.18 9.31
17249 18.3540 85.85 89.07 9.27
17250 18.3550 89.22 88.96 9.45
17251 18.3560 74.22 88.85 8.62
17252 18.3570 86.28 88.75 9.29
17253 18.3580 78.94 88.63 8.88
17254 18.3590 83.67 88.52 9.15
17255 18.3600 81.62 88.42 9.03
17256 18.3610 85.88 88.32 9.27
17257 18.3620 86.84 88.22 9.32
17258 18.3630 87.24 88.12 9.34
17259 18.3640 85.56 88.02 9.25
17260 18.3650 78.35 87.93 8.85
17261 18.3660 84.51 87.83 9.19
17262 18.3670 85.06 87.75 9.22
17263 18.3680 82.20 87.65 9.07
17264 18.3690 94.88 87.56 9.74
17265 18.3700 85.37 87.47 9.24
17266 18.3710 83.48 87.39 9.14
17267 18.3720 74.70 87.30 8.64
17268 18.3730 75.70 87.21 8.70
17269 18.3740 87.55 87.13 9.36
17270 18.3750 81.65 87.05 9.04
17271 18.3760 78.87 86.97 8.88
17272 18.3770 85.30 86.89 9.24
17273 18.3780 93.03 86.81 9.65
17274 18.3790 85.90 86.74 9.27
17275 18.3800 83.71 86.66 9.15
17276 18.3810 71.59 86.59 8.46
17277 18.3820 88.12 86.52 9.39
17278 18.3830 94.66 86.45 9.73
17279 18.3840 88.72 86.39 9.42
17280 18.3850 84.25 86.32 9.18
17281 18.3860 90.35 86.26 9.51
17282 18.3870 86.53 86.20 9.30
17283 18.3880 94.89 86.14 9.74
17284 18.3890 83.78 86.09 9.15
17285 18.3900 92.53 86.03 9.62
17286 18.3910 79.04 85.98 8.89
17287 18.3920 91.47 85.93 9.56
17288 18.3930 79.73 85.88 8.93
17289 18.3940 88.99 85.84 9.43
17290 18.3950 87.33 85.80 9.35
17291 18.3960 87.42 85.76 9.35
17292 18.3970 84.87 85.71 9.21
17293 18.3980 86.50 85.67 9.30
17294 18.3990 80.71 85.64 8.98
17295 18.4000 83.92 85.61 9.16
17296 18.4010 85.14 85.58 9.23
17297 18.4020 87.03 85.55 9.33
17298 18.4030 83.78 85.53 9.15
17299 18.4040 81.07 85.51 9.00
17300 18.4050 77.90 85.49 8.83
17301 18.4060 87.38 85.47 9.35
17302 18.4070 73.30 85.44 8.56
17303 18.4080 84.20 85.42 9.18
17304 18.4090 78.89 85.41 8.88
17305 18.4100 69.51 85.40 8.34
17306 18.4110 77.83 85.40 8.82
17307 18.4120 77.17 85.40 8.78
17308 18.4130 93.77 85.39 9.68
17309 18.4140 92.15 85.40 9.60
17310 18.4150 75.83 85.40 8.71
17311 18.4160 80.36 85.41 8.96
17312 18.4170 87.92 85.42 9.38
17313 18.4180 76.86 85.43 8.77
17314 18.4190 74.10 85.44 8.61
17315 18.4200 80.41 85.45 8.97
17316 18.4210 73.84 85.47 8.59
17317 18.4220 84.58 85.49 9.20
17318 18.4230 76.79 85.51 8.76
17319 18.4240 88.37 85.53 9.40
17320 18.4250 87.14 85.56 9.33
17321 18.4260 92.11 85.58 9.60
17322 18.4270 90.44 85.62 9.51
17323 18.4280 85.36 85.65 9.24
17324 18.4290 86.10 85.68 9.28
17325 18.4300 88.36 85.71 9.40
17326 18.4310 81.89 85.75 9.05
17327 18.4320 82.82 85.79 9.10
17328 18.4330 82.76 85.83 9.10
17329 18.4340 71.85 85.87 8.48
17330 18.4350 90.08 85.91 9.49
17331 18.4360 87.73 85.96 9.37
17332 18.4370 87.69 86.00 9.36
17333 18.4380 88.22 86.06 9.39
17334 18.4390 82.36 86.11 9.08
17335 18.4400 74.05 86.16 8.61
17336 18.4410 84.23 86.21 9.18
17337 18.4420 89.09 86.26 9.44
17338 18.4430 79.20 86.31 8.90
17339 18.4440 74.74 86.37 8.65
17340 18.4450 82.76 86.42 9.10
17341 18.4460 83.27 86.48 9.13
17342 18.4470 81.51 86.54 9.03
17343 18.4480 86.73 86.59 9.31
17344 18.4490 85.49 86.65 9.25
17345 18.4500 94.56 86.71 9.72
17346 18.4510 86.27 86.77 9.29
17347 18.4520 86.91 86.83 9.32
17348 18.4530 90.18 86.89 9.50
17349 18.4540 85.29 86.96 9.24
17350 18.4550 92.09 87.02 9.60
17351 18.4560 86.44 87.08 9.30
17352 18.4570 84.81 87.14 9.21
17353 18.4580 94.98 87.20 9.75
17354 18.4590 84.57 87.27 9.20
17355 18.4600 90.66 87.33 9.52
17356 18.4610 94.57 87.39 9.72
17357 18.4620 92.38 87.46 9.61
17358 18.4630 79.49 87.52 8.92
17359 18.4640 90.55 87.58 9.52
17360 18.4650 88.27 87.65 9.40
17361 18.4660 77.34 87.71 8.79
17362 18.4670 92.98 87.77 9.64
17363 18.4680 95.08 87.83 9.75
17364 18.4690 87.57 87.88 9.36
17365 18.4700 82.15 87.94 9.06
17366 18.4710 78.74 88.00 8.87
17367 18.4720 83.05 88.06 9.11
17368 18.4730 81.19 88.12 9.01
17369 18.4740 88.53 88.18 9.41
17370 18.4750 84.24 88.24 9.18
17371 18.4760 83.93 88.29 9.16
17372 18.4770 79.97 88.35 8.94
17373 18.4780 76.99 88.41 8.77
17374 18.4790 80.47 88.47 8.97
17375 18.4800 85.53 88.52 9.25
17376 18.4810 84.32 88.58 9.18
17377 18.4820 76.76 88.63 8.76
17378 18.4830 83.69 88.68 9.15
17379 18.4840 85.48 88.74 9.25
17380 18.4850 80.21 88.79 8.96
17381 18.4860 70.63 88.84 8.40
17382 18.4870 77.33 88.89 8.79
17383 18.4880 89.92 88.94 9.48
17384 18.4890 79.61 88.99 8.92
17385 18.4900 75.42 89.04 8.68
17386 18.4910 76.81 89.09 8.76
17387 18.4920 76.16 89.14 8.73
17388 18.4930 83.97 89.18 9.16
17389 18.4940 85.73 89.23 9.26
17390 18.4950 83.84 89.27 9.16
17391 18.4960 92.00 89.32 9.59
17392 18.4970 93.85 89.37 9.69
17393 18.4980 97.16 89.41 9.86
17394 18.4990 85.65 89.46 9.25
17395 18.5000 84.86 89.50 9.21
17396 18.5010 68.25 89.54 8.26
17397 18.5020 85.45 89.58 9.24
17398 18.5030 84.33 89.63 9.18
17399 18.5040 78.20 89.67 8.84
17400 18.5050 79.61 89.71 8.92
17401 18.5060 77.50 89.75 8.80
17402 18.5070 85.21 89.79 9.23
17403 18.5080 87.53 89.83 9.36
17404 18.5090 89.46 89.87 9.46
17405 18.5100 79.77 89.91 8.93
17406 18.5110 79.92 89.95 8.94
17407 18.5120 94.83 89.98 9.74
17408 18.5130 81.37 90.03 9.02
17409 18.5140 84.99 90.07 9.22
17410 18.5150 96.54 90.10 9.83
17411 18.5160 99.01 90.14 9.95
17412 18.5170 82.12 90.18 9.06
17413 18.5180 87.80 90.21 9.37
17414 18.5190 80.42 90.25 8.97
17415 18.5200 86.30 90.29 9.29
17416 18.5210 75.58 90.32 8.69
17417 18.5220 76.35 90.36 8.74
17418 18.5230 94.81 90.40 9.74
17419 18.5240 84.25 90.43 9.18
17420 18.5250 91.73 90.47 9.58
17421 18.5260 81.16 90.50 9.01
17422 18.5270 96.07 90.54 9.80
17423 18.5280 100.80 90.59 10.04
17424 18.5290 88.46 90.63 9.41
17425 18.5300 88.44 90.66 9.40
17426 18.5310 91.24 90.70 9.55
17427 18.5320 87.15 90.73 9.34
17428 18.5330 80.99 90.76 9.00
17429 18.5340 81.26 90.79 9.01
17430 18.5350 80.66 90.83 8.98
17431 18.5360 96.55 90.86 9.83
17432 18.5370 94.86 90.89 9.74
17433 18.5380 89.36 90.92 9.45
17434 18.5390 89.49 90.95 9.46
17435 18.5400 87.17 90.98 9.34
17436 18.5410 82.31 91.01 9.07
17437 18.5420 89.56 91.04 9.46
17438 18.5430 82.77 91.06 9.10
17439 18.5440 76.12 91.09 8.72
17440 18.5450 88.49 91.13 9.41
17441 18.5460 83.97 91.16 9.16
17442 18.5470 82.87 91.19 9.10
17443 18.5480 95.15 91.22 9.75
17444 18.5490 84.02 91.25 9.17
17445 18.5500 87.34 91.28 9.35
17446 18.5510 95.16 91.30 9.76
17447 18.5520 96.59 91.33 9.83
17448 18.5530 91.07 91.35 9.54
17449 18.5540 90.96 91.37 9.54
17450 18.5550 94.75 91.40 9.73
17451 18.5560 91.48 91.42 9.56
17452 18.5570 90.90 91.45 9.53
17453 18.5580 88.95 91.47 9.43
17454 18.5590 96.73 91.49 9.84
17455 18.5600 88.65 91.52 9.42
17456 18.5610 83.29 91.54 9.13
17457 18.5620 93.71 91.56 9.68
17458 18.5630 86.30 91.58 9.29
17459 18.5640 77.39 91.60 8.80
17460 18.5650 88.70 91.62 9.42
17461 18.5660 80.15 91.64 8.95
17462 18.5670 83.90 91.65 9.16
17463 18.5680 76.13 91.67 8.73
17464 18.5690 77.37 91.69 8.80
17465 18.5700 82.67 91.70 9.09
17466 18.5710 83.55 91.72 9.14
17467 18.5720 84.37 91.73 9.19
17468 18.5730 86.64 91.75 9.31
17469 18.5740 86.97 91.78 9.33
17470 18.5750 84.49 91.79 9.19
17471 18.5760 84.90 91.80 9.21
17472 18.5770 86.94 91.81 9.32
17473 18.5780 84.25 91.82 9.18
17474 18.5790 92.46 91.84 9.62
17475 18.5800 80.67 91.85 8.98
17476 18.5810 76.41 91.86 8.74
17477 18.5820 82.82 91.87 9.10
17478 18.5830 77.75 91.88 8.82
17479 18.5840 78.08 91.89 8.84
17480 18.5850 91.95 91.89 9.59
17481 18.5860 88.23 91.90 9.39
17482 18.5870 86.43 91.90 9.30
17483 18.5880 81.97 91.90 9.05
17484 18.5890 76.71 91.91 8.76
17485 18.5900 77.48 91.91 8.80
17486 18.5910 82.79 91.90 9.10
17487 18.5920 81.75 91.90 9.04
17488 18.5930 89.00 91.90 9.43
17489 18.5940 85.90 91.90 9.27
17490 18.5950 77.32 91.89 8.79
17491 18.5960 76.41 91.88 8.74
17492 18.5970 73.45 91.87 8.57
17493 18.5980 77.25 91.86 8.79
17494 18.5990 105.61 91.85 10.28
17495 18.6000 87.51 91.84 9.35
17496 18.6010 82.39 91.83 9.08
17497 18.6020 87.02 91.82 9.33
17498 18.6030 84.55 91.80 9.20
17499 18.6040 78.29 91.78 8.85
17500 18.6050 75.87 91.76 8.71
17501 18.6060 89.15 91.74 9.44
17502 18.6070 76.85 91.72 8.77
17503 18.6080 84.02 91.70 9.17
17504 18.6090 91.05 91.67 9.54
17505 18.6100 77.29 91.65 8.79
17506 18.6110 88.09 91.62 9.39
17507 18.6120 83.72 91.59 9.15
17508 18.6130 83.19 91.55 9.12
17509 18.6140 89.12 91.52 9.44
17510 18.6150 88.32 91.49 9.40
17511 18.6160 88.57 91.45 9.41
17512 18.6170 77.73 91.40 8.82
17513 18.6180 91.66 91.36 9.57
17514 18.6190 89.68 91.31 9.47
17515 18.6200 92.60 91.26 9.62
17516 18.6210 86.76 91.21 9.31
17517 18.6220 94.36 91.16 9.71
17518 18.6230 100.40 91.10 10.02
17519 18.6240 90.92 91.04 9.54
17520 18.6250 96.60 90.98 9.83
17521 18.6260 88.22 90.91 9.39
17522 18.6270 81.88 90.84 9.05
17523 18.6280 82.59 90.77 9.09
17524 18.6290 79.12 90.70 8.89
17525 18.6300 97.67 90.62 9.88
17526 18.6310 83.33 90.54 9.13
17527 18.6320 100.16 90.46 10.01
17528 18.6330 97.01 90.37 9.85
17529 18.6340 88.35 90.28 9.40
17530 18.6350 98.73 90.19 9.94
17531 18.6360 91.40 90.09 9.56
17532 18.6370 85.83 89.99 9.26
17533 18.6380 94.65 89.89 9.73
17534 18.6390 91.66 89.78 9.57
17535 18.6400 99.26 89.67 9.96
17536 18.6410 91.45 89.55 9.56
17537 18.6420 88.93 89.44 9.43
17538 18.6430 87.09 89.32 9.33
17539 18.6440 87.13 89.20 9.33
17540 18.6450 100.14 89.07 10.01
17541 18.6460 99.71 88.94 9.99
17542 18.6470 92.73 88.81 9.63
17543 18.6480 92.04 88.67 9.59
17544 18.6490 92.39 88.53 9.61
17545 18.6500 89.04 88.38 9.44
17546 18.6510 84.60 88.24 9.20
17547 18.6520 90.40 88.08 9.51
17548 18.6530 92.02 87.93 9.59
17549 18.6540 79.02 87.77 8.89
17550 18.6550 81.99 87.61 9.05
17551 18.6560 85.83 87.45 9.26
17552 18.6570 88.49 87.30 9.41
17553 18.6580 80.10 87.13 8.95
17554 18.6590 81.72 86.96 9.04
17555 18.6600 88.15 86.79 9.39
17556 18.6610 88.82 86.61 9.42
17557 18.6620 83.61 86.43 9.14
17558 18.6630 95.33 86.25 9.76
17559 18.6640 81.34 86.07 9.02
17560 18.6650 76.11 85.89 8.72
17561 18.6660 86.27 85.70 9.29
17562 18.6670 93.99 85.52 9.69
17563 18.6680 94.94 85.33 9.74
17564 18.6690 83.61 85.14 9.14
17565 18.6700 92.83 84.95 9.63
17566 18.6710 86.01 84.76 9.27
17567 18.6720 82.45 84.56 9.08
17568 18.6730 76.91 84.37 8.77
17569 18.6740 75.33 84.17 8.68
17570 18.6750 79.91 83.97 8.94
17571 18.6760 91.45 83.78 9.56
17572 18.6770 88.99 83.58 9.43
17573 18.6780 80.38 83.38 8.97
17574 18.6790 76.05 83.18 8.72
17575 18.6800 76.92 82.98 8.77
17576 18.6810 75.76 82.78 8.70
17577 18.6820 84.62 82.55 9.20
17578 18.6830 74.57 82.36 8.64
17579 18.6840 83.68 82.13 9.15
17580 18.6850 89.15 81.94 9.44
17581 18.6860 86.19 81.74 9.28
17582 18.6870 82.71 81.54 9.09
17583 18.6880 83.92 81.34 9.16
17584 18.6890 66.33 81.14 8.14
17585 18.6900 83.59 80.96 9.14
17586 18.6910 94.06 80.76 9.70
17587 18.6920 99.59 80.57 9.98
17588 18.6930 87.72 80.38 9.37
17589 18.6940 70.40 80.19 8.39
17590 18.6950 66.87 80.00 8.18
17591 18.6960 78.10 79.80 8.84
17592 18.6970 73.47 79.62 8.57
17593 18.6980 72.52 79.43 8.52
17594 18.6990 69.34 79.24 8.33
17595 18.7000 71.55 79.06 8.46
17596 18.7010 77.00 78.87 8.77
17597 18.7020 79.36 78.69 8.91
17598 18.7030 80.78 78.51 8.99
17599 18.7040 72.85 78.33 8.54
17600 18.7050 76.88 78.15 8.77
17601 18.7060 83.18 77.98 9.12
17602 18.7070 80.65 77.80 8.98
17603 18.7080 81.25 77.63 9.01
17604 18.7090 82.29 77.46 9.07
17605 18.7100 86.39 77.29 9.29
17606 18.7110 77.50 77.12 8.80
17607 18.7120 83.42 76.96 9.13
17608 18.7130 72.45 76.79 8.51
17609 18.7140 81.17 76.63 9.01
17610 18.7150 91.32 76.47 9.56
17611 18.7160 79.93 76.32 8.94
17612 18.7170 68.85 76.16 8.30
17613 18.7180 72.30 76.01 8.50
17614 18.7190 70.68 75.86 8.41
17615 18.7200 65.08 75.71 8.07
17616 18.7210 63.96 75.56 8.00
17617 18.7220 69.05 75.42 8.31
17618 18.7230 63.30 75.27 7.96
17619 18.7240 76.29 75.13 8.73
17620 18.7250 77.20 74.99 8.79
17621 18.7260 72.88 74.85 8.54
17622 18.7270 69.22 74.72 8.32
17623 18.7280 75.17 74.58 8.67
17624 18.7290 79.77 74.45 8.93
17625 18.7300 90.49 74.32 9.51
17626 18.7310 72.90 74.19 8.54
17627 18.7320 64.34 74.07 8.02
17628 18.7330 73.46 73.95 8.57
17629 18.7340 71.32 73.82 8.45
17630 18.7350 69.44 73.70 8.33
17631 18.7360 65.79 73.59 8.11
17632 18.7370 68.47 73.47 8.27
17633 18.7380 70.18 73.36 8.38
17634 18.7390 68.26 73.25 8.26
17635 18.7400 79.73 73.14 8.93
17636 18.7410 78.11 73.03 8.84
17637 18.7420 70.83 72.92 8.42
17638 18.7430 67.80 72.82 8.23
17639 18.7440 69.86 72.71 8.36
17640 18.7450 64.18 72.61 8.01
17641 18.7460 61.71 72.51 7.86
17642 18.7470 63.10 72.41 7.94
17643 18.7480 63.55 72.32 7.97
17644 18.7490 60.46 72.22 7.78
17645 18.7500 66.98 72.13 8.18
17646 18.7510 65.05 72.03 8.07
17647 18.7520 66.58 71.94 8.16
17648 18.7530 79.07 71.86 8.89
17649 18.7540 75.34 71.77 8.68
17650 18.7550 77.13 71.69 8.78
17651 18.7560 76.14 71.60 8.73
17652 18.7570 70.61 71.53 8.40
17653 18.7580 63.61 71.45 7.98
17654 18.7590 69.04 71.38 8.31
17655 18.7600 68.23 71.30 8.26
17656 18.7610 66.28 71.23 8.14
17657 18.7620 68.00 71.16 8.25
17658 18.7630 69.41 71.09 8.33
17659 18.7640 75.63 71.02 8.70
17660 18.7650 72.66 70.95 8.52
17661 18.7660 70.66 70.89 8.41
17662 18.7670 75.18 70.82 8.67
17663 18.7680 63.44 70.76 7.96
17664 18.7690 70.66 70.70 8.41
17665 18.7700 69.44 70.64 8.33
17666 18.7710 69.05 70.58 8.31
17667 18.7720 74.50 70.53 8.63
17668 18.7730 70.61 70.48 8.40
17669 18.7740 66.20 70.42 8.14
17670 18.7750 66.02 70.37 8.13
17671 18.7760 71.84 70.32 8.48
17672 18.7770 66.53 70.28 8.16
17673 18.7780 72.84 70.23 8.53
17674 18.7790 76.25 70.19 8.73
17675 18.7800 68.65 70.14 8.29
17676 18.7810 75.00 70.10 8.66
17677 18.7820 68.17 70.06 8.26
17678 18.7830 68.30 70.02 8.26
17679 18.7840 72.30 69.99 8.50
17680 18.7850 82.13 69.95 9.06
17681 18.7860 77.51 69.92 8.80
17682 18.7870 75.19 69.89 8.67
17683 18.7880 62.20 69.85 7.89
17684 18.7890 71.36 69.83 8.45
17685 18.7900 70.11 69.80 8.37
17686 18.7910 64.32 69.77 8.02
17687 18.7920 75.04 69.74 8.66
17688 18.7930 71.69 69.72 8.47
17689 18.7940 63.62 69.70 7.98
17690 18.7950 65.70 69.68 8.11
17691 18.7960 68.64 69.66 8.28
17692 18.7970 64.99 69.64 8.06
17693 18.7980 68.12 69.62 8.25
17694 18.7990 64.07 69.60 8.00
17695 18.8000 73.25 69.59 8.56
17696 18.8010 75.88 69.57 8.71
17697 18.8020 72.04 69.56 8.49
17698 18.8030 69.36 69.55 8.33
17699 18.8040 71.12 69.54 8.43
17700 18.8050 70.19 69.53 8.38
17701 18.8060 74.76 69.52 8.65
17702 18.8070 63.68 69.52 7.98
17703 18.8080 67.68 69.51 8.23
17704 18.8090 70.15 69.51 8.38
17705 18.8100 68.10 69.50 8.25
17706 18.8110 71.12 69.50 8.43
17707 18.8120 73.48 69.50 8.57
17708 18.8130 79.39 69.50 8.91
17709 18.8140 71.02 69.50 8.43
17710 18.8150 68.47 69.50 8.27
17711 18.8160 76.37 69.50 8.74
17712 18.8170 69.48 69.50 8.34
17713 18.8180 76.94 69.50 8.77
17714 18.8190 78.44 69.51 8.86
17715 18.8200 74.76 69.51 8.65
17716 18.8210 69.01 69.52 8.31
17717 18.8220 67.68 69.52 8.23
17718 18.8230 72.74 69.52 8.53
17719 18.8240 69.44 69.53 8.33
17720 18.8250 81.81 69.54 9.04
17721 18.8260 78.02 69.55 8.83
17722 18.8270 62.09 69.56 7.88
17723 18.8280 66.70 69.56 8.17
17724 18.8290 66.43 69.57 8.15
17725 18.8300 71.66 69.58 8.47
17726 18.8310 75.77 69.60 8.70
17727 18.8320 76.60 69.61 8.75
17728 18.8330 78.53 69.62 8.86
17729 18.8340 69.27 69.63 8.32
17730 18.8350 67.11 69.64 8.19
17731 18.8360 79.38 69.66 8.91
17732 18.8370 79.50 69.67 8.92
17733 18.8380 77.93 69.68 8.83
17734 18.8390 70.68 69.70 8.41
17735 18.8400 81.12 69.71 9.01
17736 18.8410 70.19 69.72 8.38
17737 18.8420 79.14 69.74 8.90
17738 18.8430 68.31 69.75 8.26
17739 18.8440 68.98 69.76 8.31
17740 18.8450 65.56 69.77 8.10
17741 18.8460 64.29 69.79 8.02
17742 18.8470 75.64 69.80 8.70
17743 18.8480 69.21 69.82 8.32
17744 18.8490 60.66 69.83 7.79
17745 18.8500 70.36 69.84 8.39
17746 18.8510 61.51 69.86 7.84
17747 18.8520 70.45 69.87 8.39
17748 18.8530 61.47 69.89 7.84
17749 18.8540 63.71 69.89 7.98
17750 18.8550 61.58 69.90 7.85
17751 18.8560 71.04 69.91 8.43
17752 18.8570 71.22 69.93 8.44
17753 18.8580 60.84 69.94 7.80
17754 18.8590 72.94 69.95 8.54
17755 18.8600 72.06 69.97 8.49
17756 18.8610 66.16 69.98 8.13
17757 18.8620 69.03 69.99 8.31
17758 18.8630 61.33 70.00 7.83
17759 18.8640 81.04 70.01 9.00
17760 18.8650 75.70 70.02 8.70
17761 18.8660 74.97 70.03 8.66
17762 18.8670 69.97 70.04 8.36
17763 18.8680 63.10 70.05 7.94
17764 18.8690 65.73 70.06 8.11
17765 18.8700 69.31 70.07 8.33
17766 18.8710 69.56 70.08 8.34
17767 18.8720 73.65 70.08 8.58
17768 18.8730 70.27 70.09 8.38
17769 18.8740 74.31 70.10 8.62
17770 18.8750 71.21 70.10 8.44
17771 18.8760 75.16 70.11 8.67
17772 18.8770 69.46 70.11 8.33
17773 18.8780 67.86 70.12 8.24
17774 18.8790 62.62 70.12 7.91
17775 18.8800 67.23 70.13 8.20
17776 18.8810 63.89 70.14 7.99
17777 18.8820 65.17 70.14 8.07
17778 18.8830 67.51 70.14 8.22
17779 18.8840 59.86 70.14 7.74
17780 18.8850 74.52 70.15 8.63
17781 18.8860 65.04 70.15 8.06
17782 18.8870 76.39 70.15 8.74
17783 18.8880 76.56 70.15 8.75
17784 18.8890 72.39 70.15 8.51
17785 18.8900 65.66 70.15 8.10
17786 18.8910 65.48 70.16 8.09
17787 18.8920 65.80 70.16 8.11
17788 18.8930 65.57 70.16 8.10
17789 18.8940 65.60 70.16 8.10
17790 18.8950 59.13 70.16 7.69
17791 18.8960 55.93 70.17 7.48
17792 18.8970 70.41 70.18 8.39
17793 18.8980 73.44 70.18 8.57
17794 18.8990 74.82 70.18 8.65
17795 18.9000 67.83 70.18 8.24
17796 18.9010 64.71 70.18 8.04
17797 18.9020 67.98 70.18 8.24
17798 18.9030 70.17 70.19 8.38
17799 18.9040 70.49 70.19 8.40
17800 18.9050 63.12 70.19 7.94
17801 18.9060 67.47 70.19 8.21
17802 18.9070 62.74 70.19 7.92
17803 18.9080 65.53 70.19 8.10
17804 18.9090 70.23 70.19 8.38
17805 18.9100 65.19 70.19 8.07
17806 18.9110 61.27 70.20 7.83
17807 18.9120 68.91 70.20 8.30
17808 18.9130 69.88 70.21 8.36
17809 18.9140 74.91 70.21 8.66
17810 18.9150 68.52 70.22 8.28
17811 18.9160 57.36 70.23 7.57
17812 18.9170 68.13 70.24 8.25
17813 18.9180 63.81 70.24 7.99
17814 18.9190 74.50 70.25 8.63
17815 18.9200 64.18 70.26 8.01
17816 18.9210 58.64 70.27 7.66
17817 18.9220 65.60 70.28 8.10
17818 18.9230 64.66 70.30 8.04
17819 18.9240 66.05 70.31 8.13
17820 18.9250 71.04 70.31 8.43
17821 18.9260 65.96 70.32 8.12
17822 18.9270 72.89 70.33 8.54
17823 18.9280 63.46 70.35 7.97
17824 18.9290 72.40 70.37 8.51
17825 18.9300 57.90 70.38 7.61
17826 18.9310 65.88 70.40 8.12
17827 18.9320 65.34 70.42 8.08
17828 18.9330 83.51 70.44 9.14
17829 18.9340 74.19 70.46 8.61
17830 18.9350 72.19 70.49 8.50
17831 18.9360 73.63 70.51 8.58
17832 18.9370 74.97 70.54 8.66
17833 18.9380 75.16 70.56 8.67
17834 18.9390 72.03 70.59 8.49
17835 18.9400 61.57 70.62 7.85
17836 18.9410 62.56 70.65 7.91
17837 18.9420 66.39 70.68 8.15
17838 18.9430 75.17 70.71 8.67
17839 18.9440 67.03 70.75 8.19
17840 18.9450 72.59 70.78 8.52
17841 18.9460 64.06 70.82 8.00
17842 18.9470 70.79 70.85 8.41
17843 18.9480 70.64 70.89 8.40
17844 18.9490 60.03 70.93 7.75
17845 18.9500 84.70 70.97 9.20
17846 18.9510 71.95 71.01 8.48
17847 18.9520 62.02 71.04 7.88
17848 18.9530 73.04 71.08 8.55
17849 18.9540 74.43 71.13 8.63
17850 18.9550 73.69 71.17 8.58
17851 18.9560 77.17 71.22 8.78
17852 18.9570 63.54 71.26 7.97
17853 18.9580 67.04 71.31 8.19
17854 18.9590 74.07 71.36 8.61
17855 18.9600 75.57 71.41 8.69
17856 18.9610 72.09 71.46 8.49
17857 18.9620 67.11 71.51 8.19
17858 18.9630 58.52 71.57 7.65
17859 18.9640 71.05 71.62 8.43
17860 18.9650 73.22 71.67 8.56
17861 18.9660 80.15 71.73 8.95
17862 18.9670 66.44 71.78 8.15
17863 18.9680 73.11 71.84 8.55
17864 18.9690 68.58 71.90 8.28
17865 18.9700 83.11 71.96 9.12
17866 18.9710 71.02 72.02 8.43
17867 18.9720 82.21 72.08 9.07
17868 18.9730 74.11 72.14 8.61
17869 18.9740 67.31 72.15 8.20
17870 18.9750 63.89 72.22 7.99
17871 18.9760 72.98 72.28 8.54
17872 18.9770 68.94 72.34 8.30
17873 18.9780 62.16 72.40 7.88
17874 18.9790 75.32 72.46 8.68
17875 18.9800 72.00 72.53 8.49
17876 18.9810 81.97 72.60 9.05
17877 18.9820 85.87 72.67 9.27
17878 18.9830 75.16 72.74 8.67
17879 18.9840 74.17 72.81 8.61
17880 18.9850 84.24 72.88 9.18
17881 18.9860 78.85 72.95 8.88
17882 18.9870 84.85 73.02 9.21
17883 18.9880 68.58 73.09 8.28
17884 18.9890 59.96 73.17 7.74
17885 18.9900 74.05 73.24 8.61
17886 18.9910 77.89 73.31 8.83
17887 18.9920 74.00 73.39 8.60
17888 18.9930 89.34 73.47 9.45
17889 18.9940 80.04 73.54 8.95
17890 18.9950 72.97 73.62 8.54
17891 18.9960 86.20 73.70 9.28
17892 18.9970 75.74 73.78 8.70
17893 18.9980 75.43 73.86 8.69
17894 18.9990 78.45 73.94 8.86
17895 19.0000 77.11 74.02 8.78
17896 19.0010 75.79 74.10 8.71
17897 19.0020 71.04 74.18 8.43
17898 19.0030 73.79 74.26 8.59
17899 19.0040 79.16 74.34 8.90
17900 19.0050 78.59 74.43 8.87
17901 19.0060 77.64 74.51 8.81
17902 19.0070 72.63 74.60 8.52
17903 19.0080 75.41 74.69 8.68
17904 19.0090 73.01 74.77 8.54
17905 19.0100 75.17 74.86 8.67
17906 19.0110 86.32 74.94 9.29
17907 19.0120 78.31 75.03 8.85
17908 19.0130 96.00 75.11 9.80
17909 19.0140 83.28 75.20 9.13
17910 19.0150 79.52 75.29 8.92
17911 19.0160 74.34 75.38 8.62
17912 19.0170 79.64 75.47 8.92
17913 19.0180 84.08 75.55 9.17
17914 19.0190 84.84 75.64 9.21
17915 19.0200 86.87 75.73 9.32
17916 19.0210 83.26 75.82 9.12
17917 19.0220 89.93 75.91 9.48
17918 19.0230 83.00 76.00 9.11
17919 19.0240 80.05 76.09 8.95
17920 19.0250 81.13 76.19 9.01
17921 19.0260 89.88 76.28 9.48
17922 19.0270 89.56 76.37 9.46
17923 19.0280 85.13 76.46 9.23
17924 19.0290 82.11 76.55 9.06
17925 19.0300 90.93 76.64 9.54
17926 19.0310 82.48 76.73 9.08
17927 19.0320 77.79 76.83 8.82
17928 19.0330 80.04 76.92 8.95
17929 19.0340 87.31 77.00 9.34
17930 19.0350 83.06 77.10 9.11
17931 19.0360 69.07 77.19 8.31
17932 19.0370 89.11 77.28 9.44
17933 19.0380 79.23 77.38 8.90
17934 19.0390 76.20 77.47 8.73
17935 19.0400 79.28 77.57 8.90
17936 19.0410 85.89 77.66 9.27
17937 19.0420 91.21 77.76 9.55
17938 19.0430 91.16 77.86 9.55
17939 19.0440 92.59 77.95 9.62
17940 19.0450 79.22 78.05 8.90
17941 19.0460 90.30 78.14 9.50
17942 19.0470 98.56 78.24 9.93
17943 19.0480 97.93 78.34 9.90
17944 19.0490 91.55 78.43 9.57
17945 19.0500 86.55 78.53 9.30
17946 19.0510 82.51 78.63 9.08
17947 19.0520 85.82 78.72 9.26
17948 19.0530 82.99 78.82 9.11
17949 19.0540 87.11 78.92 9.33
17950 19.0550 82.01 79.00 9.06
17951 19.0560 81.80 79.10 9.04
17952 19.0570 86.21 79.19 9.28
17953 19.0580 78.38 79.29 8.85
17954 19.0590 81.91 79.39 9.05
17955 19.0600 87.08 79.49 9.33
17956 19.0610 93.94 79.59 9.69
17957 19.0620 79.55 79.69 8.92
17958 19.0630 83.51 79.79 9.14
17959 19.0640 77.08 79.89 8.78
17960 19.0650 92.57 80.00 9.62
17961 19.0660 77.58 80.10 8.81
17962 19.0670 87.67 80.20 9.36
17963 19.0680 84.28 80.30 9.18
17964 19.0690 83.63 80.40 9.14
17965 19.0700 81.26 80.51 9.01
17966 19.0710 80.57 80.61 8.98
17967 19.0720 82.31 80.72 9.07
17968 19.0730 87.36 80.82 9.35
17969 19.0740 85.58 80.93 9.25
17970 19.0750 92.40 81.04 9.61
17971 19.0760 89.26 81.14 9.45
17972 19.0770 83.96 81.25 9.16
17973 19.0780 89.53 81.36 9.46
17974 19.0790 84.79 81.47 9.21
17975 19.0800 105.24 81.58 10.26
17976 19.0810 92.42 81.69 9.61
17977 19.0820 93.69 81.80 9.68
17978 19.0830 86.38 81.91 9.29
17979 19.0840 91.88 82.02 9.59
17980 19.0850 93.09 82.13 9.65
17981 19.0860 94.02 82.26 9.70
17982 19.0870 96.21 82.37 9.81
17983 19.0880 86.77 82.49 9.32
17984 19.0890 85.70 82.61 9.26
17985 19.0900 91.76 82.73 9.58
17986 19.0910 76.58 82.84 8.75
17987 19.0920 86.76 82.96 9.31
17988 19.0930 96.65 83.08 9.83
17989 19.0940 100.59 83.20 10.03
17990 19.0950 89.40 83.32 9.46
17991 19.0960 82.68 83.44 9.09
17992 19.0970 83.19 83.57 9.12
17993 19.0980 97.00 83.69 9.85
17994 19.0990 85.08 83.81 9.22
17995 19.1000 87.89 83.94 9.37
17996 19.1010 94.74 84.06 9.73
17997 19.1020 90.65 84.19 9.52
17998 19.1030 85.17 84.32 9.23
17999 19.1040 87.55 84.45 9.36
18000 19.1050 95.11 84.58 9.75
18001 19.1060 95.23 84.71 9.76
18002 19.1070 100.14 84.84 10.01
18003 19.1080 100.01 84.97 10.00
18004 19.1090 96.50 85.10 9.82
18005 19.1100 93.21 85.24 9.65
18006 19.1110 95.08 85.37 9.75
18007 19.1120 105.58 85.50 10.28
18008 19.1130 109.72 85.63 10.47
18009 19.1140 96.82 85.77 9.84
18010 19.1150 89.19 85.91 9.44
18011 19.1160 95.95 86.05 9.80
18012 19.1170 98.77 86.19 9.94
18013 19.1180 92.86 86.33 9.64
18014 19.1190 86.02 86.47 9.27
18015 19.1200 87.98 86.61 9.38
18016 19.1210 96.23 86.76 9.81
18017 19.1220 81.87 86.90 9.05
18018 19.1230 83.24 87.05 9.12
18019 19.1240 87.28 87.20 9.34
18020 19.1250 93.67 87.35 9.68
18021 19.1260 101.79 87.50 10.09
18022 19.1270 92.90 87.65 9.64
18023 19.1280 90.51 87.80 9.51
18024 19.1290 93.31 87.95 9.66
18025 19.1300 95.23 88.11 9.76
18026 19.1310 98.91 88.26 9.95
18027 19.1320 95.07 88.42 9.75
18028 19.1330 98.70 88.57 9.93
18029 19.1340 94.72 88.73 9.73
18030 19.1350 91.51 88.89 9.57
18031 19.1360 91.48 89.04 9.56
18032 19.1370 108.73 89.20 10.43
18033 19.1380 111.78 89.37 10.57
18034 19.1390 112.51 89.53 10.61
18035 19.1400 105.66 89.69 10.28
18036 19.1410 118.40 89.85 10.88
18037 19.1420 91.82 90.01 9.58
18038 19.1430 105.40 90.18 10.27
18039 19.1440 97.51 90.34 9.87
18040 19.1450 107.87 90.50 10.39
18041 19.1460 108.49 90.67 10.42
18042 19.1470 101.03 90.84 10.05
18043 19.1480 94.40 91.00 9.72
18044 19.1490 95.25 91.16 9.76
18045 19.1500 84.17 91.32 9.17
18046 19.1510 89.50 91.49 9.46
18047 19.1520 99.54 91.66 9.98
18048 19.1530 99.06 91.83 9.95
18049 19.1540 98.54 92.00 9.93
18050 19.1550 99.83 92.17 9.99
18051 19.1560 103.16 92.34 10.16
18052 19.1570 106.52 92.51 10.32
18053 19.1580 105.69 92.68 10.28
18054 19.1590 97.22 92.85 9.86
18055 19.1600 104.78 93.02 10.24
18056 19.1610 109.18 93.19 10.45
18057 19.1620 100.02 93.36 10.00
18058 19.1630 108.24 93.53 10.40
18059 19.1640 116.56 93.70 10.80
18060 19.1650 110.10 93.87 10.49
18061 19.1660 103.81 94.04 10.19
18062 19.1670 101.96 94.21 10.10
18063 19.1680 94.73 94.37 9.73
18064 19.1690 97.40 94.54 9.87
18065 19.1700 98.54 94.71 9.93
18066 19.1710 95.12 94.88 9.75
18067 19.1720 111.19 95.04 10.54
18068 19.1730 108.54 95.21 10.42
18069 19.1740 113.77 95.37 10.67
18070 19.1750 104.92 95.54 10.24
18071 19.1760 97.32 95.70 9.87
18072 19.1770 102.39 95.87 10.12
18073 19.1780 119.24 96.03 10.92
18074 19.1790 118.39 96.19 10.88
18075 19.1800 124.49 96.35 11.16
18076 19.1810 115.38 96.51 10.74
18077 19.1820 112.32 96.67 10.60
18078 19.1830 111.07 96.83 10.54
18079 19.1840 125.77 96.99 11.21
18080 19.1850 134.56 97.15 11.60
18081 19.1860 135.56 97.30 11.64
18082 19.1870 113.06 97.46 10.63
18083 19.1880 116.86 97.61 10.81
18084 19.1890 124.71 97.76 11.17
18085 19.1900 123.50 97.92 11.11
18086 19.1910 121.32 98.07 11.01
18087 19.1920 129.78 98.22 11.39
18088 19.1930 136.82 98.37 11.70
18089 19.1940 119.81 98.51 10.95
18090 19.1950 116.04 98.66 10.77
18091 19.1960 117.33 98.80 10.83
18092 19.1970 122.60 98.95 11.07
18093 19.1980 130.79 99.09 11.44
18094 19.1990 119.19 99.22 10.92
18095 19.2000 124.36 99.36 11.15
18096 19.2010 104.80 99.49 10.24
18097 19.2020 112.17 99.63 10.59
18098 19.2030 120.56 99.77 10.98
18099 19.2040 112.60 99.90 10.61
18100 19.2050 110.94 100.04 10.53
18101 19.2060 121.36 100.17 11.02
18102 19.2070 117.89 100.30 10.86
18103 19.2080 115.82 100.43 10.76
18104 19.2090 103.78 100.56 10.19
18105 19.2100 116.02 100.69 10.77
18106 19.2110 110.29 100.82 10.50
18107 19.2120 117.84 100.94 10.86
18108 19.2130 119.87 101.07 10.95
18109 19.2140 104.62 101.20 10.23
18110 19.2150 116.83 101.32 10.81
18111 19.2160 113.23 101.44 10.64
18112 19.2170 107.32 101.57 10.36
18113 19.2180 106.13 101.69 10.30
18114 19.2190 113.08 101.81 10.63
18115 19.2200 113.13 101.93 10.64
18116 19.2210 116.87 102.05 10.81
18117 19.2220 113.25 102.16 10.64
18118 19.2230 112.56 102.29 10.61
18119 19.2240 105.41 102.40 10.27
18120 19.2250 106.86 102.52 10.34
18121 19.2260 106.80 102.64 10.33
18122 19.2270 109.73 102.76 10.48
18123 19.2280 116.89 102.88 10.81
18124 19.2290 103.28 102.99 10.16
18125 19.2300 106.16 103.10 10.30
18126 19.2310 98.25 103.22 9.91
18127 19.2320 99.39 103.33 9.97
18128 19.2330 97.49 103.44 9.87
18129 19.2340 110.49 103.55 10.51
18130 19.2350 107.54 103.67 10.37
18131 19.2360 102.04 103.78 10.10
18132 19.2370 102.73 103.89 10.14
18133 19.2380 97.03 104.00 9.85
18134 19.2390 118.40 104.11 10.88
18135 19.2400 109.62 104.22 10.47
18136 19.2410 100.95 104.32 10.05
18137 19.2420 111.05 104.43 10.54
18138 19.2430 111.94 104.54 10.58
18139 19.2440 110.33 104.65 10.50
18140 19.2450 109.12 104.75 10.45
18141 19.2460 111.42 104.86 10.56
18142 19.2470 119.64 104.97 10.94
18143 19.2480 123.43 105.07 11.11
18144 19.2490 120.04 105.18 10.96
18145 19.2500 115.04 105.28 10.73
18146 19.2510 111.21 105.39 10.55
18147 19.2520 107.51 105.49 10.37
18148 19.2530 112.43 105.59 10.60
18149 19.2540 113.52 105.69 10.65
18150 19.2550 116.99 105.79 10.82
18151 19.2560 123.90 105.89 11.13
18152 19.2570 124.52 106.00 11.16
18153 19.2580 114.55 106.09 10.70
18154 19.2590 105.34 106.19 10.26
18155 19.2600 120.51 106.29 10.98
18156 19.2610 112.71 106.39 10.62
18157 19.2620 116.12 106.48 10.78
18158 19.2630 112.86 106.57 10.62
18159 19.2640 107.55 106.67 10.37
18160 19.2650 117.94 106.76 10.86
18161 19.2660 118.25 106.85 10.87
18162 19.2670 117.96 106.94 10.86
18163 19.2680 119.40 107.03 10.93
18164 19.2690 117.55 107.12 10.84
18165 19.2700 132.08 107.21 11.49
18166 19.2710 114.53 107.30 10.70
18167 19.2720 124.45 107.39 11.16
18168 19.2730 125.28 107.47 11.19
18169 19.2740 107.10 107.55 10.35
18170 19.2750 109.84 107.64 10.48
18171 19.2760 113.68 107.72 10.66
18172 19.2770 123.25 107.80 11.10
18173 19.2780 127.82 107.88 11.31
18174 19.2790 120.40 107.96 10.97
18175 19.2800 117.55 108.04 10.84
18176 19.2810 126.85 108.11 11.26
18177 19.2820 119.89 108.19 10.95
18178 19.2830 108.19 108.25 10.40
18179 19.2840 124.54 108.32 11.16
18180 19.2850 133.34 108.40 11.55
18181 19.2860 134.10 108.47 11.58
18182 19.2870 128.28 108.54 11.33
18183 19.2880 123.26 108.61 11.10
18184 19.2890 126.68 108.67 11.26
18185 19.2900 123.84 108.74 11.13
18186 19.2910 136.47 108.81 11.68
18187 19.2920 135.36 108.86 11.63
18188 19.2930 137.64 108.93 11.73
18189 19.2940 120.67 108.99 10.98
18190 19.2950 112.87 109.05 10.62
18191 19.2960 125.50 109.11 11.20
18192 19.2970 116.72 109.18 10.80
18193 19.2980 125.71 109.24 11.21
18194 19.2990 126.07 109.29 11.23
18195 19.3000 127.54 109.35 11.29
18196 19.3010 105.39 109.41 10.27
18197 19.3020 127.05 109.46 11.27
18198 19.3030 114.31 109.52 10.69
18199 19.3040 110.69 109.58 10.52
18200 19.3050 128.19 109.63 11.32
18201 19.3060 103.39 109.69 10.17
18202 19.3070 124.48 109.74 11.16
18203 19.3080 104.69 109.79 10.23
18204 19.3090 130.27 109.85 11.41
18205 19.3100 125.20 109.90 11.19
18206 19.3110 122.80 109.95 11.08
18207 19.3120 118.75 110.01 10.90
18208 19.3130 102.38 110.06 10.12
18209 19.3140 109.50 110.11 10.46
18210 19.3150 119.06 110.16 10.91
18211 19.3160 105.31 110.21 10.26
18212 19.3170 118.77 110.26 10.90
18213 19.3180 120.53 110.32 10.98
18214 19.3190 124.70 110.37 11.17
18215 19.3200 113.85 110.42 10.67
18216 19.3210 110.27 110.47 10.50
18217 19.3220 104.15 110.52 10.21
18218 19.3230 124.72 110.57 11.17
18219 19.3240 126.21 110.62 11.23
18220 19.3250 128.87 110.67 11.35
18221 19.3260 113.78 110.72 10.67
18222 19.3270 114.12 110.77 10.68
18223 19.3280 114.68 110.82 10.71
18224 19.3290 124.88 110.87 11.18
18225 19.3300 123.44 110.92 11.11
18226 19.3310 126.85 110.97 11.26
18227 19.3320 121.69 111.02 11.03
18228 19.3330 103.39 111.07 10.17
18229 19.3340 119.31 111.11 10.92
18230 19.3350 121.92 111.16 11.04
18231 19.3360 127.79 111.21 11.30
18232 19.3370 111.59 111.26 10.56
18233 19.3380 132.44 111.31 11.51
18234 19.3390 131.10 111.36 11.45
18235 19.3400 119.46 111.40 10.93
18236 19.3410 118.68 111.45 10.89
18237 19.3420 120.50 111.50 10.98
18238 19.3430 107.79 111.55 10.38
18239 19.3440 125.62 111.60 11.21
18240 19.3450 113.20 111.64 10.64
18241 19.3460 113.00 111.69 10.63
18242 19.3470 118.78 111.74 10.90
18243 19.3480 109.17 111.79 10.45
18244 19.3490 118.62 111.83 10.89
18245 19.3500 113.85 111.88 10.67
18246 19.3510 122.48 111.93 11.07
18247 19.3520 124.97 111.98 11.18
18248 19.3530 119.19 112.01 10.92
18249 19.3540 110.37 112.06 10.51
18250 19.3550 125.35 112.10 11.20
18251 19.3560 112.86 112.15 10.62
18252 19.3570 115.76 112.19 10.76
18253 19.3580 116.12 112.24 10.78
18254 19.3590 125.68 112.29 11.21
18255 19.3600 114.66 112.33 10.71
18256 19.3610 111.47 112.38 10.56
18257 19.3620 119.14 112.43 10.92
18258 19.3630 111.60 112.47 10.56
18259 19.3640 121.75 112.52 11.03
18260 19.3650 119.06 112.57 10.91
18261 19.3660 112.01 112.61 10.58
18262 19.3670 102.28 112.66 10.11
18263 19.3680 106.66 112.71 10.33
18264 19.3690 109.57 112.76 10.47
18265 19.3700 113.21 112.81 10.64
18266 19.3710 109.40 112.86 10.46
18267 19.3720 131.64 112.91 11.47
18268 19.3730 104.15 112.96 10.21
18269 19.3740 110.82 113.01 10.53
18270 19.3750 123.69 113.07 11.12
18271 19.3760 113.06 113.12 10.63
18272 19.3770 92.88 113.17 9.64
18273 19.3780 99.49 113.22 9.97
18274 19.3790 116.36 113.28 10.79
18275 19.3800 113.81 113.34 10.67
18276 19.3810 108.27 113.37 10.41
18277 19.3820 110.30 113.43 10.50
18278 19.3830 117.09 113.49 10.82
18279 19.3840 117.50 113.55 10.84
18280 19.3850 114.79 113.61 10.71
18281 19.3860 102.10 113.67 10.10
18282 19.3870 96.88 113.74 9.84
18283 19.3880 120.99 113.80 11.00
18284 19.3890 126.15 113.86 11.23
18285 19.3900 104.48 113.93 10.22
18286 19.3910 108.19 114.00 10.40
18287 19.3920 108.97 114.07 10.44
18288 19.3930 106.79 114.14 10.33
18289 19.3940 104.45 114.21 10.22
18290 19.3950 96.67 114.29 9.83
18291 19.3960 106.44 114.36 10.32
18292 19.3970 118.98 114.44 10.91
18293 19.3980 95.76 114.52 9.79
18294 19.3990 112.98 114.60 10.63
18295 19.4000 112.92 114.68 10.63
18296 19.4010 102.46 114.76 10.12
18297 19.4020 101.81 114.84 10.09
18298 19.4030 118.80 114.93 10.90
18299 19.4040 109.85 115.01 10.48
18300 19.4050 115.68 115.10 10.76
18301 19.4060 124.63 115.20 11.16
18302 19.4070 123.44 115.29 11.11
18303 19.4080 114.85 115.38 10.72
18304 19.4090 117.49 115.47 10.84
18305 19.4100 110.03 115.56 10.49
18306 19.4110 117.51 115.66 10.84
18307 19.4120 95.83 115.75 9.79
18308 19.4130 102.65 115.83 10.13
18309 19.4140 117.67 115.93 10.85
18310 19.4150 110.42 116.03 10.51
18311 19.4160 108.45 116.13 10.41
18312 19.4170 108.22 116.22 10.40
18313 19.4180 104.39 116.33 10.22
18314 19.4190 109.26 116.43 10.45
18315 19.4200 111.92 116.53 10.58
18316 19.4210 119.06 116.63 10.91
18317 19.4220 120.00 116.74 10.95
18318 19.4230 112.00 116.84 10.58
18319 19.4240 105.35 116.94 10.26
18320 19.4250 104.14 117.05 10.20
18321 19.4260 98.36 117.15 9.92
18322 19.4270 121.52 117.26 11.02
18323 19.4280 112.33 117.37 10.60
18324 19.4290 125.12 117.47 11.19
18325 19.4300 114.09 117.58 10.68
18326 19.4310 109.87 117.68 10.48
18327 19.4320 116.81 117.78 10.81
18328 19.4330 120.69 117.89 10.99
18329 19.4340 112.94 117.99 10.63
18330 19.4350 109.26 118.10 10.45
18331 19.4360 118.85 118.20 10.90
18332 19.4370 108.73 118.30 10.43
18333 19.4380 107.99 118.40 10.39
18334 19.4390 111.19 118.50 10.54
18335 19.4400 101.03 118.60 10.05
18336 19.4410 110.53 118.70 10.51
18337 19.4420 120.61 118.81 10.98
18338 19.4430 116.92 118.90 10.81
18339 19.4440 110.49 119.00 10.51
18340 19.4450 112.31 119.09 10.60
18341 19.4460 109.17 119.18 10.45
18342 19.4470 115.29 119.28 10.74
18343 19.4480 123.83 119.36 11.13
18344 19.4490 116.72 119.45 10.80
18345 19.4500 112.43 119.54 10.60
18346 19.4510 103.32 119.62 10.16
18347 19.4520 118.70 119.70 10.90
18348 19.4530 125.57 119.78 11.21
18349 19.4540 125.11 119.86 11.19
18350 19.4550 116.33 119.93 10.79
18351 19.4560 114.39 120.00 10.70
18352 19.4570 107.60 120.07 10.37
18353 19.4580 104.08 120.14 10.20
18354 19.4590 123.60 120.20 11.12
18355 19.4600 112.30 120.26 10.60
18356 19.4610 124.40 120.32 11.15
18357 19.4620 113.38 120.38 10.65
18358 19.4630 112.98 120.44 10.63
18359 19.4640 108.87 120.49 10.43
18360 19.4650 112.80 120.54 10.62
18361 19.4660 110.34 120.58 10.50
18362 19.4670 121.92 120.63 11.04
18363 19.4680 114.73 120.67 10.71
18364 19.4690 110.76 120.70 10.52
18365 19.4700 123.78 120.73 11.13
18366 19.4710 131.29 120.76 11.46
18367 19.4720 131.42 120.79 11.46
18368 19.4730 118.12 120.81 10.87
18369 19.4740 123.58 120.82 11.12
18370 19.4750 131.76 120.84 11.48
18371 19.4760 115.44 120.85 10.74
18372 19.4770 118.41 120.86 10.88
18373 19.4780 118.12 120.86 10.87
18374 19.4790 103.11 120.86 10.15
18375 19.4800 127.51 120.86 11.29
18376 19.4810 136.16 120.85 11.67
18377 19.4820 142.74 120.84 11.95
18378 19.4830 126.18 120.82 11.23
18379 19.4840 136.21 120.81 11.67
18380 19.4850 120.61 120.78 10.98
18381 19.4860 119.21 120.75 10.92
18382 19.4870 107.40 120.72 10.36
18383 19.4880 114.60 120.69 10.71
18384 19.4890 121.57 120.65 11.03
18385 19.4900 118.54 120.61 10.89
18386 19.4910 129.03 120.56 11.36
18387 19.4920 105.32 120.51 10.26
18388 19.4930 115.50 120.46 10.75
18389 19.4940 124.22 120.40 11.15
18390 19.4950 126.66 120.33 11.25
18391 19.4960 116.92 120.27 10.81
18392 19.4970 103.22 120.20 10.16
18393 19.4980 115.84 120.12 10.76
18394 19.4990 104.13 120.05 10.20
18395 19.5000 102.99 119.96 10.15
18396 19.5010 106.81 119.88 10.33
18397 19.5020 116.76 119.79 10.81
18398 19.5030 119.65 119.69 10.94
18399 19.5040 119.15 119.60 10.92
18400 19.5050 114.81 119.50 10.71
18401 19.5060 104.40 119.39 10.22
18402 19.5070 119.81 119.29 10.95
18403 19.5080 129.45 119.17 11.38
18404 19.5090 122.28 119.06 11.06
18405 19.5100 118.50 118.94 10.89
18406 19.5110 104.59 118.81 10.23
18407 19.5120 125.00 118.69 11.18
18408 19.5130 122.04 118.56 11.05
18409 19.5140 110.09 118.42 10.49
18410 19.5150 105.98 118.28 10.29
18411 19.5160 112.19 118.14 10.59
18412 19.5170 127.83 118.00 11.31
18413 19.5180 134.39 117.85 11.59
18414 19.5190 128.76 117.70 11.35
18415 19.5200 124.58 117.54 11.16
18416 19.5210 118.45 117.38 10.88
18417 19.5220 112.76 117.22 10.62
18418 19.5230 122.90 117.05 11.09
18419 19.5240 122.19 116.88 11.05
18420 19.5250 126.40 116.71 11.24
18421 19.5260 123.73 116.54 11.12
18422 19.5270 110.07 116.36 10.49
18423 19.5280 117.99 116.18 10.86
18424 19.5290 114.32 115.99 10.69
18425 19.5300 118.88 115.80 10.90
18426 19.5310 99.19 115.61 9.96
18427 19.5320 108.99 115.42 10.44
18428 19.5330 108.85 115.22 10.43
18429 19.5340 99.87 115.03 9.99
18430 19.5350 115.66 114.82 10.75
18431 19.5360 143.97 114.62 12.00
18432 19.5370 113.24 114.42 10.64
18433 19.5380 111.14 114.21 10.54
18434 19.5390 125.68 114.00 11.21
18435 19.5400 103.32 113.79 10.16
18436 19.5410 104.85 113.57 10.24
18437 19.5420 104.08 113.36 10.20
18438 19.5430 108.51 113.14 10.42
18439 19.5440 109.89 112.92 10.48
18440 19.5450 121.62 112.70 11.03
18441 19.5460 114.91 112.48 10.72
18442 19.5470 118.81 112.26 10.90
18443 19.5480 98.75 112.03 9.94
18444 19.5490 104.35 111.81 10.22
18445 19.5500 105.85 111.58 10.29
18446 19.5510 105.91 111.35 10.29
18447 19.5520 109.00 111.12 10.44
18448 19.5530 110.69 110.90 10.52
18449 19.5540 101.45 110.67 10.07
18450 19.5550 101.94 110.44 10.10
18451 19.5560 95.26 110.21 9.76
18452 19.5570 98.27 109.98 9.91
18453 19.5580 100.48 109.75 10.02
18454 19.5590 96.15 109.50 9.81
18455 19.5600 94.43 109.28 9.72
18456 19.5610 83.57 109.05 9.14
18457 19.5620 88.10 108.82 9.39
18458 19.5630 102.56 108.59 10.13
18459 19.5640 102.48 108.36 10.12
18460 19.5650 92.56 108.13 9.62
18461 19.5660 90.77 107.90 9.53
18462 19.5670 82.02 107.68 9.06
18463 19.5680 89.28 107.46 9.45
18464 19.5690 102.47 107.24 10.12
18465 19.5700 107.41 107.02 10.36
18466 19.5710 93.91 106.80 9.69
18467 19.5720 95.57 106.59 9.78
18468 19.5730 91.97 106.37 9.59
18469 19.5740 89.53 106.16 9.46
18470 19.5750 83.55 105.95 9.14
18471 19.5760 95.98 105.74 9.80
18472 19.5770 94.09 105.53 9.70
18473 19.5780 82.98 105.33 9.11
18474 19.5790 105.46 105.13 10.27
18475 19.5800 103.22 104.93 10.16
18476 19.5810 87.17 104.74 9.34
18477 19.5820 86.58 104.54 9.30
18478 19.5830 85.39 104.35 9.24
18479 19.5840 93.39 104.16 9.66
18480 19.5850 85.24 103.97 9.23
18481 19.5860 87.08 103.79 9.33
18482 19.5870 78.64 103.61 8.87
18483 19.5880 79.22 103.42 8.90
18484 19.5890 92.19 103.24 9.60
18485 19.5900 100.38 103.07 10.02
18486 19.5910 89.26 102.90 9.45
18487 19.5920 105.64 102.73 10.28
18488 19.5930 100.77 102.57 10.04
18489 19.5940 90.71 102.41 9.52
18490 19.5950 101.57 102.25 10.08
18491 19.5960 87.73 102.09 9.37
18492 19.5970 93.23 101.94 9.66
18493 19.5980 84.34 101.79 9.18
18494 19.5990 92.13 101.64 9.60
18495 19.6000 93.33 101.50 9.66
18496 19.6010 80.89 101.36 8.99
18497 19.6020 77.39 101.22 8.80
18498 19.6030 86.09 101.09 9.28
18499 19.6040 93.84 100.96 9.69
18500 19.6050 86.86 100.83 9.32
18501 19.6060 94.64 100.71 9.73
18502 19.6070 89.55 100.59 9.46
18503 19.6080 79.69 100.48 8.93
18504 19.6090 86.09 100.36 9.28
18505 19.6100 90.98 100.25 9.54
18506 19.6110 90.37 100.14 9.51
18507 19.6120 83.49 100.04 9.14
18508 19.6130 98.59 99.94 9.93
18509 19.6140 91.44 99.84 9.56
18510 19.6150 82.60 99.74 9.09
18511 19.6160 94.32 99.65 9.71
18512 19.6170 95.67 99.56 9.78
18513 19.6180 84.71 99.47 9.20
18514 19.6190 84.01 99.38 9.17
18515 19.6200 81.71 99.30 9.04
18516 19.6210 87.22 99.22 9.34
18517 19.6220 83.53 99.14 9.14
18518 19.6230 87.67 99.07 9.36
18519 19.6240 85.31 99.00 9.24
18520 19.6250 90.24 98.93 9.50
18521 19.6260 96.59 98.86 9.83
18522 19.6270 94.86 98.80 9.74
18523 19.6280 91.58 98.73 9.57
18524 19.6290 97.37 98.67 9.87
18525 19.6300 85.39 98.62 9.24
18526 19.6310 91.16 98.56 9.55
18527 19.6320 97.60 98.51 9.88
18528 19.6330 96.15 98.45 9.81
18529 19.6340 90.92 98.41 9.54
18530 19.6350 97.86 98.36 9.89
18531 19.6360 81.64 98.31 9.04
18532 19.6370 79.58 98.27 8.92
18533 19.6380 93.13 98.23 9.65
18534 19.6390 83.21 98.19 9.12
18535 19.6400 84.97 98.15 9.22
18536 19.6410 100.43 98.12 10.02
18537 19.6420 94.67 98.08 9.73
18538 19.6430 79.02 98.05 8.89
18539 19.6440 89.05 98.02 9.44
18540 19.6450 85.45 97.99 9.24
18541 19.6460 96.49 97.96 9.82
18542 19.6470 85.25 97.93 9.23
18543 19.6480 98.03 97.91 9.90
18544 19.6490 103.70 97.88 10.18
18545 19.6500 94.24 97.86 9.71
18546 19.6510 100.03 97.84 10.00
18547 19.6520 103.57 97.82 10.18
18548 19.6530 92.53 97.80 9.62
18549 19.6540 96.98 97.78 9.85
18550 19.6550 92.23 97.76 9.60
18551 19.6560 98.77 97.74 9.94
18552 19.6570 89.78 97.73 9.48
18553 19.6580 86.37 97.70 9.29
18554 19.6590 97.76 97.68 9.89
18555 19.6600 104.54 97.67 10.22
18556 19.6610 91.89 97.66 9.59
18557 19.6620 82.83 97.64 9.10
18558 19.6630 99.63 97.63 9.98
18559 19.6640 107.80 97.62 10.38
18560 19.6650 97.38 97.61 9.87
18561 19.6660 109.17 97.60 10.45
18562 19.6670 96.75 97.58 9.84
18563 19.6680 99.70 97.57 9.98
18564 19.6690 97.80 97.56 9.89
18565 19.6700 87.06 97.55 9.33
18566 19.6710 107.68 97.54 10.38
18567 19.6720 95.85 97.53 9.79
18568 19.6730 96.21 97.52 9.81
18569 19.6740 96.21 97.51 9.81
18570 19.6750 94.89 97.50 9.74
18571 19.6760 97.16 97.49 9.86
18572 19.6770 100.47 97.48 10.02
18573 19.6780 95.41 97.47 9.77
18574 19.6790 105.67 97.46 10.28
18575 19.6800 103.68 97.45 10.18
18576 19.6810 101.82 97.43 10.09
18577 19.6820 88.88 97.42 9.43
18578 19.6830 97.07 97.41 9.85
18579 19.6840 92.01 97.40 9.59
18580 19.6850 90.89 97.39 9.53
18581 19.6860 97.31 97.37 9.86
18582 19.6870 86.07 97.36 9.28
18583 19.6880 97.47 97.35 9.87
18584 19.6890 101.89 97.33 10.09
18585 19.6900 99.00 97.32 9.95
18586 19.6910 88.38 97.30 9.40
18587 19.6920 111.68 97.29 10.57
18588 19.6930 100.64 97.27 10.03
18589 19.6940 89.05 97.26 9.44
18590 19.6950 97.38 97.24 9.87
18591 19.6960 105.55 97.22 10.27
18592 19.6970 107.19 97.20 10.35
18593 19.6980 108.83 97.18 10.43
18594 19.6990 98.25 97.16 9.91
18595 19.7000 98.66 97.14 9.93
18596 19.7010 95.63 97.12 9.78
18597 19.7020 105.69 97.10 10.28
18598 19.7030 109.31 97.07 10.46
18599 19.7040 95.35 97.05 9.76
18600 19.7050 102.77 97.02 10.14
18601 19.7060 104.07 97.00 10.20
18602 19.7070 91.04 96.97 9.54
18603 19.7080 98.82 96.94 9.94
18604 19.7090 100.58 96.92 10.03
18605 19.7100 92.74 96.89 9.63
18606 19.7110 98.24 96.86 9.91
18607 19.7120 102.51 96.83 10.12
18608 19.7130 95.20 96.80 9.76
18609 19.7140 91.96 96.77 9.59
18610 19.7150 109.31 96.73 10.46
18611 19.7160 106.23 96.70 10.31
18612 19.7170 104.33 96.67 10.21
18613 19.7180 107.27 96.63 10.36
18614 19.7190 110.43 96.59 10.51
18615 19.7200 103.38 96.55 10.17
18616 19.7210 95.85 96.52 9.79
18617 19.7220 105.17 96.48 10.26
18618 19.7230 110.46 96.44 10.51
18619 19.7240 102.62 96.39 10.13
18620 19.7250 105.98 96.35 10.29
18621 19.7260 107.32 96.31 10.36
18622 19.7270 98.06 96.27 9.90
18623 19.7280 100.82 96.22 10.04
18624 19.7290 103.06 96.17 10.15
18625 19.7300 106.51 96.13 10.32
18626 19.7310 91.51 96.08 9.57
18627 19.7320 108.60 96.03 10.42
18628 19.7330 111.09 95.98 10.54
18629 19.7340 102.55 95.93 10.13
18630 19.7350 104.38 95.88 10.22
18631 19.7360 108.56 95.83 10.42
18632 19.7370 94.22 95.78 9.71
18633 19.7380 109.85 95.73 10.48
18634 19.7390 106.70 95.67 10.33
18635 19.7400 99.86 95.62 9.99
18636 19.7410 98.23 95.56 9.91
18637 19.7420 87.63 95.51 9.36
18638 19.7430 95.38 95.45 9.77
18639 19.7440 107.40 95.39 10.36
18640 19.7450 119.10 95.34 10.91
18641 19.7460 92.61 95.28 9.62
18642 19.7470 106.16 95.22 10.30
18643 19.7480 105.86 95.16 10.29
18644 19.7490 91.49 95.10 9.57
18645 19.7500 95.54 95.04 9.77
18646 19.7510 89.83 94.98 9.48
18647 19.7520 95.59 94.92 9.78
18648 19.7530 102.21 94.85 10.11
18649 19.7540 102.76 94.79 10.14
18650 19.7550 86.94 94.73 9.32
18651 19.7560 101.59 94.67 10.08
18652 19.7570 100.09 94.61 10.00
18653 19.7580 88.08 94.55 9.39
18654 19.7590 92.91 94.49 9.64
18655 19.7600 100.67 94.42 10.03
18656 19.7610 97.71 94.36 9.88
18657 19.7620 92.39 94.30 9.61
18658 19.7630 106.78 94.24 10.33
18659 19.7640 95.73 94.19 9.78
18660 19.7650 93.07 94.13 9.65
18661 19.7660 101.84 94.07 10.09
18662 19.7670 89.30 94.01 9.45
18663 19.7680 78.77 93.95 8.88
18664 19.7690 93.54 93.90 9.67
18665 19.7700 98.74 93.83 9.94
18666 19.7710 99.73 93.78 9.99
18667 19.7720 93.20 93.72 9.65
18668 19.7730 98.17 93.67 9.91
18669 19.7740 85.23 93.62 9.23
18670 19.7750 93.72 93.57 9.68
18671 19.7760 86.99 93.52 9.33
18672 19.7770 77.08 93.47 8.78
18673 19.7780 91.71 93.42 9.58
18674 19.7790 87.15 93.38 9.34
18675 19.7800 90.03 93.33 9.49
18676 19.7810 82.16 93.29 9.06
18677 19.7820 92.84 93.25 9.64
18678 19.7830 94.61 93.21 9.73
18679 19.7840 90.27 93.17 9.50
18680 19.7850 86.39 93.14 9.29
18681 19.7860 80.82 93.11 8.99
18682 19.7870 96.08 93.07 9.80
18683 19.7880 90.54 93.04 9.52
18684 19.7890 91.66 93.01 9.57
18685 19.7900 96.35 92.98 9.82
18686 19.7910 90.95 92.96 9.54
18687 19.7920 77.61 92.94 8.81
18688 19.7930 85.61 92.92 9.25
18689 19.7940 81.91 92.91 9.05
18690 19.7950 93.13 92.90 9.65
18691 19.7960 79.13 92.89 8.90
18692 19.7970 87.67 92.88 9.36
18693 19.7980 83.11 92.87 9.12
18694 19.7990 79.96 92.87 8.94
18695 19.8000 79.02 92.87 8.89
18696 19.8010 90.36 92.88 9.51
18697 19.8020 88.02 92.88 9.38
18698 19.8030 87.05 92.89 9.33
18699 19.8040 85.17 92.90 9.23
18700 19.8050 84.92 92.92 9.22
18701 19.8060 82.71 92.94 9.09
18702 19.8070 85.16 92.96 9.23
18703 19.8080 85.90 92.99 9.27
18704 19.8090 80.71 93.02 8.98
18705 19.8100 91.84 93.05 9.58
18706 19.8110 82.59 93.09 9.09
18707 19.8120 89.63 93.13 9.47
18708 19.8130 81.12 93.17 9.01
18709 19.8140 93.39 93.22 9.66
18710 19.8150 75.63 93.27 8.70
18711 19.8160 78.30 93.32 8.85
18712 19.8170 71.07 93.38 8.43
18713 19.8180 74.80 93.44 8.65
18714 19.8190 75.60 93.51 8.69
18715 19.8200 78.00 93.57 8.83
18716 19.8210 91.13 93.65 9.55
18717 19.8220 84.31 93.72 9.18
18718 19.8230 86.77 93.80 9.32
18719 19.8240 84.14 93.88 9.17
18720 19.8250 83.63 93.97 9.14
18721 19.8260 88.10 94.06 9.39
18722 19.8270 82.61 94.16 9.09
18723 19.8280 87.09 94.26 9.33
18724 19.8290 90.91 94.36 9.53
18725 19.8300 85.86 94.47 9.27
18726 19.8310 83.38 94.58 9.13
18727 19.8320 83.57 94.69 9.14
18728 19.8330 76.14 94.80 8.73
18729 19.8340 80.26 94.93 8.96
18730 19.8350 82.54 95.05 9.09
18731 19.8360 81.57 95.18 9.03
18732 19.8370 94.63 95.31 9.73
18733 19.8380 93.61 95.45 9.68
18734 19.8390 81.38 95.59 9.02
18735 19.8400 83.66 95.73 9.15
18736 19.8410 78.97 95.88 8.89
18737 19.8420 97.61 96.03 9.88
18738 19.8430 87.50 96.19 9.35
18739 19.8440 87.48 96.35 9.35
18740 19.8450 86.15 96.51 9.28
18741 19.8460 82.12 96.68 9.06
18742 19.8470 79.46 96.85 8.91
18743 19.8480 80.81 97.03 8.99
18744 19.8490 83.67 97.21 9.15
18745 19.8500 81.34 97.39 9.02
18746 19.8510 85.84 97.58 9.26
18747 19.8520 85.70 97.77 9.26
18748 19.8530 88.45 97.96 9.40
18749 19.8540 89.92 98.15 9.48
18750 19.8550 89.75 98.35 9.47
18751 19.8560 93.38 98.56 9.66
18752 19.8570 91.58 98.76 9.57
18753 19.8580 92.97 98.97 9.64
18754 19.8590 92.61 99.19 9.62
18755 19.8600 102.62 99.41 10.13
18756 19.8610 92.31 99.63 9.61
18757 19.8620 89.82 99.85 9.48
18758 19.8630 86.75 100.08 9.31
18759 19.8640 98.06 100.31 9.90
18760 19.8650 92.66 100.55 9.63
18761 19.8660 91.26 100.79 9.55
18762 19.8670 85.80 101.03 9.26
18763 19.8680 91.87 101.28 9.58
18764 19.8690 102.72 101.52 10.14
18765 19.8700 84.78 101.77 9.21
18766 19.8710 89.27 102.03 9.45
18767 19.8720 100.50 102.28 10.02
18768 19.8730 83.61 102.54 9.14
18769 19.8740 84.28 102.80 9.18
18770 19.8750 92.57 103.07 9.62
18771 19.8760 90.88 103.33 9.53
18772 19.8770 98.86 103.60 9.94
18773 19.8780 105.02 103.88 10.25
18774 19.8790 104.02 104.15 10.20
18775 19.8800 92.88 104.43 9.64
18776 19.8810 93.58 104.70 9.67
18777 19.8820 113.85 104.99 10.67
18778 19.8830 107.93 105.27 10.39
18779 19.8840 102.64 105.55 10.13
18780 19.8850 83.25 105.84 9.12
18781 19.8860 95.68 106.13 9.78
18782 19.8870 92.86 106.42 9.64
18783 19.8880 99.43 106.69 9.97
18784 19.8890 106.40 106.99 10.31
18785 19.8900 110.60 107.28 10.52
18786 19.8910 105.59 107.58 10.28
18787 19.8920 105.73 107.88 10.28
18788 19.8930 109.84 108.18 10.48
18789 19.8940 106.61 108.48 10.33
18790 19.8950 104.82 108.78 10.24
18791 19.8960 100.05 109.08 10.00
18792 19.8970 109.30 109.39 10.45
18793 19.8980 111.03 109.69 10.54
18794 19.8990 104.07 110.00 10.20
18795 19.9000 106.21 110.30 10.31
18796 19.9010 104.89 110.61 10.24
18797 19.9020 104.20 110.91 10.21
18798 19.9030 100.83 111.22 10.04
18799 19.9040 122.09 111.53 11.05
18800 19.9050 118.26 111.83 10.87
18801 19.9060 123.64 112.14 11.12
18802 19.9070 114.88 112.44 10.72
18803 19.9080 124.32 112.75 11.15
18804 19.9090 114.36 113.06 10.69
18805 19.9100 114.58 113.36 10.70
18806 19.9110 116.14 113.66 10.78
18807 19.9120 125.98 113.96 11.22
18808 19.9130 120.32 114.26 10.97
18809 19.9140 100.87 114.56 10.04
18810 19.9150 110.84 114.86 10.53
18811 19.9160 144.00 115.15 12.00
18812 19.9170 122.89 115.45 11.09
18813 19.9180 128.27 115.74 11.33
18814 19.9190 114.01 116.03 10.68
18815 19.9200 135.25 116.32 11.63
18816 19.9210 127.87 116.61 11.31
18817 19.9220 132.72 116.89 11.52
18818 19.9230 121.34 117.17 11.02
18819 19.9240 134.18 117.45 11.58
18820 19.9250 132.42 117.73 11.51
18821 19.9260 113.04 118.00 10.63
18822 19.9270 115.12 118.27 10.73
18823 19.9280 125.17 118.54 11.19
18824 19.9290 131.59 118.80 11.47
18825 19.9300 129.84 119.06 11.39
18826 19.9310 130.55 119.32 11.43
18827 19.9320 118.09 119.57 10.87
18828 19.9330 122.49 119.82 11.07
18829 19.9340 126.60 120.07 11.25
18830 19.9350 133.85 120.31 11.57
18831 19.9360 142.90 120.54 11.95
18832 19.9370 134.54 120.78 11.60
18833 19.9380 141.70 121.01 11.90
18834 19.9390 136.90 121.23 11.70
18835 19.9400 139.30 121.45 11.80
18836 19.9410 135.13 121.67 11.62
18837 19.9420 134.20 121.88 11.58
18838 19.9430 137.28 122.08 11.72
18839 19.9440 136.35 122.29 11.68
18840 19.9450 134.87 122.48 11.61
18841 19.9460 144.09 122.67 12.00
18842 19.9470 142.26 122.86 11.93
18843 19.9480 130.48 123.04 11.42
18844 19.9490 128.38 123.21 11.33
18845 19.9500 117.56 123.38 10.84
18846 19.9510 135.31 123.55 11.63
18847 19.9520 125.50 123.71 11.20
18848 19.9530 130.01 123.85 11.40
18849 19.9540 123.97 124.00 11.13
18850 19.9550 121.01 124.14 11.00
18851 19.9560 138.95 124.28 11.79
18852 19.9570 136.42 124.41 11.68
18853 19.9580 118.30 124.52 10.88
18854 19.9590 129.00 124.64 11.36
18855 19.9600 126.78 124.75 11.26
18856 19.9610 134.27 124.86 11.59
18857 19.9620 123.59 124.97 11.12
18858 19.9630 128.53 125.07 11.34
18859 19.9640 129.14 125.16 11.36
18860 19.9650 111.76 125.25 10.57
18861 19.9660 116.09 125.33 10.77
18862 19.9670 113.79 125.41 10.67
18863 19.9680 118.75 125.48 10.90
18864 19.9690 112.64 125.54 10.61
18865 19.9700 120.79 125.60 10.99
18866 19.9710 112.22 125.66 10.59
18867 19.9720 127.73 125.71 11.30
18868 19.9730 134.25 125.75 11.59
18869 19.9740 131.49 125.79 11.47
18870 19.9750 116.25 125.82 10.78
18871 19.9760 116.16 125.85 10.78
18872 19.9770 124.69 125.87 11.17
18873 19.9780 117.33 125.88 10.83
18874 19.9790 116.69 125.89 10.80
18875 19.9800 118.31 125.90 10.88
18876 19.9810 105.13 125.90 10.25
18877 19.9820 128.79 125.89 11.35
18878 19.9830 116.71 125.88 10.80
18879 19.9840 115.97 125.87 10.77
18880 19.9850 132.68 125.85 11.52
18881 19.9860 124.39 125.82 11.15
18882 19.9870 107.30 125.79 10.36
18883 19.9880 110.28 125.76 10.50
18884 19.9890 114.02 125.72 10.68
18885 19.9900 117.45 125.68 10.84
18886 19.9910 123.34 125.63 11.11
18887 19.9920 102.64 125.58 10.13
18888 19.9930 105.45 125.52 10.27
18889 19.9940 110.02 125.46 10.49
18890 19.9950 103.39 125.39 10.17
18891 19.9960 123.59 125.32 11.12
18892 19.9970 130.36 125.25 11.42
18893 19.9980 103.93 125.17 10.19
18894 19.9990 114.90 125.09 10.72
18895 20.0000 119.71 125.00 10.94
18896 20.0010 126.04 124.91 11.23
18897 20.0020 123.36 124.82 11.11
18898 20.0030 124.62 124.72 11.16
18899 20.0040 127.91 124.62 11.31
18900 20.0050 120.62 124.52 10.98
18901 20.0060 129.46 124.41 11.38
18902 20.0070 130.29 124.30 11.41
18903 20.0080 108.75 124.18 10.43
18904 20.0090 110.93 124.07 10.53
18905 20.0100 124.59 123.94 11.16
18906 20.0110 119.66 123.82 10.94
18907 20.0120 117.33 123.69 10.83
18908 20.0130 135.86 123.56 11.66
18909 20.0140 125.26 123.43 11.19
18910 20.0150 120.23 123.30 10.96
18911 20.0160 120.03 123.16 10.96
18912 20.0170 122.22 123.02 11.06
18913 20.0180 106.99 122.88 10.34
18914 20.0190 114.70 122.73 10.71
18915 20.0200 115.64 122.59 10.75
18916 20.0210 123.08 122.44 11.09
18917 20.0220 120.01 122.29 10.95
18918 20.0230 110.45 122.14 10.51
18919 20.0240 109.91 121.98 10.48
18920 20.0250 109.27 121.83 10.45
18921 20.0260 113.30 121.67 10.64
18922 20.0270 116.91 121.51 10.81
18923 20.0280 112.79 121.35 10.62
18924 20.0290 117.25 121.18 10.83
18925 20.0300 123.01 121.02 11.09
18926 20.0310 111.60 120.85 10.56
18927 20.0320 111.74 120.69 10.57
18928 20.0330 122.33 120.52 11.06
18929 20.0340 113.82 120.35 10.67
18930 20.0350 125.38 120.18 11.20
18931 20.0360 121.18 120.01 11.01
18932 20.0370 127.41 119.84 11.29
18933 20.0380 111.64 119.66 10.57
18934 20.0390 110.56 119.49 10.51
18935 20.0400 115.63 119.32 10.75
18936 20.0410 114.32 119.14 10.69
18937 20.0420 118.55 118.97 10.89
18938 20.0430 128.68 118.79 11.34
18939 20.0440 124.16 118.61 11.14
18940 20.0450 120.09 118.44 10.96
18941 20.0460 119.70 118.26 10.94
18942 20.0470 109.09 118.08 10.44
18943 20.0480 116.81 117.91 10.81
18944 20.0490 104.79 117.73 10.24
18945 20.0500 112.39 117.55 10.60
18946 20.0510 117.46 117.38 10.84
18947 20.0520 109.90 117.20 10.48
18948 20.0530 114.57 117.02 10.70
18949 20.0540 105.40 116.85 10.27
18950 20.0550 117.95 116.67 10.86
18951 20.0560 104.19 116.49 10.21
18952 20.0570 117.47 116.31 10.84
18953 20.0580 115.59 116.13 10.75
18954 20.0590 102.55 115.96 10.13
18955 20.0600 117.03 115.78 10.82
18956 20.0610 117.28 115.60 10.83
18957 20.0620 116.37 115.42 10.79
18958 20.0630 104.86 115.25 10.24
18959 20.0640 111.17 115.07 10.54
18960 20.0650 127.59 114.89 11.30
18961 20.0660 106.50 114.71 10.32
18962 20.0670 114.00 114.54 10.68
18963 20.0680 117.68 114.35 10.85
18964 20.0690 103.20 114.18 10.16
18965 20.0700 109.54 114.00 10.47
18966 20.0710 107.36 113.83 10.36
18967 20.0720 107.90 113.65 10.39
18968 20.0730 118.66 113.47 10.89
18969 20.0740 110.77 113.30 10.52
18970 20.0750 111.99 113.13 10.58
18971 20.0760 104.14 112.95 10.20
18972 20.0770 111.81 112.78 10.57
18973 20.0780 109.71 112.60 10.47
18974 20.0790 119.34 112.43 10.92
18975 20.0800 114.55 112.26 10.70
18976 20.0810 120.83 112.08 10.99
18977 20.0820 126.76 111.91 11.26
18978 20.0830 116.81 111.74 10.81
18979 20.0840 105.07 111.56 10.25
18980 20.0850 115.15 111.39 10.73
18981 20.0860 116.30 111.22 10.78
18982 20.0870 117.65 111.04 10.85
18983 20.0880 125.67 110.87 11.21
18984 20.0890 111.98 110.70 10.58
18985 20.0900 107.99 110.53 10.39
18986 20.0910 117.89 110.36 10.86
18987 20.0920 106.59 110.19 10.32
18988 20.0930 107.51 110.01 10.37
18989 20.0940 109.09 109.84 10.44
18990 20.0950 117.97 109.67 10.86
18991 20.0960 118.40 109.50 10.88
18992 20.0970 125.46 109.33 11.20
18993 20.0980 125.15 109.16 11.19
18994 20.0990 112.13 108.99 10.59
18995 20.1000 113.62 108.82 10.66
18996 20.1010 118.06 108.64 10.87
18997 20.1020 127.06 108.47 11.27
18998 20.1030 118.54 108.30 10.89
18999 20.1040 116.76 108.13 10.81
19000 20.1050 117.69 107.96 10.85
19001 20.1060 121.28 107.79 11.01
19002 20.1070 109.68 107.62 10.47
19003 20.1080 125.02 107.45 11.18
19004 20.1090 119.55 107.28 10.93
19005 20.1100 119.28 107.10 10.92
19006 20.1110 104.20 106.93 10.21
19007 20.1120 110.72 106.76 10.52
19008 20.1130 120.41 106.59 10.97
19009 20.1140 106.52 106.42 10.32
19010 20.1150 112.35 106.25 10.60
19011 20.1160 119.53 106.08 10.93
19012 20.1170 122.57 105.91 11.07
19013 20.1180 96.02 105.74 9.80
19014 20.1190 102.04 105.56 10.10
19015 20.1200 115.28 105.39 10.74
19016 20.1210 113.74 105.22 10.66
19017 20.1220 100.35 105.05 10.02
19018 20.1230 105.88 104.88 10.29
19019 20.1240 114.16 104.71 10.68
19020 20.1250 107.36 104.53 10.36
19021 20.1260 108.97 104.36 10.44
19022 20.1270 114.88 104.19 10.72
19023 20.1280 103.21 104.02 10.16
19024 20.1290 95.68 103.85 9.78
19025 20.1300 113.58 103.68 10.66
19026 20.1310 116.66 103.51 10.80
19027 20.1320 103.88 103.34 10.19
19028 20.1330 105.72 103.17 10.28
19029 20.1340 108.28 103.00 10.41
19030 20.1350 106.04 102.82 10.30
19031 20.1360 119.72 102.65 10.94
19032 20.1370 106.55 102.48 10.32
19033 20.1380 109.52 102.31 10.47
19034 20.1390 98.45 102.14 9.92
19035 20.1400 105.82 101.97 10.29
19036 20.1410 101.27 101.80 10.06
19037 20.1420 85.88 101.63 9.27
19038 20.1430 91.89 101.46 9.59
19039 20.1440 112.51 101.29 10.61
19040 20.1450 94.55 101.11 9.72
19041 20.1460 102.77 100.94 10.14
19042 20.1470 104.81 100.77 10.24
19043 20.1480 105.29 100.60 10.26
19044 20.1490 104.69 100.43 10.23
19045 20.1500 109.60 100.26 10.47
19046 20.1510 114.04 100.09 10.68
19047 20.1520 97.90 99.92 9.89
19048 20.1530 104.95 99.74 10.24
19049 20.1540 113.60 99.57 10.66
19050 20.1550 100.44 99.40 10.02
19051 20.1560 100.85 99.23 10.04
19052 20.1570 106.76 99.06 10.33
19053 20.1580 104.48 98.89 10.22
19054 20.1590 101.24 98.71 10.06
19055 20.1600 91.67 98.54 9.57
19056 20.1610 96.60 98.37 9.83
19057 20.1620 99.19 98.20 9.96
19058 20.1630 96.52 98.03 9.82
19059 20.1640 97.09 97.86 9.85
19060 20.1650 101.99 97.68 10.10
19061 20.1660 94.85 97.51 9.74
19062 20.1670 99.68 97.33 9.98
19063 20.1680 100.11 97.16 10.01
19064 20.1690 90.17 96.99 9.50
19065 20.1700 94.94 96.82 9.74
19066 20.1710 98.16 96.65 9.91
19067 20.1720 102.58 96.47 10.13
19068 20.1730 99.76 96.30 9.99
19069 20.1740 99.57 96.13 9.98
19070 20.1750 101.83 95.96 10.09
19071 20.1760 100.81 95.78 10.04
19072 20.1770 89.39 95.61 9.45
19073 20.1780 92.78 95.44 9.63
19074 20.1790 93.11 95.27 9.65
19075 20.1800 103.69 95.09 10.18
19076 20.1810 104.98 94.92 10.25
19077 20.1820 83.93 94.75 9.16
19078 20.1830 96.63 94.58 9.83
19079 20.1840 94.65 94.41 9.73
19080 20.1850 88.11 94.24 9.39
19081 20.1860 91.86 94.07 9.58
19082 20.1870 91.31 93.89 9.56
19083 20.1880 86.02 93.72 9.27
19084 20.1890 96.84 93.55 9.84
19085 20.1900 104.41 93.38 10.22
19086 20.1910 97.00 93.21 9.85
19087 20.1920 102.97 93.04 10.15
19088 20.1930 104.76 92.87 10.24
19089 20.1940 95.34 92.70 9.76
19090 20.1950 97.71 92.53 9.88
19091 20.1960 90.20 92.36 9.50
19092 20.1970 100.66 92.19 10.03
19093 20.1980 101.79 92.02 10.09
19094 20.1990 100.74 91.85 10.04
19095 20.2000 103.87 91.68 10.19
19096 20.2010 97.04 91.52 9.85
19097 20.2020 96.02 91.35 9.80
19098 20.2030 98.50 91.18 9.92
19099 20.2040 86.38 91.02 9.29
19100 20.2050 91.36 90.85 9.56
19101 20.2060 102.66 90.68 10.13
19102 20.2070 98.41 90.52 9.92
19103 20.2080 98.44 90.35 9.92
19104 20.2090 116.69 90.19 10.80
19105 20.2100 103.82 90.03 10.19
19106 20.2110 91.93 89.87 9.59
19107 20.2120 94.58 89.71 9.73
19108 20.2130 100.08 89.55 10.00
19109 20.2140 95.25 89.39 9.76
19110 20.2150 96.46 89.23 9.82
19111 20.2160 85.30 89.08 9.24
19112 20.2170 87.53 88.92 9.36
19113 20.2180 84.38 88.77 9.19
19114 20.2190 95.55 88.61 9.77
19115 20.2200 103.81 88.46 10.19
19116 20.2210 96.09 88.31 9.80
19117 20.2220 89.85 88.16 9.48
19118 20.2230 94.12 88.01 9.70
19119 20.2240 87.06 87.87 9.33
19120 20.2250 85.55 87.72 9.25
19121 20.2260 92.33 87.57 9.61
19122 20.2270 92.87 87.43 9.64
19123 20.2280 92.10 87.29 9.60
19124 20.2290 84.90 87.15 9.21
19125 20.2300 95.69 87.01 9.78
19126 20.2310 80.96 86.87 9.00
19127 20.2320 98.66 86.73 9.93
19128 20.2330 91.63 86.60 9.57
19129 20.2340 89.80 86.47 9.48
19130 20.2350 83.79 86.33 9.15
19131 20.2360 95.82 86.20 9.79
19132 20.2370 90.09 86.08 9.49
19133 20.2380 90.79 85.95 9.53
19134 20.2390 85.48 85.82 9.25
19135 20.2400 93.43 85.70 9.67
19136 20.2410 85.53 85.58 9.25
19137 20.2420 91.90 85.46 9.59
19138 20.2430 84.03 85.34 9.17
19139 20.2440 77.51 85.22 8.80
19140 20.2450 91.65 85.11 9.57
19141 20.2460 81.17 84.99 9.01
19142 20.2470 79.08 84.88 8.89
19143 20.2480 80.69 84.77 8.98
19144 20.2490 87.34 84.67 9.35
19145 20.2500 90.10 84.56 9.49
19146 20.2510 71.51 84.45 8.46
19147 20.2520 66.44 84.35 8.15
19148 20.2530 85.77 84.25 9.26
19149 20.2540 84.65 84.16 9.20
19150 20.2550 79.94 84.06 8.94
19151 20.2560 82.27 83.97 9.07
19152 20.2570 85.68 83.87 9.26
19153 20.2580 88.50 83.78 9.41
19154 20.2590 77.37 83.69 8.80
19155 20.2600 82.34 83.61 9.07
19156 20.2610 79.69 83.52 8.93
19157 20.2620 88.89 83.44 9.43
19158 20.2630 69.91 83.35 8.36
19159 20.2640 79.68 83.27 8.93
19160 20.2650 87.74 83.20 9.37
19161 20.2660 90.71 83.12 9.52
19162 20.2670 95.46 83.05 9.77
19163 20.2680 80.67 82.97 8.98
19164 20.2690 96.79 82.90 9.84
19165 20.2700 84.65 82.84 9.20
19166 20.2710 89.44 82.77 9.46
19167 20.2720 74.87 82.70 8.65
19168 20.2730 92.68 82.64 9.63
19169 20.2740 96.84 82.58 9.84
19170 20.2750 82.94 82.52 9.11
19171 20.2760 90.96 82.46 9.54
19172 20.2770 85.05 82.41 9.22
19173 20.2780 91.92 82.35 9.59
19174 20.2790 81.51 82.30 9.03
19175 20.2800 88.85 82.25 9.43
19176 20.2810 91.29 82.20 9.55
19177 20.2820 86.51 82.16 9.30
19178 20.2830 86.30 82.12 9.29
19179 20.2840 85.60 82.07 9.25
19180 20.2850 84.67 82.03 9.20
19181 20.2860 81.26 81.99 9.01
19182 20.2870 79.07 81.95 8.89
19183 20.2880 100.70 81.91 10.03
19184 20.2890 94.69 81.88 9.73
19185 20.2900 83.76 81.85 9.15
19186 20.2910 94.67 81.81 9.73
19187 20.2920 92.93 81.78 9.64
19188 20.2930 103.82 81.75 10.19
19189 20.2940 112.36 81.72 10.60
19190 20.2950 101.41 81.70 10.07
19191 20.2960 96.52 81.67 9.82
19192 20.2970 88.05 81.65 9.38
19193 20.2980 102.80 81.63 10.14
19194 20.2990 98.35 81.60 9.92
19195 20.3000 95.79 81.58 9.79
19196 20.3010 90.50 81.56 9.51
19197 20.3020 99.23 81.55 9.96
19198 20.3030 91.45 81.53 9.56
19199 20.3040 93.16 81.51 9.65
19200 20.3050 87.88 81.50 9.37
19201 20.3060 97.20 81.48 9.86
19202 20.3070 106.29 81.47 10.31
19203 20.3080 77.79 81.46 8.82
19204 20.3090 86.36 81.45 9.29
19205 20.3100 96.23 81.43 9.81
19206 20.3110 98.16 81.42 9.91
19207 20.3120 93.11 81.41 9.65
19208 20.3130 91.08 81.40 9.54
19209 20.3140 94.39 81.39 9.72
19210 20.3150 93.17 81.38 9.65
19211 20.3160 92.12 81.37 9.60
19212 20.3170 96.19 81.36 9.81
19213 20.3180 94.59 81.36 9.73
19214 20.3190 95.70 81.35 9.78
19215 20.3200 109.50 81.34 10.46
19216 20.3210 90.43 81.33 9.51
19217 20.3220 89.87 81.33 9.48
19218 20.3230 93.94 81.32 9.69
19219 20.3240 91.46 81.31 9.56
19220 20.3250 97.35 81.31 9.87
19221 20.3260 99.45 81.30 9.97
19222 20.3270 101.46 81.29 10.07
19223 20.3280 98.05 81.29 9.90
19224 20.3290 92.83 81.28 9.63
19225 20.3300 97.48 81.27 9.87
19226 20.3310 94.47 81.27 9.72
19227 20.3320 99.04 81.26 9.95
19228 20.3330 93.40 81.25 9.66
19229 20.3340 97.17 81.24 9.86
19230 20.3350 82.41 81.23 9.08
19231 20.3360 86.81 81.22 9.32
19232 20.3370 89.76 81.21 9.47
19233 20.3380 95.31 81.20 9.76
19234 20.3390 83.20 81.18 9.12
19235 20.3400 90.30 81.17 9.50
19236 20.3410 90.17 81.16 9.50
19237 20.3420 82.21 81.14 9.07
19238 20.3430 83.65 81.13 9.15
19239 20.3440 81.66 81.11 9.04
19240 20.3450 94.39 81.10 9.72
19241 20.3460 94.06 81.08 9.70
19242 20.3470 87.81 81.06 9.37
19243 20.3480 86.79 81.04 9.32
19244 20.3490 97.12 81.02 9.85
19245 20.3500 104.87 81.00 10.24
19246 20.3510 86.13 80.98 9.28
19247 20.3520 81.07 80.96 9.00
19248 20.3530 87.78 80.94 9.37
19249 20.3540 92.69 80.91 9.63
19250 20.3550 80.99 80.89 9.00
19251 20.3560 84.87 80.86 9.21
19252 20.3570 81.10 80.84 9.01
19253 20.3580 86.99 80.81 9.33
19254 20.3590 80.05 80.78 8.95
19255 20.3600 77.83 80.75 8.82
19256 20.3610 83.29 80.72 9.13
19257 20.3620 78.43 80.69 8.86
19258 20.3630 80.10 80.66 8.95
19259 20.3640 89.65 80.63 9.47
19260 20.3650 80.33 80.59 8.96
19261 20.3660 80.78 80.56 8.99
19262 20.3670 81.95 80.53 9.05
19263 20.3680 90.01 80.49 9.49
19264 20.3690 83.79 80.46 9.15
19265 20.3700 88.16 80.42 9.39
19266 20.3710 85.55 80.39 9.25
19267 20.3720 79.81 80.35 8.93
19268 20.3730 82.96 80.31 9.11
19269 20.3740 88.94 80.28 9.43
19270 20.3750 95.12 80.24 9.75
19271 20.3760 85.20 80.20 9.23
19272 20.3770 95.60 80.16 9.78
19273 20.3780 87.78 80.12 9.37
19274 20.3790 90.86 80.09 9.53
19275 20.3800 88.23 80.05 9.39
19276 20.3810 90.98 80.01 9.54
19277 20.3820 89.95 79.97 9.48
19278 20.3830 84.51 79.93 9.19
19279 20.3840 81.60 79.89 9.03
19280 20.3850 90.39 79.85 9.51
19281 20.3860 85.36 79.81 9.24
19282 20.3870 78.73 79.77 8.87
19283 20.3880 77.85 79.73 8.82
19284 20.3890 75.62 79.68 8.70
19285 20.3900 84.86 79.64 9.21
19286 20.3910 87.48 79.60 9.35
19287 20.3920 74.03 79.57 8.60
19288 20.3930 83.97 79.53 9.16
19289 20.3940 83.22 79.49 9.12
19290 20.3950 85.23 79.45 9.23
19291 20.3960 86.06 79.41 9.28
19292 20.3970 76.87 79.37 8.77
19293 20.3980 65.80 79.34 8.11
19294 20.3990 77.37 79.30 8.80
19295 20.4000 80.33 79.26 8.96
19296 20.4010 75.27 79.23 8.68
19297 20.4020 82.23 79.19 9.07
19298 20.4030 82.73 79.16 9.10
19299 20.4040 87.87 79.12 9.37
19300 20.4050 78.87 79.09 8.88
19301 20.4060 85.72 79.06 9.26
19302 20.4070 79.40 79.03 8.91
19303 20.4080 75.83 79.00 8.71
19304 20.4090 83.35 78.97 9.13
19305 20.4100 71.07 78.94 8.43
19306 20.4110 78.19 78.91 8.84
19307 20.4120 85.08 78.88 9.22
19308 20.4130 79.86 78.85 8.94
19309 20.4140 65.73 78.82 8.11
19310 20.4150 78.25 78.80 8.85
19311 20.4160 72.94 78.78 8.54
19312 20.4170 76.67 78.75 8.76
19313 20.4180 77.12 78.73 8.78
19314 20.4190 85.48 78.71 9.25
19315 20.4200 79.22 78.68 8.90
19316 20.4210 80.93 78.66 9.00
19317 20.4220 85.38 78.64 9.24
19318 20.4230 78.26 78.62 8.85
19319 20.4240 77.60 78.61 8.81
19320 20.4250 84.34 78.59 9.18
19321 20.4260 80.56 78.57 8.98
19322 20.4270 81.65 78.56 9.04
19323 20.4280 86.32 78.54 9.29
19324 20.4290 85.52 78.53 9.25
19325 20.4300 84.89 78.52 9.21
19326 20.4310 82.15 78.51 9.06
19327 20.4320 75.78 78.50 8.71
19328 20.4330 78.62 78.49 8.87
19329 20.4340 81.61 78.48 9.03
19330 20.4350 78.46 78.47 8.86
19331 20.4360 89.90 78.47 9.48
19332 20.4370 88.76 78.46 9.42
19333 20.4380 83.35 78.46 9.13
19334 20.4390 80.88 78.46 8.99
19335 20.4400 79.47 78.46 8.91
19336 20.4410 85.68 78.45 9.26
19337 20.4420 79.21 78.45 8.90
19338 20.4430 66.29 78.45 8.14
19339 20.4440 77.56 78.46 8.81
19340 20.4450 85.19 78.46 9.23
19341 20.4460 78.46 78.46 8.86
19342 20.4470 75.33 78.46 8.68
19343 20.4480 74.34 78.47 8.62
19344 20.4490 77.98 78.48 8.83
19345 20.4500 74.56 78.49 8.63
19346 20.4510 74.78 78.50 8.65
19347 20.4520 82.76 78.51 9.10
19348 20.4530 76.83 78.52 8.77
19349 20.4540 91.01 78.53 9.54
19350 20.4550 78.21 78.54 8.84
19351 20.4560 78.43 78.55 8.86
19352 20.4570 79.83 78.57 8.93
19353 20.4580 80.17 78.58 8.95
19354 20.4590 80.62 78.60 8.98
19355 20.4600 87.33 78.62 9.35
19356 20.4610 83.00 78.64 9.11
19357 20.4620 79.63 78.66 8.92
19358 20.4630 80.50 78.68 8.97
19359 20.4640 77.10 78.70 8.78
19360 20.4650 76.14 78.72 8.73
19361 20.4660 93.82 78.74 9.69
19362 20.4670 80.82 78.77 8.99
19363 20.4680 82.20 78.79 9.07
19364 20.4690 69.15 78.81 8.32
19365 20.4700 67.34 78.84 8.21
19366 20.4710 83.64 78.87 9.15
19367 20.4720 78.75 78.89 8.87
19368 20.4730 75.12 78.92 8.67
19369 20.4740 76.18 78.95 8.73
19370 20.4750 74.11 78.98 8.61
19371 20.4760 76.50 79.01 8.75
19372 20.4770 73.99 79.04 8.60
19373 20.4780 70.69 79.07 8.41
19374 20.4790 82.37 79.11 9.08
19375 20.4800 93.15 79.15 9.65
19376 20.4810 87.47 79.18 9.35
19377 20.4820 77.95 79.21 8.83
19378 20.4830 79.17 79.25 8.90
19379 20.4840 70.58 79.28 8.40
19380 20.4850 74.16 79.31 8.61
19381 20.4860 70.31 79.35 8.39
19382 20.4870 83.56 79.39 9.14
19383 20.4880 91.47 79.42 9.56
19384 20.4890 68.90 79.46 8.30
19385 20.4900 72.91 79.49 8.54
19386 20.4910 75.40 79.53 8.68
19387 20.4920 85.63 79.57 9.25
19388 20.4930 95.42 79.61 9.77
19389 20.4940 87.10 79.64 9.33
19390 20.4950 72.26 79.68 8.50
19391 20.4960 81.04 79.72 9.00
19392 20.4970 89.83 79.76 9.48
19393 20.4980 84.84 79.79 9.21
19394 20.4990 89.70 79.83 9.47
19395 20.5000 77.56 79.87 8.81
19396 20.5010 74.79 79.90 8.65
19397 20.5020 81.66 79.94 9.04
19398 20.5030 87.07 79.98 9.33
19399 20.5040 71.73 80.02 8.47
19400 20.5050 77.80 80.06 8.82
19401 20.5060 85.01 80.10 9.22
19402 20.5070 75.22 80.14 8.67
19403 20.5080 82.83 80.18 9.10
19404 20.5090 77.98 80.22 8.83
19405 20.5100 82.24 80.26 9.07
19406 20.5110 82.04 80.30 9.06
19407 20.5120 88.00 80.34 9.38
19408 20.5130 77.50 80.38 8.80
19409 20.5140 67.01 80.42 8.19
19410 20.5150 71.23 80.46 8.44
19411 20.5160 80.99 80.50 9.00
19412 20.5170 71.35 80.54 8.45
19413 20.5180 68.85 80.58 8.30
19414 20.5190 76.32 80.62 8.74
19415 20.5200 73.59 80.65 8.58
19416 20.5210 76.37 80.69 8.74
19417 20.5220 82.39 80.73 9.08
19418 20.5230 74.82 80.77 8.65
19419 20.5240 79.69 80.80 8.93
19420 20.5250 81.70 80.84 9.04
19421 20.5260 79.85 80.88 8.94
19422 20.5270 88.99 80.91 9.43
19423 20.5280 84.48 80.95 9.19
19424 20.5290 75.46 80.98 8.69
19425 20.5300 76.93 81.02 8.77
19426 20.5310 79.61 81.05 8.92
19427 20.5320 76.67 81.09 8.76
19428 20.5330 86.15 81.12 9.28
19429 20.5340 84.99 81.15 9.22
19430 20.5350 80.21 81.18 8.96
19431 20.5360 78.56 81.21 8.86
19432 20.5370 82.58 81.25 9.09
19433 20.5380 83.96 81.28 9.16
19434 20.5390 86.76 81.31 9.31
19435 20.5400 77.47 81.34 8.80
19436 20.5410 77.05 81.35 8.78
19437 20.5420 80.90 81.38 8.99
19438 20.5430 92.09 81.40 9.60
19439 20.5440 77.70 81.43 8.81
19440 20.5450 83.56 81.45 9.14
19441 20.5460 80.99 81.48 9.00
19442 20.5470 85.44 81.50 9.24
19443 20.5480 77.33 81.52 8.79
19444 20.5490 80.18 81.55 8.95
19445 20.5500 71.83 81.57 8.48
19446 20.5510 88.46 81.58 9.41
19447 20.5520 82.36 81.59 9.08
19448 20.5530 84.45 81.61 9.19
19449 20.5540 85.64 81.63 9.25
19450 20.5550 70.34 81.65 8.39
19451 20.5560 65.16 81.66 8.07
19452 20.5570 91.27 81.67 9.55
19453 20.5580 91.57 81.69 9.57
19454 20.5590 82.20 81.70 9.07
19455 20.5600 84.12 81.71 9.17
19456 20.5610 76.74 81.72 8.76
19457 20.5620 86.85 81.73 9.32
19458 20.5630 81.44 81.73 9.02
19459 20.5640 74.96 81.73 8.66
19460 20.5650 77.54 81.74 8.81
19461 20.5660 74.71 81.74 8.64
19462 20.5670 77.13 81.74 8.78
19463 20.5680 87.27 81.75 9.34
19464 20.5690 79.56 81.74 8.92
19465 20.5700 89.59 81.74 9.47
19466 20.5710 81.94 81.74 9.05
19467 20.5720 84.32 81.74 9.18
19468 20.5730 76.77 81.73 8.76
19469 20.5740 80.37 81.73 8.96
19470 20.5750 92.92 81.72 9.64
19471 20.5760 83.46 81.71 9.14
19472 20.5770 78.36 81.70 8.85
19473 20.5780 83.99 81.69 9.16
19474 20.5790 78.87 81.68 8.88
19475 20.5800 87.16 81.66 9.34
19476 20.5810 79.91 81.65 8.94
19477 20.5820 83.83 81.63 9.16
19478 20.5830 82.60 81.62 9.09
19479 20.5840 84.50 81.60 9.19
19480 20.5850 83.68 81.58 9.15
19481 20.5860 81.82 81.56 9.05
19482 20.5870 80.48 81.53 8.97
19483 20.5880 82.95 81.51 9.11
19484 20.5890 92.96 81.49 9.64
19485 20.5900 91.17 81.46 9.55
19486 20.5910 87.72 81.44 9.37
19487 20.5920 84.39 81.41 9.19
19488 20.5930 79.09 81.38 8.89
19489 20.5940 86.75 81.35 9.31
19490 20.5950 93.82 81.32 9.69
19491 20.5960 88.26 81.29 9.39
19492 20.5970 87.66 81.26 9.36
19493 20.5980 83.53 81.23 9.14
19494 20.5990 85.98 81.19 9.27
19495 20.6000 87.57 81.15 9.36
19496 20.6010 83.93 81.12 9.16
19497 20.6020 82.93 81.08 9.11
19498 20.6030 79.10 81.04 8.89
19499 20.6040 78.47 81.00 8.86
19500 20.6050 83.50 80.95 9.14
19501 20.6060 85.40 80.91 9.24
19502 20.6070 92.33 80.87 9.61
19503 20.6080 93.14 80.82 9.65
19504 20.6090 90.21 80.78 9.50
19505 20.6100 79.50 80.73 8.92
19506 20.6110 89.26 80.68 9.45
19507 20.6120 90.30 80.63 9.50
19508 20.6130 76.50 80.58 8.75
19509 20.6140 81.70 80.53 9.04
19510 20.6150 82.85 80.48 9.10
19511 20.6160 85.00 80.42 9.22
19512 20.6170 77.36 80.37 8.80
19513 20.6180 78.64 80.31 8.87
19514 20.6190 80.81 80.26 8.99
19515 20.6200 76.46 80.20 8.74
19516 20.6210 81.79 80.14 9.04
19517 20.6220 85.93 80.08 9.27
19518 20.6230 78.07 80.02 8.84
19519 20.6240 80.32 79.96 8.96
19520 20.6250 68.07 79.90 8.25
19521 20.6260 67.79 79.83 8.23
19522 20.6270 80.14 79.77 8.95
19523 20.6280 80.84 79.70 8.99
19524 20.6290 84.98 79.64 9.22
19525 20.6300 80.37 79.57 8.96
19526 20.6310 78.44 79.51 8.86
19527 20.6320 67.80 79.43 8.23
19528 20.6330 68.96 79.36 8.30
19529 20.6340 65.74 79.29 8.11
19530 20.6350 73.69 79.22 8.58
19531 20.6360 70.12 79.15 8.37
19532 20.6370 71.07 79.08 8.43
19533 20.6380 70.70 79.01 8.41
19534 20.6390 66.28 78.93 8.14
19535 20.6400 82.74 78.86 9.10
19536 20.6410 83.19 78.78 9.12
19537 20.6420 74.72 78.71 8.64
19538 20.6430 76.35 78.63 8.74
19539 20.6440 80.19 78.56 8.95
19540 20.6450 69.28 78.49 8.32
19541 20.6460 75.60 78.41 8.69
19542 20.6470 81.06 78.33 9.00
19543 20.6480 72.67 78.25 8.52
19544 20.6490 85.20 78.18 9.23
19545 20.6500 64.93 78.09 8.06
19546 20.6510 74.99 78.01 8.66
19547 20.6520 68.90 77.93 8.30
19548 20.6530 70.05 77.85 8.37
19549 20.6540 71.38 77.77 8.45
19550 20.6550 82.48 77.66 9.08
19551 20.6560 76.00 77.58 8.72
19552 20.6570 71.15 77.50 8.44
19553 20.6580 70.44 77.42 8.39
19554 20.6590 78.80 77.33 8.88
19555 20.6600 79.59 77.25 8.92
19556 20.6610 73.10 77.17 8.55
19557 20.6620 78.81 77.08 8.88
19558 20.6630 82.29 77.00 9.07
19559 20.6640 82.07 76.91 9.06
19560 20.6650 78.56 76.83 8.86
19561 20.6660 85.75 76.75 9.26
19562 20.6670 79.39 76.66 8.91
19563 20.6680 74.71 76.58 8.64
19564 20.6690 76.62 76.49 8.75
19565 20.6700 71.63 76.41 8.46
19566 20.6710 66.05 76.32 8.13
19567 20.6720 67.99 76.24 8.25
19568 20.6730 69.98 76.15 8.37
19569 20.6740 75.83 76.06 8.71
19570 20.6750 71.51 75.98 8.46
19571 20.6760 68.94 75.89 8.30
19572 20.6770 82.35 75.81 9.07
19573 20.6780 74.29 75.72 8.62
19574 20.6790 79.12 75.64 8.89
19575 20.6800 79.95 75.55 8.94
19576 20.6810 68.84 75.46 8.30
19577 20.6820 76.03 75.38 8.72
19578 20.6830 79.39 75.29 8.91
19579 20.6840 73.92 75.21 8.60
19580 20.6850 72.74 75.12 8.53
19581 20.6860 82.99 75.03 9.11
19582 20.6870 76.14 74.95 8.73
19583 20.6880 69.86 74.86 8.36
19584 20.6890 84.31 74.78 9.18
19585 20.6900 71.56 74.69 8.46
19586 20.6910 74.41 74.61 8.63
19587 20.6920 73.06 74.52 8.55
19588 20.6930 74.95 74.44 8.66
19589 20.6940 77.75 74.35 8.82
19590 20.6950 86.28 74.27 9.29
19591 20.6960 81.50 74.18 9.03
19592 20.6970 62.90 74.10 7.93
19593 20.6980 63.72 74.01 7.98
19594 20.6990 79.72 73.93 8.93
19595 20.7000 77.10 73.84 8.78
19596 20.7010 83.60 73.76 9.14
19597 20.7020 81.80 73.68 9.04
19598 20.7030 73.63 73.59 8.58
19599 20.7040 75.56 73.51 8.69
19600 20.7050 70.03 73.43 8.37
19601 20.7060 76.07 73.34 8.72
19602 20.7070 72.54 73.26 8.52
19603 20.7080 78.89 73.18 8.88
19604 20.7090 79.91 73.10 8.94
19605 20.7100 79.48 73.01 8.92
19606 20.7110 77.92 72.93 8.83
19607 20.7120 75.17 72.85 8.67
19608 20.7130 78.53 72.77 8.86
19609 20.7140 82.49 72.69 9.08
19610 20.7150 71.08 72.62 8.43
19611 20.7160 77.36 72.54 8.80
19612 20.7170 78.31 72.46 8.85
19613 20.7180 80.27 72.38 8.96
19614 20.7190 66.77 72.30 8.17
19615 20.7200 73.20 72.23 8.56
19616 20.7210 71.84 72.15 8.48
19617 20.7220 76.74 72.08 8.76
19618 20.7230 59.95 72.00 7.74
19619 20.7240 67.07 71.93 8.19
19620 20.7250 69.75 71.86 8.35
19621 20.7260 83.58 71.76 9.14
19622 20.7270 82.63 71.69 9.09
19623 20.7280 74.17 71.62 8.61
19624 20.7290 72.59 71.55 8.52
19625 20.7300 72.41 71.48 8.51
19626 20.7310 83.10 71.40 9.12
19627 20.7320 84.79 71.33 9.21
19628 20.7330 71.61 71.27 8.46
19629 20.7340 84.35 71.20 9.18
19630 20.7350 75.69 71.14 8.70
19631 20.7360 77.90 71.07 8.83
19632 20.7370 79.45 71.01 8.91
19633 20.7380 80.87 70.96 8.99
19634 20.7390 64.58 70.90 8.04
19635 20.7400 70.62 70.84 8.40
19636 20.7410 64.77 70.78 8.05
19637 20.7420 67.36 70.72 8.21
19638 20.7430 71.25 70.67 8.44
19639 20.7440 67.58 70.61 8.22
19640 20.7450 67.01 70.56 8.19
19641 20.7460 72.07 70.51 8.49
19642 20.7470 75.53 70.46 8.69
19643 20.7480 65.16 70.41 8.07
19644 20.7490 68.55 70.36 8.28
19645 20.7500 65.86 70.31 8.12
19646 20.7510 72.05 70.27 8.49
19647 20.7520 77.41 70.23 8.80
19648 20.7530 66.58 70.19 8.16
19649 20.7540 66.07 70.15 8.13
19650 20.7550 70.47 70.11 8.39
19651 20.7560 77.15 70.07 8.78
19652 20.7570 66.16 70.04 8.13
19653 20.7580 74.91 70.00 8.66
19654 20.7590 70.35 69.97 8.39
19655 20.7600 74.72 69.94 8.64
19656 20.7610 77.59 69.91 8.81
19657 20.7620 66.76 69.88 8.17
19658 20.7630 63.66 69.85 7.98
19659 20.7640 65.53 69.83 8.10
19660 20.7650 64.89 69.81 8.06
19661 20.7660 61.94 69.79 7.87
19662 20.7670 69.31 69.77 8.33
19663 20.7680 80.93 69.75 9.00
19664 20.7690 70.29 69.74 8.38
19665 20.7700 69.44 69.73 8.33
19666 20.7710 77.61 69.71 8.81
19667 20.7720 67.92 69.70 8.24
19668 20.7730 66.53 69.70 8.16
19669 20.7740 70.40 69.69 8.39
19670 20.7750 58.58 69.68 7.65
19671 20.7760 67.50 69.68 8.22
19672 20.7770 62.64 69.68 7.91
19673 20.7780 69.58 69.68 8.34
19674 20.7790 65.83 69.68 8.11
19675 20.7800 65.57 69.68 8.10
19676 20.7810 74.41 69.69 8.63
19677 20.7820 77.01 69.70 8.78
19678 20.7830 71.41 69.71 8.45
19679 20.7840 67.97 69.72 8.24
19680 20.7850 74.50 69.74 8.63
19681 20.7860 63.36 69.75 7.96
19682 20.7870 62.51 69.77 7.91
19683 20.7880 62.90 69.79 7.93
19684 20.7890 63.54 69.81 7.97
19685 20.7900 65.57 69.83 8.10
19686 20.7910 66.18 69.86 8.14
19687 20.7920 70.71 69.89 8.41
19688 20.7930 68.99 69.92 8.31
19689 20.7940 69.51 69.95 8.34
19690 20.7950 65.64 69.97 8.10
19691 20.7960 66.24 70.01 8.14
19692 20.7970 65.84 70.04 8.11
19693 20.7980 71.12 70.08 8.43
19694 20.7990 69.76 70.12 8.35
19695 20.8000 69.73 70.16 8.35
19696 20.8010 66.14 70.20 8.13
19697 20.8020 65.15 70.25 8.07
19698 20.8030 67.08 70.29 8.19
19699 20.8040 71.43 70.34 8.45
19700 20.8050 72.69 70.39 8.53
19701 20.8060 71.84 70.44 8.48
19702 20.8070 68.34 70.49 8.27
19703 20.8080 69.86 70.54 8.36
19704 20.8090 75.45 70.60 8.69
19705 20.8100 74.92 70.66 8.66
19706 20.8110 63.51 70.72 7.97
19707 20.8120 63.18 70.78 7.95
19708 20.8130 74.79 70.84 8.65
19709 20.8140 69.67 70.90 8.35
19710 20.8150 74.85 70.97 8.65
19711 20.8160 59.80 71.03 7.73
19712 20.8170 70.90 71.10 8.42
19713 20.8180 71.47 71.17 8.45
19714 20.8190 75.16 71.24 8.67
19715 20.8200 78.64 71.31 8.87
19716 20.8210 70.59 71.38 8.40
19717 20.8220 65.04 71.46 8.06
19718 20.8230 63.36 71.53 7.96
19719 20.8240 65.32 71.61 8.08
19720 20.8250 70.19 71.68 8.38
19721 20.8260 63.56 71.76 7.97
19722 20.8270 72.23 71.84 8.50
19723 20.8280 74.53 71.92 8.63
19724 20.8290 72.26 72.00 8.50
19725 20.8300 68.76 72.08 8.29
19726 20.8310 65.26 72.16 8.08
19727 20.8320 64.03 72.25 8.00
19728 20.8330 72.42 72.33 8.51
19729 20.8340 74.26 72.42 8.62
19730 20.8350 73.20 72.50 8.56
19731 20.8360 82.08 72.59 9.06
19732 20.8370 72.86 72.65 8.54
19733 20.8380 63.36 72.74 7.96
19734 20.8390 71.00 72.83 8.43
19735 20.8400 80.76 72.92 8.99
19736 20.8410 69.21 73.01 8.32
19737 20.8420 71.43 73.10 8.45
19738 20.8430 75.50 73.19 8.69
19739 20.8440 67.29 73.28 8.20
19740 20.8450 72.53 73.37 8.52
19741 20.8460 74.14 73.46 8.61
19742 20.8470 76.78 73.55 8.76
19743 20.8480 75.04 73.64 8.66
19744 20.8490 71.69 73.73 8.47
19745 20.8500 71.86 73.82 8.48
19746 20.8510 73.09 73.91 8.55
19747 20.8520 66.69 74.00 8.17
19748 20.8530 74.13 74.09 8.61
19749 20.8540 79.17 74.17 8.90
19750 20.8550 77.44 74.26 8.80
19751 20.8560 75.33 74.35 8.68
19752 20.8570 81.46 74.42 9.03
19753 20.8580 72.48 74.51 8.51
19754 20.8590 76.77 74.60 8.76
19755 20.8600 73.53 74.69 8.57
19756 20.8610 76.75 74.77 8.76
19757 20.8620 82.16 74.86 9.06
19758 20.8630 77.62 74.95 8.81
19759 20.8640 71.41 75.03 8.45
19760 20.8650 77.41 75.12 8.80
19761 20.8660 81.06 75.21 9.00
19762 20.8670 76.26 75.29 8.73
19763 20.8680 70.85 75.37 8.42
19764 20.8690 84.72 75.46 9.20
19765 20.8700 76.08 75.54 8.72
19766 20.8710 77.99 75.62 8.83
19767 20.8720 79.33 75.70 8.91
19768 20.8730 83.93 75.78 9.16
19769 20.8740 77.65 75.86 8.81
19770 20.8750 68.38 75.93 8.27
19771 20.8760 67.62 76.01 8.22
19772 20.8770 89.19 76.09 9.44
19773 20.8780 84.93 76.17 9.22
19774 20.8790 82.44 76.24 9.08
19775 20.8800 81.57 76.31 9.03
19776 20.8810 80.77 76.39 8.99
19777 20.8820 75.67 76.46 8.70
19778 20.8830 82.43 76.53 9.08
19779 20.8840 78.11 76.60 8.84
19780 20.8850 85.44 76.66 9.24
19781 20.8860 87.19 76.73 9.34
19782 20.8870 79.29 76.80 8.90
19783 20.8880 81.64 76.86 9.04
19784 20.8890 80.89 76.92 8.99
19785 20.8900 71.23 76.98 8.44
19786 20.8910 65.80 77.04 8.11
19787 20.8920 75.38 77.10 8.68
19788 20.8930 89.21 77.16 9.45
19789 20.8940 92.44 77.21 9.61
19790 20.8950 76.74 77.27 8.76
19791 20.8960 81.47 77.32 9.03
19792 20.8970 81.56 77.37 9.03
19793 20.8980 81.24 77.42 9.01
19794 20.8990 79.44 77.47 8.91
19795 20.9000 82.33 77.51 9.07
19796 20.9010 78.03 77.56 8.83
19797 20.9020 78.36 77.60 8.85
19798 20.9030 91.26 77.64 9.55
19799 20.9040 78.42 77.69 8.86
19800 20.9050 73.89 77.72 8.60
19801 20.9060 85.99 77.76 9.27
19802 20.9070 90.87 77.80 9.53
19803 20.9080 80.28 77.83 8.96
19804 20.9090 75.57 77.86 8.69
19805 20.9100 87.25 77.88 9.34
19806 20.9110 82.91 77.91 9.11
19807 20.9120 78.75 77.94 8.87
19808 20.9130 74.59 77.96 8.64
19809 20.9140 82.95 77.98 9.11
19810 20.9150 92.52 77.99 9.62
19811 20.9160 79.26 78.01 8.90
19812 20.9170 85.17 78.03 9.23
19813 20.9180 93.74 78.05 9.68
19814 20.9190 90.16 78.06 9.50
19815 20.9200 89.64 78.07 9.47
19816 20.9210 89.55 78.08 9.46
19817 20.9220 84.96 78.09 9.22
19818 20.9230 95.96 78.10 9.80
19819 20.9240 92.71 78.10 9.63
19820 20.9250 100.20 78.11 10.01
19821 20.9260 98.88 78.11 9.94
19822 20.9270 96.30 78.11 9.81
19823 20.9280 86.32 78.11 9.29
19824 20.9290 85.82 78.11 9.26
19825 20.9300 90.08 78.11 9.49
19826 20.9310 82.68 78.10 9.09
19827 20.9320 87.10 78.10 9.33
19828 20.9330 81.94 78.09 9.05
19829 20.9340 91.82 78.08 9.58
19830 20.9350 89.09 78.06 9.44
19831 20.9360 79.69 78.05 8.93
19832 20.9370 82.10 78.04 9.06
19833 20.9380 85.68 78.01 9.26
19834 20.9390 77.77 78.00 8.82
19835 20.9400 75.02 77.98 8.66
19836 20.9410 80.05 77.96 8.95
19837 20.9420 85.07 77.93 9.22
19838 20.9430 83.64 77.91 9.15
19839 20.9440 85.50 77.89 9.25
19840 20.9450 80.54 77.86 8.97
19841 20.9460 77.70 77.83 8.81
19842 20.9470 81.69 77.80 9.04
19843 20.9480 89.87 77.77 9.48
19844 20.9490 94.82 77.74 9.74
19845 20.9500 85.56 77.71 9.25
19846 20.9510 86.66 77.67 9.31
19847 20.9520 91.83 77.64 9.58
19848 20.9530 91.67 77.60 9.57
19849 20.9540 78.27 77.56 8.85
19850 20.9550 80.84 77.52 8.99
19851 20.9560 80.16 77.48 8.95
19852 20.9570 78.23 77.44 8.84
19853 20.9580 81.26 77.40 9.01
19854 20.9590 84.59 77.35 9.20
19855 20.9600 81.25 77.31 9.01
19856 20.9610 83.58 77.26 9.14
19857 20.9620 83.46 77.21 9.14
19858 20.9630 87.69 77.17 9.36
19859 20.9640 85.27 77.12 9.23
19860 20.9650 75.92 77.07 8.71
19861 20.9660 75.94 77.02 8.71
19862 20.9670 85.30 76.96 9.24
19863 20.9680 75.41 76.91 8.68
19864 20.9690 69.75 76.86 8.35
19865 20.9700 80.27 76.80 8.96
19866 20.9710 77.01 76.75 8.78
19867 20.9720 82.66 76.69 9.09
19868 20.9730 81.94 76.63 9.05
19869 20.9740 73.24 76.58 8.56
19870 20.9750 87.35 76.52 9.35
19871 20.9760 85.38 76.46 9.24
19872 20.9770 80.25 76.40 8.96
19873 20.9780 81.35 76.34 9.02
19874 20.9790 81.15 76.28 9.01
19875 20.9800 79.72 76.22 8.93
19876 20.9810 77.37 76.16 8.80
19877 20.9820 84.65 76.09 9.20
19878 20.9830 77.08 76.03 8.78
19879 20.9840 77.85 75.96 8.82
19880 20.9850 68.76 75.90 8.29
19881 20.9860 74.58 75.83 8.64
19882 20.9870 66.70 75.77 8.17
19883 20.9880 71.36 75.70 8.45
19884 20.9890 74.38 75.64 8.62
19885 20.9900 81.30 75.57 9.02
19886 20.9910 63.63 75.50 7.98
19887 20.9920 64.20 75.44 8.01
19888 20.9930 69.10 75.37 8.31
19889 20.9940 72.79 75.30 8.53
19890 20.9950 79.06 75.23 8.89
19891 20.9960 75.19 75.16 8.67
19892 20.9970 72.34 75.09 8.51
19893 20.9980 83.24 75.02 9.12
19894 20.9990 81.03 74.96 9.00
19895 21.0000 72.83 74.89 8.53
19896 21.0010 72.05 74.82 8.49
19897 21.0020 74.18 74.75 8.61
19898 21.0030 72.52 74.68 8.52
19899 21.0040 77.31 74.61 8.79
19900 21.0050 66.82 74.54 8.17
19901 21.0060 68.71 74.47 8.29
19902 21.0070 63.37 74.40 7.96
19903 21.0080 55.70 74.33 7.46
19904 21.0090 84.94 74.26 9.22
19905 21.0100 77.32 74.19 8.79
19906 21.0110 81.47 74.11 9.03
19907 21.0120 71.36 74.04 8.45
19908 21.0130 68.20 73.97 8.26
19909 21.0140 73.68 73.90 8.58
19910 21.0150 67.73 73.83 8.23
19911 21.0160 76.07 73.76 8.72
19912 21.0170 74.59 73.69 8.64
19913 21.0180 66.44 73.62 8.15
19914 21.0190 63.27 73.55 7.95
19915 21.0200 71.50 73.48 8.46
19916 21.0210 64.57 73.41 8.04
19917 21.0220 60.02 73.34 7.75
19918 21.0230 68.56 73.27 8.28
19919 21.0240 67.37 73.20 8.21
19920 21.0250 65.94 73.13 8.12
19921 21.0260 68.22 73.06 8.26
19922 21.0270 76.12 72.99 8.72
19923 21.0280 70.05 72.92 8.37
19924 21.0290 65.94 72.86 8.12
19925 21.0300 69.78 72.79 8.35
19926 21.0310 72.11 72.72 8.49
19927 21.0320 72.07 72.65 8.49
19928 21.0330 75.70 72.58 8.70
19929 21.0340 70.60 72.52 8.40
19930 21.0350 72.55 72.45 8.52
19931 21.0360 59.78 72.38 7.73
19932 21.0370 63.40 72.31 7.96
19933 21.0380 73.12 72.24 8.55
19934 21.0390 77.23 72.18 8.79
19935 21.0400 73.45 72.12 8.57
19936 21.0410 66.00 72.05 8.12
19937 21.0420 70.28 71.99 8.38
19938 21.0430 65.29 71.92 8.08
19939 21.0440 71.21 71.86 8.44
19940 21.0450 68.76 71.79 8.29
19941 21.0460 66.29 71.73 8.14
19942 21.0470 69.02 71.66 8.31
19943 21.0480 68.57 71.60 8.28
19944 21.0490 75.81 71.53 8.71
19945 21.0500 68.54 71.46 8.28
19946 21.0510 62.57 71.40 7.91
19947 21.0520 58.34 71.34 7.64
19948 21.0530 86.05 71.28 9.28
19949 21.0540 72.36 71.21 8.51
19950 21.0550 67.02 71.15 8.19
19951 21.0560 72.03 71.09 8.49
19952 21.0570 69.84 71.03 8.36
19953 21.0580 75.81 70.96 8.71
19954 21.0590 60.43 70.91 7.77
19955 21.0600 63.88 70.85 7.99
19956 21.0610 72.42 70.78 8.51
19957 21.0620 71.31 70.72 8.44
19958 21.0630 75.98 70.66 8.72
19959 21.0640 64.50 70.60 8.03
19960 21.0650 64.02 70.54 8.00
19961 21.0660 62.62 70.48 7.91
19962 21.0670 67.87 70.42 8.24
19963 21.0680 73.54 70.36 8.58
19964 21.0690 71.96 70.30 8.48
19965 21.0700 65.56 70.24 8.10
19966 21.0710 67.60 70.18 8.22
19967 21.0720 67.27 70.12 8.20
19968 21.0730 63.11 70.06 7.94
19969 21.0740 57.63 70.01 7.59
19970 21.0750 59.35 69.95 7.70
19971 21.0760 59.54 69.89 7.72
19972 21.0770 66.17 69.83 8.13
19973 21.0780 59.25 69.77 7.70
19974 21.0790 69.54 69.71 8.34
19975 21.0800 65.46 69.66 8.09
19976 21.0810 79.33 69.60 8.91
19977 21.0820 67.84 69.54 8.24
19978 21.0830 68.27 69.47 8.26
19979 21.0840 73.68 69.41 8.58
19980 21.0850 69.86 69.35 8.36
19981 21.0860 78.37 69.30 8.85
19982 21.0870 81.81 69.24 9.04
19983 21.0880 67.24 69.18 8.20
19984 21.0890 62.97 69.13 7.94
19985 21.0900 67.97 69.07 8.24
19986 21.0910 72.27 69.01 8.50
19987 21.0920 70.18 68.96 8.38
19988 21.0930 65.97 68.90 8.12
19989 21.0940 67.51 68.84 8.22
19990 21.0950 67.72 68.79 8.23
19991 21.0960 70.43 68.73 8.39
19992 21.0970 73.47 68.67 8.57
19993 21.0980 66.48 68.62 8.15
19994 21.0990 66.57 68.56 8.16
19995 21.1000 68.18 68.51 8.26
19996 21.1010 65.74 68.45 8.11
19997 21.1020 64.02 68.39 8.00
19998 21.1030 59.62 68.34 7.72
19999 21.1040 60.29 68.28 7.76
20000 21.1050 63.31 68.23 7.96
20001 21.1060 61.24 68.17 7.83
20002 21.1070 62.05 68.11 7.88
20003 21.1080 65.50 68.06 8.09
20004 21.1090 61.35 68.00 7.83
20005 21.1100 70.56 67.95 8.40
20006 21.1110 73.53 67.89 8.57
20007 21.1120 70.12 67.83 8.37
20008 21.1130 68.86 67.78 8.30
20009 21.1140 75.59 67.73 8.69
20010 21.1150 58.96 67.67 7.68
20011 21.1160 69.54 67.62 8.34
20012 21.1170 73.80 67.56 8.59
20013 21.1180 68.15 67.50 8.26
20014 21.1190 68.46 67.45 8.27
20015 21.1200 62.93 67.40 7.93
20016 21.1210 66.28 67.34 8.14
20017 21.1220 63.49 67.29 7.97
20018 21.1230 65.45 67.23 8.09
20019 21.1240 56.54 67.18 7.52
20020 21.1250 60.26 67.12 7.76
20021 21.1260 61.55 67.07 7.85
20022 21.1270 66.35 67.01 8.15
20023 21.1280 64.36 66.96 8.02
20024 21.1290 63.39 66.90 7.96
20025 21.1300 52.31 66.85 7.23
20026 21.1310 52.62 66.79 7.25
20027 21.1320 59.75 66.74 7.73
20028 21.1330 60.59 66.69 7.78
20029 21.1340 66.59 66.63 8.16
20030 21.1350 63.43 66.58 7.96
20031 21.1360 64.11 66.53 8.01
20032 21.1370 70.65 66.47 8.41
20033 21.1380 55.98 66.42 7.48
20034 21.1390 60.13 66.36 7.75
20035 21.1400 57.09 66.31 7.56
20036 21.1410 58.63 66.26 7.66
20037 21.1420 56.08 66.21 7.49
20038 21.1430 65.64 66.15 8.10
20039 21.1440 57.05 66.10 7.55
20040 21.1450 60.68 66.05 7.79
20041 21.1460 57.80 66.00 7.60
20042 21.1470 62.34 65.95 7.90
20043 21.1480 54.94 65.90 7.41
20044 21.1490 55.01 65.85 7.42
20045 21.1500 56.80 65.79 7.54
20046 21.1510 63.65 65.74 7.98
20047 21.1520 65.68 65.69 8.10
20048 21.1530 67.92 65.64 8.24
20049 21.1540 73.05 65.59 8.55
20050 21.1550 70.01 65.55 8.37
20051 21.1560 71.38 65.50 8.45
20052 21.1570 66.66 65.45 8.16
20053 21.1580 59.46 65.40 7.71
20054 21.1590 68.32 65.36 8.27
20055 21.1600 72.78 65.31 8.53
20056 21.1610 73.84 65.27 8.59
20057 21.1620 61.33 65.22 7.83
20058 21.1630 66.32 65.18 8.14
20059 21.1640 60.19 65.13 7.76
20060 21.1650 59.74 65.09 7.73
20061 21.1660 60.91 65.05 7.80
20062 21.1670 67.49 65.00 8.22
20063 21.1680 58.90 64.96 7.67
20064 21.1690 59.20 64.92 7.69
20065 21.1700 65.46 64.88 8.09
20066 21.1710 62.99 64.84 7.94
20067 21.1720 54.27 64.80 7.37
20068 21.1730 58.61 64.76 7.66
20069 21.1740 65.67 64.72 8.10
20070 21.1750 62.42 64.68 7.90
20071 21.1760 68.29 64.64 8.26
20072 21.1770 59.68 64.60 7.73
20073 21.1780 55.55 64.57 7.45
20074 21.1790 66.54 64.53 8.16
20075 21.1800 65.64 64.50 8.10
20076 21.1810 62.65 64.45 7.92
20077 21.1820 60.51 64.42 7.78
20078 21.1830 64.95 64.38 8.06
20079 21.1840 60.72 64.35 7.79
20080 21.1850 64.61 64.32 8.04
20081 21.1860 60.22 64.28 7.76
20082 21.1870 63.27 64.26 7.95
20083 21.1880 56.26 64.22 7.50
20084 21.1890 59.56 64.19 7.72
20085 21.1900 55.83 64.16 7.47
20086 21.1910 56.94 64.14 7.55
20087 21.1920 64.28 64.11 8.02
20088 21.1930 67.78 64.08 8.23
20089 21.1940 74.84 64.05 8.65
20090 21.1950 64.93 64.03 8.06
20091 21.1960 69.12 64.00 8.31
20092 21.1970 65.63 63.98 8.10
20093 21.1980 66.51 63.95 8.16
20094 21.1990 67.56 63.93 8.22
20095 21.2000 69.00 63.90 8.31
20096 21.2010 67.17 63.88 8.20
20097 21.2020 67.71 63.86 8.23
20098 21.2030 65.80 63.84 8.11
20099 21.2040 63.95 63.82 8.00
20100 21.2050 63.90 63.80 7.99
20101 21.2060 65.88 63.78 8.12
20102 21.2070 63.95 63.76 8.00
20103 21.2080 59.13 63.74 7.69
20104 21.2090 57.94 63.72 7.61
20105 21.2100 55.07 63.70 7.42
20106 21.2110 58.02 63.69 7.62
20107 21.2120 55.51 63.67 7.45
20108 21.2130 62.38 63.65 7.90
20109 21.2140 61.76 63.64 7.86
20110 21.2150 65.77 63.62 8.11
20111 21.2160 58.92 63.61 7.68
20112 21.2170 64.57 63.59 8.04
20113 21.2180 65.88 63.58 8.12
20114 21.2190 67.04 63.57 8.19
20115 21.2200 61.91 63.55 7.87
20116 21.2210 65.15 63.54 8.07
20117 21.2220 60.03 63.53 7.75
20118 21.2230 71.00 63.52 8.43
20119 21.2240 60.92 63.51 7.81
20120 21.2250 58.95 63.50 7.68
20121 21.2260 62.43 63.49 7.90
20122 21.2270 54.91 63.48 7.41
20123 21.2280 61.21 63.47 7.82
20124 21.2290 72.09 63.46 8.49
20125 21.2300 69.70 63.45 8.35
20126 21.2310 60.41 63.44 7.77
20127 21.2320 58.78 63.44 7.67
20128 21.2330 62.39 63.43 7.90
20129 21.2340 63.07 63.42 7.94
20130 21.2350 61.47 63.41 7.84
20131 21.2360 58.08 63.41 7.62
20132 21.2370 62.36 63.40 7.90
20133 21.2380 57.54 63.40 7.59
20134 21.2390 58.61 63.39 7.66
20135 21.2400 70.38 63.39 8.39
20136 21.2410 71.11 63.38 8.43
20137 21.2420 63.16 63.38 7.95
20138 21.2430 66.39 63.38 8.15
20139 21.2440 67.00 63.37 8.19
20140 21.2450 60.22 63.37 7.76
20141 21.2460 59.14 63.37 7.69
20142 21.2470 57.91 63.36 7.61
20143 21.2480 66.29 63.36 8.14
20144 21.2490 65.63 63.36 8.10
20145 21.2500 60.67 63.36 7.79
20146 21.2510 56.92 63.36 7.54
20147 21.2520 71.10 63.35 8.43
20148 21.2530 69.81 63.35 8.36
20149 21.2540 61.19 63.35 7.82
20150 21.2550 60.69 63.35 7.79
20151 21.2560 57.96 63.35 7.61
20152 21.2570 64.81 63.35 8.05
20153 21.2580 55.71 63.35 7.46
20154 21.2590 68.73 63.35 8.29
20155 21.2600 71.37 63.35 8.45
20156 21.2610 57.71 63.36 7.60
20157 21.2620 57.11 63.36 7.56
20158 21.2630 60.99 63.36 7.81
20159 21.2640 61.64 63.36 7.85
20160 21.2650 66.92 63.36 8.18
20161 21.2660 65.83 63.36 8.11
20162 21.2670 62.45 63.36 7.90
20163 21.2680 64.77 63.37 8.05
20164 21.2690 65.02 63.37 8.06
20165 21.2700 67.00 63.37 8.19
20166 21.2710 59.41 63.38 7.71
20167 21.2720 62.14 63.38 7.88
20168 21.2730 70.25 63.39 8.38
20169 21.2740 59.07 63.39 7.69
20170 21.2750 69.89 63.40 8.36
20171 21.2760 69.06 63.40 8.31
20172 21.2770 71.64 63.41 8.46
20173 21.2780 64.17 63.41 8.01
20174 21.2790 62.93 63.42 7.93
20175 21.2800 60.36 63.43 7.77
20176 21.2810 66.90 63.43 8.18
20177 21.2820 61.41 63.44 7.84
20178 21.2830 56.03 63.45 7.49
20179 21.2840 57.49 63.46 7.58
20180 21.2850 66.53 63.46 8.16
20181 21.2860 70.56 63.47 8.40
20182 21.2870 66.70 63.48 8.17
20183 21.2880 60.29 63.49 7.76
20184 21.2890 75.53 63.50 8.69
20185 21.2900 72.81 63.51 8.53
20186 21.2910 60.74 63.52 7.79
20187 21.2920 65.40 63.53 8.09
20188 21.2930 66.62 63.54 8.16
20189 21.2940 70.24 63.54 8.38
20190 21.2950 71.61 63.56 8.46
20191 21.2960 60.89 63.57 7.80
20192 21.2970 64.48 63.58 8.03
20193 21.2980 65.79 63.59 8.11
20194 21.2990 67.23 63.60 8.20
20195 21.3000 58.98 63.62 7.68
20196 21.3010 61.31 63.63 7.83
20197 21.3020 62.35 63.64 7.90
20198 21.3030 63.00 63.66 7.94
20199 21.3040 60.29 63.67 7.76
20200 21.3050 63.81 63.69 7.99
20201 21.3060 64.66 63.70 8.04
20202 21.3070 64.54 63.72 8.03
20203 21.3080 61.93 63.73 7.87
20204 21.3090 66.58 63.75 8.16
20205 21.3100 74.63 63.76 8.64
20206 21.3110 53.72 63.78 7.33
20207 21.3120 56.44 63.80 7.51
20208 21.3130 64.36 63.82 8.02
20209 21.3140 66.33 63.83 8.14
20210 21.3150 75.63 63.85 8.70
20211 21.3160 65.98 63.87 8.12
20212 21.3170 61.79 63.89 7.86
20213 21.3180 55.69 63.91 7.46
20214 21.3190 61.70 63.93 7.85
20215 21.3200 66.46 63.95 8.15
20216 21.3210 63.19 63.97 7.95
20217 21.3220 62.08 63.99 7.88
20218 21.3230 64.86 64.01 8.05
20219 21.3240 69.82 64.03 8.36
20220 21.3250 64.10 64.06 8.01
20221 21.3260 59.32 64.08 7.70
20222 21.3270 58.16 64.10 7.63
20223 21.3280 65.89 64.12 8.12
20224 21.3290 71.85 64.15 8.48
20225 21.3300 65.14 64.17 8.07
20226 21.3310 60.64 64.19 7.79
20227 21.3320 77.60 64.22 8.81
20228 21.3330 71.29 64.24 8.44
20229 21.3340 66.98 64.26 8.18
20230 21.3350 70.45 64.29 8.39
20231 21.3360 63.01 64.31 7.94
20232 21.3370 60.05 64.34 7.75
20233 21.3380 68.03 64.37 8.25
20234 21.3390 70.79 64.39 8.41
20235 21.3400 69.87 64.42 8.36
20236 21.3410 63.79 64.45 7.99
20237 21.3420 68.69 64.47 8.29
20238 21.3430 68.83 64.50 8.30
20239 21.3440 68.53 64.53 8.28
20240 21.3450 71.57 64.56 8.46
20241 21.3460 71.73 64.58 8.47
20242 21.3470 67.17 64.61 8.20
20243 21.3480 65.11 64.64 8.07
20244 21.3490 67.40 64.67 8.21
20245 21.3500 67.28 64.70 8.20
20246 21.3510 63.15 64.73 7.95
20247 21.3520 62.46 64.76 7.90
20248 21.3530 58.73 64.79 7.66
20249 21.3540 67.40 64.80 8.21
20250 21.3550 63.28 64.83 7.95
20251 21.3560 59.74 64.86 7.73
20252 21.3570 54.63 64.90 7.39
20253 21.3580 60.22 64.93 7.76
20254 21.3590 73.77 64.96 8.59
20255 21.3600 68.70 64.99 8.29
20256 21.3610 77.79 65.02 8.82
20257 21.3620 81.41 65.05 9.02
20258 21.3630 68.26 65.08 8.26
20259 21.3640 56.19 65.11 7.50
20260 21.3650 64.45 65.14 8.03
20261 21.3660 58.34 65.16 7.64
20262 21.3670 57.85 65.19 7.61
20263 21.3680 54.10 65.22 7.36
20264 21.3690 74.43 65.25 8.63
20265 21.3700 73.55 65.28 8.58
20266 21.3710 68.21 65.30 8.26
20267 21.3720 68.03 65.33 8.25
20268 21.3730 65.94 65.35 8.12
20269 21.3740 67.38 65.37 8.21
20270 21.3750 66.03 65.40 8.13
20271 21.3760 61.34 65.43 7.83
20272 21.3770 56.36 65.45 7.51
20273 21.3780 65.19 65.48 8.07
20274 21.3790 57.33 65.51 7.57
20275 21.3800 70.25 65.54 8.38
20276 21.3810 73.84 65.57 8.59
20277 21.3820 66.77 65.59 8.17
20278 21.3830 70.11 65.62 8.37
20279 21.3840 75.14 65.65 8.67
20280 21.3850 74.81 65.68 8.65
20281 21.3860 58.98 65.70 7.68
20282 21.3870 71.29 65.73 8.44
20283 21.3880 66.60 65.75 8.16
20284 21.3890 74.99 65.78 8.66
20285 21.3900 61.01 65.80 7.81
20286 21.3910 73.78 65.83 8.59
20287 21.3920 68.86 65.85 8.30
20288 21.3930 64.23 65.86 8.01
20289 21.3940 61.06 65.88 7.81
20290 21.3950 69.50 65.90 8.34
20291 21.3960 70.45 65.92 8.39
20292 21.3970 64.95 65.94 8.06
20293 21.3980 67.79 65.97 8.23
20294 21.3990 72.25 65.99 8.50
20295 21.4000 60.79 66.01 7.80
20296 21.4010 68.27 66.03 8.26
20297 21.4020 66.70 66.05 8.17
20298 21.4030 61.15 66.07 7.82
20299 21.4040 58.07 66.09 7.62
20300 21.4050 70.41 66.10 8.39
20301 21.4060 55.83 66.12 7.47
20302 21.4070 55.86 66.14 7.47
20303 21.4080 55.94 66.16 7.48
20304 21.4090 65.48 66.17 8.09
20305 21.4100 70.45 66.18 8.39
20306 21.4110 68.55 66.20 8.28
20307 21.4120 69.60 66.21 8.34
20308 21.4130 63.25 66.23 7.95
20309 21.4140 63.47 66.24 7.97
20310 21.4150 71.21 66.25 8.44
20311 21.4160 67.67 66.27 8.23
20312 21.4170 73.45 66.28 8.57
20313 21.4180 65.78 66.29 8.11
20314 21.4190 71.50 66.30 8.46
20315 21.4200 66.02 66.31 8.13
20316 21.4210 57.22 66.32 7.56
20317 21.4220 62.05 66.33 7.88
20318 21.4230 58.96 66.34 7.68
20319 21.4240 60.55 66.34 7.78
20320 21.4250 75.32 66.35 8.68
20321 21.4260 69.56 66.36 8.34
20322 21.4270 68.80 66.35 8.29
20323 21.4280 65.54 66.36 8.10
20324 21.4290 64.84 66.36 8.05
20325 21.4300 60.41 66.37 7.77
20326 21.4310 63.73 66.37 7.98
20327 21.4320 66.91 66.37 8.18
20328 21.4330 63.53 66.37 7.97
20329 21.4340 68.82 66.37 8.30
20330 21.4350 66.22 66.37 8.14
20331 21.4360 65.45 66.37 8.09
20332 21.4370 67.58 66.38 8.22
20333 21.4380 65.77 66.37 8.11
20334 21.4390 68.13 66.37 8.25
20335 21.4400 59.29 66.37 7.70
20336 21.4410 73.13 66.37 8.55
20337 21.4420 64.25 66.37 8.02
20338 21.4430 72.24 66.37 8.50
20339 21.4440 63.78 66.37 7.99
20340 21.4450 64.78 66.36 8.05
20341 21.4460 60.61 66.36 7.79
20342 21.4470 66.27 66.36 8.14
20343 21.4480 61.15 66.35 7.82
20344 21.4490 66.28 66.35 8.14
20345 21.4500 64.61 66.35 8.04
20346 21.4510 61.62 66.34 7.85
20347 21.4520 66.56 66.34 8.16
20348 21.4530 71.07 66.33 8.43
20349 21.4540 62.15 66.33 7.88
20350 21.4550 56.33 66.32 7.51
20351 21.4560 57.39 66.31 7.58
20352 21.4570 62.03 66.31 7.88
20353 21.4580 73.20 66.30 8.56
20354 21.4590 64.04 66.29 8.00
20355 21.4600 61.64 66.29 7.85
20356 21.4610 58.79 66.28 7.67
20357 21.4620 62.84 66.27 7.93
20358 21.4630 67.96 66.26 8.24
20359 21.4640 68.39 66.26 8.27
20360 21.4650 58.36 66.25 7.64
20361 21.4660 66.98 66.24 8.18
20362 21.4670 68.02 66.23 8.25
20363 21.4680 65.57 66.22 8.10
20364 21.4690 64.19 66.21 8.01
20365 21.4700 67.27 66.20 8.20
20366 21.4710 62.53 66.19 7.91
20367 21.4720 68.12 66.18 8.25
20368 21.4730 56.59 66.18 7.52
20369 21.4740 67.81 66.17 8.23
20370 21.4750 71.66 66.16 8.47
20371 21.4760 61.35 66.15 7.83
20372 21.4770 57.05 66.14 7.55
20373 21.4780 49.01 66.13 7.00
20374 21.4790 62.47 66.12 7.90
20375 21.4800 69.06 66.12 8.31
20376 21.4810 68.91 66.11 8.30
20377 21.4820 65.92 66.10 8.12
20378 21.4830 73.42 66.10 8.57
20379 21.4840 66.57 66.09 8.16
20380 21.4850 63.96 66.08 8.00
20381 21.4860 67.83 66.08 8.24
20382 21.4870 72.55 66.07 8.52
20383 21.4880 69.34 66.07 8.33
20384 21.4890 71.54 66.06 8.46
20385 21.4900 75.09 66.05 8.67
20386 21.4910 70.05 66.05 8.37
20387 21.4920 68.69 66.05 8.29
20388 21.4930 72.72 66.04 8.53
20389 21.4940 68.71 66.04 8.29
20390 21.4950 73.98 66.03 8.60
20391 21.4960 68.60 66.03 8.28
20392 21.4970 69.07 66.03 8.31
20393 21.4980 68.47 66.03 8.27
20394 21.4990 73.68 66.02 8.58
20395 21.5000 67.89 66.02 8.24
20396 21.5010 64.84 66.02 8.05
20397 21.5020 74.43 66.02 8.63
20398 21.5030 64.97 66.02 8.06
20399 21.5040 59.02 66.02 7.68
20400 21.5050 66.39 66.02 8.15
20401 21.5060 66.35 66.02 8.15
20402 21.5070 69.21 66.02 8.32
20403 21.5080 72.08 66.03 8.49
20404 21.5090 72.26 66.02 8.50
20405 21.5100 68.55 66.02 8.28
20406 21.5110 60.98 66.03 7.81
20407 21.5120 61.25 66.03 7.83
20408 21.5130 62.48 66.04 7.90
20409 21.5140 62.25 66.04 7.89
20410 21.5150 66.56 66.05 8.16
20411 21.5160 71.48 66.05 8.45
20412 21.5170 70.91 66.06 8.42
20413 21.5180 72.40 66.06 8.51
20414 21.5190 80.50 66.07 8.97
20415 21.5200 68.76 66.08 8.29
20416 21.5210 64.14 66.09 8.01
20417 21.5220 66.93 66.10 8.18
20418 21.5230 72.18 66.11 8.50
20419 21.5240 68.74 66.12 8.29
20420 21.5250 62.98 66.13 7.94
20421 21.5260 64.78 66.12 8.05
20422 21.5270 66.50 66.13 8.15
20423 21.5280 64.79 66.15 8.05
20424 21.5290 64.09 66.16 8.01
20425 21.5300 64.63 66.17 8.04
20426 21.5310 60.59 66.18 7.78
20427 21.5320 75.16 66.20 8.67
20428 21.5330 65.81 66.21 8.11
20429 21.5340 65.65 66.22 8.10
20430 21.5350 69.71 66.24 8.35
20431 21.5360 70.45 66.25 8.39
20432 21.5370 74.07 66.26 8.61
20433 21.5380 74.57 66.28 8.64
20434 21.5390 72.70 66.30 8.53
20435 21.5400 66.62 66.30 8.16
20436 21.5410 67.13 66.32 8.19
20437 21.5420 67.67 66.34 8.23
20438 21.5430 64.03 66.35 8.00
20439 21.5440 66.29 66.37 8.14
20440 21.5450 69.38 66.39 8.33
20441 21.5460 70.78 66.41 8.41
20442 21.5470 79.63 66.42 8.92
20443 21.5480 64.64 66.45 8.04
20444 21.5490 66.15 66.47 8.13
20445 21.5500 68.20 66.49 8.26
20446 21.5510 71.62 66.51 8.46
20447 21.5520 73.54 66.53 8.58
20448 21.5530 70.24 66.55 8.38
20449 21.5540 75.93 66.57 8.71
20450 21.5550 79.54 66.58 8.92
20451 21.5560 81.88 66.60 9.05
20452 21.5570 72.64 66.62 8.52
20453 21.5580 74.84 66.64 8.65
20454 21.5590 68.52 66.67 8.28
20455 21.5600 67.07 66.69 8.19
20456 21.5610 72.07 66.71 8.49
20457 21.5620 74.50 66.73 8.63
20458 21.5630 78.42 66.75 8.86
20459 21.5640 57.17 66.77 7.56
20460 21.5650 53.82 66.78 7.34
20461 21.5660 64.33 66.80 8.02
20462 21.5670 67.73 66.82 8.23
20463 21.5680 65.05 66.84 8.07
20464 21.5690 72.28 66.86 8.50
20465 21.5700 77.43 66.88 8.80
20466 21.5710 71.72 66.90 8.47
20467 21.5720 69.56 66.92 8.34
20468 21.5730 64.17 66.94 8.01
20469 21.5740 63.14 66.96 7.95
20470 21.5750 62.97 66.98 7.94
20471 21.5760 63.36 67.00 7.96
20472 21.5770 61.76 67.02 7.86
20473 21.5780 67.55 67.05 8.22
20474 21.5790 75.08 67.07 8.66
20475 21.5800 71.33 67.09 8.45
20476 21.5810 64.97 67.11 8.06
20477 21.5820 72.44 67.13 8.51
20478 21.5830 69.78 67.15 8.35
20479 21.5840 68.64 67.17 8.28
20480 21.5850 72.28 67.19 8.50
20481 21.5860 67.87 67.21 8.24
20482 21.5870 72.10 67.23 8.49
20483 21.5880 72.95 67.25 8.54
20484 21.5890 72.15 67.27 8.49
20485 21.5900 72.44 67.29 8.51
20486 21.5910 65.33 67.31 8.08
20487 21.5920 66.55 67.32 8.16
20488 21.5930 75.23 67.34 8.67
20489 21.5940 75.95 67.36 8.71
20490 21.5950 64.17 67.38 8.01
20491 21.5960 69.03 67.40 8.31
20492 21.5970 65.58 67.42 8.10
20493 21.5980 70.74 67.43 8.41
20494 21.5990 70.29 67.45 8.38
20495 21.6000 64.43 67.47 8.03
20496 21.6010 61.94 67.49 7.87
20497 21.6020 75.53 67.50 8.69
20498 21.6030 68.92 67.52 8.30
20499 21.6040 65.76 67.53 8.11
20500 21.6050 74.20 67.55 8.61
20501 21.6060 78.19 67.56 8.84
20502 21.6070 72.45 67.58 8.51
20503 21.6080 64.63 67.60 8.04
20504 21.6090 66.69 67.61 8.17
20505 21.6100 71.31 67.63 8.44
20506 21.6110 62.63 67.64 7.91
20507 21.6120 63.47 67.66 7.97
20508 21.6130 68.54 67.67 8.28
20509 21.6140 65.14 67.69 8.07
20510 21.6150 60.49 67.70 7.78
20511 21.6160 68.60 67.71 8.28
20512 21.6170 65.78 67.73 8.11
20513 21.6180 65.89 67.74 8.12
20514 21.6190 73.39 67.76 8.57
20515 21.6200 65.56 67.77 8.10
20516 21.6210 65.64 67.78 8.10
20517 21.6220 64.90 67.79 8.06
20518 21.6230 69.23 67.80 8.32
20519 21.6240 65.70 67.82 8.11
20520 21.6250 80.61 67.83 8.98
20521 21.6260 78.37 67.84 8.85
20522 21.6270 67.05 67.86 8.19
20523 21.6280 62.90 67.87 7.93
20524 21.6290 66.66 67.88 8.16
20525 21.6300 68.54 67.89 8.28
20526 21.6310 75.21 67.91 8.67
20527 21.6320 67.75 67.92 8.23
20528 21.6330 67.72 67.93 8.23
20529 21.6340 60.56 67.94 7.78
20530 21.6350 67.80 67.96 8.23
20531 21.6360 75.53 67.97 8.69
20532 21.6370 70.52 67.98 8.40
20533 21.6380 76.54 67.99 8.75
20534 21.6390 75.60 68.01 8.69
20535 21.6400 68.62 68.02 8.28
20536 21.6410 63.25 68.03 7.95
20537 21.6420 68.52 68.04 8.28
20538 21.6430 68.29 68.06 8.26
20539 21.6440 68.62 68.06 8.28
20540 21.6450 72.16 68.07 8.49
20541 21.6460 69.21 68.08 8.32
20542 21.6470 63.08 68.10 7.94
20543 21.6480 72.14 68.11 8.49
20544 21.6490 65.13 68.12 8.07
20545 21.6500 55.88 68.14 7.48
20546 21.6510 67.95 68.15 8.24
20547 21.6520 62.98 68.16 7.94
20548 21.6530 65.54 68.18 8.10
20549 21.6540 60.18 68.19 7.76
20550 21.6550 70.71 68.20 8.41
20551 21.6560 72.07 68.22 8.49
20552 21.6570 66.86 68.23 8.18
20553 21.6580 65.76 68.24 8.11
20554 21.6590 61.48 68.26 7.84
20555 21.6600 63.63 68.27 7.98
20556 21.6610 66.44 68.29 8.15
20557 21.6620 73.75 68.30 8.59
20558 21.6630 64.93 68.31 8.06
20559 21.6640 67.30 68.33 8.20
20560 21.6650 59.73 68.34 7.73
20561 21.6660 61.62 68.36 7.85
20562 21.6670 73.60 68.37 8.58
20563 21.6680 68.58 68.39 8.28
20564 21.6690 75.93 68.40 8.71
20565 21.6700 76.13 68.42 8.73
20566 21.6710 69.41 68.43 8.33
20567 21.6720 68.50 68.45 8.28
20568 21.6730 66.84 68.47 8.18
20569 21.6740 63.71 68.48 7.98
20570 21.6750 67.47 68.50 8.21
20571 21.6760 65.22 68.52 8.08
20572 21.6770 61.94 68.53 7.87
20573 21.6780 56.62 68.55 7.52
20574 21.6790 77.94 68.56 8.83
20575 21.6800 74.93 68.58 8.66
20576 21.6810 69.93 68.60 8.36
20577 21.6820 76.19 68.61 8.73
20578 21.6830 68.26 68.63 8.26
20579 21.6840 64.87 68.65 8.05
20580 21.6850 53.64 68.66 7.32
20581 21.6860 69.42 68.68 8.33
20582 21.6870 68.37 68.70 8.27
20583 21.6880 62.23 68.71 7.89
20584 21.6890 69.27 68.73 8.32
20585 21.6900 68.55 68.74 8.28
20586 21.6910 65.41 68.76 8.09
20587 21.6920 68.14 68.78 8.25
20588 21.6930 66.32 68.79 8.14
20589 21.6940 61.89 68.81 7.87
20590 21.6950 56.58 68.82 7.52
20591 21.6960 62.45 68.84 7.90
20592 21.6970 62.23 68.86 7.89
20593 21.6980 68.24 68.87 8.26
20594 21.6990 71.60 68.89 8.46
20595 21.7000 74.25 68.90 8.62
20596 21.7010 62.88 68.92 7.93
20597 21.7020 65.11 68.93 8.07
20598 21.7030 74.36 68.95 8.62
20599 21.7040 65.56 68.96 8.10
20600 21.7050 64.92 68.98 8.06
20601 21.7060 68.14 68.99 8.25
20602 21.7070 68.39 69.00 8.27
20603 21.7080 71.57 69.02 8.46
20604 21.7090 90.55 69.03 9.52
20605 21.7100 80.04 69.04 8.95
20606 21.7110 80.28 69.06 8.96
20607 21.7120 87.81 69.07 9.37
20608 21.7130 75.42 69.08 8.68
20609 21.7140 70.53 69.09 8.40
20610 21.7150 67.73 69.10 8.23
20611 21.7160 62.84 69.12 7.93
20612 21.7170 68.97 69.13 8.30
20613 21.7180 64.55 69.14 8.03
20614 21.7190 60.65 69.15 7.79
20615 21.7200 65.56 69.16 8.10
20616 21.7210 68.92 69.17 8.30
20617 21.7220 69.56 69.18 8.34
20618 21.7230 67.88 69.19 8.24
20619 21.7240 68.56 69.20 8.28
20620 21.7250 75.34 69.21 8.68
20621 21.7260 70.95 69.22 8.42
20622 21.7270 67.28 69.23 8.20
20623 21.7280 64.36 69.24 8.02
20624 21.7290 71.18 69.24 8.44
20625 21.7300 63.38 69.25 7.96
20626 21.7310 66.92 69.26 8.18
20627 21.7320 66.60 69.26 8.16
20628 21.7330 69.22 69.27 8.32
20629 21.7340 73.04 69.28 8.55
20630 21.7350 70.69 69.28 8.41
20631 21.7360 73.80 69.29 8.59
20632 21.7370 80.40 69.29 8.97
20633 21.7380 73.09 69.30 8.55
20634 21.7390 62.68 69.30 7.92
20635 21.7400 70.51 69.31 8.40
20636 21.7410 72.70 69.31 8.53
20637 21.7420 72.46 69.32 8.51
20638 21.7430 71.11 69.32 8.43
20639 21.7440 70.55 69.32 8.40
20640 21.7450 73.07 69.32 8.55
20641 21.7460 72.66 69.33 8.52
20642 21.7470 65.82 69.33 8.11
20643 21.7480 62.82 69.33 7.93
20644 21.7490 64.90 69.33 8.06
20645 21.7500 68.59 69.33 8.28
20646 21.7510 76.33 69.33 8.74
20647 21.7520 61.00 69.34 7.81
20648 21.7530 55.44 69.34 7.45
20649 21.7540 75.05 69.34 8.66
20650 21.7550 64.26 69.34 8.02
20651 21.7560 56.64 69.34 7.53
20652 21.7570 78.34 69.33 8.85
20653 21.7580 72.96 69.33 8.54
20654 21.7590 69.10 69.33 8.31
20655 21.7600 65.52 69.33 8.09
20656 21.7610 68.08 69.33 8.25
20657 21.7620 70.26 69.33 8.38
20658 21.7630 60.60 69.33 7.78
20659 21.7640 67.11 69.32 8.19
20660 21.7650 69.02 69.32 8.31
20661 21.7660 69.20 69.32 8.32
20662 21.7670 63.15 69.31 7.95
20663 21.7680 69.33 69.31 8.33
20664 21.7690 58.45 69.31 7.65
20665 21.7700 61.64 69.30 7.85
20666 21.7710 67.06 69.30 8.19
20667 21.7720 66.77 69.30 8.17
20668 21.7730 63.52 69.29 7.97
20669 21.7740 58.29 69.29 7.63
20670 21.7750 65.61 69.28 8.10
20671 21.7760 65.23 69.28 8.08
20672 21.7770 70.75 69.28 8.41
20673 21.7780 67.76 69.27 8.23
20674 21.7790 64.42 69.27 8.03
20675 21.7800 61.36 69.26 7.83
20676 21.7810 49.64 69.26 7.05
20677 21.7820 55.43 69.25 7.45
20678 21.7830 70.43 69.25 8.39
20679 21.7840 74.53 69.24 8.63
20680 21.7850 69.22 69.24 8.32
20681 21.7860 66.46 69.23 8.15
20682 21.7870 61.29 69.23 7.83
20683 21.7880 68.74 69.22 8.29
20684 21.7890 62.13 69.22 7.88
20685 21.7900 64.23 69.21 8.01
20686 21.7910 67.23 69.21 8.20
20687 21.7920 68.06 69.20 8.25
20688 21.7930 67.76 69.19 8.23
20689 21.7940 63.57 69.19 7.97
20690 21.7950 60.01 69.18 7.75
20691 21.7960 56.53 69.18 7.52
20692 21.7970 74.21 69.17 8.61
20693 21.7980 75.08 69.16 8.66
20694 21.7990 66.13 69.16 8.13
20695 21.8000 62.72 69.15 7.92
20696 21.8010 64.02 69.15 8.00
20697 21.8020 62.79 69.14 7.92
20698 21.8030 65.83 69.13 8.11
20699 21.8040 70.08 69.13 8.37
20700 21.8050 59.31 69.12 7.70
20701 21.8060 68.50 69.11 8.28
20702 21.8070 59.95 69.11 7.74
20703 21.8080 56.99 69.11 7.55
20704 21.8090 70.30 69.10 8.38
20705 21.8100 76.94 69.09 8.77
20706 21.8110 66.15 69.07 8.13
20707 21.8120 58.36 69.06 7.64
20708 21.8130 69.37 69.06 8.33
20709 21.8140 74.29 69.05 8.62
20710 21.8150 69.37 69.05 8.33
20711 21.8160 78.46 69.04 8.86
20712 21.8170 72.74 69.03 8.53
20713 21.8180 77.24 69.03 8.79
20714 21.8190 78.18 69.02 8.84
20715 21.8200 55.61 69.01 7.46
20716 21.8210 64.36 69.00 8.02
20717 21.8220 77.20 69.00 8.79
20718 21.8230 78.34 68.99 8.85
20719 21.8240 69.71 68.98 8.35
20720 21.8250 76.81 68.97 8.76
20721 21.8260 74.00 68.97 8.60
20722 21.8270 72.86 68.96 8.54
20723 21.8280 68.03 68.95 8.25
20724 21.8290 66.99 68.94 8.18
20725 21.8300 63.22 68.93 7.95
20726 21.8310 77.69 68.93 8.81
20727 21.8320 75.66 68.92 8.70
20728 21.8330 72.04 68.91 8.49
20729 21.8340 64.62 68.90 8.04
20730 21.8350 68.02 68.89 8.25
20731 21.8360 72.88 68.88 8.54
20732 21.8370 74.79 68.87 8.65
20733 21.8380 81.79 68.86 9.04
20734 21.8390 74.48 68.85 8.63
20735 21.8400 63.76 68.84 7.98
20736 21.8410 67.74 68.83 8.23
20737 21.8420 69.68 68.82 8.35
20738 21.8430 70.67 68.81 8.41
20739 21.8440 70.05 68.80 8.37
20740 21.8450 64.96 68.79 8.06
20741 21.8460 72.49 68.78 8.51
20742 21.8470 63.44 68.77 7.96
20743 21.8480 71.61 68.76 8.46
20744 21.8490 66.84 68.75 8.18
20745 21.8500 72.18 68.73 8.50
20746 21.8510 64.21 68.72 8.01
20747 21.8520 62.98 68.71 7.94
20748 21.8530 76.46 68.69 8.74
20749 21.8540 77.17 68.68 8.78
20750 21.8550 63.91 68.67 7.99
20751 21.8560 63.23 68.65 7.95
20752 21.8570 68.81 68.64 8.30
20753 21.8580 71.13 68.62 8.43
20754 21.8590 64.59 68.61 8.04
20755 21.8600 80.92 68.59 9.00
20756 21.8610 77.81 68.57 8.82
20757 21.8620 66.46 68.56 8.15
20758 21.8630 63.75 68.54 7.98
20759 21.8640 65.25 68.52 8.08
20760 21.8650 70.50 68.51 8.40
20761 21.8660 73.40 68.49 8.57
20762 21.8670 73.13 68.47 8.55
20763 21.8680 76.50 68.45 8.75
20764 21.8690 67.03 68.44 8.19
20765 21.8700 59.39 68.42 7.71
20766 21.8710 59.45 68.40 7.71
20767 21.8720 70.34 68.38 8.39
20768 21.8730 77.97 68.36 8.83
20769 21.8740 68.07 68.34 8.25
20770 21.8750 69.52 68.32 8.34
20771 21.8760 70.87 68.30 8.42
20772 21.8770 72.26 68.28 8.50
20773 21.8780 71.92 68.26 8.48
20774 21.8790 64.43 68.24 8.03
20775 21.8800 58.67 68.22 7.66
20776 21.8810 60.23 68.20 7.76
20777 21.8820 70.68 68.18 8.41
20778 21.8830 71.20 68.15 8.44
20779 21.8840 59.75 68.13 7.73
20780 21.8850 70.06 68.11 8.37
20781 21.8860 66.39 68.08 8.15
20782 21.8870 67.55 68.06 8.22
20783 21.8880 69.75 68.04 8.35
20784 21.8890 80.36 68.01 8.96
20785 21.8900 67.85 67.99 8.24
20786 21.8910 71.18 67.97 8.44
20787 21.8920 75.81 67.94 8.71
20788 21.8930 73.11 67.92 8.55
20789 21.8940 71.94 67.90 8.48
20790 21.8950 75.30 67.87 8.68
20791 21.8960 66.07 67.85 8.13
20792 21.8970 64.10 67.82 8.01
20793 21.8980 72.54 67.80 8.52
20794 21.8990 70.00 67.77 8.37
20795 21.9000 67.02 67.75 8.19
20796 21.9010 66.09 67.73 8.13
20797 21.9020 69.75 67.70 8.35
20798 21.9030 61.16 67.68 7.82
20799 21.9040 57.83 67.65 7.60
20800 21.9050 62.99 67.62 7.94
20801 21.9060 65.63 67.60 8.10
20802 21.9070 68.23 67.57 8.26
20803 21.9080 65.90 67.55 8.12
20804 21.9090 71.89 67.52 8.48
20805 21.9100 66.30 67.50 8.14
20806 21.9110 74.49 67.48 8.63
20807 21.9120 75.88 67.45 8.71
20808 21.9130 74.20 67.42 8.61
20809 21.9140 68.48 67.40 8.28
20810 21.9150 68.59 67.37 8.28
20811 21.9160 60.02 67.35 7.75
20812 21.9170 58.48 67.32 7.65
20813 21.9180 65.73 67.30 8.11
20814 21.9190 77.54 67.27 8.81
20815 21.9200 75.32 67.25 8.68
20816 21.9210 65.04 67.22 8.06
20817 21.9220 65.48 67.20 8.09
20818 21.9230 71.08 67.17 8.43
20819 21.9240 68.89 67.15 8.30
20820 21.9250 69.37 67.12 8.33
20821 21.9260 71.78 67.10 8.47
20822 21.9270 65.37 67.07 8.09
20823 21.9280 72.43 67.05 8.51
20824 21.9290 70.10 67.03 8.37
20825 21.9300 63.95 67.01 8.00
20826 21.9310 56.80 66.98 7.54
20827 21.9320 67.66 66.96 8.23
20828 21.9330 64.64 66.94 8.04
20829 21.9340 68.55 66.92 8.28
20830 21.9350 59.75 66.89 7.73
20831 21.9360 65.15 66.87 8.07
20832 21.9370 60.71 66.85 7.79
20833 21.9380 68.19 66.83 8.26
20834 21.9390 71.09 66.81 8.43
20835 21.9400 72.03 66.79 8.49
20836 21.9410 66.71 66.77 8.17
20837 21.9420 69.02 66.74 8.31
20838 21.9430 70.73 66.72 8.41
20839 21.9440 72.51 66.71 8.52
20840 21.9450 74.31 66.69 8.62
20841 21.9460 76.44 66.67 8.74
20842 21.9470 69.85 66.65 8.36
20843 21.9480 77.47 66.64 8.80
20844 21.9490 69.10 66.62 8.31
20845 21.9500 60.70 66.61 7.79
20846 21.9510 65.05 66.59 8.07
20847 21.9520 63.85 66.58 7.99
20848 21.9530 64.46 66.56 8.03
20849 21.9540 60.14 66.55 7.76
20850 21.9550 75.12 66.54 8.67
20851 21.9560 73.71 66.53 8.59
20852 21.9570 66.83 66.52 8.17
20853 21.9580 69.40 66.51 8.33
20854 21.9590 63.20 66.50 7.95
20855 21.9600 67.51 66.49 8.22
20856 21.9610 72.91 66.48 8.54
20857 21.9620 75.97 66.47 8.72
20858 21.9630 61.88 66.47 7.87
20859 21.9640 69.86 66.46 8.36
20860 21.9650 64.96 66.46 8.06
20861 21.9660 55.53 66.45 7.45
20862 21.9670 65.57 66.45 8.10
20863 21.9680 66.24 66.45 8.14
20864 21.9690 61.90 66.45 7.87
20865 21.9700 60.21 66.45 7.76
20866 21.9710 68.49 66.45 8.28
20867 21.9720 71.82 66.45 8.47
20868 21.9730 65.79 66.45 8.11
20869 21.9740 61.25 66.45 7.83
20870 21.9750 64.56 66.46 8.03
20871 21.9760 64.49 66.46 8.03
20872 21.9770 59.77 66.47 7.73
20873 21.9780 66.31 66.47 8.14
20874 21.9790 65.50 66.48 8.09
20875 21.9800 66.01 66.49 8.12
20876 21.9810 66.04 66.50 8.13
20877 21.9820 69.15 66.51 8.32
20878 21.9830 55.72 66.52 7.46
20879 21.9840 64.80 66.53 8.05
20880 21.9850 69.17 66.54 8.32
20881 21.9860 73.72 66.56 8.59
20882 21.9870 67.14 66.57 8.19
20883 21.9880 60.09 66.59 7.75
20884 21.9890 74.06 66.61 8.61
20885 21.9900 69.70 66.63 8.35
20886 21.9910 67.37 66.64 8.21
20887 21.9920 65.28 66.67 8.08
20888 21.9930 62.74 66.69 7.92
20889 21.9940 66.27 66.71 8.14
20890 21.9950 61.74 66.73 7.86
20891 21.9960 74.64 66.76 8.64
20892 21.9970 62.75 66.78 7.92
20893 21.9980 67.42 66.81 8.21
20894 21.9990 69.46 66.83 8.33
20895 22.0000 64.54 66.86 8.03
20896 22.0010 59.87 66.89 7.74
20897 22.0020 65.20 66.92 8.07
20898 22.0030 68.45 66.95 8.27
20899 22.0040 68.32 66.99 8.27
20900 22.0050 66.69 67.02 8.17
20901 22.0060 66.90 67.05 8.18
20902 22.0070 77.56 67.09 8.81
20903 22.0080 68.79 67.13 8.29
20904 22.0090 75.87 67.16 8.71
20905 22.0100 70.68 67.20 8.41
20906 22.0110 64.22 67.24 8.01
20907 22.0120 67.47 67.28 8.21
20908 22.0130 62.78 67.32 7.92
20909 22.0140 60.90 67.36 7.80
20910 22.0150 71.43 67.41 8.45
20911 22.0160 79.82 67.45 8.93
20912 22.0170 75.02 67.49 8.66
20913 22.0180 74.40 67.54 8.63
20914 22.0190 80.17 67.59 8.95
20915 22.0200 60.18 67.63 7.76
20916 22.0210 65.05 67.68 8.07
20917 22.0220 68.71 67.73 8.29
20918 22.0230 65.12 67.78 8.07
20919 22.0240 66.53 67.83 8.16
20920 22.0250 62.64 67.88 7.91
20921 22.0260 76.62 67.94 8.75
20922 22.0270 75.32 67.99 8.68
20923 22.0280 67.85 68.04 8.24
20924 22.0290 67.15 68.10 8.19
20925 22.0300 74.35 68.15 8.62
20926 22.0310 67.17 68.21 8.20
20927 22.0320 62.62 68.27 7.91
20928 22.0330 68.34 68.33 8.27
20929 22.0340 77.31 68.39 8.79
20930 22.0350 76.64 68.45 8.75
20931 22.0360 68.09 68.50 8.25
20932 22.0370 70.67 68.56 8.41
20933 22.0380 70.97 68.62 8.42
20934 22.0390 72.34 68.68 8.51
20935 22.0400 73.76 68.74 8.59
20936 22.0410 73.94 68.80 8.60
20937 22.0420 79.95 68.87 8.94
20938 22.0430 78.02 68.93 8.83
20939 22.0440 70.91 69.00 8.42
20940 22.0450 74.43 69.07 8.63
20941 22.0460 68.32 69.13 8.27
20942 22.0470 74.27 69.20 8.62
20943 22.0480 68.62 69.27 8.28
20944 22.0490 69.82 69.34 8.36
20945 22.0500 74.94 69.41 8.66
20946 22.0510 75.06 69.48 8.66
20947 22.0520 73.00 69.55 8.54
20948 22.0530 77.82 69.62 8.82
20949 22.0540 80.22 69.69 8.96
20950 22.0550 70.47 69.76 8.39
20951 22.0560 78.23 69.83 8.84
20952 22.0570 79.61 69.90 8.92
20953 22.0580 65.91 69.97 8.12
20954 22.0590 64.43 70.05 8.03
20955 22.0600 81.03 70.12 9.00
20956 22.0610 82.20 70.19 9.07
20957 22.0620 75.42 70.27 8.68
20958 22.0630 78.91 70.34 8.88
20959 22.0640 80.81 70.42 8.99
20960 22.0650 75.55 70.49 8.69
20961 22.0660 75.19 70.56 8.67
20962 22.0670 76.40 70.64 8.74
20963 22.0680 72.49 70.71 8.51
20964 22.0690 76.34 70.79 8.74
20965 22.0700 69.95 70.87 8.36
20966 22.0710 75.32 70.94 8.68
20967 22.0720 63.35 71.02 7.96
20968 22.0730 68.15 71.10 8.26
20969 22.0740 72.60 71.17 8.52
20970 22.0750 73.87 71.25 8.59
20971 22.0760 78.36 71.32 8.85
20972 22.0770 72.15 71.40 8.49
20973 22.0780 70.51 71.47 8.40
20974 22.0790 71.93 71.55 8.48
20975 22.0800 82.18 71.63 9.07
20976 22.0810 80.80 71.70 8.99
20977 22.0820 80.37 71.78 8.96
20978 22.0830 72.44 71.85 8.51
20979 22.0840 62.23 71.93 7.89
20980 22.0850 77.66 72.00 8.81
20981 22.0860 76.25 72.08 8.73
20982 22.0870 76.87 72.15 8.77
20983 22.0880 69.29 72.23 8.32
20984 22.0890 79.50 72.31 8.92
20985 22.0900 83.18 72.38 9.12
20986 22.0910 77.65 72.45 8.81
20987 22.0920 86.63 72.53 9.31
20988 22.0930 86.63 72.60 9.31
20989 22.0940 76.84 72.68 8.77
20990 22.0950 73.75 72.75 8.59
20991 22.0960 77.51 72.83 8.80
20992 22.0970 67.91 72.90 8.24
20993 22.0980 79.69 72.98 8.93
20994 22.0990 78.36 73.06 8.85
20995 22.1000 76.71 73.13 8.76
20996 22.1010 72.39 73.20 8.51
20997 22.1020 73.93 73.28 8.60
20998 22.1030 74.65 73.35 8.64
20999 22.1040 67.02 73.43 8.19
21000 22.1050 65.92 73.50 8.12
21001 22.1060 78.09 73.57 8.84
21002 22.1070 76.17 73.65 8.73
21003 22.1080 72.63 73.72 8.52
21004 22.1090 67.98 73.79 8.24
21005 22.1100 72.33 73.86 8.50
21006 22.1110 71.16 73.93 8.44
21007 22.1120 79.12 74.01 8.89
21008 22.1130 71.38 74.08 8.45
21009 22.1140 70.08 74.15 8.37
21010 22.1150 71.71 74.22 8.47
21011 22.1160 73.25 74.29 8.56
21012 22.1170 86.52 74.36 9.30
21013 22.1180 79.92 74.42 8.94
21014 22.1190 77.51 74.49 8.80
21015 22.1200 75.44 74.56 8.69
21016 22.1210 71.97 74.63 8.48
21017 22.1220 76.61 74.70 8.75
21018 22.1230 75.68 74.76 8.70
21019 22.1240 80.84 74.83 8.99
21020 22.1250 77.53 74.90 8.81
21021 22.1260 75.57 74.97 8.69
21022 22.1270 76.22 75.03 8.73
21023 22.1280 87.64 75.10 9.36
21024 22.1290 86.78 75.16 9.32
21025 22.1300 82.43 75.23 9.08
21026 22.1310 81.44 75.29 9.02
21027 22.1320 77.05 75.36 8.78
21028 22.1330 77.49 75.42 8.80
21029 22.1340 72.62 75.49 8.52
21030 22.1350 76.40 75.55 8.74
21031 22.1360 76.77 75.61 8.76
21032 22.1370 68.38 75.67 8.27
21033 22.1380 71.44 75.73 8.45
21034 22.1390 80.96 75.79 9.00
21035 22.1400 77.63 75.86 8.81
21036 22.1410 74.34 75.92 8.62
21037 22.1420 76.22 75.97 8.73
21038 22.1430 72.46 76.03 8.51
21039 22.1440 78.96 76.09 8.89
21040 22.1450 86.00 76.15 9.27
21041 22.1460 82.16 76.20 9.06
21042 22.1470 76.57 76.26 8.75
21043 22.1480 83.31 76.31 9.13
21044 22.1490 68.88 76.37 8.30
21045 22.1500 75.92 76.42 8.71
21046 22.1510 71.97 76.47 8.48
21047 22.1520 80.62 76.53 8.98
21048 22.1530 76.67 76.58 8.76
21049 22.1540 82.42 76.63 9.08
21050 22.1550 78.23 76.68 8.84
21051 22.1560 79.16 76.72 8.90
21052 22.1570 83.52 76.77 9.14
21053 22.1580 84.13 76.82 9.17
21054 22.1590 83.97 76.86 9.16
21055 22.1600 92.95 76.91 9.64
21056 22.1610 87.47 76.95 9.35
21057 22.1620 79.21 76.99 8.90
21058 22.1630 80.87 77.04 8.99
21059 22.1640 78.75 77.08 8.87
21060 22.1650 84.73 77.12 9.20
21061 22.1660 89.95 77.16 9.48
21062 22.1670 87.44 77.20 9.35
21063 22.1680 76.78 77.24 8.76
21064 22.1690 74.58 77.27 8.64
21065 22.1700 77.13 77.31 8.78
21066 22.1710 83.84 77.35 9.16
21067 22.1720 88.28 77.38 9.40
21068 22.1730 80.89 77.41 8.99
21069 22.1740 86.02 77.45 9.27
21070 22.1750 84.29 77.48 9.18
21071 22.1760 76.70 77.51 8.76
21072 22.1770 74.92 77.54 8.66
21073 22.1780 81.23 77.57 9.01
21074 22.1790 82.52 77.59 9.08
21075 22.1800 79.84 77.62 8.94
21076 22.1810 68.74 77.65 8.29
21077 22.1820 83.56 77.67 9.14
21078 22.1830 80.56 77.70 8.98
21079 22.1840 70.06 77.72 8.37
21080 22.1850 78.93 77.74 8.88
21081 22.1860 83.68 77.77 9.15
21082 22.1870 74.23 77.79 8.62
21083 22.1880 79.64 77.81 8.92
21084 22.1890 83.43 77.83 9.13
21085 22.1900 86.67 77.85 9.31
21086 22.1910 74.62 77.86 8.64
21087 22.1920 86.51 77.88 9.30
21088 22.1930 84.38 77.90 9.19
21089 22.1940 78.68 77.91 8.87
21090 22.1950 85.28 77.93 9.23
21091 22.1960 75.15 77.94 8.67
21092 22.1970 82.67 77.95 9.09
21093 22.1980 72.90 77.96 8.54
21094 22.1990 81.48 77.97 9.03
21095 22.2000 72.67 77.99 8.52
21096 22.2010 78.43 78.00 8.86
21097 22.2020 72.47 78.00 8.51
21098 22.2030 73.30 78.01 8.56
21099 22.2040 78.66 78.01 8.87
21100 22.2050 79.84 78.02 8.94
21101 22.2060 84.19 78.03 9.18
21102 22.2070 67.61 78.04 8.22
21103 22.2080 70.57 78.04 8.40
21104 22.2090 75.74 78.05 8.70
21105 22.2100 72.55 78.05 8.52
21106 22.2110 76.10 78.06 8.72
21107 22.2120 74.55 78.06 8.63
21108 22.2130 79.40 78.06 8.91
21109 22.2140 83.14 78.06 9.12
21110 22.2150 71.31 78.07 8.44
21111 22.2160 79.35 78.07 8.91
21112 22.2170 87.22 78.07 9.34
21113 22.2180 84.36 78.07 9.18
21114 22.2190 78.80 78.07 8.88
21115 22.2200 77.50 78.07 8.80
21116 22.2210 75.49 78.07 8.69
21117 22.2220 79.34 78.07 8.91
21118 22.2230 85.43 78.07 9.24
21119 22.2240 81.30 78.06 9.02
21120 22.2250 83.43 78.06 9.13
21121 22.2260 73.92 78.06 8.60
21122 22.2270 74.79 78.05 8.65
21123 22.2280 74.01 78.05 8.60
21124 22.2290 64.32 78.04 8.02
21125 22.2300 72.16 78.04 8.49
21126 22.2310 86.62 78.03 9.31
21127 22.2320 92.07 78.03 9.60
21128 22.2330 83.61 78.02 9.14
21129 22.2340 79.03 78.01 8.89
21130 22.2350 80.73 78.01 8.98
21131 22.2360 73.93 78.00 8.60
21132 22.2370 72.48 77.99 8.51
21133 22.2380 80.97 77.98 9.00
21134 22.2390 72.76 77.98 8.53
21135 22.2400 65.92 77.97 8.12
21136 22.2410 78.04 77.96 8.83
21137 22.2420 81.07 77.95 9.00
21138 22.2430 84.59 77.94 9.20
21139 22.2440 81.62 77.93 9.03
21140 22.2450 82.68 77.92 9.09
21141 22.2460 80.82 77.91 8.99
21142 22.2470 85.40 77.89 9.24
21143 22.2480 86.47 77.88 9.30
21144 22.2490 72.22 77.87 8.50
21145 22.2500 70.33 77.86 8.39
21146 22.2510 83.47 77.85 9.14
21147 22.2520 77.71 77.83 8.82
21148 22.2530 77.29 77.82 8.79
21149 22.2540 73.36 77.81 8.57
21150 22.2550 70.70 77.79 8.41
21151 22.2560 73.94 77.78 8.60
21152 22.2570 67.99 77.76 8.25
21153 22.2580 60.95 77.75 7.81
21154 22.2590 76.81 77.73 8.76
21155 22.2600 83.52 77.72 9.14
21156 22.2610 79.52 77.70 8.92
21157 22.2620 71.62 77.69 8.46
21158 22.2630 69.88 77.67 8.36
21159 22.2640 74.40 77.66 8.63
21160 22.2650 76.72 77.64 8.76
21161 22.2660 75.62 77.63 8.70
21162 22.2670 78.03 77.61 8.83
21163 22.2680 75.02 77.59 8.66
21164 22.2690 65.52 77.58 8.09
21165 22.2700 72.53 77.56 8.52
21166 22.2710 77.68 77.54 8.81
21167 22.2720 70.79 77.52 8.41
21168 22.2730 81.25 77.51 9.01
21169 22.2740 77.15 77.49 8.78
21170 22.2750 79.44 77.47 8.91
21171 22.2760 72.83 77.45 8.53
21172 22.2770 64.39 77.44 8.02
21173 22.2780 66.74 77.42 8.17
21174 22.2790 60.21 77.40 7.76
21175 22.2800 67.62 77.39 8.22
21176 22.2810 66.31 77.37 8.14
21177 22.2820 68.88 77.35 8.30
21178 22.2830 78.98 77.33 8.89
21179 22.2840 68.53 77.32 8.28
21180 22.2850 67.46 77.30 8.21
21181 22.2860 70.72 77.28 8.41
21182 22.2870 78.04 77.27 8.83
21183 22.2880 73.34 77.25 8.56
21184 22.2890 67.30 77.24 8.20
21185 22.2900 72.23 77.22 8.50
21186 22.2910 74.40 77.20 8.63
21187 22.2920 75.34 77.19 8.68
21188 22.2930 68.13 77.17 8.25
21189 22.2940 60.65 77.16 7.79
21190 22.2950 63.59 77.14 7.97
21191 22.2960 68.74 77.13 8.29
21192 22.2970 70.22 77.12 8.38
21193 22.2980 71.93 77.10 8.48
21194 22.2990 67.06 77.09 8.19
21195 22.3000 60.85 77.07 7.80
21196 22.3010 61.30 77.06 7.83
21197 22.3020 66.59 77.05 8.16
21198 22.3030 78.71 77.04 8.87
21199 22.3040 76.05 77.02 8.72
21200 22.3050 70.65 77.01 8.41
21201 22.3060 73.05 77.00 8.55
21202 22.3070 73.98 76.99 8.60
21203 22.3080 64.75 76.98 8.05
21204 22.3090 66.42 76.97 8.15
21205 22.3100 66.92 76.96 8.18
21206 22.3110 63.78 76.95 7.99
21207 22.3120 70.89 76.94 8.42
21208 22.3130 75.01 76.93 8.66
21209 22.3140 69.53 76.92 8.34
21210 22.3150 67.52 76.91 8.22
21211 22.3160 63.16 76.91 7.95
21212 22.3170 70.94 76.90 8.42
21213 22.3180 73.52 76.89 8.57
21214 22.3190 67.98 76.88 8.24
21215 22.3200 59.01 76.88 7.68
21216 22.3210 70.52 76.87 8.40
21217 22.3220 74.82 76.87 8.65
21218 22.3230 70.57 76.86 8.40
21219 22.3240 70.46 76.86 8.39
21220 22.3250 69.29 76.85 8.32
21221 22.3260 72.62 76.85 8.52
21222 22.3270 72.80 76.84 8.53
21223 22.3280 75.10 76.84 8.67
21224 22.3290 69.28 76.84 8.32
21225 22.3300 73.48 76.83 8.57
21226 22.3310 72.93 76.83 8.54
21227 22.3320 70.03 76.83 8.37
21228 22.3330 72.04 76.82 8.49
21229 22.3340 76.43 76.82 8.74
21230 22.3350 70.06 76.82 8.37
21231 22.3360 69.22 76.82 8.32
21232 22.3370 61.63 76.81 7.85
21233 22.3380 68.83 76.81 8.30
21234 22.3390 65.42 76.81 8.09
21235 22.3400 61.84 76.81 7.86
21236 22.3410 63.62 76.80 7.98
21237 22.3420 59.62 76.80 7.72
21238 22.3430 83.64 76.80 9.15
21239 22.3440 83.94 76.80 9.16
21240 22.3450 68.05 76.79 8.25
21241 22.3460 64.47 76.79 8.03
21242 22.3470 76.57 76.79 8.75
21243 22.3480 71.45 76.79 8.45
21244 22.3490 73.52 76.78 8.57
21245 22.3500 66.53 76.77 8.16
21246 22.3510 83.26 76.77 9.12
21247 22.3520 77.96 76.77 8.83
21248 22.3530 67.89 76.76 8.24
21249 22.3540 69.45 76.76 8.33
21250 22.3550 72.34 76.75 8.51
21251 22.3560 76.93 76.75 8.77
21252 22.3570 78.55 76.74 8.86
21253 22.3580 71.01 76.74 8.43
21254 22.3590 81.14 76.73 9.01
21255 22.3600 75.79 76.73 8.71
21256 22.3610 77.36 76.71 8.80
21257 22.3620 81.19 76.71 9.01
21258 22.3630 76.26 76.70 8.73
21259 22.3640 77.56 76.69 8.81
21260 22.3650 67.46 76.68 8.21
21261 22.3660 75.22 76.67 8.67
21262 22.3670 76.55 76.66 8.75
21263 22.3680 73.40 76.65 8.57
21264 22.3690 72.42 76.63 8.51
21265 22.3700 69.83 76.62 8.36
21266 22.3710 70.75 76.61 8.41
21267 22.3720 70.70 76.59 8.41
21268 22.3730 72.66 76.57 8.52
21269 22.3740 69.15 76.56 8.32
21270 22.3750 71.19 76.54 8.44
21271 22.3760 77.40 76.53 8.80
21272 22.3770 77.60 76.51 8.81
21273 22.3780 79.84 76.49 8.94
21274 22.3790 74.99 76.47 8.66
21275 22.3800 66.14 76.45 8.13
21276 22.3810 66.17 76.43 8.13
21277 22.3820 75.11 76.41 8.67
21278 22.3830 74.79 76.38 8.65
21279 22.3840 70.24 76.36 8.38
21280 22.3850 71.17 76.34 8.44
21281 22.3860 70.32 76.31 8.39
21282 22.3870 75.06 76.29 8.66
21283 22.3880 67.52 76.26 8.22
21284 22.3890 75.66 76.23 8.70
21285 22.3900 73.70 76.20 8.58
21286 22.3910 78.62 76.17 8.87
21287 22.3920 80.29 76.14 8.96
21288 22.3930 76.06 76.11 8.72
21289 22.3940 70.54 76.07 8.40
21290 22.3950 78.39 76.04 8.85
21291 22.3960 82.80 76.00 9.10
21292 22.3970 77.38 75.97 8.80
21293 22.3980 84.37 75.93 9.19
21294 22.3990 79.54 75.89 8.92
21295 22.4000 82.80 75.85 9.10
21296 22.4010 78.55 75.81 8.86
21297 22.4020 75.06 75.77 8.66
21298 22.4030 81.53 75.73 9.03
21299 22.4040 82.11 75.69 9.06
21300 22.4050 66.61 75.64 8.16
21301 22.4060 66.79 75.60 8.17
21302 22.4070 73.60 75.56 8.58
21303 22.4080 80.74 75.51 8.99
21304 22.4090 74.36 75.47 8.62
21305 22.4100 74.33 75.42 8.62
21306 22.4110 77.24 75.37 8.79
21307 22.4120 76.47 75.32 8.74
21308 22.4130 74.67 75.27 8.64
21309 22.4140 81.21 75.22 9.01
21310 22.4150 78.33 75.17 8.85
21311 22.4160 78.16 75.10 8.84
21312 22.4170 75.18 75.05 8.67
21313 22.4180 73.29 75.00 8.56
21314 22.4190 84.03 74.94 9.17
21315 22.4200 70.79 74.89 8.41
21316 22.4210 64.91 74.83 8.06
21317 22.4220 68.44 74.78 8.27
21318 22.4230 69.99 74.72 8.37
21319 22.4240 66.22 74.66 8.14
21320 22.4250 69.08 74.60 8.31
21321 22.4260 75.03 74.54 8.66
21322 22.4270 72.89 74.48 8.54
21323 22.4280 75.34 74.42 8.68
21324 22.4290 68.49 74.36 8.28
21325 22.4300 70.37 74.30 8.39
21326 22.4310 75.69 74.24 8.70
21327 22.4320 83.60 74.18 9.14
21328 22.4330 70.30 74.11 8.38
21329 22.4340 70.96 74.05 8.42
21330 22.4350 84.38 73.98 9.19
21331 22.4360 71.68 73.92 8.47
21332 22.4370 70.34 73.86 8.39
21333 22.4380 71.18 73.79 8.44
21334 22.4390 67.83 73.73 8.24
21335 22.4400 81.75 73.67 9.04
21336 22.4410 79.63 73.60 8.92
21337 22.4420 74.42 73.53 8.63
21338 22.4430 67.05 73.47 8.19
21339 22.4440 82.23 73.40 9.07
21340 22.4450 67.62 73.33 8.22
21341 22.4460 62.66 73.27 7.92
21342 22.4470 75.56 73.20 8.69
21343 22.4480 76.56 73.13 8.75
21344 22.4490 65.11 73.06 8.07
21345 22.4500 66.95 73.00 8.18
21346 22.4510 72.42 72.93 8.51
21347 22.4520 72.84 72.86 8.53
21348 22.4530 68.47 72.79 8.27
21349 22.4540 74.59 72.72 8.64
21350 22.4550 74.28 72.65 8.62
21351 22.4560 62.26 72.58 7.89
21352 22.4570 68.96 72.51 8.30
21353 22.4580 63.86 72.44 7.99
21354 22.4590 68.21 72.37 8.26
21355 22.4600 73.89 72.30 8.60
21356 22.4610 70.72 72.23 8.41
21357 22.4620 71.86 72.16 8.48
21358 22.4630 77.79 72.09 8.82
21359 22.4640 76.53 72.03 8.75
21360 22.4650 71.09 71.96 8.43
21361 22.4660 66.13 71.89 8.13
21362 22.4670 62.46 71.82 7.90
21363 22.4680 73.50 71.75 8.57
21364 22.4690 74.37 71.68 8.62
21365 22.4700 69.21 71.61 8.32
21366 22.4710 71.18 71.54 8.44
21367 22.4720 65.11 71.48 8.07
21368 22.4730 69.11 71.41 8.31
21369 22.4740 70.42 71.34 8.39
21370 22.4750 78.38 71.27 8.85
21371 22.4760 73.72 71.20 8.59
21372 22.4770 64.49 71.14 8.03
21373 22.4780 74.87 71.07 8.65
21374 22.4790 67.04 71.00 8.19
21375 22.4800 70.69 70.93 8.41
21376 22.4810 65.26 70.87 8.08
21377 22.4820 70.93 70.80 8.42
21378 22.4830 70.79 70.73 8.41
21379 22.4840 68.05 70.66 8.25
21380 22.4850 69.92 70.60 8.36
21381 22.4860 75.81 70.53 8.71
21382 22.4870 78.20 70.46 8.84
21383 22.4880 68.78 70.40 8.29
21384 22.4890 66.32 70.33 8.14
21385 22.4900 73.98 70.27 8.60
21386 22.4910 74.45 70.20 8.63
21387 22.4920 67.43 70.14 8.21
21388 22.4930 67.02 70.08 8.19
21389 22.4940 71.03 70.01 8.43
21390 22.4950 70.88 69.95 8.42
21391 22.4960 73.12 69.88 8.55
21392 22.4970 75.30 69.82 8.68
21393 22.4980 60.02 69.75 7.75
21394 22.4990 64.15 69.69 8.01
21395 22.5000 65.96 69.63 8.12
21396 22.5010 66.95 69.56 8.18
21397 22.5020 72.55 69.50 8.52
21398 22.5030 67.05 69.44 8.19
21399 22.5040 66.76 69.38 8.17
21400 22.5050 67.00 69.32 8.19
21401 22.5060 66.02 69.25 8.13
21402 22.5070 69.31 69.19 8.33
21403 22.5080 69.14 69.13 8.32
21404 22.5090 71.47 69.07 8.45
21405 22.5100 57.11 69.01 7.56
21406 22.5110 71.74 68.95 8.47
21407 22.5120 71.83 68.89 8.48
21408 22.5130 65.08 68.83 8.07
21409 22.5140 60.34 68.77 7.77
21410 22.5150 67.67 68.71 8.23
21411 22.5160 75.65 68.65 8.70
21412 22.5170 71.51 68.59 8.46
21413 22.5180 64.99 68.54 8.06
21414 22.5190 69.34 68.48 8.33
21415 22.5200 67.74 68.42 8.23
21416 22.5210 60.20 68.36 7.76
21417 22.5220 63.01 68.31 7.94
21418 22.5230 70.82 68.25 8.42
21419 22.5240 70.71 68.19 8.41
21420 22.5250 63.57 68.14 7.97
21421 22.5260 77.93 68.08 8.83
21422 22.5270 75.44 68.03 8.69
21423 22.5280 59.52 67.97 7.71
21424 22.5290 65.92 67.92 8.12
21425 22.5300 61.19 67.86 7.82
21426 22.5310 65.78 67.81 8.11
21427 22.5320 64.83 67.75 8.05
21428 22.5330 66.19 67.70 8.14
21429 22.5340 62.86 67.65 7.93
21430 22.5350 70.47 67.60 8.39
21431 22.5360 72.30 67.55 8.50
21432 22.5370 59.18 67.50 7.69
21433 22.5380 59.36 67.45 7.70
21434 22.5390 68.67 67.40 8.29
21435 22.5400 64.15 67.35 8.01
21436 22.5410 60.88 67.30 7.80
21437 22.5420 66.60 67.25 8.16
21438 22.5430 59.39 67.20 7.71
21439 22.5440 68.31 67.15 8.26
21440 22.5450 68.88 67.11 8.30
21441 22.5460 65.99 67.06 8.12
21442 22.5470 63.99 67.01 8.00
21443 22.5480 68.51 66.97 8.28
21444 22.5490 54.95 66.93 7.41
21445 22.5500 58.69 66.88 7.66
21446 22.5510 63.90 66.84 7.99
21447 22.5520 58.04 66.80 7.62
21448 22.5530 62.51 66.76 7.91
21449 22.5540 67.45 66.71 8.21
21450 22.5550 67.88 66.67 8.24
21451 22.5560 72.25 66.63 8.50
21452 22.5570 71.59 66.59 8.46
21453 22.5580 65.52 66.55 8.09
21454 22.5590 61.30 66.51 7.83
21455 22.5600 67.12 66.48 8.19
21456 22.5610 61.39 66.44 7.84
21457 22.5620 72.41 66.41 8.51
21458 22.5630 67.36 66.37 8.21
21459 22.5640 68.17 66.33 8.26
21460 22.5650 57.67 66.30 7.59
21461 22.5660 65.75 66.27 8.11
21462 22.5670 67.23 66.23 8.20
21463 22.5680 63.50 66.20 7.97
21464 22.5690 59.66 66.17 7.72
21465 22.5700 66.10 66.14 8.13
21466 22.5710 65.26 66.11 8.08
21467 22.5720 62.42 66.08 7.90
21468 22.5730 58.43 66.05 7.64
21469 22.5740 61.92 66.03 7.87
21470 22.5750 57.31 66.00 7.57
21471 22.5760 62.37 65.97 7.90
21472 22.5770 59.82 65.95 7.73
21473 22.5780 65.38 65.92 8.09
21474 22.5790 63.62 65.90 7.98
21475 22.5800 56.70 65.88 7.53
21476 22.5810 60.86 65.86 7.80
21477 22.5820 70.45 65.83 8.39
21478 22.5830 67.54 65.81 8.22
21479 22.5840 67.05 65.80 8.19
21480 22.5850 66.67 65.78 8.17
21481 22.5860 69.26 65.76 8.32
21482 22.5870 59.01 65.75 7.68
21483 22.5880 64.12 65.73 8.01
21484 22.5890 56.80 65.72 7.54
21485 22.5900 61.65 65.70 7.85
21486 22.5910 62.82 65.69 7.93
21487 22.5920 69.98 65.68 8.37
21488 22.5930 70.04 65.67 8.37
21489 22.5940 59.12 65.66 7.69
21490 22.5950 64.99 65.65 8.06
21491 22.5960 74.80 65.64 8.65
21492 22.5970 69.89 65.63 8.36
21493 22.5980 66.60 65.62 8.16
21494 22.5990 62.42 65.62 7.90
21495 22.6000 62.96 65.62 7.93
21496 22.6010 68.67 65.61 8.29
21497 22.6020 70.44 65.61 8.39
21498 22.6030 70.40 65.61 8.39
21499 22.6040 70.79 65.61 8.41
21500 22.6050 67.77 65.61 8.23
21501 22.6060 61.82 65.61 7.86
21502 22.6070 68.42 65.61 8.27
21503 22.6080 80.48 65.61 8.97
21504 22.6090 66.29 65.61 8.14
21505 22.6100 55.91 65.62 7.48
21506 22.6110 63.57 65.62 7.97
21507 22.6120 63.43 65.63 7.96
21508 22.6130 61.88 65.64 7.87
21509 22.6140 62.75 65.64 7.92
21510 22.6150 67.45 65.65 8.21
21511 22.6160 70.36 65.66 8.39
21512 22.6170 68.72 65.67 8.29
21513 22.6180 61.72 65.68 7.86
21514 22.6190 65.75 65.70 8.11
21515 22.6200 66.06 65.71 8.13
21516 22.6210 68.12 65.72 8.25
21517 22.6220 63.09 65.74 7.94
21518 22.6230 55.69 65.75 7.46
21519 22.6240 60.57 65.76 7.78
21520 22.6250 65.06 65.78 8.07
21521 22.6260 72.42 65.80 8.51
21522 22.6270 68.71 65.81 8.29
21523 22.6280 73.20 65.83 8.56
21524 22.6290 68.55 65.85 8.28
21525 22.6300 68.86 65.87 8.30
21526 22.6310 72.90 65.89 8.54
21527 22.6320 65.06 65.91 8.07
21528 22.6330 61.55 65.94 7.85
21529 22.6340 65.88 65.96 8.12
21530 22.6350 60.43 65.98 7.77
21531 22.6360 72.31 66.01 8.50
21532 22.6370 65.66 66.03 8.10
21533 22.6380 62.85 66.06 7.93
21534 22.6390 63.00 66.08 7.94
21535 22.6400 65.42 66.11 8.09
21536 22.6410 65.33 66.14 8.08
21537 22.6420 73.24 66.17 8.56
21538 22.6430 72.36 66.20 8.51
21539 22.6440 78.25 66.22 8.85
21540 22.6450 67.44 66.26 8.21
21541 22.6460 71.80 66.29 8.47
21542 22.6470 68.88 66.32 8.30
21543 22.6480 69.89 66.35 8.36
21544 22.6490 74.12 66.38 8.61
21545 22.6500 68.45 66.41 8.27
21546 22.6510 66.00 66.44 8.12
21547 22.6520 69.34 66.47 8.33
21548 22.6530 69.37 66.51 8.33
21549 22.6540 70.28 66.54 8.38
21550 22.6550 64.56 66.57 8.03
21551 22.6560 65.82 66.60 8.11
21552 22.6570 74.84 66.64 8.65
21553 22.6580 67.42 66.67 8.21
21554 22.6590 64.98 66.70 8.06
21555 22.6600 75.61 66.74 8.70
21556 22.6610 75.17 66.77 8.67
21557 22.6620 64.84 66.81 8.05
21558 22.6630 74.22 66.84 8.62
21559 22.6640 76.19 66.88 8.73
21560 22.6650 76.21 66.91 8.73
21561 22.6660 72.18 66.95 8.50
21562 22.6670 67.74 66.98 8.23
21563 22.6680 74.41 67.02 8.63
21564 22.6690 79.08 67.06 8.89
21565 22.6700 74.50 67.09 8.63
21566 22.6710 73.52 67.13 8.57
21567 22.6720 64.01 67.16 8.00
21568 22.6730 74.92 67.20 8.66
21569 22.6740 70.36 67.24 8.39
21570 22.6750 73.53 67.27 8.57
21571 22.6760 78.43 67.31 8.86
21572 22.6770 70.84 67.34 8.42
21573 22.6780 69.37 67.38 8.33
21574 22.6790 76.18 67.42 8.73
21575 22.6800 80.24 67.45 8.96
21576 22.6810 74.05 67.49 8.61
21577 22.6820 72.32 67.52 8.50
21578 22.6830 64.76 67.56 8.05
21579 22.6840 74.12 67.59 8.61
21580 22.6850 86.82 67.62 9.32
21581 22.6860 79.36 67.66 8.91
21582 22.6870 70.92 67.69 8.42
21583 22.6880 68.99 67.73 8.31
21584 22.6890 72.48 67.76 8.51
21585 22.6900 78.53 67.79 8.86
21586 22.6910 75.78 67.83 8.71
21587 22.6920 69.08 67.86 8.31
21588 22.6930 69.45 67.89 8.33
21589 22.6940 74.22 67.92 8.62
21590 22.6950 78.40 67.96 8.85
21591 22.6960 67.50 67.99 8.22
21592 22.6970 74.12 68.02 8.61
21593 22.6980 74.97 68.05 8.66
21594 22.6990 74.30 68.08 8.62
21595 22.7000 72.97 68.11 8.54
21596 22.7010 76.36 68.14 8.74
21597 22.7020 74.60 68.17 8.64
21598 22.7030 62.78 68.20 7.92
21599 22.7040 71.86 68.22 8.48
21600 22.7050 77.37 68.25 8.80
21601 22.7060 84.14 68.28 9.17
21602 22.7070 75.64 68.31 8.70
21603 22.7080 77.83 68.33 8.82
21604 22.7090 75.68 68.36 8.70
21605 22.7100 71.73 68.38 8.47
21606 22.7110 68.08 68.41 8.25
21607 22.7120 72.78 68.43 8.53
21608 22.7130 76.20 68.46 8.73
21609 22.7140 76.01 68.48 8.72
21610 22.7150 74.18 68.50 8.61
21611 22.7160 87.50 68.53 9.35
21612 22.7170 81.31 68.55 9.02
21613 22.7180 77.03 68.57 8.78
21614 22.7190 73.56 68.59 8.58
21615 22.7200 75.75 68.61 8.70
21616 22.7210 80.75 68.63 8.99
21617 22.7220 76.01 68.65 8.72
21618 22.7230 77.95 68.67 8.83
21619 22.7240 81.32 68.69 9.02
21620 22.7250 78.53 68.71 8.86
21621 22.7260 75.03 68.73 8.66
21622 22.7270 75.76 68.75 8.70
21623 22.7280 78.94 68.76 8.88
21624 22.7290 74.76 68.78 8.65
21625 22.7300 74.11 68.79 8.61
21626 22.7310 71.21 68.81 8.44
21627 22.7320 76.88 68.83 8.77
21628 22.7330 75.22 68.84 8.67
21629 22.7340 80.28 68.86 8.96
21630 22.7350 76.03 68.87 8.72
21631 22.7360 74.55 68.88 8.63
21632 22.7370 75.31 68.90 8.68
21633 22.7380 70.60 68.91 8.40
21634 22.7390 72.76 68.92 8.53
21635 22.7400 73.78 68.93 8.59
21636 22.7410 74.51 68.95 8.63
21637 22.7420 62.30 68.96 7.89
21638 22.7430 76.87 68.97 8.77
21639 22.7440 83.65 68.98 9.15
21640 22.7450 74.17 68.99 8.61
21641 22.7460 73.09 69.00 8.55
21642 22.7470 73.05 69.01 8.55
21643 22.7480 71.83 69.02 8.48
21644 22.7490 69.84 69.03 8.36
21645 22.7500 71.32 69.04 8.45
21646 22.7510 74.67 69.05 8.64
21647 22.7520 79.45 69.06 8.91
21648 22.7530 88.75 69.06 9.42
21649 22.7540 82.85 69.07 9.10
21650 22.7550 65.17 69.08 8.07
21651 22.7560 74.80 69.08 8.65
21652 22.7570 82.21 69.09 9.07
21653 22.7580 77.66 69.10 8.81
21654 22.7590 73.19 69.10 8.56
21655 22.7600 80.23 69.11 8.96
21656 22.7610 81.63 69.11 9.03
21657 22.7620 77.70 69.12 8.81
21658 22.7630 72.60 69.12 8.52
21659 22.7640 70.23 69.12 8.38
21660 22.7650 73.55 69.13 8.58
21661 22.7660 77.03 69.13 8.78
21662 22.7670 65.93 69.13 8.12
21663 22.7680 67.15 69.14 8.19
21664 22.7690 67.89 69.14 8.24
21665 22.7700 71.56 69.14 8.46
21666 22.7710 76.56 69.15 8.75
21667 22.7720 78.30 69.15 8.85
21668 22.7730 69.83 69.15 8.36
21669 22.7740 76.17 69.15 8.73
21670 22.7750 74.07 69.15 8.61
21671 22.7760 68.55 69.15 8.28
21672 22.7770 68.86 69.15 8.30
21673 22.7780 73.25 69.15 8.56
21674 22.7790 61.54 69.15 7.84
21675 22.7800 65.87 69.15 8.12
21676 22.7810 63.62 69.15 7.98
21677 22.7820 72.71 69.15 8.53
21678 22.7830 74.09 69.15 8.61
21679 22.7840 72.94 69.15 8.54
21680 22.7850 69.79 69.15 8.35
21681 22.7860 79.14 69.14 8.90
21682 22.7870 74.89 69.14 8.65
21683 22.7880 67.91 69.14 8.24
21684 22.7890 77.33 69.14 8.79
21685 22.7900 67.80 69.14 8.23
21686 22.7910 65.03 69.13 8.06
21687 22.7920 69.88 69.13 8.36
21688 22.7930 65.70 69.13 8.11
21689 22.7940 64.90 69.13 8.06
21690 22.7950 66.43 69.12 8.15
21691 22.7960 71.76 69.12 8.47
21692 22.7970 75.27 69.12 8.68
21693 22.7980 72.19 69.11 8.50
21694 22.7990 74.18 69.11 8.61
21695 22.8000 78.58 69.10 8.86
21696 22.8010 69.22 69.10 8.32
21697 22.8020 69.43 69.09 8.33
21698 22.8030 63.96 69.09 8.00
21699 22.8040 73.72 69.08 8.59
21700 22.8050 61.42 69.08 7.84
21701 22.8060 69.32 69.07 8.33
21702 22.8070 70.80 69.07 8.41
21703 22.8080 70.41 69.06 8.39
21704 22.8090 66.13 69.06 8.13
21705 22.8100 66.44 69.05 8.15
21706 22.8110 73.04 69.04 8.55
21707 22.8120 78.06 69.04 8.84
21708 22.8130 81.29 69.03 9.02
21709 22.8140 69.36 69.02 8.33
21710 22.8150 61.64 69.02 7.85
21711 22.8160 73.78 69.01 8.59
21712 22.8170 82.55 69.00 9.09
21713 22.8180 72.57 68.99 8.52
21714 22.8190 64.99 68.99 8.06
21715 22.8200 72.98 68.98 8.54
21716 22.8210 80.98 68.97 9.00
21717 22.8220 84.52 68.96 9.19
21718 22.8230 64.02 68.96 8.00
21719 22.8240 65.76 68.95 8.11
21720 22.8250 70.49 68.94 8.40
21721 22.8260 75.53 68.93 8.69
21722 22.8270 78.28 68.92 8.85
21723 22.8280 74.46 68.91 8.63
21724 22.8290 67.13 68.90 8.19
21725 22.8300 71.96 68.90 8.48
21726 22.8310 76.87 68.89 8.77
21727 22.8320 77.27 68.88 8.79
21728 22.8330 70.56 68.87 8.40
21729 22.8340 72.98 68.86 8.54
21730 22.8350 75.78 68.85 8.71
21731 22.8360 74.82 68.84 8.65
21732 22.8370 76.66 68.83 8.76
21733 22.8380 71.50 68.82 8.46
21734 22.8390 72.42 68.80 8.51
21735 22.8400 74.86 68.79 8.65
21736 22.8410 69.68 68.78 8.35
21737 22.8420 68.32 68.77 8.27
21738 22.8430 74.06 68.76 8.61
21739 22.8440 86.61 68.74 9.31
21740 22.8450 76.98 68.73 8.77
21741 22.8460 69.49 68.72 8.34
21742 22.8470 77.13 68.71 8.78
21743 22.8480 68.04 68.69 8.25
21744 22.8490 79.10 68.68 8.89
21745 22.8500 82.82 68.67 9.10
21746 22.8510 74.24 68.65 8.62
21747 22.8520 72.86 68.64 8.54
21748 22.8530 77.72 68.62 8.82
21749 22.8540 86.72 68.61 9.31
21750 22.8550 82.46 68.59 9.08
21751 22.8560 73.32 68.58 8.56
21752 22.8570 85.20 68.56 9.23
21753 22.8580 76.24 68.54 8.73
21754 22.8590 69.02 68.53 8.31
21755 22.8600 77.48 68.51 8.80
21756 22.8610 76.03 68.50 8.72
21757 22.8620 65.69 68.48 8.10
21758 22.8630 74.89 68.46 8.65
21759 22.8640 83.24 68.44 9.12
21760 22.8650 78.01 68.43 8.83
21761 22.8660 76.32 68.41 8.74
21762 22.8670 68.01 68.39 8.25
21763 22.8680 70.40 68.37 8.39
21764 22.8690 78.52 68.35 8.86
21765 22.8700 74.27 68.33 8.62
21766 22.8710 78.82 68.31 8.88
21767 22.8720 82.30 68.29 9.07
21768 22.8730 86.33 68.27 9.29
21769 22.8740 77.95 68.25 8.83
21770 22.8750 73.53 68.23 8.57
21771 22.8760 71.84 68.20 8.48
21772 22.8770 77.68 68.18 8.81
21773 22.8780 84.55 68.16 9.20
21774 22.8790 79.00 68.13 8.89
21775 22.8800 73.73 68.11 8.59
21776 22.8810 75.98 68.09 8.72
21777 22.8820 68.92 68.06 8.30
21778 22.8830 70.51 68.04 8.40
21779 22.8840 73.35 68.01 8.56
21780 22.8850 83.17 67.99 9.12
21781 22.8860 79.89 67.96 8.94
21782 22.8870 77.40 67.94 8.80
21783 22.8880 76.01 67.91 8.72
21784 22.8890 71.51 67.89 8.46
21785 22.8900 70.85 67.86 8.42
21786 22.8910 76.63 67.83 8.75
21787 22.8920 71.71 67.80 8.47
21788 22.8930 73.67 67.78 8.58
21789 22.8940 81.08 67.75 9.00
21790 22.8950 73.15 67.72 8.55
21791 22.8960 67.49 67.69 8.22
21792 22.8970 68.30 67.66 8.26
21793 22.8980 83.71 67.64 9.15
21794 22.8990 67.32 67.61 8.20
21795 22.9000 74.15 67.58 8.61
21796 22.9010 74.56 67.55 8.63
21797 22.9020 75.37 67.52 8.68
21798 22.9030 69.82 67.49 8.36
21799 22.9040 72.08 67.46 8.49
21800 22.9050 67.19 67.43 8.20
21801 22.9060 65.67 67.40 8.10
21802 22.9070 67.40 67.37 8.21
21803 22.9080 75.70 67.34 8.70
21804 22.9090 71.10 67.31 8.43
21805 22.9100 76.34 67.28 8.74
21806 22.9110 74.85 67.25 8.65
21807 22.9120 76.97 67.22 8.77
21808 22.9130 67.80 67.19 8.23
21809 22.9140 64.23 67.16 8.01
21810 22.9150 65.87 67.12 8.12
21811 22.9160 69.42 67.09 8.33
21812 22.9170 77.71 67.06 8.82
21813 22.9180 71.13 67.03 8.43
21814 22.9190 71.96 67.00 8.48
21815 22.9200 64.30 66.97 8.02
21816 22.9210 68.89 66.93 8.30
21817 22.9220 81.94 66.90 9.05
21818 22.9230 85.90 66.87 9.27
21819 22.9240 63.90 66.84 7.99
21820 22.9250 70.21 66.81 8.38
21821 22.9260 64.43 66.78 8.03
21822 22.9270 72.28 66.74 8.50
21823 22.9280 69.45 66.71 8.33
21824 22.9290 76.72 66.68 8.76
21825 22.9300 69.49 66.65 8.34
21826 22.9310 75.95 66.62 8.71
21827 22.9320 73.01 66.59 8.54
21828 22.9330 65.06 66.56 8.07
21829 22.9340 63.52 66.52 7.97
21830 22.9350 72.59 66.49 8.52
21831 22.9360 70.22 66.46 8.38
21832 22.9370 61.74 66.43 7.86
21833 22.9380 62.95 66.40 7.93
21834 22.9390 75.20 66.37 8.67
21835 22.9400 72.38 66.34 8.51
21836 22.9410 58.21 66.30 7.63
21837 22.9420 63.53 66.27 7.97
21838 22.9430 66.65 66.24 8.16
21839 22.9440 68.08 66.21 8.25
21840 22.9450 73.44 66.18 8.57
21841 22.9460 70.27 66.15 8.38
21842 22.9470 60.91 66.12 7.80
21843 22.9480 65.06 66.09 8.07
21844 22.9490 62.16 66.07 7.88
21845 22.9500 69.66 66.04 8.35
21846 22.9510 69.41 66.01 8.33
21847 22.9520 70.75 65.98 8.41
21848 22.9530 57.21 65.95 7.56
21849 22.9540 66.63 65.92 8.16
21850 22.9550 70.67 65.90 8.41
21851 22.9560 61.56 65.87 7.85
21852 22.9570 63.68 65.84 7.98
21853 22.9580 71.01 65.81 8.43
21854 22.9590 64.56 65.79 8.03
21855 22.9600 63.17 65.76 7.95
21856 22.9610 72.99 65.73 8.54
21857 22.9620 70.91 65.70 8.42
21858 22.9630 54.21 65.68 7.36
21859 22.9640 56.65 65.65 7.53
21860 22.9650 55.38 65.62 7.44
21861 22.9660 70.19 65.60 8.38
21862 22.9670 63.18 65.57 7.95
21863 22.9680 63.35 65.55 7.96
21864 22.9690 63.09 65.52 7.94
21865 22.9700 59.38 65.50 7.71
21866 22.9710 66.76 65.48 8.17
21867 22.9720 64.53 65.45 8.03
21868 22.9730 52.87 65.43 7.27
21869 22.9740 56.34 65.40 7.51
21870 22.9750 67.15 65.38 8.19
21871 22.9760 63.24 65.36 7.95
21872 22.9770 61.53 65.34 7.84
21873 22.9780 64.37 65.31 8.02
21874 22.9790 68.17 65.29 8.26
21875 22.9800 60.94 65.27 7.81
21876 22.9810 56.64 65.25 7.53
21877 22.9820 61.54 65.23 7.84
21878 22.9830 63.16 65.21 7.95
21879 22.9840 61.14 65.19 7.82
21880 22.9850 54.18 65.17 7.36
21881 22.9860 62.26 65.15 7.89
21882 22.9870 68.24 65.13 8.26
21883 22.9880 67.23 65.11 8.20
21884 22.9890 59.32 65.09 7.70
21885 22.9900 78.82 65.07 8.88
21886 22.9910 73.71 65.06 8.59
21887 22.9920 74.71 65.04 8.64
21888 22.9930 68.19 65.02 8.26
21889 22.9940 76.97 65.00 8.77
21890 22.9950 69.70 64.99 8.35
21891 22.9960 72.53 64.97 8.52
21892 22.9970 74.75 64.96 8.65
21893 22.9980 71.73 64.94 8.47
21894 22.9990 73.77 64.92 8.59
21895 23.0000 78.26 64.91 8.85
21896 23.0010 72.49 64.89 8.51
21897 23.0020 64.24 64.88 8.01
21898 23.0030 58.74 64.87 7.66
21899 23.0040 59.30 64.85 7.70
21900 23.0050 65.69 64.84 8.10
21901 23.0060 71.59 64.83 8.46
21902 23.0070 56.16 64.81 7.49
21903 23.0080 55.50 64.80 7.45
21904 23.0090 62.38 64.79 7.90
21905 23.0100 71.94 64.78 8.48
21906 23.0110 71.71 64.77 8.47
21907 23.0120 58.85 64.75 7.67
21908 23.0130 61.71 64.74 7.86
21909 23.0140 65.03 64.73 8.06
21910 23.0150 66.40 64.72 8.15
21911 23.0160 62.42 64.71 7.90
21912 23.0170 59.11 64.70 7.69
21913 23.0180 69.20 64.69 8.32
21914 23.0190 72.26 64.68 8.50
21915 23.0200 60.41 64.68 7.77
21916 23.0210 65.30 64.67 8.08
21917 23.0220 64.18 64.66 8.01
21918 23.0230 58.97 64.65 7.68
21919 23.0240 64.99 64.65 8.06
21920 23.0250 54.14 64.64 7.36
21921 23.0260 62.50 64.64 7.91
21922 23.0270 69.57 64.63 8.34
21923 23.0280 73.55 64.62 8.58
21924 23.0290 72.93 64.62 8.54
21925 23.0300 63.68 64.61 7.98
21926 23.0310 55.96 64.61 7.48
21927 23.0320 57.68 64.61 7.59
21928 23.0330 61.95 64.60 7.87
21929 23.0340 55.57 64.60 7.45
21930 23.0350 59.75 64.60 7.73
21931 23.0360 59.35 64.59 7.70
21932 23.0370 68.15 64.59 8.26
21933 23.0380 66.82 64.59 8.17
21934 23.0390 61.70 64.59 7.85
21935 23.0400 60.15 64.58 7.76
21936 23.0410 61.27 64.58 7.83
21937 23.0420 65.08 64.58 8.07
21938 23.0430 73.54 64.58 8.58
21939 23.0440 69.12 64.58 8.31
21940 23.0450 62.52 64.58 7.91
21941 23.0460 60.00 64.58 7.75
21942 23.0470 66.72 64.58 8.17
21943 23.0480 76.77 64.58 8.76
21944 23.0490 74.34 64.58 8.62
21945 23.0500 68.15 64.58 8.26
21946 23.0510 67.50 64.58 8.22
21947 23.0520 62.67 64.58 7.92
21948 23.0530 61.61 64.58 7.85
21949 23.0540 62.96 64.58 7.93
21950 23.0550 67.01 64.59 8.19
21951 23.0560 64.84 64.59 8.05
21952 23.0570 62.28 64.59 7.89
21953 23.0580 69.49 64.59 8.34
21954 23.0590 59.60 64.60 7.72
21955 23.0600 56.42 64.60 7.51
21956 23.0610 65.38 64.60 8.09
21957 23.0620 69.81 64.60 8.36
21958 23.0630 67.58 64.61 8.22
21959 23.0640 59.96 64.61 7.74
21960 23.0650 61.62 64.61 7.85
21961 23.0660 62.34 64.62 7.90
21962 23.0670 68.56 64.62 8.28
21963 23.0680 65.32 64.62 8.08
21964 23.0690 64.13 64.63 8.01
21965 23.0700 59.16 64.63 7.69
21966 23.0710 55.20 64.63 7.43
21967 23.0720 59.46 64.64 7.71
21968 23.0730 62.91 64.64 7.93
21969 23.0740 66.45 64.64 8.15
21970 23.0750 73.94 64.65 8.60
21971 23.0760 64.50 64.65 8.03
21972 23.0770 64.56 64.65 8.03
21973 23.0780 66.51 64.66 8.16
21974 23.0790 63.27 64.66 7.95
21975 23.0800 61.04 64.67 7.81
21976 23.0810 57.24 64.67 7.57
21977 23.0820 56.43 64.67 7.51
21978 23.0830 68.19 64.68 8.26
21979 23.0840 56.81 64.68 7.54
21980 23.0850 61.35 64.68 7.83
21981 23.0860 66.93 64.68 8.18
21982 23.0870 63.04 64.69 7.94
21983 23.0880 69.29 64.69 8.32
21984 23.0890 65.84 64.69 8.11
21985 23.0900 65.96 64.70 8.12
21986 23.0910 63.18 64.70 7.95
21987 23.0920 70.63 64.70 8.40
21988 23.0930 61.04 64.70 7.81
21989 23.0940 76.11 64.70 8.72
21990 23.0950 66.56 64.71 8.16
21991 23.0960 54.42 64.71 7.38
21992 23.0970 56.74 64.71 7.53
21993 23.0980 71.19 64.71 8.44
21994 23.0990 71.91 64.71 8.48
21995 23.1000 71.74 64.71 8.47
21996 23.1010 67.68 64.71 8.23
21997 23.1020 59.19 64.71 7.69
21998 23.1030 60.12 64.71 7.75
21999 23.1040 70.86 64.71 8.42
22000 23.1050 66.09 64.71 8.13
22001 23.1060 63.47 64.71 7.97
22002 23.1070 57.93 64.71 7.61
22003 23.1080 55.99 64.71 7.48
22004 23.1090 66.04 64.71 8.13
22005 23.1100 65.56 64.70 8.10
22006 23.1110 64.11 64.70 8.01
22007 23.1120 78.07 64.70 8.84
22008 23.1130 73.10 64.69 8.55
22009 23.1140 65.09 64.69 8.07
22010 23.1150 67.91 64.68 8.24
22011 23.1160 67.23 64.68 8.20
22012 23.1170 80.21 64.67 8.96
22013 23.1180 67.22 64.67 8.20
22014 23.1190 61.23 64.66 7.82
22015 23.1200 68.29 64.66 8.26
22016 23.1210 73.85 64.65 8.59
22017 23.1220 67.47 64.64 8.21
22018 23.1230 60.64 64.63 7.79
22019 23.1240 53.02 64.63 7.28
22020 23.1250 50.55 64.62 7.11
22021 23.1260 60.95 64.61 7.81
22022 23.1270 72.42 64.60 8.51
22023 23.1280 64.93 64.59 8.06
22024 23.1290 60.47 64.58 7.78
22025 23.1300 59.98 64.57 7.74
22026 23.1310 68.68 64.56 8.29
22027 23.1320 64.23 64.55 8.01
22028 23.1330 60.19 64.54 7.76
22029 23.1340 63.89 64.53 7.99
22030 23.1350 59.60 64.51 7.72
22031 23.1360 58.46 64.50 7.65
22032 23.1370 59.42 64.49 7.71
22033 23.1380 69.05 64.47 8.31
22034 23.1390 69.69 64.46 8.35
22035 23.1400 63.29 64.44 7.96
22036 23.1410 73.34 64.43 8.56
22037 23.1420 72.17 64.41 8.50
22038 23.1430 73.54 64.39 8.58
22039 23.1440 69.11 64.38 8.31
22040 23.1450 67.67 64.36 8.23
22041 23.1460 66.20 64.34 8.14
22042 23.1470 60.90 64.32 7.80
22043 23.1480 63.41 64.30 7.96
22044 23.1490 73.80 64.28 8.59
22045 23.1500 71.66 64.26 8.47
22046 23.1510 68.24 64.24 8.26
22047 23.1520 66.07 64.22 8.13
22048 23.1530 67.15 64.20 8.19
22049 23.1540 62.79 64.18 7.92
22050 23.1550 66.33 64.16 8.14
22051 23.1560 64.28 64.14 8.02
22052 23.1570 61.77 64.12 7.86
22053 23.1580 59.44 64.10 7.71
22054 23.1590 58.70 64.08 7.66
22055 23.1600 51.79 64.05 7.20
22056 23.1610 51.92 64.03 7.21
22057 23.1620 58.29 64.01 7.63
22058 23.1630 62.48 63.98 7.90
22059 23.1640 67.67 63.96 8.23
22060 23.1650 68.32 63.94 8.27
22061 23.1660 59.57 63.91 7.72
22062 23.1670 64.47 63.89 8.03
22063 23.1680 66.80 63.86 8.17
22064 23.1690 60.11 63.84 7.75
22065 23.1700 60.17 63.81 7.76
22066 23.1710 60.72 63.79 7.79
22067 23.1720 54.58 63.76 7.39
22068 23.1730 66.34 63.74 8.14
22069 23.1740 56.11 63.71 7.49
22070 23.1750 64.05 63.69 8.00
22071 23.1760 66.77 63.66 8.17
22072 23.1770 66.52 63.64 8.16
22073 23.1780 69.08 63.61 8.31
22074 23.1790 55.51 63.59 7.45
22075 23.1800 51.93 63.56 7.21
22076 23.1810 58.80 63.53 7.67
22077 23.1820 62.93 63.50 7.93
22078 23.1830 62.91 63.47 7.93
22079 23.1840 55.15 63.45 7.43
22080 23.1850 59.34 63.42 7.70
22081 23.1860 63.07 63.40 7.94
22082 23.1870 54.99 63.37 7.42
22083 23.1880 61.97 63.35 7.87
22084 23.1890 65.55 63.32 8.10
22085 23.1900 68.08 63.29 8.25
22086 23.1910 59.75 63.27 7.73
22087 23.1920 64.76 63.24 8.05
22088 23.1930 58.67 63.22 7.66
22089 23.1940 58.91 63.19 7.68
22090 23.1950 62.08 63.16 7.88
22091 23.1960 56.06 63.14 7.49
22092 23.1970 66.38 63.11 8.15
22093 23.1980 63.94 63.09 8.00
22094 23.1990 60.39 63.06 7.77
22095 23.2000 57.47 63.03 7.58
22096 23.2010 59.33 63.01 7.70
22097 23.2020 61.04 62.98 7.81
22098 23.2030 62.78 62.96 7.92
22099 23.2040 63.23 62.93 7.95
22100 23.2050 62.19 62.91 7.89
22101 23.2060 57.92 62.88 7.61
22102 23.2070 52.84 62.86 7.27
22103 23.2080 60.70 62.83 7.79
22104 23.2090 49.97 62.81 7.07
22105 23.2100 59.22 62.78 7.70
22106 23.2110 55.25 62.76 7.43
22107 23.2120 58.72 62.74 7.66
22108 23.2130 58.56 62.71 7.65
22109 23.2140 62.41 62.69 7.90
22110 23.2150 55.91 62.66 7.48
22111 23.2160 62.33 62.64 7.89
22112 23.2170 76.67 62.62 8.76
22113 23.2180 66.52 62.59 8.16
22114 23.2190 69.42 62.57 8.33
22115 23.2200 57.64 62.54 7.59
22116 23.2210 60.06 62.52 7.75
22117 23.2220 66.78 62.50 8.17
22118 23.2230 64.47 62.47 8.03
22119 23.2240 63.33 62.45 7.96
22120 23.2250 65.33 62.42 8.08
22121 23.2260 56.35 62.40 7.51
22122 23.2270 66.55 62.38 8.16
22123 23.2280 63.39 62.35 7.96
22124 23.2290 65.59 62.33 8.10
22125 23.2300 63.96 62.30 8.00
22126 23.2310 69.43 62.28 8.33
22127 23.2320 56.98 62.26 7.55
22128 23.2330 57.03 62.23 7.55
22129 23.2340 56.81 62.21 7.54
22130 23.2350 58.86 62.19 7.67
22131 23.2360 61.60 62.16 7.85
22132 23.2370 66.80 62.14 8.17
22133 23.2380 68.66 62.11 8.29
22134 23.2390 66.00 62.09 8.12
22135 23.2400 56.54 62.07 7.52
22136 23.2410 63.40 62.04 7.96
22137 23.2420 55.95 62.02 7.48
22138 23.2430 62.23 61.99 7.89
22139 23.2440 56.16 61.97 7.49
22140 23.2450 57.02 61.95 7.55
22141 23.2460 67.35 61.92 8.21
22142 23.2470 59.03 61.90 7.68
22143 23.2480 65.76 61.87 8.11
22144 23.2490 62.77 61.85 7.92
22145 23.2500 64.29 61.83 8.02
22146 23.2510 65.84 61.80 8.11
22147 23.2520 60.92 61.78 7.81
22148 23.2530 63.52 61.75 7.97
22149 23.2540 63.43 61.73 7.96
22150 23.2550 64.58 61.70 8.04
22151 23.2560 66.65 61.68 8.16
22152 23.2570 63.92 61.66 7.99
22153 23.2580 57.77 61.63 7.60
22154 23.2590 64.82 61.61 8.05
22155 23.2600 72.07 61.58 8.49
22156 23.2610 61.56 61.56 7.85
22157 23.2620 58.92 61.53 7.68
22158 23.2630 61.76 61.51 7.86
22159 23.2640 64.49 61.48 8.03
22160 23.2650 61.37 61.46 7.83
22161 23.2660 51.57 61.43 7.18
22162 23.2670 52.06 61.41 7.22
22163 23.2680 61.19 61.38 7.82
22164 23.2690 62.58 61.35 7.91
22165 23.2700 65.80 61.33 8.11
22166 23.2710 68.38 61.30 8.27
22167 23.2720 58.20 61.28 7.63
22168 23.2730 64.84 61.25 8.05
22169 23.2740 61.39 61.23 7.84
22170 23.2750 55.16 61.20 7.43
22171 23.2760 61.11 61.17 7.82
22172 23.2770 61.35 61.15 7.83
22173 23.2780 60.72 61.12 7.79
22174 23.2790 61.69 61.10 7.85
22175 23.2800 68.63 61.07 8.28
22176 23.2810 67.42 61.05 8.21
22177 23.2820 58.64 61.02 7.66
22178 23.2830 68.66 60.99 8.29
22179 23.2840 63.77 60.97 7.99
22180 23.2850 63.34 60.94 7.96
22181 23.2860 56.76 60.92 7.53
22182 23.2870 55.74 60.89 7.47
22183 23.2880 56.95 60.87 7.55
22184 23.2890 58.81 60.84 7.67
22185 23.2900 58.18 60.82 7.63
22186 23.2910 57.93 60.79 7.61
22187 23.2920 61.28 60.77 7.83
22188 23.2930 58.43 60.74 7.64
22189 23.2940 64.02 60.72 8.00
22190 23.2950 61.98 60.69 7.87
22191 23.2960 58.42 60.67 7.64
22192 23.2970 67.84 60.65 8.24
22193 23.2980 68.65 60.62 8.29
22194 23.2990 62.13 60.60 7.88
22195 23.3000 64.75 60.58 8.05
22196 23.3010 58.49 60.55 7.65
22197 23.3020 67.85 60.53 8.24
22198 23.3030 72.69 60.51 8.53
22199 23.3040 58.69 60.49 7.66
22200 23.3050 51.54 60.46 7.18
22201 23.3060 60.35 60.44 7.77
22202 23.3070 62.13 60.42 7.88
22203 23.3080 59.49 60.40 7.71
22204 23.3090 57.41 60.38 7.58
22205 23.3100 58.70 60.36 7.66
22206 23.3110 58.62 60.34 7.66
22207 23.3120 62.91 60.32 7.93
22208 23.3130 64.03 60.30 8.00
22209 23.3140 63.02 60.28 7.94
22210 23.3150 63.36 60.26 7.96
22211 23.3160 58.81 60.24 7.67
22212 23.3170 59.13 60.22 7.69
22213 23.3180 54.45 60.20 7.38
22214 23.3190 59.34 60.19 7.70
22215 23.3200 57.59 60.17 7.59
22216 23.3210 63.51 60.15 7.97
22217 23.3220 61.40 60.14 7.84
22218 23.3230 56.58 60.12 7.52
22219 23.3240 54.92 60.10 7.41
22220 23.3250 53.12 60.09 7.29
22221 23.3260 51.99 60.07 7.21
22222 23.3270 63.04 60.06 7.94
22223 23.3280 63.46 60.04 7.97
22224 23.3290 65.64 60.03 8.10
22225 23.3300 62.28 60.02 7.89
22226 23.3310 55.18 60.00 7.43
22227 23.3320 54.08 59.99 7.35
22228 23.3330 54.55 59.98 7.39
22229 23.3340 58.00 59.96 7.62
22230 23.3350 53.25 59.95 7.30
22231 23.3360 48.77 59.94 6.98
22232 23.3370 54.70 59.93 7.40
22233 23.3380 62.71 59.92 7.92
22234 23.3390 54.36 59.90 7.37
22235 23.3400 56.47 59.89 7.51
22236 23.3410 58.50 59.88 7.65
22237 23.3420 54.66 59.87 7.39
22238 23.3430 58.11 59.86 7.62
22239 23.3440 53.81 59.85 7.34
22240 23.3450 54.42 59.85 7.38
22241 23.3460 56.43 59.84 7.51
22242 23.3470 62.97 59.83 7.94
22243 23.3480 58.63 59.82 7.66
22244 23.3490 58.19 59.82 7.63
22245 23.3500 60.78 59.81 7.80
22246 23.3510 57.02 59.80 7.55
22247 23.3520 57.41 59.80 7.58
22248 23.3530 56.68 59.79 7.53
22249 23.3540 55.10 59.79 7.42
22250 23.3550 63.88 59.78 7.99
22251 23.3560 56.93 59.78 7.55
22252 23.3570 62.50 59.78 7.91
22253 23.3580 59.90 59.77 7.74
22254 23.3590 55.34 59.77 7.44
22255 23.3600 60.76 59.77 7.79
22256 23.3610 53.84 59.77 7.34
22257 23.3620 58.20 59.76 7.63
22258 23.3630 55.84 59.76 7.47
22259 23.3640 62.14 59.76 7.88
22260 23.3650 60.47 59.76 7.78
22261 23.3660 63.96 59.76 8.00
22262 23.3670 54.17 59.76 7.36
22263 23.3680 62.01 59.76 7.87
22264 23.3690 58.20 59.76 7.63
22265 23.3700 57.53 59.77 7.58
22266 23.3710 59.25 59.77 7.70
22267 23.3720 60.50 59.77 7.78
22268 23.3730 59.32 59.77 7.70
22269 23.3740 53.14 59.78 7.29
22270 23.3750 56.54 59.78 7.52
22271 23.3760 68.38 59.78 8.27
22272 23.3770 56.28 59.79 7.50
22273 23.3780 56.62 59.79 7.52
22274 23.3790 60.44 59.80 7.77
22275 23.3800 50.48 59.80 7.10
22276 23.3810 51.01 59.81 7.14
22277 23.3820 62.79 59.81 7.92
22278 23.3830 63.31 59.82 7.96
22279 23.3840 63.61 59.83 7.98
22280 23.3850 61.89 59.83 7.87
22281 23.3860 52.45 59.84 7.24
22282 23.3870 55.53 59.85 7.45
22283 23.3880 65.31 59.86 8.08
22284 23.3890 64.45 59.87 8.03
22285 23.3900 62.29 59.88 7.89
22286 23.3910 69.29 59.88 8.32
22287 23.3920 60.39 59.89 7.77
22288 23.3930 54.24 59.91 7.36
22289 23.3940 65.64 59.92 8.10
22290 23.3950 61.72 59.93 7.86
22291 23.3960 61.37 59.94 7.83
22292 23.3970 62.85 59.95 7.93
22293 23.3980 60.22 59.96 7.76
22294 23.3990 58.74 59.97 7.66
22295 23.4000 67.30 59.99 8.20
22296 23.4010 61.78 60.00 7.86
22297 23.4020 60.46 60.01 7.78
22298 23.4030 62.06 60.03 7.88
22299 23.4040 59.91 60.04 7.74
22300 23.4050 60.06 60.05 7.75
22301 23.4060 60.88 60.07 7.80
22302 23.4070 58.65 60.08 7.66
22303 23.4080 65.54 60.09 8.10
22304 23.4090 69.84 60.11 8.36
22305 23.4100 57.36 60.13 7.57
22306 23.4110 54.75 60.14 7.40
22307 23.4120 58.71 60.16 7.66
22308 23.4130 50.79 60.17 7.13
22309 23.4140 59.46 60.19 7.71
22310 23.4150 64.11 60.21 8.01
22311 23.4160 59.25 60.23 7.70
22312 23.4170 65.75 60.24 8.11
22313 23.4180 65.65 60.26 8.10
22314 23.4190 69.00 60.28 8.31
22315 23.4200 64.95 60.30 8.06
22316 23.4210 58.59 60.32 7.65
22317 23.4220 61.96 60.34 7.87
22318 23.4230 59.79 60.35 7.73
22319 23.4240 60.93 60.37 7.81
22320 23.4250 61.50 60.39 7.84
22321 23.4260 65.68 60.41 8.10
22322 23.4270 63.74 60.43 7.98
22323 23.4280 59.74 60.45 7.73
22324 23.4290 66.16 60.47 8.13
22325 23.4300 57.12 60.49 7.56
22326 23.4310 54.35 60.51 7.37
22327 23.4320 58.72 60.53 7.66
22328 23.4330 60.10 60.56 7.75
22329 23.4340 61.34 60.58 7.83
22330 23.4350 53.64 60.60 7.32
22331 23.4360 58.92 60.62 7.68
22332 23.4370 60.42 60.65 7.77
22333 23.4380 43.05 60.67 6.56
22334 23.4390 55.89 60.69 7.48
22335 23.4400 58.89 60.72 7.67
22336 23.4410 64.53 60.74 8.03
22337 23.4420 57.16 60.76 7.56
22338 23.4430 56.68 60.79 7.53
22339 23.4440 57.31 60.81 7.57
22340 23.4450 57.92 60.83 7.61
22341 23.4460 60.22 60.86 7.76
22342 23.4470 63.45 60.88 7.97
22343 23.4480 54.20 60.91 7.36
22344 23.4490 63.15 60.93 7.95
22345 23.4500 68.53 60.96 8.28
22346 23.4510 55.78 60.98 7.47
22347 23.4520 58.61 61.01 7.66
22348 23.4530 62.44 61.04 7.90
22349 23.4540 62.63 61.06 7.91
22350 23.4550 69.85 61.09 8.36
22351 23.4560 59.46 61.12 7.71
22352 23.4570 64.59 61.14 8.04
22353 23.4580 62.32 61.16 7.89
22354 23.4590 60.26 61.19 7.76
22355 23.4600 58.34 61.22 7.64
22356 23.4610 59.99 61.24 7.75
22357 23.4620 54.25 61.27 7.37
22358 23.4630 50.97 61.30 7.14
22359 23.4640 59.93 61.32 7.74
22360 23.4650 66.25 61.35 8.14
22361 23.4660 64.04 61.38 8.00
22362 23.4670 53.11 61.41 7.29
22363 23.4680 67.72 61.43 8.23
22364 23.4690 62.86 61.46 7.93
22365 23.4700 62.22 61.49 7.89
22366 23.4710 60.51 61.52 7.78
22367 23.4720 63.30 61.54 7.96
22368 23.4730 58.16 61.57 7.63
22369 23.4740 56.27 61.60 7.50
22370 23.4750 58.95 61.63 7.68
22371 23.4760 54.50 61.65 7.38
22372 23.4770 58.15 61.68 7.63
22373 23.4780 58.51 61.71 7.65
22374 23.4790 58.50 61.74 7.65
22375 23.4800 63.30 61.77 7.96
22376 23.4810 54.78 61.80 7.40
22377 23.4820 58.79 61.82 7.67
22378 23.4830 57.29 61.85 7.57
22379 23.4840 58.89 61.88 7.67
22380 23.4850 64.65 61.91 8.04
22381 23.4860 61.29 61.94 7.83
22382 23.4870 55.50 61.96 7.45
22383 23.4880 61.79 61.99 7.86
22384 23.4890 65.09 62.02 8.07
22385 23.4900 56.97 62.05 7.55
22386 23.4910 59.57 62.07 7.72
22387 23.4920 65.03 62.10 8.06
22388 23.4930 64.55 62.13 8.03
22389 23.4940 56.49 62.16 7.52
22390 23.4950 59.82 62.19 7.73
22391 23.4960 72.59 62.21 8.52
22392 23.4970 69.54 62.24 8.34
22393 23.4980 61.67 62.27 7.85
22394 23.4990 60.68 62.30 7.79
22395 23.5000 58.85 62.33 7.67
22396 23.5010 56.01 62.35 7.48
22397 23.5020 60.04 62.38 7.75
22398 23.5030 64.17 62.41 8.01
22399 23.5040 46.16 62.44 6.79
22400 23.5050 51.42 62.46 7.17
22401 23.5060 66.77 62.49 8.17
22402 23.5070 64.11 62.52 8.01
22403 23.5080 55.91 62.54 7.48
22404 23.5090 56.96 62.57 7.55
22405 23.5100 56.88 62.60 7.54
22406 23.5110 52.45 62.62 7.24
22407 23.5120 56.57 62.65 7.52
22408 23.5130 61.55 62.67 7.85
22409 23.5140 59.21 62.70 7.69
22410 23.5150 67.69 62.72 8.23
22411 23.5160 61.08 62.75 7.82
22412 23.5170 64.10 62.77 8.01
22413 23.5180 54.45 62.80 7.38
22414 23.5190 64.58 62.83 8.04
22415 23.5200 65.80 62.85 8.11
22416 23.5210 67.70 62.87 8.23
22417 23.5220 66.12 62.90 8.13
22418 23.5230 63.44 62.92 7.96
22419 23.5240 57.05 62.94 7.55
22420 23.5250 68.91 62.97 8.30
22421 23.5260 64.08 62.99 8.01
22422 23.5270 56.75 63.01 7.53
22423 23.5280 63.80 63.04 7.99
22424 23.5290 67.37 63.06 8.21
22425 23.5300 61.71 63.08 7.86
22426 23.5310 55.74 63.10 7.47
22427 23.5320 66.71 63.12 8.17
22428 23.5330 61.86 63.14 7.87
22429 23.5340 54.37 63.16 7.37
22430 23.5350 54.14 63.18 7.36
22431 23.5360 57.77 63.20 7.60
22432 23.5370 55.51 63.22 7.45
22433 23.5380 58.03 63.24 7.62
22434 23.5390 60.41 63.26 7.77
22435 23.5400 60.66 63.27 7.79
22436 23.5410 61.71 63.29 7.86
22437 23.5420 55.87 63.31 7.47
22438 23.5430 57.98 63.32 7.61
22439 23.5440 64.23 63.34 8.01
22440 23.5450 64.66 63.36 8.04
22441 23.5460 69.18 63.37 8.32
22442 23.5470 66.87 63.38 8.18
22443 23.5480 70.59 63.40 8.40
22444 23.5490 73.27 63.41 8.56
22445 23.5500 60.58 63.43 7.78
22446 23.5510 55.34 63.44 7.44
22447 23.5520 60.88 63.45 7.80
22448 23.5530 59.63 63.46 7.72
22449 23.5540 64.77 63.47 8.05
22450 23.5550 62.55 63.48 7.91
22451 23.5560 54.60 63.50 7.39
22452 23.5570 56.37 63.51 7.51
22453 23.5580 69.25 63.52 8.32
22454 23.5590 65.69 63.52 8.10
22455 23.5600 68.55 63.53 8.28
22456 23.5610 64.60 63.54 8.04
22457 23.5620 76.41 63.55 8.74
22458 23.5630 65.18 63.56 8.07
22459 23.5640 65.97 63.56 8.12
22460 23.5650 66.90 63.57 8.18
22461 23.5660 59.93 63.57 7.74
22462 23.5670 65.38 63.58 8.09
22463 23.5680 71.36 63.58 8.45
22464 23.5690 67.03 63.59 8.19
22465 23.5700 74.37 63.59 8.62
22466 23.5710 68.71 63.59 8.29
22467 23.5720 73.85 63.60 8.59
22468 23.5730 72.93 63.60 8.54
22469 23.5740 55.17 63.60 7.43
22470 23.5750 54.87 63.60 7.41
22471 23.5760 66.65 63.60 8.16
22472 23.5770 74.31 63.60 8.62
22473 23.5780 64.74 63.60 8.05
22474 23.5790 60.31 63.60 7.77
22475 23.5800 58.96 63.60 7.68
22476 23.5810 66.04 63.60 8.13
22477 23.5820 62.84 63.59 7.93
22478 23.5830 67.35 63.59 8.21
22479 23.5840 68.44 63.59 8.27
22480 23.5850 60.47 63.58 7.78
22481 23.5860 60.41 63.58 7.77
22482 23.5870 54.14 63.57 7.36
22483 23.5880 54.49 63.57 7.38
22484 23.5890 57.74 63.56 7.60
22485 23.5900 66.50 63.56 8.15
22486 23.5910 70.39 63.55 8.39
22487 23.5920 64.51 63.54 8.03
22488 23.5930 61.55 63.54 7.85
22489 23.5940 59.29 63.53 7.70
22490 23.5950 57.08 63.52 7.56
22491 23.5960 60.36 63.51 7.77
22492 23.5970 65.17 63.50 8.07
22493 23.5980 70.75 63.49 8.41
22494 23.5990 58.93 63.49 7.68
22495 23.6000 63.40 63.47 7.96
22496 23.6010 55.64 63.46 7.46
22497 23.6020 57.11 63.45 7.56
22498 23.6030 57.10 63.44 7.56
22499 23.6040 57.31 63.43 7.57
22500 23.6050 58.89 63.42 7.67
22501 23.6060 66.53 63.41 8.16
22502 23.6070 69.28 63.40 8.32
22503 23.6080 69.19 63.38 8.32
22504 23.6090 64.04 63.37 8.00
22505 23.6100 59.51 63.36 7.71
22506 23.6110 51.71 63.34 7.19
22507 23.6120 60.68 63.33 7.79
22508 23.6130 66.05 63.32 8.13
22509 23.6140 62.31 63.30 7.89
22510 23.6150 60.59 63.29 7.78
22511 23.6160 67.87 63.27 8.24
22512 23.6170 71.74 63.25 8.47
22513 23.6180 64.64 63.24 8.04
22514 23.6190 66.99 63.22 8.18
22515 23.6200 59.17 63.21 7.69
22516 23.6210 59.41 63.19 7.71
22517 23.6220 64.74 63.18 8.05
22518 23.6230 64.31 63.16 8.02
22519 23.6240 61.94 63.15 7.87
22520 23.6250 57.31 63.13 7.57
22521 23.6260 59.09 63.11 7.69
22522 23.6270 62.90 63.10 7.93
22523 23.6280 64.17 63.08 8.01
22524 23.6290 64.05 63.06 8.00
22525 23.6300 61.17 63.04 7.82
22526 23.6310 66.28 63.03 8.14
22527 23.6320 65.92 63.01 8.12
22528 23.6330 61.05 62.99 7.81
22529 23.6340 59.14 62.98 7.69
22530 23.6350 58.45 62.96 7.65
22531 23.6360 69.07 62.94 8.31
22532 23.6370 70.06 62.92 8.37
22533 23.6380 63.15 62.90 7.95
22534 23.6390 59.82 62.89 7.73
22535 23.6400 57.99 62.87 7.62
22536 23.6410 62.34 62.85 7.90
22537 23.6420 65.95 62.84 8.12
22538 23.6430 57.58 62.82 7.59
22539 23.6440 62.54 62.80 7.91
22540 23.6450 62.98 62.78 7.94
22541 23.6460 65.56 62.76 8.10
22542 23.6470 68.69 62.74 8.29
22543 23.6480 66.46 62.73 8.15
22544 23.6490 65.57 62.71 8.10
22545 23.6500 62.26 62.69 7.89
22546 23.6510 58.86 62.67 7.67
22547 23.6520 54.84 62.65 7.41
22548 23.6530 57.60 62.63 7.59
22549 23.6540 68.77 62.62 8.29
22550 23.6550 57.42 62.60 7.58
22551 23.6560 61.30 62.58 7.83
22552 23.6570 63.56 62.57 7.97
22553 23.6580 68.89 62.55 8.30
22554 23.6590 61.82 62.53 7.86
22555 23.6600 62.09 62.51 7.88
22556 23.6610 57.13 62.49 7.56
22557 23.6620 63.28 62.48 7.95
22558 23.6630 63.35 62.46 7.96
22559 23.6640 58.21 62.44 7.63
22560 23.6650 60.98 62.42 7.81
22561 23.6660 69.91 62.40 8.36
22562 23.6670 67.24 62.39 8.20
22563 23.6680 60.01 62.37 7.75
22564 23.6690 58.01 62.35 7.62
22565 23.6700 59.64 62.34 7.72
22566 23.6710 61.25 62.32 7.83
22567 23.6720 60.36 62.30 7.77
22568 23.6730 62.67 62.29 7.92
22569 23.6740 60.30 62.27 7.77
22570 23.6750 60.52 62.25 7.78
22571 23.6760 65.43 62.24 8.09
22572 23.6770 61.76 62.22 7.86
22573 23.6780 66.37 62.20 8.15
22574 23.6790 58.77 62.19 7.67
22575 23.6800 57.14 62.17 7.56
22576 23.6810 59.66 62.16 7.72
22577 23.6820 61.07 62.14 7.81
22578 23.6830 60.61 62.12 7.79
22579 23.6840 63.87 62.11 7.99
22580 23.6850 58.19 62.09 7.63
22581 23.6860 51.33 62.08 7.16
22582 23.6870 57.80 62.06 7.60
22583 23.6880 65.17 62.05 8.07
22584 23.6890 66.78 62.03 8.17
22585 23.6900 58.66 62.02 7.66
22586 23.6910 62.81 62.01 7.93
22587 23.6920 67.93 61.99 8.24
22588 23.6930 63.04 61.97 7.94
22589 23.6940 63.95 61.96 8.00
22590 23.6950 52.85 61.95 7.27
22591 23.6960 56.92 61.93 7.54
22592 23.6970 55.89 61.92 7.48
22593 23.6980 55.41 61.91 7.44
22594 23.6990 57.76 61.90 7.60
22595 23.7000 61.90 61.89 7.87
22596 23.7010 67.15 61.88 8.19
22597 23.7020 65.37 61.87 8.09
22598 23.7030 64.21 61.86 8.01
22599 23.7040 56.39 61.85 7.51
22600 23.7050 63.57 61.84 7.97
22601 23.7060 60.61 61.83 7.79
22602 23.7070 66.23 61.82 8.14
22603 23.7080 62.73 61.81 7.92
22604 23.7090 63.20 61.80 7.95
22605 23.7100 68.69 61.80 8.29
22606 23.7110 68.77 61.79 8.29
22607 23.7120 68.51 61.78 8.28
22608 23.7130 67.04 61.78 8.19
22609 23.7140 60.93 61.77 7.81
22610 23.7150 59.05 61.76 7.68
22611 23.7160 56.57 61.76 7.52
22612 23.7170 52.55 61.75 7.25
22613 23.7180 54.88 61.75 7.41
22614 23.7190 65.72 61.74 8.11
22615 23.7200 63.67 61.74 7.98
22616 23.7210 67.21 61.74 8.20
22617 23.7220 68.25 61.73 8.26
22618 23.7230 62.62 61.73 7.91
22619 23.7240 63.21 61.73 7.95
22620 23.7250 67.92 61.73 8.24
22621 23.7260 69.10 61.72 8.31
22622 23.7270 65.90 61.72 8.12
22623 23.7280 64.48 61.72 8.03
22624 23.7290 53.79 61.72 7.33
22625 23.7300 56.18 61.72 7.50
22626 23.7310 62.67 61.72 7.92
22627 23.7320 69.63 61.72 8.34
22628 23.7330 69.29 61.72 8.32
22629 23.7340 67.42 61.72 8.21
22630 23.7350 63.95 61.73 8.00
22631 23.7360 67.63 61.73 8.22
22632 23.7370 63.49 61.73 7.97
22633 23.7380 60.86 61.73 7.80
22634 23.7390 53.67 61.74 7.33
22635 23.7400 59.05 61.74 7.68
22636 23.7410 66.54 61.75 8.16
22637 23.7420 68.00 61.75 8.25
22638 23.7430 63.91 61.76 7.99
22639 23.7440 55.47 61.76 7.45
22640 23.7450 60.74 61.77 7.79
22641 23.7460 55.42 61.78 7.44
22642 23.7470 58.75 61.78 7.66
22643 23.7480 62.51 61.79 7.91
22644 23.7490 66.60 61.80 8.16
22645 23.7500 61.97 61.80 7.87
22646 23.7510 58.48 61.82 7.65
22647 23.7520 64.61 61.83 8.04
22648 23.7530 56.15 61.83 7.49
22649 23.7540 47.03 61.84 6.86
22650 23.7550 66.29 61.85 8.14
22651 23.7560 68.51 61.86 8.28
22652 23.7570 60.83 61.87 7.80
22653 23.7580 58.71 61.88 7.66
22654 23.7590 61.15 61.89 7.82
22655 23.7600 59.47 61.90 7.71
22656 23.7610 58.72 61.91 7.66
22657 23.7620 61.78 61.92 7.86
22658 23.7630 61.02 61.94 7.81
22659 23.7640 60.81 61.95 7.80
22660 23.7650 63.27 61.96 7.95
22661 23.7660 59.09 61.97 7.69
22662 23.7670 58.55 61.99 7.65
22663 23.7680 56.15 62.00 7.49
22664 23.7690 61.26 62.01 7.83
22665 23.7700 60.93 62.03 7.81
22666 23.7710 61.58 62.04 7.85
22667 23.7720 57.15 62.05 7.56
22668 23.7730 62.04 62.07 7.88
22669 23.7740 68.36 62.08 8.27
22670 23.7750 64.22 62.09 8.01
22671 23.7760 55.81 62.11 7.47
22672 23.7770 57.21 62.12 7.56
22673 23.7780 55.19 62.14 7.43
22674 23.7790 60.08 62.15 7.75
22675 23.7800 62.26 62.17 7.89
22676 23.7810 64.23 62.18 8.01
22677 23.7820 62.03 62.20 7.88
22678 23.7830 57.94 62.22 7.61
22679 23.7840 56.94 62.23 7.55
22680 23.7850 55.41 62.25 7.44
22681 23.7860 55.59 62.26 7.46
22682 23.7870 62.83 62.28 7.93
22683 23.7880 68.74 62.29 8.29
22684 23.7890 72.28 62.31 8.50
22685 23.7900 65.21 62.33 8.08
22686 23.7910 64.24 62.34 8.01
22687 23.7920 62.81 62.36 7.93
22688 23.7930 65.33 62.38 8.08
22689 23.7940 59.10 62.39 7.69
22690 23.7950 68.50 62.41 8.28
22691 23.7960 67.52 62.43 8.22
22692 23.7970 60.54 62.44 7.78
22693 23.7980 64.98 62.46 8.06
22694 23.7990 57.29 62.48 7.57
22695 23.8000 57.95 62.49 7.61
22696 23.8010 57.56 62.51 7.59
22697 23.8020 54.35 62.52 7.37
22698 23.8030 58.29 62.54 7.63
22699 23.8040 60.70 62.56 7.79
22700 23.8050 56.63 62.57 7.53
22701 23.8060 57.46 62.59 7.58
22702 23.8070 61.69 62.60 7.85
22703 23.8080 62.30 62.62 7.89
22704 23.8090 61.70 62.63 7.85
22705 23.8100 54.62 62.65 7.39
22706 23.8110 55.61 62.66 7.46
22707 23.8120 58.81 62.68 7.67
22708 23.8130 65.73 62.69 8.11
22709 23.8140 64.85 62.71 8.05
22710 23.8150 66.49 62.72 8.15
22711 23.8160 69.49 62.73 8.34
22712 23.8170 70.82 62.75 8.42
22713 23.8180 68.25 62.76 8.26
22714 23.8190 69.10 62.77 8.31
22715 23.8200 65.12 62.79 8.07
22716 23.8210 61.98 62.80 7.87
22717 23.8220 62.81 62.81 7.93
22718 23.8230 64.05 62.82 8.00
22719 23.8240 63.25 62.83 7.95
22720 23.8250 71.05 62.84 8.43
22721 23.8260 67.93 62.85 8.24
22722 23.8270 59.30 62.86 7.70
22723 23.8280 64.25 62.87 8.02
22724 23.8290 66.59 62.88 8.16
22725 23.8300 67.25 62.89 8.20
22726 23.8310 66.21 62.90 8.14
22727 23.8320 61.15 62.90 7.82
22728 23.8330 60.89 62.91 7.80
22729 23.8340 61.88 62.92 7.87
22730 23.8350 64.74 62.93 8.05
22731 23.8360 64.94 62.93 8.06
22732 23.8370 67.83 62.94 8.24
22733 23.8380 71.52 62.94 8.46
22734 23.8390 72.63 62.94 8.52
22735 23.8400 72.68 62.95 8.53
22736 23.8410 66.81 62.95 8.17
22737 23.8420 63.64 62.96 7.98
22738 23.8430 71.72 62.96 8.47
22739 23.8440 68.09 62.96 8.25
22740 23.8450 67.34 62.96 8.21
22741 23.8460 69.28 62.96 8.32
22742 23.8470 65.61 62.97 8.10
22743 23.8480 70.17 62.97 8.38
22744 23.8490 66.12 62.97 8.13
22745 23.8500 74.86 62.97 8.65
22746 23.8510 71.48 62.97 8.45
22747 23.8520 65.52 62.96 8.09
22748 23.8530 60.81 62.96 7.80
22749 23.8540 61.84 62.96 7.86
22750 23.8550 70.80 62.96 8.41
22751 23.8560 63.53 62.95 7.97
22752 23.8570 63.32 62.95 7.96
22753 23.8580 65.31 62.94 8.08
22754 23.8590 65.88 62.94 8.12
22755 23.8600 61.67 62.94 7.85
22756 23.8610 63.84 62.93 7.99
22757 23.8620 55.51 62.92 7.45
22758 23.8630 64.08 62.92 8.01
22759 23.8640 59.23 62.91 7.70
22760 23.8650 65.85 62.90 8.11
22761 23.8660 59.42 62.89 7.71
22762 23.8670 61.85 62.89 7.86
22763 23.8680 65.68 62.88 8.10
22764 23.8690 70.71 62.87 8.41
22765 23.8700 67.70 62.86 8.23
22766 23.8710 75.40 62.85 8.68
22767 23.8720 69.07 62.84 8.31
22768 23.8730 61.13 62.83 7.82
22769 23.8740 70.04 62.82 8.37
22770 23.8750 70.47 62.80 8.39
22771 23.8760 67.56 62.79 8.22
22772 23.8770 63.51 62.78 7.97
22773 23.8780 55.18 62.77 7.43
22774 23.8790 56.80 62.75 7.54
22775 23.8800 65.73 62.74 8.11
22776 23.8810 67.37 62.73 8.21
22777 23.8820 70.15 62.72 8.38
22778 23.8830 63.38 62.70 7.96
22779 23.8840 62.59 62.69 7.91
22780 23.8850 68.23 62.67 8.26
22781 23.8860 63.43 62.65 7.96
22782 23.8870 61.61 62.64 7.85
22783 23.8880 58.56 62.62 7.65
22784 23.8890 58.81 62.61 7.67
22785 23.8900 53.34 62.60 7.30
22786 23.8910 65.16 62.58 8.07
22787 23.8920 65.82 62.57 8.11
22788 23.8930 64.47 62.55 8.03
22789 23.8940 60.56 62.54 7.78
22790 23.8950 56.43 62.52 7.51
22791 23.8960 61.84 62.51 7.86
22792 23.8970 60.71 62.49 7.79
22793 23.8980 57.84 62.48 7.61
22794 23.8990 58.34 62.46 7.64
22795 23.9000 53.02 62.45 7.28
22796 23.9010 52.97 62.44 7.28
22797 23.9020 58.21 62.42 7.63
22798 23.9030 64.59 62.41 8.04
22799 23.9040 58.82 62.40 7.67
22800 23.9050 60.46 62.38 7.78
22801 23.9060 61.11 62.37 7.82
22802 23.9070 58.39 62.35 7.64
22803 23.9080 54.06 62.34 7.35
22804 23.9090 49.02 62.33 7.00
22805 23.9100 56.08 62.32 7.49
22806 23.9110 61.79 62.30 7.86
22807 23.9120 65.63 62.29 8.10
22808 23.9130 61.60 62.28 7.85
22809 23.9140 69.05 62.27 8.31
22810 23.9150 61.64 62.26 7.85
22811 23.9160 59.77 62.24 7.73
22812 23.9170 55.97 62.23 7.48
22813 23.9180 61.83 62.22 7.86
22814 23.9190 65.70 62.21 8.11
22815 23.9200 53.39 62.20 7.31
22816 23.9210 49.24 62.20 7.02
22817 23.9220 59.23 62.19 7.70
22818 23.9230 56.90 62.18 7.54
22819 23.9240 63.52 62.17 7.97
22820 23.9250 64.82 62.16 8.05
22821 23.9260 64.20 62.16 8.01
22822 23.9270 57.95 62.15 7.61
22823 23.9280 56.63 62.14 7.53
22824 23.9290 57.14 62.14 7.56
22825 23.9300 59.65 62.13 7.72
22826 23.9310 56.53 62.13 7.52
22827 23.9320 57.17 62.13 7.56
22828 23.9330 61.88 62.12 7.87
22829 23.9340 60.91 62.12 7.80
22830 23.9350 56.59 62.12 7.52
22831 23.9360 56.36 62.12 7.51
22832 23.9370 51.22 62.12 7.16
22833 23.9380 57.39 62.11 7.58
22834 23.9390 59.58 62.11 7.72
22835 23.9400 57.87 62.12 7.61
22836 23.9410 63.74 62.12 7.98
22837 23.9420 66.82 62.12 8.17
22838 23.9430 63.88 62.12 7.99
22839 23.9440 62.54 62.12 7.91
22840 23.9450 58.56 62.13 7.65
22841 23.9460 55.49 62.13 7.45
22842 23.9470 69.78 62.14 8.35
22843 23.9480 71.58 62.14 8.46
22844 23.9490 57.22 62.15 7.56
22845 23.9500 56.09 62.15 7.49
22846 23.9510 64.69 62.16 8.04
22847 23.9520 58.17 62.17 7.63
22848 23.9530 58.40 62.18 7.64
22849 23.9540 60.94 62.18 7.81
22850 23.9550 64.46 62.19 8.03
22851 23.9560 69.16 62.20 8.32
22852 23.9570 76.52 62.22 8.75
22853 23.9580 61.39 62.23 7.84
22854 23.9590 59.36 62.24 7.70
22855 23.9600 58.21 62.25 7.63
22856 23.9610 54.40 62.26 7.38
22857 23.9620 64.18 62.28 8.01
22858 23.9630 66.73 62.29 8.17
22859 23.9640 67.40 62.31 8.21
22860 23.9650 70.01 62.32 8.37
22861 23.9660 57.50 62.34 7.58
22862 23.9670 61.77 62.36 7.86
22863 23.9680 63.12 62.37 7.94
22864 23.9690 59.61 62.39 7.72
22865 23.9700 61.39 62.41 7.84
22866 23.9710 59.52 62.43 7.71
22867 23.9720 59.80 62.45 7.73
22868 23.9730 69.47 62.47 8.33
22869 23.9740 62.10 62.49 7.88
22870 23.9750 62.20 62.51 7.89
22871 23.9760 65.51 62.53 8.09
22872 23.9770 57.65 62.55 7.59
22873 23.9780 69.59 62.57 8.34
22874 23.9790 67.37 62.60 8.21
22875 23.9800 51.60 62.62 7.18
22876 23.9810 50.26 62.64 7.09
22877 23.9820 65.50 62.67 8.09
22878 23.9830 57.84 62.69 7.61
22879 23.9840 55.68 62.72 7.46
22880 23.9850 49.12 62.74 7.01
22881 23.9860 69.97 62.77 8.36
22882 23.9870 68.95 62.80 8.30
22883 23.9880 62.61 62.82 7.91
22884 23.9890 62.18 62.85 7.89
22885 23.9900 57.70 62.88 7.60
22886 23.9910 52.51 62.91 7.25
22887 23.9920 61.15 62.93 7.82
22888 23.9930 60.01 62.96 7.75
22889 23.9940 64.40 62.99 8.02
22890 23.9950 71.73 63.02 8.47
22891 23.9960 65.96 63.04 8.12
22892 23.9970 71.74 63.07 8.47
22893 23.9980 72.67 63.11 8.52
22894 23.9990 76.27 63.14 8.73
22895 24.0000 63.86 63.17 7.99
22896 24.0010 55.30 63.20 7.44
22897 24.0020 65.03 63.23 8.06
22898 24.0030 66.92 63.27 8.18
22899 24.0040 68.29 63.30 8.26
22900 24.0050 68.58 63.33 8.28
22901 24.0060 65.23 63.36 8.08
22902 24.0070 60.04 63.40 7.75
22903 24.0080 61.98 63.43 7.87
22904 24.0090 62.07 63.47 7.88
22905 24.0100 63.84 63.50 7.99
22906 24.0110 60.31 63.54 7.77
22907 24.0120 58.60 63.57 7.66
22908 24.0130 64.39 63.61 8.02
22909 24.0140 67.75 63.65 8.23
22910 24.0150 63.40 63.68 7.96
22911 24.0160 60.34 63.72 7.77
22912 24.0170 64.01 63.75 8.00
22913 24.0180 62.44 63.79 7.90
22914 24.0190 68.55 63.82 8.28
22915 24.0200 71.99 63.86 8.48
22916 24.0210 59.31 63.90 7.70
22917 24.0220 62.46 63.94 7.90
22918 24.0230 59.46 63.97 7.71
22919 24.0240 63.61 64.01 7.98
22920 24.0250 57.76 64.05 7.60
22921 24.0260 63.35 64.09 7.96
22922 24.0270 66.91 64.13 8.18
22923 24.0280 61.81 64.17 7.86
22924 24.0290 62.96 64.21 7.93
22925 24.0300 67.85 64.24 8.24
22926 24.0310 58.54 64.28 7.65
22927 24.0320 55.27 64.32 7.43
22928 24.0330 63.15 64.36 7.95
22929 24.0340 61.90 64.40 7.87
22930 24.0350 65.66 64.44 8.10
22931 24.0360 63.39 64.48 7.96
22932 24.0370 65.09 64.52 8.07
22933 24.0380 66.06 64.56 8.13
22934 24.0390 64.90 64.60 8.06
22935 24.0400 66.46 64.64 8.15
22936 24.0410 65.09 64.69 8.07
22937 24.0420 58.04 64.73 7.62
22938 24.0430 62.41 64.77 7.90
22939 24.0440 64.96 64.81 8.06
22940 24.0450 73.96 64.85 8.60
22941 24.0460 65.92 64.90 8.12
22942 24.0470 66.04 64.94 8.13
22943 24.0480 64.69 64.98 8.04
22944 24.0490 68.16 65.02 8.26
22945 24.0500 64.22 65.07 8.01
22946 24.0510 58.76 65.11 7.67
22947 24.0520 62.10 65.15 7.88
22948 24.0530 77.71 65.20 8.82
22949 24.0540 68.92 65.24 8.30
22950 24.0550 69.12 65.28 8.31
22951 24.0560 66.47 65.33 8.15
22952 24.0570 65.96 65.37 8.12
22953 24.0580 69.29 65.42 8.32
22954 24.0590 64.45 65.46 8.03
22955 24.0600 68.35 65.51 8.27
22956 24.0610 75.38 65.55 8.68
22957 24.0620 70.50 65.60 8.40
22958 24.0630 69.37 65.64 8.33
22959 24.0640 61.50 65.69 7.84
22960 24.0650 63.48 65.73 7.97
22961 24.0660 66.40 65.78 8.15
22962 24.0670 75.70 65.82 8.70
22963 24.0680 82.75 65.87 9.10
22964 24.0690 68.50 65.92 8.28
22965 24.0700 78.05 65.97 8.83
22966 24.0710 75.47 66.01 8.69
22967 24.0720 65.06 66.06 8.07
22968 24.0730 65.61 66.11 8.10
22969 24.0740 70.29 66.15 8.38
22970 24.0750 70.41 66.20 8.39
22971 24.0760 70.23 66.25 8.38
22972 24.0770 72.76 66.30 8.53
22973 24.0780 76.43 66.35 8.74
22974 24.0790 74.19 66.40 8.61
22975 24.0800 77.52 66.44 8.80
22976 24.0810 67.28 66.49 8.20
22977 24.0820 69.88 66.54 8.36
22978 24.0830 70.49 66.59 8.40
22979 24.0840 74.06 66.64 8.61
22980 24.0850 71.93 66.69 8.48
22981 24.0860 67.42 66.74 8.21
22982 24.0870 72.59 66.79 8.52
22983 24.0880 73.43 66.84 8.57
22984 24.0890 78.99 66.90 8.89
22985 24.0900 73.06 66.95 8.55
22986 24.0910 64.48 67.00 8.03
22987 24.0920 67.62 67.05 8.22
22988 24.0930 74.86 67.10 8.65
22989 24.0940 68.40 67.16 8.27
22990 24.0950 67.50 67.21 8.22
22991 24.0960 79.38 67.26 8.91
22992 24.0970 71.67 67.31 8.47
22993 24.0980 67.24 67.37 8.20
22994 24.0990 66.04 67.42 8.13
22995 24.1000 68.71 67.47 8.29
22996 24.1010 66.02 67.53 8.13
22997 24.1020 70.49 67.58 8.40
22998 24.1030 72.60 67.64 8.52
22999 24.1040 64.37 67.69 8.02
23000 24.1050 69.03 67.75 8.31
23001 24.1060 69.45 67.80 8.33
23002 24.1070 79.95 67.86 8.94
23003 24.1080 72.88 67.91 8.54
23004 24.1090 67.67 67.97 8.23
23005 24.1100 75.52 68.02 8.69
23006 24.1110 71.86 68.08 8.48
23007 24.1120 71.98 68.13 8.48
23008 24.1130 72.44 68.19 8.51
23009 24.1140 68.36 68.25 8.27
23010 24.1150 74.06 68.30 8.61
23011 24.1160 79.20 68.36 8.90
23012 24.1170 71.48 68.42 8.45
23013 24.1180 68.14 68.48 8.25
23014 24.1190 78.89 68.53 8.88
23015 24.1200 84.26 68.59 9.18
23016 24.1210 67.62 68.65 8.22
23017 24.1220 71.43 68.71 8.45
23018 24.1230 80.39 68.76 8.97
23019 24.1240 70.99 68.82 8.43
23020 24.1250 67.76 68.88 8.23
23021 24.1260 70.24 68.94 8.38
23022 24.1270 75.90 68.99 8.71
23023 24.1280 65.12 69.05 8.07
23024 24.1290 69.96 69.11 8.36
23025 24.1300 69.24 69.17 8.32
23026 24.1310 66.29 69.23 8.14
23027 24.1320 74.69 69.28 8.64
23028 24.1330 71.09 69.34 8.43
23029 24.1340 69.12 69.40 8.31
23030 24.1350 63.34 69.46 7.96
23031 24.1360 68.49 69.52 8.28
23032 24.1370 79.70 69.58 8.93
23033 24.1380 73.06 69.63 8.55
23034 24.1390 78.77 69.69 8.88
23035 24.1400 77.28 69.75 8.79
23036 24.1410 85.13 69.81 9.23
23037 24.1420 75.04 69.87 8.66
23038 24.1430 79.36 69.92 8.91
23039 24.1440 64.73 69.98 8.05
23040 24.1450 62.64 70.04 7.91
23041 24.1460 78.58 70.09 8.86
23042 24.1470 76.25 70.15 8.73
23043 24.1480 79.17 70.21 8.90
23044 24.1490 77.83 70.26 8.82
23045 24.1500 70.65 70.32 8.41
23046 24.1510 75.10 70.37 8.67
23047 24.1520 72.08 70.43 8.49
23048 24.1530 76.48 70.49 8.75
23049 24.1540 73.85 70.54 8.59
23050 24.1550 66.80 70.59 8.17
23051 24.1560 70.40 70.65 8.39
23052 24.1570 69.06 70.70 8.31
23053 24.1580 73.80 70.76 8.59
23054 24.1590 73.85 70.81 8.59
23055 24.1600 69.44 70.86 8.33
23056 24.1610 76.08 70.91 8.72
23057 24.1620 78.14 70.96 8.84
23058 24.1630 80.03 71.02 8.95
23059 24.1640 75.95 71.07 8.71
23060 24.1650 69.35 71.12 8.33
23061 24.1660 77.48 71.16 8.80
23062 24.1670 82.28 71.21 9.07
23063 24.1680 69.57 71.26 8.34
23064 24.1690 75.67 71.31 8.70
23065 24.1700 89.25 71.36 9.45
23066 24.1710 73.88 71.40 8.60
23067 24.1720 73.39 71.45 8.57
23068 24.1730 76.60 71.50 8.75
23069 24.1740 65.25 71.54 8.08
23070 24.1750 65.34 71.59 8.08
23071 24.1760 78.05 71.63 8.83
23072 24.1770 70.55 71.68 8.40
23073 24.1780 69.21 71.72 8.32
23074 24.1790 80.83 71.76 8.99
23075 24.1800 74.44 71.80 8.63
23076 24.1810 69.95 71.85 8.36
23077 24.1820 75.91 71.89 8.71
23078 24.1830 79.43 71.93 8.91
23079 24.1840 72.12 71.96 8.49
23080 24.1850 74.27 72.00 8.62
23081 24.1860 74.77 72.04 8.65
23082 24.1870 66.35 72.08 8.15
23083 24.1880 65.74 72.11 8.11
23084 24.1890 64.29 72.15 8.02
23085 24.1900 71.05 72.19 8.43
23086 24.1910 71.33 72.22 8.45
23087 24.1920 70.60 72.25 8.40
23088 24.1930 65.50 72.29 8.09
23089 24.1940 73.93 72.32 8.60
23090 24.1950 79.68 72.35 8.93
23091 24.1960 67.18 72.38 8.20
23092 24.1970 58.32 72.41 7.64
23093 24.1980 66.03 72.44 8.13
23094 24.1990 79.67 72.47 8.93
23095 24.2000 69.50 72.50 8.34
23096 24.2010 69.25 72.52 8.32
23097 24.2020 73.70 72.55 8.58
23098 24.2030 75.28 72.57 8.68
23099 24.2040 74.03 72.60 8.60
23100 24.2050 69.38 72.62 8.33
23101 24.2060 70.94 72.65 8.42
23102 24.2070 71.33 72.67 8.45
23103 24.2080 81.51 72.69 9.03
23104 24.2090 82.62 72.71 9.09
23105 24.2100 76.16 72.73 8.73
23106 24.2110 82.79 72.75 9.10
23107 24.2120 76.47 72.77 8.74
23108 24.2130 68.93 72.78 8.30
23109 24.2140 76.62 72.80 8.75
23110 24.2150 69.38 72.82 8.33
23111 24.2160 67.03 72.83 8.19
23112 24.2170 72.16 72.85 8.49
23113 24.2180 77.11 72.86 8.78
23114 24.2190 87.03 72.88 9.33
23115 24.2200 79.09 72.89 8.89
23116 24.2210 78.88 72.90 8.88
23117 24.2220 69.80 72.92 8.35
23118 24.2230 68.80 72.93 8.29
23119 24.2240 71.51 72.94 8.46
23120 24.2250 70.92 72.95 8.42
23121 24.2260 74.09 72.96 8.61
23122 24.2270 70.12 72.97 8.37
23123 24.2280 80.71 72.97 8.98
23124 24.2290 66.10 72.98 8.13
23125 24.2300 73.98 72.99 8.60
23126 24.2310 82.00 72.99 9.06
23127 24.2320 72.82 73.00 8.53
23128 24.2330 65.51 73.00 8.09
23129 24.2340 66.30 73.01 8.14
23130 24.2350 75.30 73.01 8.68
23131 24.2360 76.42 73.01 8.74
23132 24.2370 76.05 73.02 8.72
23133 24.2380 68.20 73.02 8.26
23134 24.2390 64.55 73.02 8.03
23135 24.2400 71.79 73.02 8.47
23136 24.2410 68.40 73.02 8.27
23137 24.2420 73.07 73.02 8.55
23138 24.2430 88.03 73.02 9.38
23139 24.2440 76.39 73.02 8.74
23140 24.2450 70.66 73.02 8.41
23141 24.2460 67.18 73.01 8.20
23142 24.2470 70.04 73.01 8.37
23143 24.2480 74.20 73.01 8.61
23144 24.2490 69.41 73.00 8.33
23145 24.2500 70.94 73.00 8.42
23146 24.2510 68.68 73.00 8.29
23147 24.2520 69.92 72.99 8.36
23148 24.2530 74.10 72.99 8.61
23149 24.2540 85.75 72.98 9.26
23150 24.2550 76.02 72.97 8.72
23151 24.2560 83.64 72.97 9.15
23152 24.2570 76.06 72.96 8.72
23153 24.2580 78.44 72.95 8.86
23154 24.2590 82.24 72.95 9.07
23155 24.2600 79.86 72.94 8.94
23156 24.2610 75.20 72.93 8.67
23157 24.2620 83.18 72.92 9.12
23158 24.2630 82.68 72.91 9.09
23159 24.2640 81.95 72.90 9.05
23160 24.2650 81.56 72.89 9.03
23161 24.2660 76.55 72.88 8.75
23162 24.2670 71.47 72.87 8.45
23163 24.2680 76.83 72.86 8.77
23164 24.2690 73.76 72.85 8.59
23165 24.2700 68.16 72.84 8.26
23166 24.2710 67.36 72.83 8.21
23167 24.2720 76.37 72.81 8.74
23168 24.2730 74.90 72.80 8.65
23169 24.2740 72.06 72.79 8.49
23170 24.2750 74.43 72.78 8.63
23171 24.2760 84.07 72.76 9.17
23172 24.2770 78.92 72.75 8.88
23173 24.2780 70.85 72.73 8.42
23174 24.2790 71.29 72.72 8.44
23175 24.2800 82.98 72.71 9.11
23176 24.2810 71.28 72.69 8.44
23177 24.2820 79.77 72.68 8.93
23178 24.2830 80.87 72.66 8.99
23179 24.2840 74.66 72.64 8.64
23180 24.2850 80.73 72.63 8.98
23181 24.2860 68.20 72.61 8.26
23182 24.2870 63.52 72.59 7.97
23183 24.2880 67.39 72.58 8.21
23184 24.2890 77.38 72.56 8.80
23185 24.2900 81.18 72.54 9.01
23186 24.2910 79.81 72.53 8.93
23187 24.2920 67.25 72.51 8.20
23188 24.2930 77.12 72.49 8.78
23189 24.2940 79.41 72.47 8.91
23190 24.2950 82.37 72.45 9.08
23191 24.2960 80.88 72.43 8.99
23192 24.2970 74.54 72.41 8.63
23193 24.2980 81.13 72.39 9.01
23194 24.2990 75.93 72.37 8.71
23195 24.3000 62.96 72.35 7.93
23196 24.3010 64.89 72.33 8.06
23197 24.3020 74.13 72.31 8.61
23198 24.3030 76.25 72.29 8.73
23199 24.3040 80.77 72.27 8.99
23200 24.3050 81.97 72.25 9.05
23201 24.3060 82.45 72.23 9.08
23202 24.3070 73.98 72.20 8.60
23203 24.3080 76.18 72.18 8.73
23204 24.3090 72.57 72.16 8.52
23205 24.3100 81.22 72.14 9.01
23206 24.3110 72.38 72.11 8.51
23207 24.3120 80.44 72.09 8.97
23208 24.3130 76.65 72.06 8.76
23209 24.3140 73.21 72.04 8.56
23210 24.3150 75.90 72.01 8.71
23211 24.3160 77.49 71.99 8.80
23212 24.3170 67.87 71.96 8.24
23213 24.3180 67.62 71.94 8.22
23214 24.3190 69.94 71.91 8.36
23215 24.3200 70.25 71.88 8.38
23216 24.3210 86.13 71.85 9.28
23217 24.3220 74.65 71.83 8.64
23218 24.3230 80.92 71.80 9.00
23219 24.3240 78.13 71.77 8.84
23220 24.3250 73.27 71.74 8.56
23221 24.3260 78.01 71.71 8.83
23222 24.3270 71.44 71.68 8.45
23223 24.3280 73.73 71.65 8.59
23224 24.3290 75.79 71.62 8.71
23225 24.3300 67.54 71.59 8.22
23226 24.3310 73.57 71.56 8.58
23227 24.3320 87.76 71.53 9.37
23228 24.3330 80.22 71.50 8.96
23229 24.3340 69.73 71.46 8.35
23230 24.3350 70.40 71.43 8.39
23231 24.3360 77.03 71.39 8.78
23232 24.3370 72.41 71.36 8.51
23233 24.3380 75.62 71.33 8.70
23234 24.3390 70.59 71.29 8.40
23235 24.3400 67.59 71.26 8.22
23236 24.3410 78.96 71.22 8.89
23237 24.3420 73.58 71.19 8.58
23238 24.3430 71.95 71.15 8.48
23239 24.3440 70.04 71.12 8.37
23240 24.3450 69.80 71.08 8.35
23241 24.3460 69.40 71.04 8.33
23242 24.3470 70.34 71.01 8.39
23243 24.3480 71.19 70.97 8.44
23244 24.3490 67.04 70.93 8.19
23245 24.3500 65.66 70.89 8.10
23246 24.3510 70.25 70.86 8.38
23247 24.3520 78.34 70.82 8.85
23248 24.3530 81.72 70.78 9.04
23249 24.3540 76.80 70.74 8.76
23250 24.3550 58.99 70.70 7.68
23251 24.3560 65.29 70.66 8.08
23252 24.3570 69.54 70.62 8.34
23253 24.3580 73.60 70.57 8.58
23254 24.3590 73.06 70.53 8.55
23255 24.3600 69.69 70.49 8.35
23256 24.3610 73.11 70.45 8.55
23257 24.3620 72.15 70.41 8.49
23258 24.3630 67.37 70.37 8.21
23259 24.3640 61.60 70.33 7.85
23260 24.3650 77.86 70.29 8.82
23261 24.3660 71.59 70.24 8.46
23262 24.3670 80.98 70.20 9.00
23263 24.3680 72.01 70.16 8.49
23264 24.3690 61.14 70.12 7.82
23265 24.3700 64.87 70.07 8.05
23266 24.3710 72.54 70.03 8.52
23267 24.3720 70.73 69.99 8.41
23268 24.3730 73.94 69.94 8.60
23269 24.3740 70.32 69.90 8.39
23270 24.3750 64.31 69.86 8.02
23271 24.3760 64.72 69.81 8.04
23272 24.3770 69.83 69.77 8.36
23273 24.3780 72.20 69.73 8.50
23274 24.3790 74.40 69.68 8.63
23275 24.3800 71.21 69.64 8.44
23276 24.3810 68.31 69.59 8.26
23277 24.3820 70.85 69.55 8.42
23278 24.3830 72.78 69.50 8.53
23279 24.3840 63.66 69.46 7.98
23280 24.3850 78.85 69.41 8.88
23281 24.3860 68.31 69.37 8.26
23282 24.3870 65.30 69.33 8.08
23283 24.3880 76.63 69.28 8.75
23284 24.3890 71.21 69.24 8.44
23285 24.3900 69.15 69.19 8.32
23286 24.3910 74.62 69.15 8.64
23287 24.3920 61.28 69.10 7.83
23288 24.3930 56.96 69.06 7.55
23289 24.3940 59.23 69.02 7.70
23290 24.3950 60.05 68.97 7.75
23291 24.3960 60.65 68.93 7.79
23292 24.3970 60.68 68.88 7.79
23293 24.3980 73.56 68.84 8.58
23294 24.3990 66.14 68.80 8.13
23295 24.4000 65.26 68.75 8.08
23296 24.4010 63.37 68.71 7.96
23297 24.4020 55.25 68.67 7.43
23298 24.4030 60.53 68.62 7.78
23299 24.4040 68.48 68.58 8.28
23300 24.4050 76.09 68.54 8.72
23301 24.4060 61.01 68.49 7.81
23302 24.4070 60.54 68.45 7.78
23303 24.4080 64.69 68.41 8.04
23304 24.4090 71.42 68.36 8.45
23305 24.4100 68.55 68.32 8.28
23306 24.4110 60.38 68.28 7.77
23307 24.4120 70.05 68.24 8.37
23308 24.4130 73.49 68.19 8.57
23309 24.4140 76.69 68.15 8.76
23310 24.4150 72.91 68.11 8.54
23311 24.4160 65.45 68.07 8.09
23312 24.4170 68.24 68.03 8.26
23313 24.4180 62.90 67.99 7.93
23314 24.4190 63.47 67.94 7.97
23315 24.4200 66.70 67.90 8.17
23316 24.4210 60.51 67.86 7.78
23317 24.4220 59.23 67.82 7.70
23318 24.4230 65.34 67.78 8.08
23319 24.4240 64.30 67.74 8.02
23320 24.4250 65.52 67.70 8.09
23321 24.4260 66.78 67.66 8.17
23322 24.4270 75.33 67.62 8.68
23323 24.4280 66.04 67.58 8.13
23324 24.4290 68.47 67.54 8.27
23325 24.4300 73.07 67.50 8.55
23326 24.4310 66.20 67.46 8.14
23327 24.4320 60.04 67.43 7.75
23328 24.4330 66.61 67.39 8.16
23329 24.4340 76.25 67.35 8.73
23330 24.4350 62.66 67.31 7.92
23331 24.4360 65.51 67.27 8.09
23332 24.4370 71.11 67.23 8.43
23333 24.4380 73.42 67.20 8.57
23334 24.4390 71.26 67.16 8.44
23335 24.4400 79.47 67.12 8.91
23336 24.4410 74.55 67.08 8.63
23337 24.4420 68.67 67.05 8.29
23338 24.4430 71.15 67.01 8.44
23339 24.4440 58.59 66.97 7.65
23340 24.4450 63.91 66.94 7.99
23341 24.4460 70.06 66.90 8.37
23342 24.4470 67.78 66.86 8.23
23343 24.4480 73.61 66.83 8.58
23344 24.4490 66.74 66.79 8.17
23345 24.4500 69.22 66.76 8.32
23346 24.4510 71.90 66.72 8.48
23347 24.4520 65.50 66.69 8.09
23348 24.4530 63.39 66.65 7.96
23349 24.4540 68.42 66.61 8.27
23350 24.4550 60.81 66.58 7.80
23351 24.4560 61.48 66.55 7.84
23352 24.4570 76.76 66.51 8.76
23353 24.4580 71.31 66.48 8.44
23354 24.4590 70.94 66.44 8.42
23355 24.4600 66.03 66.41 8.13
23356 24.4610 67.48 66.38 8.21
23357 24.4620 66.57 66.35 8.16
23358 24.4630 62.83 66.31 7.93
23359 24.4640 67.96 66.28 8.24
23360 24.4650 66.68 66.25 8.17
23361 24.4660 73.36 66.21 8.57
23362 24.4670 73.39 66.18 8.57
23363 24.4680 69.64 66.15 8.35
23364 24.4690 65.59 66.12 8.10
23365 24.4700 69.50 66.09 8.34
23366 24.4710 67.63 66.06 8.22
23367 24.4720 70.67 66.03 8.41
23368 24.4730 67.89 66.00 8.24
23369 24.4740 64.82 65.97 8.05
23370 24.4750 67.56 65.94 8.22
23371 24.4760 68.34 65.91 8.27
23372 24.4770 69.67 65.88 8.35
23373 24.4780 64.19 65.85 8.01
23374 24.4790 69.73 65.82 8.35
23375 24.4800 65.29 65.79 8.08
23376 24.4810 61.89 65.76 7.87
23377 24.4820 58.49 65.73 7.65
23378 24.4830 63.36 65.70 7.96
23379 24.4840 59.68 65.67 7.73
23380 24.4850 58.52 65.65 7.65
23381 24.4860 64.80 65.62 8.05
23382 24.4870 62.61 65.59 7.91
23383 24.4880 64.53 65.56 8.03
23384 24.4890 65.67 65.54 8.10
23385 24.4900 64.36 65.51 8.02
23386 24.4910 70.74 65.48 8.41
23387 24.4920 64.44 65.46 8.03
23388 24.4930 67.21 65.43 8.20
23389 24.4940 69.87 65.40 8.36
23390 24.4950 64.39 65.38 8.02
23391 24.4960 62.44 65.35 7.90
23392 24.4970 66.46 65.33 8.15
23393 24.4980 74.31 65.30 8.62
23394 24.4990 74.12 65.28 8.61
23395 24.5000 63.31 65.25 7.96
23396 24.5010 58.90 65.23 7.67
23397 24.5020 63.71 65.20 7.98
23398 24.5030 62.34 65.18 7.90
23399 24.5040 57.73 65.16 7.60
23400 24.5050 66.19 65.13 8.14
23401 24.5060 69.16 65.11 8.32
23402 24.5070 64.14 65.09 8.01
23403 24.5080 66.26 65.07 8.14
23404 24.5090 66.78 65.04 8.17
23405 24.5100 64.77 65.02 8.05
23406 24.5110 69.16 65.00 8.32
23407 24.5120 67.08 64.98 8.19
23408 24.5130 68.30 64.95 8.26
23409 24.5140 60.61 64.93 7.79
23410 24.5150 57.23 64.91 7.57
23411 24.5160 64.39 64.89 8.02
23412 24.5170 54.77 64.87 7.40
23413 24.5180 65.52 64.85 8.09
23414 24.5190 73.27 64.83 8.56
23415 24.5200 61.51 64.81 7.84
23416 24.5210 55.99 64.79 7.48
23417 24.5220 57.73 64.77 7.60
23418 24.5230 56.54 64.75 7.52
23419 24.5240 69.21 64.73 8.32
23420 24.5250 72.35 64.71 8.51
23421 24.5260 63.56 64.69 7.97
23422 24.5270 54.92 64.67 7.41
23423 24.5280 53.52 64.65 7.32
23424 24.5290 59.27 64.63 7.70
23425 24.5300 57.60 64.62 7.59
23426 24.5310 59.18 64.60 7.69
23427 24.5320 56.18 64.58 7.50
23428 24.5330 64.50 64.56 8.03
23429 24.5340 62.11 64.54 7.88
23430 24.5350 58.94 64.52 7.68
23431 24.5360 59.38 64.51 7.71
23432 24.5370 58.72 64.49 7.66
23433 24.5380 61.73 64.47 7.86
23434 24.5390 64.87 64.46 8.05
23435 24.5400 61.69 64.44 7.85
23436 24.5410 58.03 64.43 7.62
23437 24.5420 60.95 64.41 7.81
23438 24.5430 61.82 64.39 7.86
23439 24.5440 66.96 64.38 8.18
23440 24.5450 68.65 64.36 8.29
23441 24.5460 64.62 64.35 8.04
23442 24.5470 60.03 64.33 7.75
23443 24.5480 61.90 64.32 7.87
23444 24.5490 58.59 64.30 7.65
23445 24.5500 56.48 64.29 7.52
23446 24.5510 57.83 64.28 7.60
23447 24.5520 61.03 64.26 7.81
23448 24.5530 65.88 64.25 8.12
23449 24.5540 59.06 64.23 7.69
23450 24.5550 60.37 64.22 7.77
23451 24.5560 55.40 64.21 7.44
23452 24.5570 60.30 64.19 7.77
23453 24.5580 64.16 64.18 8.01
23454 24.5590 58.85 64.17 7.67
23455 24.5600 57.60 64.16 7.59
23456 24.5610 63.48 64.14 7.97
23457 24.5620 63.71 64.13 7.98
23458 24.5630 59.54 64.12 7.72
23459 24.5640 70.11 64.11 8.37
23460 24.5650 68.08 64.10 8.25
23461 24.5660 61.71 64.08 7.86
23462 24.5670 66.74 64.07 8.17
23463 24.5680 59.40 64.06 7.71
23464 24.5690 52.08 64.05 7.22
23465 24.5700 50.10 64.04 7.08
23466 24.5710 51.45 64.03 7.17
23467 24.5720 61.44 64.02 7.84
23468 24.5730 66.06 64.01 8.13
23469 24.5740 59.43 64.00 7.71
23470 24.5750 56.77 63.99 7.53
23471 24.5760 59.92 63.99 7.74
23472 24.5770 57.91 63.98 7.61
23473 24.5780 61.59 63.97 7.85
23474 24.5790 58.60 63.96 7.66
23475 24.5800 61.15 63.95 7.82
23476 24.5810 66.71 63.94 8.17
23477 24.5820 62.50 63.94 7.91
23478 24.5830 58.59 63.93 7.65
23479 24.5840 60.87 63.92 7.80
23480 24.5850 61.79 63.92 7.86
23481 24.5860 69.86 63.91 8.36
23482 24.5870 65.88 63.90 8.12
23483 24.5880 61.99 63.90 7.87
23484 24.5890 58.20 63.89 7.63
23485 24.5900 63.02 63.88 7.94
23486 24.5910 60.01 63.88 7.75
23487 24.5920 58.18 63.87 7.63
23488 24.5930 67.99 63.87 8.25
23489 24.5940 65.29 63.86 8.08
23490 24.5950 61.00 63.86 7.81
23491 24.5960 63.84 63.85 7.99
23492 24.5970 67.67 63.85 8.23
23493 24.5980 71.65 63.84 8.46
23494 24.5990 70.64 63.84 8.40
23495 24.6000 66.31 63.83 8.14
23496 24.6010 68.89 63.83 8.30
23497 24.6020 60.88 63.83 7.80
23498 24.6030 55.30 63.83 7.44
23499 24.6040 53.45 63.82 7.31
23500 24.6050 70.95 63.82 8.42
23501 24.6060 69.73 63.82 8.35
23502 24.6070 62.16 63.82 7.88
23503 24.6080 52.25 63.81 7.23
23504 24.6090 58.35 63.81 7.64
23505 24.6100 64.00 63.81 8.00
23506 24.6110 54.35 63.81 7.37
23507 24.6120 59.49 63.81 7.71
23508 24.6130 65.37 63.81 8.09
23509 24.6140 62.80 63.81 7.92
23510 24.6150 68.33 63.81 8.27
23511 24.6160 67.09 63.81 8.19
23512 24.6170 61.45 63.81 7.84
23513 24.6180 67.80 63.81 8.23
23514 24.6190 60.32 63.81 7.77
23515 24.6200 61.08 63.81 7.82
23516 24.6210 67.35 63.81 8.21
23517 24.6220 65.48 63.81 8.09
23518 24.6230 74.33 63.81 8.62
23519 24.6240 68.67 63.81 8.29
23520 24.6250 63.09 63.82 7.94
23521 24.6260 61.42 63.82 7.84
23522 24.6270 49.49 63.82 7.03
23523 24.6280 52.64 63.82 7.26
23524 24.6290 62.25 63.82 7.89
23525 24.6300 64.17 63.83 8.01
23526 24.6310 61.14 63.83 7.82
23527 24.6320 64.50 63.83 8.03
23528 24.6330 62.22 63.83 7.89
23529 24.6340 63.19 63.84 7.95
23530 24.6350 67.08 63.84 8.19
23531 24.6360 68.60 63.84 8.28
23532 24.6370 68.43 63.85 8.27
23533 24.6380 71.24 63.85 8.44
23534 24.6390 62.15 63.85 7.88
23535 24.6400 65.12 63.86 8.07
23536 24.6410 71.89 63.86 8.48
23537 24.6420 72.77 63.87 8.53
23538 24.6430 66.09 63.87 8.13
23539 24.6440 66.58 63.87 8.16
23540 24.6450 63.63 63.88 7.98
23541 24.6460 63.11 63.88 7.94
23542 24.6470 64.58 63.89 8.04
23543 24.6480 70.59 63.89 8.40
23544 24.6490 64.21 63.90 8.01
23545 24.6500 54.06 63.90 7.35
23546 24.6510 68.65 63.91 8.29
23547 24.6520 67.46 63.91 8.21
23548 24.6530 67.05 63.92 8.19
23549 24.6540 72.52 63.92 8.52
23550 24.6550 64.89 63.93 8.06
23551 24.6560 56.65 63.93 7.53
23552 24.6570 57.90 63.94 7.61
23553 24.6580 62.74 63.94 7.92
23554 24.6590 59.61 63.95 7.72
23555 24.6600 67.21 63.95 8.20
23556 24.6610 72.15 63.96 8.49
23557 24.6620 68.49 63.96 8.28
23558 24.6630 60.86 63.97 7.80
23559 24.6640 55.56 63.97 7.45
23560 24.6650 64.94 63.98 8.06
23561 24.6660 61.48 63.98 7.84
23562 24.6670 72.33 63.99 8.50
23563 24.6680 66.26 63.99 8.14
23564 24.6690 67.81 64.00 8.23
23565 24.6700 65.42 64.00 8.09
23566 24.6710 69.45 64.01 8.33
23567 24.6720 68.89 64.01 8.30
23568 24.6730 66.58 64.01 8.16
23569 24.6740 59.55 64.02 7.72
23570 24.6750 61.98 64.02 7.87
23571 24.6760 59.95 64.03 7.74
23572 24.6770 63.36 64.03 7.96
23573 24.6780 74.40 64.03 8.63
23574 24.6790 70.87 64.04 8.42
23575 24.6800 59.40 64.04 7.71
23576 24.6810 63.83 64.04 7.99
23577 24.6820 66.36 64.05 8.15
23578 24.6830 67.06 64.05 8.19
23579 24.6840 71.99 64.05 8.48
23580 24.6850 70.36 64.05 8.39
23581 24.6860 57.71 64.06 7.60
23582 24.6870 64.41 64.06 8.03
23583 24.6880 70.66 64.06 8.41
23584 24.6890 70.55 64.06 8.40
23585 24.6900 62.18 64.06 7.89
23586 24.6910 72.38 64.06 8.51
23587 24.6920 61.89 64.06 7.87
23588 24.6930 64.97 64.06 8.06
23589 24.6940 65.57 64.06 8.10
23590 24.6950 62.46 64.06 7.90
23591 24.6960 67.37 64.06 8.21
23592 24.6970 77.83 64.06 8.82
23593 24.6980 66.55 64.06 8.16
23594 24.6990 59.74 64.06 7.73
23595 24.7000 61.26 64.06 7.83
23596 24.7010 70.33 64.06 8.39
23597 24.7020 77.13 64.06 8.78
23598 24.7030 70.41 64.06 8.39
23599 24.7040 62.90 64.06 7.93
23600 24.7050 66.81 64.06 8.17
23601 24.7060 66.84 64.05 8.18
23602 24.7070 68.99 64.05 8.31
23603 24.7080 68.17 64.05 8.26
23604 24.7090 70.99 64.04 8.43
23605 24.7100 71.80 64.04 8.47
23606 24.7110 74.73 64.04 8.64
23607 24.7120 67.48 64.03 8.21
23608 24.7130 63.23 64.03 7.95
23609 24.7140 66.03 64.02 8.13
23610 24.7150 62.77 64.02 7.92
23611 24.7160 68.11 64.02 8.25
23612 24.7170 63.87 64.01 7.99
23613 24.7180 55.35 64.00 7.44
23614 24.7190 62.46 64.00 7.90
23615 24.7200 57.12 63.99 7.56
23616 24.7210 72.21 63.99 8.50
23617 24.7220 68.14 63.98 8.25
23618 24.7230 63.45 63.97 7.97
23619 24.7240 69.62 63.97 8.34
23620 24.7250 68.73 63.96 8.29
23621 24.7260 71.06 63.95 8.43
23622 24.7270 75.16 63.94 8.67
23623 24.7280 68.67 63.94 8.29
23624 24.7290 57.43 63.93 7.58
23625 24.7300 69.13 63.92 8.31
23626 24.7310 62.32 63.91 7.89
23627 24.7320 70.19 63.90 8.38
23628 24.7330 71.89 63.89 8.48
23629 24.7340 62.30 63.88 7.89
23630 24.7350 70.89 63.87 8.42
23631 24.7360 76.00 63.86 8.72
23632 24.7370 73.83 63.85 8.59
23633 24.7380 67.70 63.84 8.23
23634 24.7390 70.41 63.83 8.39
23635 24.7400 72.66 63.82 8.52
23636 24.7410 72.01 63.81 8.49
23637 24.7420 67.49 63.79 8.22
23638 24.7430 59.13 63.78 7.69
23639 24.7440 60.00 63.77 7.75
23640 24.7450 66.46 63.76 8.15
23641 24.7460 62.17 63.75 7.88
23642 24.7470 67.80 63.73 8.23
23643 24.7480 70.03 63.72 8.37
23644 24.7490 66.04 63.71 8.13
23645 24.7500 64.00 63.69 8.00
23646 24.7510 64.14 63.68 8.01
23647 24.7520 53.05 63.67 7.28
23648 24.7530 60.78 63.65 7.80
23649 24.7540 69.37 63.64 8.33
23650 24.7550 72.18 63.62 8.50
23651 24.7560 63.41 63.61 7.96
23652 24.7570 57.24 63.59 7.57
23653 24.7580 65.23 63.58 8.08
23654 24.7590 67.32 63.56 8.20
23655 24.7600 75.54 63.54 8.69
23656 24.7610 72.12 63.53 8.49
23657 24.7620 57.93 63.51 7.61
23658 24.7630 63.69 63.50 7.98
23659 24.7640 65.36 63.48 8.08
23660 24.7650 65.38 63.46 8.09
23661 24.7660 56.56 63.45 7.52
23662 24.7670 64.58 63.43 8.04
23663 24.7680 64.86 63.41 8.05
23664 24.7690 74.20 63.39 8.61
23665 24.7700 69.58 63.38 8.34
23666 24.7710 67.48 63.36 8.21
23667 24.7720 70.41 63.34 8.39
23668 24.7730 64.85 63.32 8.05
23669 24.7740 55.96 63.30 7.48
23670 24.7750 62.17 63.28 7.88
23671 24.7760 55.26 63.26 7.43
23672 24.7770 66.04 63.24 8.13
23673 24.7780 70.11 63.23 8.37
23674 24.7790 63.46 63.21 7.97
23675 24.7800 60.21 63.19 7.76
23676 24.7810 63.23 63.17 7.95
23677 24.7820 68.80 63.15 8.29
23678 24.7830 64.21 63.13 8.01
23679 24.7840 70.22 63.11 8.38
23680 24.7850 65.93 63.09 8.12
23681 24.7860 64.44 63.07 8.03
23682 24.7870 58.02 63.04 7.62
23683 24.7880 69.99 63.02 8.37
23684 24.7890 56.66 63.00 7.53
23685 24.7900 61.31 62.98 7.83
23686 24.7910 61.70 62.96 7.85
23687 24.7920 72.06 62.94 8.49
23688 24.7930 65.31 62.92 8.08
23689 24.7940 62.51 62.90 7.91
23690 24.7950 62.09 62.87 7.88
23691 24.7960 53.59 62.85 7.32
23692 24.7970 56.84 62.83 7.54
23693 24.7980 60.65 62.81 7.79
23694 24.7990 69.75 62.78 8.35
23695 24.8000 70.09 62.76 8.37
23696 24.8010 61.03 62.74 7.81
23697 24.8020 59.51 62.72 7.71
23698 24.8030 64.36 62.69 8.02
23699 24.8040 60.92 62.67 7.81
23700 24.8050 47.06 62.65 6.86
23701 24.8060 52.10 62.62 7.22
23702 24.8070 57.30 62.60 7.57
23703 24.8080 60.15 62.58 7.76
23704 24.8090 62.69 62.55 7.92
23705 24.8100 62.37 62.53 7.90
23706 24.8110 58.92 62.50 7.68
23707 24.8120 53.59 62.48 7.32
23708 24.8130 58.94 62.46 7.68
23709 24.8140 56.91 62.43 7.54
23710 24.8150 59.51 62.41 7.71
23711 24.8160 71.30 62.38 8.44
23712 24.8170 71.69 62.36 8.47
23713 24.8180 64.73 62.33 8.05
23714 24.8190 56.74 62.31 7.53
23715 24.8200 56.77 62.29 7.53
23716 24.8210 56.66 62.26 7.53
23717 24.8220 62.45 62.24 7.90
23718 24.8230 61.90 62.21 7.87
23719 24.8240 61.78 62.19 7.86
23720 24.8250 62.25 62.16 7.89
23721 24.8260 68.48 62.13 8.28
23722 24.8270 68.59 62.11 8.28
23723 24.8280 57.61 62.08 7.59
23724 24.8290 60.40 62.06 7.77
23725 24.8300 61.37 62.03 7.83
23726 24.8310 61.96 62.01 7.87
23727 24.8320 63.05 61.98 7.94
23728 24.8330 54.76 61.96 7.40
23729 24.8340 59.80 61.93 7.73
23730 24.8350 63.12 61.91 7.94
23731 24.8360 55.93 61.88 7.48
23732 24.8370 60.74 61.86 7.79
23733 24.8380 60.94 61.83 7.81
23734 24.8390 58.21 61.81 7.63
23735 24.8400 55.30 61.79 7.44
23736 24.8410 55.46 61.76 7.45
23737 24.8420 62.53 61.74 7.91
23738 24.8430 55.64 61.72 7.46
23739 24.8440 57.02 61.69 7.55
23740 24.8450 59.03 61.67 7.68
23741 24.8460 60.38 61.64 7.77
23742 24.8470 59.57 61.62 7.72
23743 24.8480 57.91 61.60 7.61
23744 24.8490 52.97 61.57 7.28
23745 24.8500 63.73 61.55 7.98
23746 24.8510 60.30 61.53 7.77
23747 24.8520 57.73 61.51 7.60
23748 24.8530 56.50 61.48 7.52
23749 24.8540 65.23 61.46 8.08
23750 24.8550 63.82 61.44 7.99
23751 24.8560 52.21 61.42 7.23
23752 24.8570 55.65 61.40 7.46
23753 24.8580 58.98 61.38 7.68
23754 24.8590 63.14 61.35 7.95
23755 24.8600 63.17 61.33 7.95
23756 24.8610 52.45 61.31 7.24
23757 24.8620 53.39 61.29 7.31
23758 24.8630 63.15 61.27 7.95
23759 24.8640 58.58 61.25 7.65
23760 24.8650 60.38 61.23 7.77
23761 24.8660 61.98 61.21 7.87
23762 24.8670 69.90 61.19 8.36
23763 24.8680 72.82 61.17 8.53
23764 24.8690 68.37 61.16 8.27
23765 24.8700 61.05 61.14 7.81
23766 24.8710 57.63 61.12 7.59
23767 24.8720 67.24 61.10 8.20
23768 24.8730 56.58 61.08 7.52
23769 24.8740 54.82 61.06 7.40
23770 24.8750 56.96 61.05 7.55
23771 24.8760 61.09 61.03 7.82
23772 24.8770 62.82 61.01 7.93
23773 24.8780 64.82 61.00 8.05
23774 24.8790 58.20 60.98 7.63
23775 24.8800 62.54 60.97 7.91
23776 24.8810 61.23 60.95 7.82
23777 24.8820 57.15 60.93 7.56
23778 24.8830 51.19 60.92 7.15
23779 24.8840 60.54 60.90 7.78
23780 24.8850 61.81 60.89 7.86
23781 24.8860 67.79 60.88 8.23
23782 24.8870 60.73 60.86 7.79
23783 24.8880 60.68 60.85 7.79
23784 24.8890 66.74 60.84 8.17
23785 24.8900 56.49 60.82 7.52
23786 24.8910 59.98 60.81 7.74
23787 24.8920 64.73 60.80 8.05
23788 24.8930 61.07 60.78 7.81
23789 24.8940 70.67 60.77 8.41
23790 24.8950 64.45 60.76 8.03
23791 24.8960 59.24 60.75 7.70
23792 24.8970 72.01 60.74 8.49
23793 24.8980 61.32 60.73 7.83
23794 24.8990 55.49 60.72 7.45
23795 24.9000 59.25 60.71 7.70
23796 24.9010 60.01 60.70 7.75
23797 24.9020 59.55 60.69 7.72
23798 24.9030 55.93 60.68 7.48
23799 24.9040 58.26 60.67 7.63
23800 24.9050 56.89 60.66 7.54
23801 24.9060 54.52 60.65 7.38
23802 24.9070 55.50 60.64 7.45
23803 24.9080 62.24 60.63 7.89
23804 24.9090 61.49 60.62 7.84
23805 24.9100 64.55 60.61 8.03
23806 24.9110 59.30 60.60 7.70
23807 24.9120 60.25 60.60 7.76
23808 24.9130 63.79 60.59 7.99
23809 24.9140 65.19 60.58 8.07
23810 24.9150 63.72 60.57 7.98
23811 24.9160 65.25 60.57 8.08
23812 24.9170 60.33 60.56 7.77
23813 24.9180 69.14 60.55 8.32
23814 24.9190 61.85 60.55 7.86
23815 24.9200 64.89 60.54 8.06
23816 24.9210 56.58 60.53 7.52
23817 24.9220 60.38 60.53 7.77
23818 24.9230 63.63 60.52 7.98
23819 24.9240 62.73 60.51 7.92
23820 24.9250 66.62 60.51 8.16
23821 24.9260 64.19 60.50 8.01
23822 24.9270 76.58 60.50 8.75
23823 24.9280 69.18 60.49 8.32
23824 24.9290 59.57 60.49 7.72
23825 24.9300 45.74 60.48 6.76
23826 24.9310 47.61 60.48 6.90
23827 24.9320 61.06 60.47 7.81
23828 24.9330 54.48 60.47 7.38
23829 24.9340 63.75 60.46 7.98
23830 24.9350 67.53 60.46 8.22
23831 24.9360 62.30 60.45 7.89
23832 24.9370 61.61 60.45 7.85
23833 24.9380 58.97 60.44 7.68
23834 24.9390 56.51 60.44 7.52
23835 24.9400 57.10 60.43 7.56
23836 24.9410 62.57 60.43 7.91
23837 24.9420 58.83 60.42 7.67
23838 24.9430 61.18 60.42 7.82
23839 24.9440 53.39 60.41 7.31
23840 24.9450 62.69 60.41 7.92
23841 24.9460 61.91 60.40 7.87
23842 24.9470 58.26 60.40 7.63
23843 24.9480 63.80 60.40 7.99
23844 24.9490 63.68 60.39 7.98
23845 24.9500 57.93 60.39 7.61
23846 24.9510 65.90 60.38 8.12
23847 24.9520 68.51 60.38 8.28
23848 24.9530 65.90 60.37 8.12
23849 24.9540 66.65 60.37 8.16
23850 24.9550 66.14 60.36 8.13
23851 24.9560 56.33 60.36 7.51
23852 24.9570 59.12 60.35 7.69
23853 24.9580 67.90 60.35 8.24
23854 24.9590 63.77 60.35 7.99
23855 24.9600 55.81 60.34 7.47
23856 24.9610 64.73 60.34 8.05
23857 24.9620 60.50 60.33 7.78
23858 24.9630 64.40 60.33 8.02
23859 24.9640 68.75 60.31 8.29
23860 24.9650 63.57 60.31 7.97
23861 24.9660 63.85 60.30 7.99
23862 24.9670 65.55 60.30 8.10
23863 24.9680 59.96 60.29 7.74
23864 24.9690 54.11 60.28 7.36
23865 24.9700 50.27 60.28 7.09
23866 24.9710 54.64 60.27 7.39
23867 24.9720 70.00 60.27 8.37
23868 24.9730 66.65 60.26 8.16
23869 24.9740 60.00 60.26 7.75
23870 24.9750 61.90 60.25 7.87
23871 24.9760 55.69 60.24 7.46
23872 24.9770 66.26 60.24 8.14
23873 24.9780 65.02 60.23 8.06
23874 24.9790 58.10 60.23 7.62
23875 24.9800 59.36 60.22 7.70
23876 24.9810 57.80 60.21 7.60
23877 24.9820 60.46 60.21 7.78
23878 24.9830 69.06 60.20 8.31
23879 24.9840 59.80 60.19 7.73
23880 24.9850 64.56 60.19 8.03
23881 24.9860 68.29 60.18 8.26
23882 24.9870 59.98 60.17 7.74
23883 24.9880 56.74 60.17 7.53
23884 24.9890 61.23 60.16 7.82
23885 24.9900 60.95 60.16 7.81
23886 24.9910 54.66 60.15 7.39
23887 24.9920 52.20 60.14 7.22
23888 24.9930 64.07 60.13 8.00
23889 24.9940 67.07 60.13 8.19
23890 24.9950 55.17 60.12 7.43
23891 24.9960 59.46 60.11 7.71
23892 24.9970 58.65 60.10 7.66
23893 24.9980 58.99 60.10 7.68
23894 24.9990 58.55 60.09 7.65
23895 25.0000 57.64 60.08 7.59
23896 25.0010 57.90 60.07 7.61
23897 25.0020 62.26 60.07 7.89
23898 25.0030 69.17 60.06 8.32
23899 25.0040 60.63 60.05 7.79
loop_
_pd_proc_info_excluded_regions
'from 0.5 to 1.100'
'from 25 to 50.045'
loop_
_refln_index_h
_refln_index_k
_refln_index_l
_refln_F_squared_calc
_refln_F_squared_meas
_refln_observed_status
_refln_d_spacing
0 0 1 4511.16 4430.93 o 18.561584
0 0 2 12281.87 12588.52 o 9.280792
-1 0 1 7492.38 7630.26 o 8.465430
1 0 0 3035.15 3094.25 o 8.258418
-1 0 2 2700.49 2661.68 o 7.245096
1 0 1 621.78 592.01 o 6.871960
0 0 3 1844.75 1935.63 o 6.187195
-1 0 3 2.77 1.81 < 5.778095
1 0 2 241.65 136.96 o 5.464071
0 -1 1 3702.60 3932.58 o 4.942053
0 1 0 3860.75 4094.38 o 4.907755
0 -1 2 603.71 548.10 o 4.653718
0 0 4 2789.03 2559.09 o 4.640396
-1 0 4 5613.83 5158.40 o 4.629486
0 1 1 30.81 41.51 o 4.569260
1 0 3 4.55 3.61 o 4.401517
-1 -1 1 0.25 0.24 o 4.310135
-2 0 1 4185.85 4096.45 o 4.290202
1 -1 0 6196.64 6067.79 o 4.289589
-1 -1 2 524.46 470.59 o 4.246710
-2 0 2 3436.44 3213.46 o 4.232715
-1 1 1 3651.66 3673.25 o 4.184338
0 -1 3 1327.80 1345.23 o 4.180847
1 -1 1 16906.73 17202.39 o 4.174549
1 1 0 14348.73 14615.28 o 4.151762
2 0 0 16.92 17.24 o 4.129209
0 1 2 250.11 179.11 o 4.079723
-1 -1 3 2528.15 2326.45 o 3.988086
-2 0 3 7831.02 7246.43 o 3.980711
-1 1 2 486.64 403.00 o 3.901731
1 -1 2 57.92 43.54 o 3.885899
1 1 1 178.28 146.95 o 3.834702
2 0 1 1229.50 973.39 o 3.813187
-1 0 5 600.69 467.51 o 3.802242
0 0 5 1290.44 1089.83 o 3.712317
0 -1 4 3.60 2.85 o 3.674817
1 0 4 105.45 93.18 o 3.638277
-1 -1 4 252.11 222.78 o 3.624906
-2 0 4 359.35 319.26 o 3.622548
0 1 3 112.05 113.69 o 3.578961
-1 1 3 31.39 33.83 o 3.534071
1 -1 3 10936.27 12069.16 o 3.516448
1 1 2 8333.39 7337.37 o 3.454455
2 0 2 27.51 23.19 o 3.435980
-2 -1 2 365.85 344.41 o 3.260792
-2 0 5 12274.19 12125.37 o 3.242660
-1 -1 5 31.52 31.19 o 3.242064
-2 1 1 1363.40 1352.46 o 3.233268
-2 -1 1 7300.20 7175.03 o 3.226817
2 -1 0 97.14 94.66 o 3.219125
0 -1 5 872.81 859.69 o 3.215846
-1 0 6 12625.08 13241.60 o 3.202778
-2 -1 3 89.83 93.56 o 3.196619
-1 1 4 754.70 759.80 o 3.158340
-2 1 2 894.56 852.05 o 3.152528
1 -1 4 42.75 37.92 o 3.141576
0 1 4 0.72 0.63 o 3.133204
2 -1 1 674.25 717.02 o 3.113667
2 1 0 478.97 478.00 o 3.103320
0 0 6 1782.82 1736.98 o 3.093597
1 0 5 4807.48 4686.10 o 3.081980
1 1 3 1206.94 1174.23 o 3.080215
2 0 3 30.99 29.18 o 3.065163
-2 -1 4 40.71 36.75 o 3.050228
-2 1 3 27.82 43.10 o 2.996283
2 -1 2 1216.76 1288.57 o 2.941188
2 1 1 5595.82 5388.65 o 2.918087
-2 0 6 54.31 44.71 o 2.889048
-1 -1 6 85.89 67.90 o 2.887011
-3 0 2 238.03 185.78 o 2.864084
-2 -1 5 507.16 461.36 o 2.852421
-3 0 1 771.79 789.98 o 2.839443
0 -1 6 415.56 422.83 o 2.826767
-3 0 3 916.37 884.73 o 2.821810
-1 1 5 81.91 74.60 o 2.814526
1 -1 5 8967.44 8018.96 o 2.799696
-2 1 4 163.62 145.02 o 2.795527
0 1 5 7.86 6.93 o 2.758019
-1 0 7 57.58 50.04 o 2.756501
3 0 0 112.69 96.34 o 2.752806
1 1 4 2194.39 1880.85 o 2.744062
2 -1 3 247.46 202.80 o 2.733256
2 0 4 315.30 256.00 o 2.732035
-3 0 4 247.80 187.56 o 2.720932
2 1 2 1417.49 966.52 o 2.703271
1 0 6 137.66 100.34 o 2.664850
0 0 7 402.41 318.04 o 2.651655
-2 -1 6 13.41 12.54 o 2.633998
3 0 1 132.32 158.77 o 2.619840
-2 0 7 5438.66 4425.63 o 2.579239
-3 0 5 1136.81 924.97 o 2.578882
-2 1 5 212.41 172.83 o 2.579094
-1 -1 7 45.85 37.27 o 2.576643
2 -1 4 1189.30 1222.55 o 2.516420
-1 1 6 666.38 683.91 o 2.515526
0 -1 7 370.12 449.53 o 2.504682
1 -1 6 71.23 88.23 o 2.502816
-3 -1 2 3.38 3.19 o 2.484723
0 -2 1 5415.82 5099.35 o 2.484365
2 1 3 65.02 61.09 o 2.484112
-3 -1 3 199.48 186.08 o 2.483166
-3 1 1 1974.99 1700.92 o 2.472914
0 -2 2 4.59 3.95 o 2.471026
-3 1 2 7211.28 6247.98 o 2.462756
3 0 2 697.01 595.94 o 2.460065
1 1 5 205.45 173.29 o 2.454298
0 2 0 40.21 33.90 o 2.453878
0 1 6 1365.20 1199.92 o 2.448014
2 0 5 391.41 346.46 o 2.444702
-3 -1 1 602.46 530.11 o 2.442840
3 -1 0 1696.95 1502.17 o 2.439914
-3 -1 4 1494.14 1346.33 o 2.438408
-2 -1 7 27.33 25.18 o 2.417062
0 -2 3 1525.45 1403.55 o 2.415903
-3 0 6 1.05 0.97 o 2.415032
-1 0 8 7473.80 6860.27 o 2.414481
-3 1 3 1910.28 1764.34 o 2.410985
-1 -2 2 842.99 780.31 o 2.391256
0 2 1 4895.87 4643.90 o 2.384150
1 -2 1 1096.63 1044.01 o 2.379434
-1 -2 1 2403.18 2275.68 o 2.378662
1 -2 0 207.73 192.61 o 2.376474
3 -1 1 121.11 111.60 o 2.368659
-2 1 6 175.81 165.09 o 2.366777
-1 -2 3 36.01 34.57 o 2.364712
3 1 0 87.55 85.09 o 2.363716
-3 -1 5 4276.69 4135.40 o 2.357035
1 -2 2 237.26 236.46 o 2.344100
1 0 7 8433.35 8448.58 o 2.343007
-1 2 1 1132.27 1183.43 o 2.335642
1 2 0 140.25 157.11 o 2.328721
0 -2 4 2031.28 2285.95 o 2.326859
-3 1 4 1.40 1.57 o 2.324989
0 0 8 3461.25 3752.25 o 2.320198
-2 0 8 32.27 34.96 o 2.314743
-1 -1 8 124.97 138.34 o 2.312036
2 -1 5 16.09 19.00 o 2.307642
-1 -2 4 205.49 255.40 o 2.302752
3 0 3 3.11 3.52 o 2.290653
0 2 2 1200.04 1339.34 o 2.284630
2 1 4 523.01 581.85 o 2.275850
1 -2 3 128.49 142.57 o 2.275316
3 -1 2 930.20 996.27 o 2.268636
-1 2 2 0.20 0.20 o 2.262463
-1 1 7 289.28 294.97 o 2.260909
3 1 1 4027.09 4084.77 o 2.257654
1 -1 7 2699.62 2739.13 o 2.250139
-3 -1 6 218.31 221.60 o 2.249514
1 2 1 5.81 5.89 o 2.248079
-3 0 7 1500.37 1533.87 o 2.245313
0 -1 8 1537.06 1559.91 o 2.239076
-3 1 5 144.31 171.41 o 2.215336
0 -2 5 800.23 963.46 o 2.214766
-2 -1 8 9.49 11.46 o 2.213996
-1 -2 5 0.72 0.88 o 2.213265
1 1 6 293.58 357.38 o 2.208473
2 0 6 939.60 1132.29 o 2.200759
0 1 7 79.79 84.17 o 2.192241
1 -2 4 2653.40 2482.07 o 2.181480
-2 1 7 74.27 57.58 o 2.169270
0 2 3 352.78 284.63 o 2.166483
-1 2 3 64.99 52.79 o 2.165661
-2 -2 2 964.53 761.10 o 2.155067
-2 -2 3 1318.97 1028.03 o 2.153382
3 -1 3 472.26 365.71 o 2.150826
1 2 2 23.33 18.02 o 2.146000
-1 0 9 1383.42 1071.75 o 2.145378
-4 0 2 1288.08 1000.22 o 2.145101
-4 0 3 57.24 44.44 o 2.144760
2 -2 0 2010.96 1561.09 o 2.144794
3 1 2 605.85 512.05 o 2.135844
-2 2 1 801.13 706.46 o 2.131916
2 -2 1 822.60 730.02 o 2.129322
-2 -2 1 93.26 81.95 o 2.128216
-3 -1 7 591.89 516.37 o 2.126989
3 0 4 1005.23 852.72 o 2.123666
-2 -2 4 73.48 62.25 o 2.123355
-4 0 1 3.17 2.85 o 2.117341
-4 0 4 1169.72 1064.94 o 2.116358
2 -1 6 1185.10 1102.24 o 2.115445
-1 -2 6 20.90 24.26 o 2.105821
-3 1 6 411.72 421.23 o 2.092744
-2 2 2 21.99 22.51 o 2.092169
-2 0 9 820.97 829.07 o 2.090805
0 -2 6 258.64 259.94 o 2.090424
-1 -1 9 420.94 405.37 o 2.088199
1 0 8 37.02 35.65 o 2.088288
2 -2 2 9.05 8.58 o 2.087274
2 1 5 668.04 627.94 o 2.085644
-3 0 8 1101.83 1055.40 o 2.080350
2 2 0 154.31 144.40 o 2.075881
1 -2 5 167.27 150.04 o 2.072058
-2 -2 5 622.37 538.67 o 2.068378
4 0 0 512.36 423.15 o 2.064605
-4 0 5 60.44 49.64 o 2.063085
0 0 9 2263.62 1853.67 o 2.062398
-1 2 4 58.16 48.13 o 2.054659
-1 1 8 1122.65 949.10 o 2.045368
0 2 4 392.78 353.30 o 2.039862
1 -1 8 46.26 43.90 o 2.036251
1 2 3 655.01 598.52 o 2.031878
-2 -1 9 74.82 67.96 o 2.030058
-2 2 3 1110.56 1007.44 o 2.029846
3 -1 4 262.68 239.05 o 2.025104
2 -2 3 4.96 4.51 o 2.023150
0 -1 9 11266.00 10308.93 o 2.018952
3 1 3 141.89 133.72 o 2.007919
2 2 1 456.17 411.99 o 2.003469
1 1 7 141.83 124.14 o 2.000604
-3 -1 8 68.60 59.51 o 1.998932
2 0 7 1077.65 1001.58 o 1.994332
-2 -2 6 388.22 361.86 o 1.994043
4 0 1 374.80 357.20 o 1.992266
-2 1 8 0.93 0.89 o 1.990867
-4 0 6 2062.94 1996.67 o 1.990355
-1 -2 7 95.27 92.70 o 1.989391
0 1 8 5519.35 5474.68 o 1.979943
-4 -1 3 39.08 38.65 o 1.977136
-4 -1 4 2017.50 2080.57 o 1.967937
-4 1 2 0.06 0.06 o 1.967006
3 0 5 420.12 446.68 o 1.966134
-3 1 7 98.26 104.57 o 1.966048
-4 -1 2 531.36 575.22 o 1.964098
0 -2 7 277.55 304.57 o 1.962601
-4 1 1 1211.82 1350.97 o 1.958465
1 -2 6 1506.45 1666.57 o 1.955533
-4 1 3 6.01 6.60 o 1.953650
-2 2 4 419.73 456.77 o 1.950866
2 -2 4 3641.45 4031.02 o 1.942949
2 -1 7 454.51 502.21 o 1.942808
-4 -1 5 0.68 0.75 o 1.937405
-1 2 5 226.38 249.75 o 1.937676
-4 -1 1 10.61 12.00 o 1.930100
-1 0 10 1021.34 1150.89 o 1.928782
4 -1 0 494.40 557.18 o 1.928862
-3 0 9 4915.80 5471.10 o 1.926032
-4 1 4 1304.07 1432.59 o 1.919694
2 2 2 1892.99 2087.80 o 1.917351
2 1 6 116.61 129.00 o 1.915598
1 2 4 584.75 642.06 o 1.913552
0 2 5 33.41 36.48 o 1.912495
-2 -2 7 776.41 815.49 o 1.906741
4 0 2 246.16 258.64 o 1.906594
-4 0 7 117.78 122.29 o 1.904442
-2 0 10 2.84 2.89 o 1.901121
3 -1 5 89.31 89.73 o 1.898938
-1 -1 10 1860.79 1869.73 o 1.898702
-4 -1 6 1866.75 1703.66 o 1.888398
-3 -2 3 58.06 51.66 o 1.883770
1 0 9 582.06 510.68 o 1.882238
3 1 4 1.71 1.49 o 1.880914
4 -1 1 1099.78 958.94 o 1.880944
4 1 0 972.32 846.85 o 1.878276
-3 -2 4 304.30 265.10 o 1.875365
-3 -2 2 166.08 145.34 o 1.872923
-3 -1 9 835.21 734.95 o 1.872185
-1 -2 8 52.68 46.21 o 1.871051
-3 2 1 513.87 456.68 o 1.869724
-4 1 5 11.41 10.04 o 1.868230
-2 -1 10 227.74 195.90 o 1.866307
3 -2 0 20.50 17.70 o 1.866541
-1 1 9 324.24 266.01 o 1.862612
-2 2 5 596.15 490.41 o 1.861433
0 0 10 3.33 2.74 o 1.856158
1 -1 9 236.03 193.00 o 1.854862
-3 2 2 1579.60 1283.57 o 1.854141
2 -2 5 267.76 217.40 o 1.852845
-3 -2 5 853.24 685.83 o 1.848463
3 -2 1 237.15 191.15 o 1.844874
-3 -2 1 2752.32 2213.56 o 1.843794
-3 1 8 49.55 39.76 o 1.841491
1 -2 7 17.02 14.00 o 1.838383
0 -2 8 43.65 36.13 o 1.837409
0 -1 10 190.04 161.29 o 1.834943
-2 1 9 40.55 35.71 o 1.832177
-4 -1 7 677.78 652.20 o 1.825028
1 1 8 270.31 263.08 o 1.824302
2 2 3 9.21 9.08 o 1.823600
3 0 6 2292.23 2342.82 o 1.821357
-3 2 3 129.41 132.25 o 1.821152
-1 2 6 4.58 4.70 o 1.820860
2 0 8 0.45 0.48 o 1.819138
4 -1 2 59.17 62.29 o 1.818712
4 0 3 5.56 6.07 o 1.813538
4 1 1 184.95 202.32 o 1.812869
-2 -2 8 150.32 164.59 o 1.812453
-4 0 8 1627.29 1788.54 o 1.811274
3 -2 2 469.28 523.14 o 1.806584
-3 -2 6 34.55 38.38 o 1.805362
-4 1 6 3477.68 3832.92 o 1.803426
0 1 9 698.16 769.93 o 1.802139
3 2 0 5.57 6.14 o 1.798847
1 2 5 7.69 8.34 o 1.796675
2 -1 8 655.86 707.41 o 1.789663
0 2 6 79.84 85.97 o 1.789480
-3 0 10 963.36 976.90 o 1.784901
3 -1 6 74.28 72.10 o 1.777230
-3 2 4 1143.57 1133.69 o 1.773450
-2 2 6 144.31 139.98 o 1.767036
2 1 7 4693.60 4562.99 o 1.765159
3 1 5 15.45 15.24 o 1.759293
2 -2 6 4562.29 4549.65 o 1.758224
-1 -2 9 202.18 204.03 o 1.755672
3 -2 3 2216.42 2240.89 o 1.754689
-4 -1 8 697.57 705.33 o 1.751821
-3 -1 10 388.93 393.94 o 1.751052
-1 0 11 153.57 155.55 o 1.751037
-3 -2 7 126.48 127.97 o 1.749392
4 -1 3 2036.15 2061.41 o 1.746602
3 2 1 6719.83 6772.94 o 1.741500
-2 0 11 13.09 13.21 o 1.739690
4 1 2 15.26 15.36 o 1.738399
-1 -1 11 57.94 58.29 o 1.737484
-4 1 7 25.78 26.79 o 1.729710
2 2 4 1230.85 1269.04 o 1.727228
1 -2 8 190.41 186.54 o 1.724950
-3 1 9 225.48 211.24 o 1.722917
-2 -1 11 123.75 114.50 o 1.721698
-5 0 3 330.31 299.45 o 1.718728
0 -2 9 0.39 0.35 o 1.718550
4 0 4 23.34 21.06 o 1.717990
-2 -2 9 350.08 316.54 o 1.716040
-4 0 9 112.45 101.94 o 1.715716
-3 2 5 27.97 25.26 o 1.714493
-5 0 4 0.07 0.06 o 1.713011
1 0 10 68.57 59.41 o 1.712421
-5 0 2 3.20 2.69 o 1.709807
-1 2 7 1727.48 1414.19 o 1.708252
-1 1 10 131.88 108.51 o 1.706838
1 -1 10 24.56 22.47 o 1.700210
-5 0 5 2.93 2.80 o 1.693086
3 -2 4 1.19 1.14 o 1.692767
-2 1 10 804.33 769.11 o 1.692004
3 0 7 1559.91 1499.65 o 1.690282
0 0 11 1812.95 1749.72 o 1.687417
-5 0 1 4051.52 3921.45 o 1.686916
1 2 6 258.71 250.06 o 1.684837
-3 -2 8 19.18 18.51 o 1.684282
0 -1 11 3653.34 3553.15 o 1.679607
3 2 2 1501.92 1520.32 o 1.675487
1 1 9 208.92 212.15 o 1.673881
0 2 7 203.37 206.45 o 1.673732
-4 -1 9 25.21 25.53 o 1.673013
-2 2 7 1206.41 1200.72 o 1.671949
2 0 9 44.19 43.17 o 1.669577
4 -1 4 6.83 6.63 o 1.668785
2 -2 7 190.79 179.34 o 1.663243
3 -1 7 6.13 5.75 o 1.662770
-5 0 6 3.09 2.86 o 1.660393
4 1 3 16.82 15.47 o 1.658998
-3 0 11 8582.65 7849.40 o 1.657472
0 -3 2 960.47 875.91 o 1.656552
2 -1 9 81.65 74.44 o 1.654521
0 -3 1 38.84 35.37 o 1.652650
5 0 0 101.98 92.96 o 1.651684
0 1 10 761.73 694.58 o 1.651745
-4 1 8 785.71 716.47 o 1.651130
-3 2 6 238.00 221.80 o 1.647905
0 -3 3 47.34 44.42 o 1.647351
-1 -2 10 19.88 18.96 o 1.646200
3 1 6 639.88 613.92 o 1.645488
-3 -1 11 227.10 239.43 o 1.637846
0 3 0 306.45 329.30 o 1.635918
2 1 8 66.15 70.55 o 1.632597
2 2 5 20.63 21.99 o 1.631917
-4 -2 4 17.50 18.73 o 1.630396
-4 -2 3 1684.23 1809.04 o 1.628062
-1 -3 2 8.49 9.08 o 1.627895
-5 -1 4 3132.60 3348.32 o 1.627435
-1 -3 3 41.95 44.73 o 1.626879
0 -3 4 1779.62 1879.22 o 1.625685
-5 -1 3 971.18 1021.46 o 1.624827
1 -3 1 418.65 440.06 o 1.624560
3 -2 5 3116.75 3275.87 o 1.624384
4 0 5 420.63 439.74 o 1.623544
-4 0 10 2885.69 2981.94 o 1.621330
-2 -2 10 654.26 675.63 o 1.621032
-4 -2 5 63.22 65.27 o 1.620251
1 -3 2 1211.52 1250.11 o 1.620528
-5 1 3 115.96 119.80 o 1.619450
-5 1 2 38.10 39.36 o 1.619312
-4 2 1 3822.76 3948.49 o 1.619213
1 -2 9 1297.77 1344.92 o 1.617787
-5 -1 5 20.02 20.74 o 1.617629
-5 0 7 392.03 404.96 o 1.617107
-4 2 2 1191.26 1225.83 o 1.616634
-1 -3 1 1958.56 2014.87 o 1.616511
1 -3 0 122.94 126.29 o 1.616228
-3 -2 9 292.49 293.12 o 1.613606
-1 -3 4 688.21 689.56 o 1.613532
-4 -2 2 569.34 569.78 o 1.613408
-3 1 10 595.38 590.64 o 1.612340
-5 -1 2 2252.13 2186.04 o 1.609979
4 -2 0 153.35 148.25 o 1.609562
0 -2 10 278.84 267.22 o 1.607923
-5 1 4 167.51 160.12 o 1.607396
0 3 1 608.13 581.63 o 1.607491
-5 1 1 669.30 641.19 o 1.606992
5 0 1 1862.97 1785.78 o 1.606402
3 2 3 4594.24 4421.68 o 1.604333
1 -3 3 811.53 780.41 o 1.604402
-1 0 12 362.21 353.23 o 1.602740
-1 2 8 3.29 3.23 o 1.602174
-4 2 3 1545.72 1515.32 o 1.602000
-2 0 12 92.46 90.73 o 1.601389
-1 -1 12 93.36 91.25 o 1.599393
-4 -2 6 159.92 155.11 o 1.598309
-5 -1 6 979.88 944.25 o 1.596065
-1 3 1 194.01 186.95 o 1.596088
-2 -1 12 159.58 155.33 o 1.594321
1 3 0 321.34 314.32 o 1.593487
0 -3 5 296.06 292.53 o 1.592989
-4 -1 10 255.35 257.39 o 1.592120
-1 -3 5 2059.26 2081.17 o 1.588740
4 -1 5 665.32 672.40 o 1.588752
4 -2 1 3349.26 3373.75 o 1.588323
-4 -2 1 398.28 397.64 o 1.587404
-5 -1 1 99.49 100.66 o 1.583871
-5 1 5 920.66 931.00 o 1.583946
5 -1 0 65.26 66.33 o 1.583301
1 2 7 98.77 99.67 o 1.580006
-2 2 8 152.70 152.77 o 1.579170
4 1 4 588.01 582.43 o 1.578039
1 -3 4 10807.45 10643.03 o 1.577235
-3 2 7 259.82 255.16 o 1.577010
-4 2 4 58.91 57.59 o 1.576264
-1 1 11 306.11 295.15 o 1.573152
3 0 8 278.23 267.32 o 1.572551
-4 1 9 306.66 292.95 o 1.570994
2 -2 8 3685.87 3519.01 o 1.570788
1 0 11 2426.64 2311.18 o 1.570220
0 3 2 169.70 161.58 o 1.569160
-2 1 11 4135.92 3937.86 o 1.568435
1 -1 11 277.22 264.21 o 1.567441
0 2 8 33.16 31.77 o 1.566602
-4 -2 7 14.90 14.30 o 1.565969
-5 0 8 2376.38 2278.44 o 1.565777
-1 3 2 547.60 525.73 o 1.565429
-5 -1 7 473.92 454.32 o 1.564114
1 3 1 4156.30 3838.31 o 1.560277
3 -1 8 30.54 28.91 o 1.556842
4 -2 2 9.98 9.45 o 1.556834
-1 -3 6 14.95 14.02 o 1.554047
5 0 2 227.75 212.86 o 1.553651
3 -2 6 0.17 0.16 o 1.552690
4 2 0 119.46 111.19 o 1.551660
0 -3 6 186.82 173.89 o 1.551239
-5 1 6 462.05 430.51 o 1.550558
5 -1 1 11.83 11.10 o 1.549711
-2 -3 3 294.05 277.83 o 1.549538
5 1 0 83.67 81.58 o 1.548111
0 -1 12 46.09 45.60 o 1.547175
0 0 12 180.02 179.91 o 1.546799
-2 -3 4 72.50 73.07 o 1.544603
1 1 10 2.48 2.50 o 1.544619
-1 -2 11 128.08 128.72 o 1.544146
-2 -3 2 3747.66 3755.31 o 1.543731
-3 0 12 37.69 37.75 o 1.543162
2 -3 1 7.51 7.57 o 1.541201
2 0 10 932.10 941.19 o 1.540990
-4 2 5 118.94 120.10 o 1.540998
1 -3 5 14.13 14.23 o 1.540678
-3 -2 10 28.30 28.49 o 1.540420
3 1 7 263.75 265.38 o 1.540526
2 -3 0 644.54 649.27 o 1.540641
2 2 6 1176.28 1181.75 o 1.540107
2 -1 10 15.96 15.93 o 1.535381
-3 -1 12 967.19 965.32 o 1.533516
4 0 6 31.22 31.37 o 1.532581
2 -3 2 27.69 27.93 o 1.531234
3 2 4 2265.52 2282.25 o 1.531013
-4 0 11 4.72 4.75 o 1.530471
-2 -2 11 76.12 76.09 o 1.529740
-2 3 1 0.04 0.04 o 1.529588
-2 -3 5 0.50 0.49 o 1.529229
-2 -3 1 279.27 275.10 o 1.527537
-1 3 3 222.10 219.02 o 1.526049
-4 -2 8 39.44 39.10 o 1.525114
-5 -1 8 2837.90 2824.71 o 1.523637
0 1 11 473.14 471.40 o 1.523282
0 3 3 1370.27 1365.11 o 1.523086
1 3 2 331.58 330.50 o 1.518788
1 -2 10 3252.83 3255.85 o 1.518139
4 -2 3 2700.49 2714.28 o 1.516912
2 1 9 849.84 861.65 o 1.515809
-4 -1 11 14.77 15.15 o 1.511800
-1 -3 7 2.36 2.42 o 1.511410
2 -3 3 282.13 289.64 o 1.511336
-3 1 11 1920.37 1975.30 o 1.510538
4 -1 6 93.63 96.47 o 1.509154
-5 1 7 2690.73 2772.37 o 1.509121
-5 0 9 638.05 658.02 o 1.508972
-2 3 2 767.33 789.11 o 1.508702
4 2 1 0.61 0.63 o 1.508170
5 -1 2 0.04 0.04 o 1.508117
0 -2 11 1009.32 1026.69 o 1.506216
5 1 1 36.08 36.34 o 1.504682
-2 -3 6 19.01 19.09 o 1.504325
-3 2 8 275.70 277.33 o 1.504558
-1 2 9 740.19 739.42 o 1.503716
0 -3 7 38.41 38.04 o 1.502663
2 3 0 5383.34 5324.88 o 1.501911
4 1 5 4.63 4.55 o 1.498028
-4 2 6 265.88 261.64 o 1.498141
1 -3 6 3711.72 3653.71 o 1.496722
5 0 3 1588.08 1561.46 o 1.495964
-4 1 10 5.00 5.08 o 1.491768
-2 2 9 167.18 170.22 o 1.490592
1 2 8 2285.03 2160.69 o 1.483028
2 -2 9 68.25 64.43 o 1.482663
2 -3 4 403.28 380.72 o 1.482644
-2 -1 13 1027.31 965.31 o 1.482048
-2 0 13 0.40 0.38 o 1.482029
-1 -1 13 35.68 33.85 o 1.480230
3 -2 7 5765.02 5465.73 o 1.480218
-1 3 4 49.35 46.93 o 1.480000
-2 3 3 54.29 52.09 o 1.479165
-4 -2 9 335.60 323.28 o 1.477840
-1 0 13 552.69 534.63 o 1.477246
-5 -1 9 576.37 558.62 o 1.476712
-2 -3 7 0.29 0.28 o 1.471268
0 3 4 190.41 181.89 o 1.471510
1 3 3 1297.32 1238.39 o 1.471113
4 -2 4 49.58 47.44 o 1.470594
0 2 9 253.38 236.50 o 1.468440
2 3 1 1410.26 1315.92 o 1.468258
-3 -2 11 183.97 168.78 o 1.467113
3 0 9 1089.77 1000.71 o 1.467173
-1 -3 8 27.20 23.90 o 1.462927
-5 1 8 107.54 94.93 o 1.461688
5 -1 3 68.30 60.34 o 1.460573
3 -1 9 35.01 30.79 o 1.459768
-2 1 12 627.50 550.83 o 1.459398
4 2 2 92.21 80.60 o 1.459044
3 2 5 2950.69 2586.53 o 1.457829
-1 1 12 70.92 62.20 o 1.457573
5 1 2 169.69 147.67 o 1.455678
2 2 7 1764.36 1501.77 o 1.453241
1 -1 12 137.37 116.45 o 1.452616
-1 -2 12 462.46 395.84 o 1.450055
-4 2 7 48.66 41.74 o 1.449747
1 0 12 514.20 439.95 o 1.449504
0 -3 8 380.32 325.10 o 1.449462
-5 0 10 2595.63 2222.04 o 1.449019
1 -3 7 428.49 369.62 o 1.447443
2 -3 5 153.02 132.17 o 1.446658
4 0 7 945.82 820.35 o 1.446507
-4 0 12 1856.98 1617.95 o 1.444524
3 1 8 35.31 30.76 o 1.444558
-2 -2 12 139.09 122.15 o 1.443506
-2 3 4 217.22 193.00 o 1.442505
-3 0 13 2687.83 2460.32 o 1.440887
-3 -1 13 239.00 227.01 o 1.438169
-3 -3 4 2746.53 2608.18 o 1.438115
-3 -3 3 1143.24 1081.18 o 1.436712
5 0 4 329.04 310.27 o 1.435595
-4 -1 12 258.93 244.30 o 1.433892
0 -1 13 1483.27 1405.12 o 1.433200
1 1 11 1317.87 1252.91 o 1.432703
-3 2 9 67.90 64.57 o 1.432643
-6 0 4 418.45 399.10 o 1.432042
4 -1 7 1146.22 1092.94 o 1.431836
-2 -3 8 33.71 32.13 o 1.431703
-3 -3 5 2177.87 2089.28 o 1.430942
2 -1 11 456.04 439.67 o 1.430186
-6 0 3 42.52 41.01 o 1.430067
3 -3 0 2.70 2.60 o 1.429863
2 0 11 40.43 39.10 o 1.429610
-1 3 5 283.47 274.74 o 1.429331
2 3 2 2727.98 2660.26 o 1.428239
0 0 13 1385.31 1354.87 o 1.427814
-3 -3 2 659.87 650.28 o 1.426806
1 -2 11 802.51 794.72 o 1.426394
-4 -2 10 126.82 125.75 o 1.426210
-3 3 1 6049.96 5999.06 o 1.426222
-6 0 5 2105.60 2095.17 o 1.425541
-5 -1 10 3269.62 3256.13 o 1.425391
3 -3 1 2718.30 2712.44 o 1.425057
4 1 6 4959.40 4925.46 o 1.420674
4 -2 5 756.72 752.49 o 1.419892
-6 0 2 114.92 114.32 o 1.419721
1 3 4 91.26 91.05 o 1.419291
-5 -2 4 1423.13 1433.13 o 1.417930
-3 1 12 611.07 615.80 o 1.417525
-5 -2 5 765.39 773.57 o 1.416344
0 3 5 1780.13 1799.87 o 1.416520
-3 -3 6 972.23 983.32 o 1.415570
-4 1 11 901.82 911.05 o 1.415135
-3 3 2 1013.39 1015.00 o 1.414326
0 -2 12 384.50 381.76 o 1.413384
-1 2 10 40.45 40.11 o 1.413168
2 1 10 332.10 327.23 o 1.412706
0 1 12 15.11 14.85 o 1.412525
3 -3 2 510.36 498.34 o 1.412055
-5 -2 3 2455.72 2383.79 o 1.411291
-6 0 6 708.21 686.11 o 1.410905
-1 -3 9 776.60 751.69 o 1.410612
-5 1 9 1032.28 1001.39 o 1.410252
5 -1 4 8.67 8.51 o 1.409069
-3 -3 1 28.14 27.74 o 1.408914
-5 2 2 1118.97 1101.24 o 1.409010
3 -2 8 1084.21 1069.22 o 1.408843
-2 2 10 39.26 39.38 o 1.407263
-5 -2 6 448.92 453.10 o 1.406615
4 2 3 4.37 4.41 o 1.406283
-5 2 1 354.14 357.42 o 1.405675
2 -3 6 4.43 4.47 o 1.405050
-5 2 3 2795.84 2831.18 o 1.404262
5 1 3 3.54 3.56 o 1.403083
-6 0 1 2386.32 2389.89 o 1.401537
-2 3 5 16.18 16.05 o 1.400403
2 -2 10 368.80 364.03 o 1.399848
-4 2 8 788.93 765.84 o 1.397764
-5 -2 2 1337.76 1297.65 o 1.396768
-3 -2 12 109.21 107.40 o 1.395413
1 -3 8 661.71 657.56 o 1.394788
-3 3 3 696.91 693.41 o 1.394779
5 -2 0 2607.53 2594.59 o 1.394426
1 2 9 204.99 204.50 o 1.394032
0 -3 9 329.76 331.23 o 1.393616
-3 -3 7 36.14 36.62 o 1.392774
-5 2 4 250.17 254.18 o 1.391672
3 -3 3 16.78 17.05 o 1.391516
-5 -2 7 390.33 399.61 o 1.389235
-6 0 7 3064.47 3136.31 o 1.388869
-5 0 11 150.32 155.34 o 1.387863
-2 -3 9 188.60 196.23 o 1.387352
3 2 6 2092.72 2183.78 o 1.386427
3 3 0 449.44 463.89 o 1.383921
2 3 3 1159.53 1196.05 o 1.383572
-2 -1 14 2838.66 2914.75 o 1.382840
0 2 10 2.08 2.05 o 1.379009
-6 -1 4 21.38 21.09 o 1.378500
-2 0 14 1998.78 1963.08 o 1.378250
-6 -1 5 31.66 31.19 o 1.377217
-1 -1 14 22.04 21.78 o 1.376628
6 0 0 891.29 883.63 o 1.376403
5 -2 1 162.77 161.39 o 1.375821
-1 3 6 0.03 0.03 o 1.375910
-5 -2 1 870.27 863.28 o 1.375075
5 0 5 14.06 13.95 o 1.374392
-6 1 3 0.96 0.95 o 1.373711
3 0 10 1828.68 1809.01 o 1.372913
-6 -1 3 121.58 119.87 o 1.372224
-4 -2 11 496.04 488.69 o 1.372080
2 2 8 146.57 144.34 o 1.372031
-5 2 5 133.87 131.87 o 1.371859
-5 -1 11 271.11 266.71 o 1.371523
3 -1 10 87.82 86.29 o 1.371301
-6 1 4 117.34 115.35 o 1.370959
-1 0 14 3.72 3.65 o 1.369737
-6 1 2 543.49 533.19 o 1.368971
-6 -1 6 274.68 270.32 o 1.368439
-3 3 4 630.99 620.63 o 1.368521
4 -2 6 26.56 26.43 o 1.366628
4 0 8 2.10 2.09 o 1.366018
-5 -2 8 362.63 363.95 o 1.365041
1 3 5 309.91 310.88 o 1.365142
3 -3 4 859.02 864.23 o 1.364415
-4 0 13 30.59 30.81 o 1.364171
-1 -2 13 499.32 503.72 o 1.363880
-3 -3 8 296.12 299.59 o 1.363626
-2 -2 13 586.24 593.71 o 1.362974
-2 1 13 4408.87 4467.63 o 1.362930
-3 2 10 3966.19 4019.16 o 1.362738
-6 1 5 664.60 680.67 o 1.360850
-6 0 8 115.19 118.47 o 1.360466
0 3 6 373.63 386.73 o 1.359908
-4 -1 13 348.74 362.77 o 1.359553
2 -3 7 43.75 45.57 o 1.359485
-6 -1 2 263.91 278.03 o 1.358695
4 -1 8 1484.53 1586.50 o 1.357974
3 1 9 49.38 53.42 o 1.357231
-6 1 1 6.10 6.62 o 1.356969
-1 1 13 15.00 16.30 o 1.356910
-5 1 10 118.08 128.81 o 1.356585
-1 -3 10 120.50 131.91 o 1.356236
5 -1 5 18.54 20.54 o 1.355370
-2 3 6 3.95 4.41 o 1.354514
3 3 1 1242.18 1396.67 o 1.352966
-6 -1 7 811.93 910.22 o 1.352587
1 -1 13 1.22 1.37 o 1.352576
4 2 4 598.15 668.88 o 1.351635
-3 -1 14 1621.78 1812.05 o 1.351425
5 -2 2 2775.09 3082.10 o 1.350732
-3 0 14 521.16 576.79 o 1.349388
5 1 4 335.67 370.54 o 1.348630
5 2 0 475.82 524.79 o 1.347208
4 1 7 1075.86 1186.86 o 1.347035
1 0 13 3212.86 3581.54 o 1.345805
-5 2 6 234.65 262.01 o 1.345739
6 0 1 1055.99 1181.15 o 1.345449
-6 1 6 936.05 1051.44 o 1.343861
-4 2 9 694.76 780.37 o 1.343899
1 -2 12 9047.77 10160.25 o 1.342419
-4 1 12 2304.42 2584.48 o 1.342143
1 -3 9 389.57 433.53 o 1.340445
-2 -3 10 379.51 422.03 o 1.339847
3 -2 9 280.73 312.18 o 1.339851
-6 -1 1 996.27 1095.65 o 1.338542
6 -1 0 1618.59 1774.60 o 1.338266
2 -1 12 262.73 285.06 o 1.337027
0 -3 10 3433.10 3724.26 o 1.336776
-3 3 5 105.32 114.15 o 1.336705
2 3 4 69.25 74.99 o 1.335875
-5 -2 9 199.71 215.42 o 1.335108
1 1 12 559.00 602.94 o 1.335087
0 -1 14 270.96 289.77 o 1.334246
-3 1 13 2228.09 2332.85 o 1.332892
2 0 12 853.06 889.15 o 1.332425
3 -3 5 358.20 370.96 o 1.331927
-6 -1 8 2085.49 2108.17 o 1.330385
-1 2 11 228.73 230.98 o 1.330339
-2 2 11 85.82 85.81 o 1.329633
-3 -3 9 59.90 59.77 o 1.329362
0 -2 13 399.74 396.52 o 1.328974
-5 0 12 2380.46 2321.66 o 1.327015
-6 0 9 66.50 64.85 o 1.326904
-3 -2 13 5.64 5.49 o 1.326465
0 0 14 75.68 73.47 o 1.325827
2 -2 11 1050.20 993.80 o 1.322752
2 1 11 1249.65 1168.50 o 1.321385
-1 3 7 214.67 200.75 o 1.321317
-6 1 7 1171.72 1096.55 o 1.320755
5 -2 3 172.94 161.09 o 1.320236
3 2 7 389.09 359.76 o 1.317889
3 3 2 277.32 255.39 o 1.317314
-4 -2 12 64.33 59.19 o 1.316999
-5 -1 12 2940.58 2700.41 o 1.316660
-4 -3 4 638.84 587.00 o 1.316229
0 1 13 87.43 80.33 o 1.316205
-4 -3 5 3912.13 3599.19 o 1.314808
5 2 1 828.84 763.10 o 1.314330
-5 2 7 123.32 113.55 o 1.314415
5 0 6 2.28 2.10 o 1.313772
6 -1 1 184.68 169.94 o 1.313685
6 1 0 383.62 352.55 o 1.312645
1 2 10 2909.49 2673.30 o 1.312733
4 -2 7 160.09 147.29 o 1.312332
2 -3 8 280.57 258.22 o 1.311487
-4 -3 3 410.19 376.54 o 1.311065
1 3 6 1318.16 1202.47 o 1.310176
6 0 2 1241.44 1131.65 o 1.309920
-4 3 1 2254.92 2057.07 o 1.307285
-4 -3 6 587.59 535.57 o 1.306864
-2 3 7 90.49 82.11 o 1.306339
4 -3 0 367.90 333.45 o 1.306046
0 3 7 3553.46 3209.20 o 1.303112
-6 -1 9 2538.91 2291.62 o 1.302777
-5 1 11 353.57 318.22 o 1.302156
-4 3 2 3.75 3.37 o 1.302073
-1 -3 11 2939.83 2629.95 o 1.301256
5 -1 6 24.95 22.23 o 1.300939
-5 -2 10 1482.14 1320.78 o 1.300627
-3 3 6 139.61 124.46 o 1.300577
-4 -3 2 171.67 152.76 o 1.299544
4 -3 1 807.59 719.97 o 1.298411
0 2 11 216.30 193.35 o 1.297760
2 2 9 2178.48 1954.70 o 1.296697
4 2 5 17.41 15.69 o 1.296528
-3 2 11 581.71 526.78 o 1.295798
3 -3 6 268.44 242.14 o 1.295300
-2 -1 15 16.36 14.74 o 1.294864
5 1 5 765.83 682.60 o 1.293730
-4 -3 7 349.22 307.89 o 1.292746
-6 1 8 0.00 0.00 < 1.292488
-3 -3 10 0.28 0.24 o 1.291263
4 0 9 54.84 48.40 o 1.291328
3 -1 11 950.93 841.45 o 1.290896
-2 -3 11 882.08 781.33 o 1.290624
-4 3 3 470.38 416.65 o 1.290636
-4 0 14 68.79 60.92 o 1.289620
-4 -1 14 720.87 638.19 o 1.289427
-6 0 10 26.23 23.22 o 1.289441
-4 2 10 1852.62 1639.79 o 1.289547
3 0 11 2.84 2.52 o 1.288506
-2 -2 14 705.32 623.82 o 1.288321
4 -1 9 1328.55 1174.67 o 1.288227
-2 0 15 634.32 562.11 o 1.287369
2 3 5 284.30 251.83 o 1.286568
-1 -1 15 9.32 8.28 o 1.285904
1 -3 10 86.51 76.86 o 1.285782
5 -2 4 766.05 682.80 o 1.285507
-1 -2 14 1310.01 1170.76 o 1.285236
4 -3 2 335.90 299.78 o 1.284708
6 -1 2 1685.88 1505.37 o 1.284219
-4 -3 1 463.44 410.71 o 1.282160
6 1 1 3375.96 2992.02 o 1.282036
0 -3 11 197.31 175.68 o 1.280234
-5 2 8 352.48 313.11 o 1.279064
3 3 3 1037.91 922.45 o 1.278234
3 1 10 3382.18 3003.92 o 1.277938
5 2 2 12.30 10.90 o 1.277651
4 1 8 4890.56 4335.55 o 1.277677
-2 1 14 129.46 114.80 o 1.277276
-1 0 15 202.73 179.87 o 1.276650
3 -2 10 73.26 65.78 o 1.274049
-4 1 13 57.81 51.93 o 1.273358
-4 3 4 42.27 38.02 o 1.273459
-4 -3 8 81.76 73.26 o 1.273045
-3 -1 15 7.89 7.06 o 1.272670
6 0 3 313.13 277.93 o 1.271062
-6 -1 10 1627.10 1443.22 o 1.270820
-1 1 14 74.43 67.52 o 1.268615
-5 0 13 40.31 37.24 o 1.267573
-3 0 15 778.72 722.11 o 1.267414
-1 3 8 0.05 0.04 o 1.266803
1 -2 13 89.51 83.38 o 1.265792
4 -3 3 17.83 16.60 o 1.265507
1 -1 14 793.88 738.99 o 1.264799
-5 -2 11 908.06 863.96 o 1.262801
2 -3 9 739.22 705.68 o 1.262359
-4 -2 13 1019.14 975.83 o 1.262183
-5 -1 13 130.95 125.21 o 1.262019
-3 3 7 209.93 203.69 o 1.261363
-3 -2 14 193.21 188.42 o 1.260962
-6 1 9 377.75 371.99 o 1.260113
4 3 0 83.32 82.93 o 1.259613
4 -2 8 1.27 1.30 o 1.258210
-2 2 12 72.24 74.51 o 1.257763
-2 3 8 30.14 31.49 o 1.257158
-3 1 14 605.06 639.88 o 1.256016
1 0 14 250.80 265.85 o 1.255801
3 -3 7 636.02 674.69 o 1.255750
1 3 7 53.72 57.24 o 1.255570
5 0 7 293.25 315.31 o 1.254752
-1 2 12 45.23 48.65 o 1.254778
2 -1 13 146.06 159.24 o 1.254217
3 2 8 912.05 1019.94 o 1.252857
0 -2 14 59.99 67.29 o 1.252341
2 -2 12 273.03 307.67 o 1.251408
-4 3 5 1855.13 2085.25 o 1.251226
6 -1 3 437.89 491.41 o 1.250931
-3 -3 11 340.65 382.59 o 1.250547
-6 0 11 1.42 1.61 o 1.249284
1 1 13 355.02 402.13 o 1.249344
-4 -3 9 8.09 9.23 o 1.248530
-5 1 12 323.27 370.65 o 1.248112
6 1 2 1310.99 1507.70 o 1.247795
0 -1 15 5.96 6.87 o 1.247638
5 -2 5 229.55 264.63 o 1.247705
0 3 8 872.76 1012.65 o 1.247216
2 0 13 6.21 7.23 o 1.247031
5 -1 7 22.42 26.13 o 1.246914
-1 -3 12 80.97 94.43 o 1.246799
-6 -2 5 2336.01 2722.39 o 1.244761
-6 -2 4 98.79 114.30 o 1.242361
0 -4 2 3083.25 3559.15 o 1.242183
4 2 6 2.21 2.54 o 1.242056
-6 -2 6 2183.01 2496.30 o 1.241583
0 -4 3 711.69 813.57 o 1.241603
4 -3 4 0.12 0.14 o 1.241549
-2 -3 12 280.19 316.26 o 1.240873
-5 2 9 1982.65 2235.05 o 1.240837
2 1 12 786.84 878.21 o 1.240181
5 1 6 467.67 516.35 o 1.239467
1 2 11 1052.72 1147.17 o 1.238624
5 2 3 35.07 38.10 o 1.238331
0 0 15 203.59 218.55 o 1.237439
0 -4 1 617.32 661.23 o 1.237230
3 3 4 24.53 26.17 o 1.236908
2 3 6 2043.40 2178.96 o 1.236818
-6 2 3 870.34 926.44 o 1.236645
-6 2 2 62.29 66.09 o 1.236457
-6 -1 11 985.04 1037.73 o 1.235592
-4 2 11 662.47 700.04 o 1.235783
0 -4 4 5154.27 5431.24 o 1.235513
-6 -2 3 174.48 182.61 o 1.234478
-6 -2 7 486.61 503.99 o 1.232952
4 3 1 81.57 84.38 o 1.232743
-3 2 12 940.50 971.17 o 1.232374
1 -3 11 190.20 195.80 o 1.231841
0 1 14 0.09 0.09 o 1.231775
-6 2 4 6095.98 6249.91 o 1.231378
-1 -4 3 2235.76 2284.15 o 1.231053
-6 2 1 531.21 541.97 o 1.230821
6 0 4 371.87 373.08 o 1.230032
-1 -4 4 260.70 253.99 o 1.228449
1 -4 2 565.29 551.01 o 1.228471
-1 -4 2 571.30 555.14 o 1.228259
-7 0 4 1314.06 1259.18 o 1.227390
2 2 10 1079.79 1032.58 o 1.227149
1 -4 1 33.92 32.39 o 1.227001
0 4 0 761.34 726.23 o 1.226939
-7 0 5 703.71 668.87 o 1.226608
0 -3 12 4956.62 4638.20 o 1.224939
-6 1 10 2.43 2.27 o 1.224689
-4 3 6 0.00 0.00 < 1.224750
1 -4 3 42.13 39.35 o 1.224581
0 -4 5 215.90 200.85 o 1.224153
0 2 12 2432.59 2261.93 o 1.224007
-4 -1 15 4130.44 3837.55 o 1.223786
-5 -2 12 1643.72 1513.96 o 1.222754
4 -1 10 1444.71 1332.07 o 1.222886
-7 0 3 0.59 0.54 o 1.222831
4 0 10 7.00 6.43 o 1.222351
-6 -2 2 514.40 471.58 o 1.221420
-4 0 15 1820.19 1666.17 o 1.220776
-6 2 5 800.55 732.77 o 1.220861
-7 0 6 2884.31 2637.25 o 1.220516
-1 -4 5 1685.81 1541.41 o 1.220550
-4 -3 10 32.48 29.66 o 1.220073
-1 -4 1 26.00 23.76 o 1.220176
1 -4 0 2166.50 1980.87 o 1.220229
-3 3 8 89.82 82.09 o 1.220187
6 -2 0 634.18 578.98 o 1.219957
-2 -2 15 939.02 857.43 o 1.219431
-6 -2 8 1934.16 1764.21 o 1.219204
3 -1 12 1.96 1.79 o 1.217879
-2 -1 16 687.76 626.04 o 1.216533
1 -4 4 23.46 21.27 o 1.215482
6 -1 4 1811.81 1637.22 o 1.214865
3 -3 8 3.88 3.49 o 1.214383
-1 -2 15 917.58 820.80 o 1.213574
4 -3 5 143.67 128.62 o 1.213680
2 -3 10 298.58 266.62 o 1.213153
-7 0 2 79.82 71.24 o 1.213108
-1 3 9 180.47 161.08 o 1.213306
4 1 9 1700.50 1510.31 o 1.212825
3 0 12 166.48 147.80 o 1.212759
3 -2 11 577.89 510.90 o 1.211878
0 4 1 49.74 43.85 o 1.211704
6 1 3 4179.60 3649.98 o 1.210972
-5 0 14 199.17 173.46 o 1.210286
-7 0 7 446.52 389.32 o 1.209347
-4 1 14 986.19 861.60 o 1.209007
-4 -2 14 1.73 1.51 o 1.208531
-5 -1 14 562.57 491.18 o 1.208505
-3 -3 12 76.03 66.52 o 1.208302
-1 4 1 427.37 373.61 o 1.208413
0 -4 6 750.74 659.93 o 1.207951
5 -2 6 521.62 457.97 o 1.207905
-2 3 9 57.14 50.18 o 1.207994
-1 -4 6 672.15 591.56 o 1.207657
-6 0 12 15.06 13.28 o 1.207516
-2 0 16 2637.79 2334.32 o 1.207241
1 4 0 78.63 69.76 o 1.207114
-1 -1 16 3.77 3.42 o 1.205914
3 1 11 392.56 356.22 o 1.205972
-6 2 6 2823.69 2569.25 o 1.205493
4 -2 9 213.03 194.60 o 1.205163
6 -2 1 8.03 7.39 o 1.204274
-6 -2 1 63.37 58.38 o 1.203673
4 3 2 132.29 123.43 o 1.202443
1 3 8 507.51 473.10 o 1.202194
1 -4 5 463.75 434.14 o 1.201517
-3 -1 16 0.92 0.86 o 1.201189
-6 -2 9 590.82 554.41 o 1.200848
-2 1 15 721.77 677.87 o 1.200917
-5 2 10 305.69 286.86 o 1.200788
-3 -2 15 1338.66 1254.98 o 1.199255
-7 0 1 17.70 16.64 o 1.198584
-6 -1 12 824.13 775.35 o 1.198118
5 0 8 34.99 32.94 o 1.198010
5 2 4 604.30 570.28 o 1.197417
-5 -3 5 1941.07 1834.97 o 1.197049
1 -2 14 3504.44 3309.14 o 1.195950
-2 -4 4 17.58 16.60 o 1.195628
-1 0 16 1097.43 1034.82 o 1.195292
-5 1 13 88.71 83.64 o 1.195295
-5 -3 4 1881.00 1773.14 o 1.195028
-2 -4 3 3585.85 3380.86 o 1.194935
-4 3 7 2847.49 2686.03 o 1.194904
3 3 5 27.07 25.57 o 1.194372
-5 -3 6 55.03 51.93 o 1.194107
5 -1 8 434.16 409.81 o 1.194132
-7 -1 5 3323.12 3139.80 o 1.193852
-3 0 16 1159.88 1095.60 o 1.193798
-1 -3 13 1259.52 1189.35 o 1.193685
-7 0 8 238.92 225.76 o 1.193514
0 3 9 1081.05 1023.62 o 1.192987
0 4 2 8.51 8.10 o 1.192075
-1 4 2 3647.80 3474.93 o 1.191987
-7 -1 4 970.01 926.32 o 1.191620
-2 -3 13 4.54 4.35 o 1.191524
3 2 9 2053.36 1960.20 o 1.191648
-2 -4 5 444.10 425.27 o 1.191383
-2 2 13 936.42 895.51 o 1.191474
2 -4 1 887.72 849.78 o 1.191423
-7 -1 6 249.20 239.07 o 1.191160
-1 1 15 401.19 387.66 o 1.190650
-1 -4 7 27.07 26.24 o 1.190240
-7 1 4 1759.50 1713.72 o 1.189817
2 -4 2 126.20 122.93 o 1.189717
1 4 1 801.76 782.39 o 1.189546
-2 -4 2 1176.88 1150.11 o 1.189331
4 2 7 0.15 0.14 o 1.189009
-4 -3 11 27.73 27.26 o 1.188574
-7 1 3 4.45 4.38 o 1.188571
-5 3 1 18.86 18.54 o 1.188467
-5 -3 3 91.35 89.91 o 1.188120
2 -4 0 196.79 193.48 o 1.188237
6 0 5 148.51 146.57 o 1.187840
0 -4 7 3.20 3.17 o 1.187486
2 3 7 22.44 22.25 o 1.187535
-5 3 2 2702.00 2678.71 o 1.187558
1 -1 15 0.00 0.00 < 1.187270
-6 1 11 46.52 46.25 o 1.187207
5 1 7 3418.65 3414.89 o 1.186625
-5 -3 7 82.93 82.99 o 1.186311
-7 1 5 153.49 153.77 o 1.186192
-3 1 15 33.59 33.65 o 1.186197
-1 2 13 1945.28 1953.58 o 1.185914
-6 2 7 78.75 79.17 o 1.185821
2 -2 13 90.55 90.95 o 1.185621
-7 -1 3 1898.25 1907.75 o 1.184547
5 -3 0 1037.08 1042.27 o 1.184523
6 -2 2 1319.60 1328.00 o 1.184330
-7 -1 7 85.42 85.64 o 1.183643
-4 2 12 194.93 195.15 o 1.183389
1 -4 6 0.51 0.51 o 1.183185
2 -4 3 1.29 1.29 o 1.183181
0 -2 15 0.46 0.46 o 1.182767
4 -3 6 273.40 273.28 o 1.182775
-7 1 2 1183.88 1182.05 o 1.182500
-2 -4 6 487.63 486.68 o 1.182356
6 2 0 809.11 812.67 o 1.181858
-5 3 3 347.90 349.43 o 1.181831
-5 -2 13 2492.96 2510.12 o 1.181473
2 -1 14 1081.46 1109.02 o 1.180303
-2 4 1 1645.89 1691.69 o 1.180275
7 0 0 46.60 48.00 o 1.179774
1 -3 12 365.42 377.11 o 1.179375
-2 -4 1 380.08 393.81 o 1.179018
-6 -2 10 293.41 306.69 o 1.178517
-3 3 9 40.30 42.32 o 1.178024
-7 1 6 350.01 368.18 o 1.177829
6 -1 5 773.01 818.93 o 1.176988
1 0 15 266.55 282.38 o 1.176973
-5 -3 2 470.89 501.25 o 1.176573
5 -3 1 9.73 10.40 o 1.175872
-5 -3 8 788.61 836.15 o 1.173941
-7 0 9 76.56 80.62 o 1.173568
1 1 14 19.20 20.21 o 1.173529
-7 -1 2 127.91 134.30 o 1.172888
-3 2 13 124.78 130.98 o 1.172726
6 1 4 1589.99 1668.91 o 1.172520
3 -3 9 65.87 68.95 o 1.172150
2 -4 4 32.63 34.19 o 1.172050
-7 1 1 584.22 613.59 o 1.171823
-7 -1 8 610.18 638.73 o 1.171571
0 -3 13 1115.74 1167.93 o 1.171546
2 0 14 49.52 51.85 o 1.171503
-1 4 3 1090.78 1142.29 o 1.171518
-5 3 4 2048.24 2144.61 o 1.171492
0 -1 16 375.39 392.55 o 1.171273
1 2 12 74.94 78.26 o 1.171109
4 3 3 2.12 2.22 o 1.169602
-1 -4 8 657.67 690.38 o 1.168891
-2 -4 7 236.54 248.25 o 1.168869
0 4 3 0.00 0.00 < 1.168710
1 4 2 64.40 67.38 o 1.168071
-2 4 2 129.65 135.38 o 1.167821
2 1 13 1203.08 1253.95 o 1.167668
5 -2 7 2.55 2.64 o 1.167045
-3 -3 13 394.65 404.72 o 1.165446
-6 0 13 0.07 0.07 o 1.165059
-7 1 7 416.47 426.40 o 1.165024
2 -3 11 2109.11 2160.13 o 1.164673
2 4 0 4.35 4.44 o 1.164361
0 -4 8 175.97 178.99 o 1.163429
2 2 11 40.89 41.44 o 1.163118
-4 -1 16 23.25 23.48 o 1.162658
5 -3 2 668.83 676.07 o 1.162816
-6 2 8 1444.40 1457.65 o 1.162494
-4 3 8 214.53 216.58 o 1.162552
4 -1 11 389.68 390.78 o 1.161995
-1 3 10 16.79 16.77 o 1.161486
1 -4 7 462.49 459.23 o 1.161097
-5 -3 1 159.81 158.12 o 1.160791
6 -2 3 34.04 33.66 o 1.160778
0 0 16 136.37 134.10 o 1.160099
-5 2 11 3271.76 3202.17 o 1.159827
-2 3 10 1605.08 1570.94 o 1.159628
-6 -1 13 0.11 0.11 o 1.159310
4 0 11 508.97 495.77 o 1.158821
-5 -3 9 1027.93 987.48 o 1.157424
-4 0 16 78.82 75.68 o 1.157371
7 0 1 26.41 25.39 o 1.157297
0 1 15 265.69 255.41 o 1.157228
-7 -1 1 662.01 635.55 o 1.157043
0 2 13 250.43 240.42 o 1.157028
7 -1 0 88.50 84.94 o 1.156909
-5 -1 15 61.44 58.93 o 1.156749
-4 -2 15 422.79 405.09 o 1.156668
-5 3 5 35.25 33.83 o 1.156899
6 2 1 372.06 356.49 o 1.156669
2 -4 5 386.78 370.49 o 1.156709
-2 -2 16 80.50 77.08 o 1.156018
5 2 5 233.75 223.44 o 1.155800
-5 0 15 1317.64 1257.89 o 1.155619
-7 -1 9 1141.96 1088.69 o 1.155359
-4 -3 12 4.31 4.10 o 1.154898
4 -2 10 428.21 407.48 o 1.153821
3 -2 12 1080.85 1029.75 o 1.153521
-6 -2 11 10.11 9.68 o 1.152914
4 1 10 5.94 5.71 o 1.152473
3 -1 13 975.43 942.69 o 1.151541
3 3 6 71.56 69.20 o 1.151485
-2 -4 8 1546.49 1498.22 o 1.151376
-2 4 3 1257.89 1218.91 o 1.151298
1 3 9 0.03 0.03 o 1.150646
-7 0 10 66.72 65.92 o 1.150147
4 -3 7 0.50 0.49 o 1.149681
-4 1 15 111.70 111.35 o 1.149091
-6 1 12 57.39 57.39 o 1.148545
-1 -2 16 23.32 23.38 o 1.148281
-7 1 8 12.40 12.45 o 1.148208
-1 4 4 131.99 132.50 o 1.147657
-2 -1 17 31.97 31.72 o 1.146490
2 4 1 3.87 3.80 o 1.145844
5 -3 3 19.18 18.79 o 1.145795
6 0 6 0.09 0.09 o 1.145326
3 0 13 2.59 2.51 o 1.144593
-1 -4 9 91.47 88.80 o 1.144278
-5 1 14 4.50 4.36 o 1.144288
5 0 9 1727.33 1692.42 o 1.143960
-2 -3 14 496.63 486.02 o 1.143268
1 4 3 959.54 939.42 o 1.143355
5 -1 9 20.86 20.44 o 1.143170
-3 -4 4 908.81 885.99 o 1.142773
-1 -3 14 94.76 92.34 o 1.142475
0 4 4 5.54 5.39 o 1.142315
-3 -4 5 26.36 25.79 o 1.141742
-3 -2 16 1236.61 1205.99 o 1.141461
5 3 0 233.18 226.89 o 1.141287
0 3 10 96.84 94.17 o 1.140932
3 1 12 3757.93 3658.83 o 1.140606
-5 -2 14 309.55 297.15 o 1.139788
-3 -4 3 407.22 388.57 o 1.139488
2 3 8 897.51 855.08 o 1.139392
-5 3 6 2324.68 2196.93 o 1.138530
7 -1 1 8.77 8.29 o 1.138246
6 -1 6 42.96 40.64 o 1.138144
4 2 8 183.44 173.32 o 1.137925
2 -4 6 9.53 8.99 o 1.137658
7 1 0 55.77 52.52 o 1.137527
-5 -3 10 1323.90 1245.12 o 1.137291
0 -4 9 259.94 244.73 o 1.136493
3 -4 1 2.20 2.07 o 1.136609
-3 -4 6 281.42 265.24 o 1.136431
-3 -1 17 100.90 95.25 o 1.136258
3 -4 0 53.89 50.74 o 1.136483
-2 0 17 0.32 0.30 o 1.136144
-6 2 9 24.10 22.74 o 1.136211
1 -4 8 6.56 6.19 o 1.135923
5 1 8 287.38 271.00 o 1.135737
-7 -1 10 353.73 333.48 o 1.135529
-3 3 10 1026.84 968.45 o 1.135674
4 3 4 22.61 21.36 o 1.135044
-1 -1 17 158.61 149.63 o 1.134940
3 2 10 2.28 2.15 o 1.134354
6 -2 4 754.96 711.99 o 1.134318
6 1 5 333.98 315.75 o 1.133265
-4 2 13 203.25 192.09 o 1.132895
-2 1 16 1067.28 1008.63 o 1.132555
3 -4 2 0.75 0.71 o 1.132496
1 -2 15 282.01 266.80 o 1.132288
-3 -4 2 254.77 240.38 o 1.131996
-3 4 1 243.91 230.42 o 1.132121
7 0 2 27.18 25.62 o 1.131827
-2 4 4 44.54 41.89 o 1.131231
-2 -4 9 1985.01 1850.86 o 1.130430
-2 2 14 18.59 17.33 o 1.130454
3 -3 10 18.77 17.45 o 1.129827
1 -3 13 924.13 851.56 o 1.128890
6 2 2 504.70 464.57 o 1.128827
-4 3 9 570.04 521.62 o 1.128497
-7 1 9 17.41 15.68 o 1.127912
-3 0 17 463.00 413.08 o 1.127497
-3 -4 7 34.40 30.35 o 1.127014
5 -2 8 194.58 169.49 o 1.125904
5 -3 4 173.63 148.97 o 1.125341
2 -2 14 91.09 78.39 o 1.125069
-6 -2 12 75.51 65.16 o 1.124757
3 -4 3 7.50 6.43 o 1.124280
-7 0 11 0.92 0.79 o 1.123931
2 4 2 88.25 76.45 o 1.124040
-1 0 17 594.63 514.02 o 1.123598
-3 4 2 29.03 25.11 o 1.123669
-1 2 14 107.73 93.86 o 1.123135
-3 -3 14 662.17 573.49 o 1.122718
-6 0 14 202.84 175.72 o 1.122657
-3 1 16 358.16 310.24 o 1.122730
-1 1 16 775.06 674.57 o 1.121377
-1 4 5 297.13 259.49 o 1.121084
0 -3 14 148.04 131.18 o 1.120471
-3 -4 1 4.34 3.83 o 1.120545
-6 -1 14 255.60 226.54 o 1.119944
-4 -3 13 463.52 411.28 o 1.119832
0 -2 16 135.29 120.33 o 1.119538
5 3 1 3.78 3.40 o 1.118650
-5 2 12 0.15 0.14 o 1.118705
1 -1 16 6.38 5.74 o 1.118364
2 -3 12 0.19 0.17 o 1.117503
-1 -4 10 763.89 706.15 o 1.117089
-3 2 14 1.48 1.38 o 1.116911
-5 3 7 309.13 286.69 o 1.116943
7 -1 2 491.33 461.63 o 1.116398
1 4 4 176.81 166.34 o 1.116087
2 -4 7 367.37 347.44 o 1.115467
4 -3 8 661.79 629.34 o 1.115170
7 1 1 20.29 19.32 o 1.114923
-5 -3 11 968.55 924.96 o 1.114138
5 2 6 12.24 11.70 o 1.114205
2 -1 15 773.22 738.96 o 1.114050
-3 -4 8 796.91 759.79 o 1.113796
0 4 5 193.15 184.49 o 1.113601
-7 -1 11 513.65 491.18 o 1.112665
-2 3 11 46.45 44.36 o 1.112623
3 -4 4 63.69 60.74 o 1.112224
-1 3 11 2458.98 2350.92 o 1.111774
-3 4 3 8.74 8.35 o 1.111397
1 2 13 26.99 25.62 o 1.109566
-6 1 13 199.79 189.45 o 1.109445
3 3 7 1.05 0.99 o 1.108930
1 -4 9 510.91 485.05 o 1.108346
-2 4 5 111.50 106.08 o 1.108207
-6 2 10 337.80 319.36 o 1.107668
0 -4 10 19.98 18.88 o 1.107383
1 0 16 78.40 74.07 o 1.107377
-5 -1 16 100.10 94.40 o 1.107160
-4 -2 16 236.57 222.06 o 1.106998
-2 -4 10 1071.95 1001.06 o 1.106632
1 1 15 20.52 18.94 o 1.106079
-4 -1 17 26.52 24.47 o 1.105914
6 -2 5 63.26 58.16 o 1.105645
3 4 0 443.56 407.72 o 1.105492
4 -1 12 1024.81 941.38 o 1.105437
-7 1 10 41.27 37.86 o 1.104722
4 -2 11 4.63 4.25 o 1.104594
2 0 15 97.08 88.90 o 1.104293
2 2 12 0.28 0.25 o 1.104237
7 0 3 12.35 11.32 o 1.104040
-5 0 16 2919.29 2677.23 o 1.103823
0 -1 17 66.99 61.63 o 1.103487
-7 -2 6 1.30 1.19 o 1.103426
-7 -2 5 3.37 3.12 o 1.103223
6 0 7 602.39 556.68 o 1.103156
2 1 14 57.66 53.19 o 1.102636
5 -3 5 11.31 10.47 o 1.102039
1 3 10 423.33 391.34 o 1.101308
4 0 12 44.48 41.56 o 1.100379
-7 -2 7 444.27 415.88 o 1.099748
2 4 3 25.21 23.65 o 1.099555
4 3 5 933.02 875.09 o 1.099500
-7 -2 4 439.90 412.45 o 1.099146
-4 0 17 145.82 136.60 o 1.099046
6 2 3 92.20 86.37 o 1.099030
6 -1 7 890.96 834.60 o 1.099034
3 -2 13 555.83 519.64 o 1.098984
-5 -2 15 709.25 661.74 o 1.098359
-2 -2 17 746.85 697.47 o 1.097710
-7 2 3 73.08 68.19 o 1.097637
-3 -4 9 5.99 5.58 o 1.097179
-2 -3 15 1696.85 1573.33 o 1.096589
3 -4 5 1.08 1.01 o 1.096700
4 1 11 29.44 27.30 o 1.096471
-7 2 4 346.05 320.29 o 1.096320
0 2 14 316.06 292.34 o 1.096120
-7 0 12 1.47 1.35 o 1.095593
-3 4 4 371.86 342.28 o 1.095681
-5 1 15 586.17 538.45 o 1.095463
-7 2 2 0.13 0.12 o 1.095126
-6 -2 13 18.23 16.84 o 1.094739
5 -1 10 33.43 30.83 o 1.094397
6 1 6 6.12 5.64 o 1.093886
-3 3 11 1.44 1.33 o 1.093768
-1 -3 15 127.31 117.59 o 1.093521
5 3 2 1.13 1.05 o 1.093493
-4 1 16 223.28 206.25 o 1.093467
-4 3 10 436.39 403.26 o 1.093456
5 0 10 225.35 209.56 o 1.092814
2 3 9 13.07 12.13 o 1.092859
-5 3 8 1879.68 1747.06 o 1.092731
-7 -2 8 4.32 4.03 o 1.092304
-1 4 6 25.66 23.93 o 1.092471
7 -1 3 267.65 249.72 o 1.091962
0 0 17 217.18 203.07 o 1.091858
-7 -2 3 49.48 46.29 o 1.091322
0 3 11 221.63 207.46 o 1.091354
3 -1 14 669.07 627.16 o 1.091190
-7 2 5 856.01 801.62 o 1.091217
0 1 16 22.46 21.17 o 1.090971
2 -4 8 68.73 64.95 o 1.090740
7 1 2 1268.91 1202.75 o 1.089837
4 2 9 20.48 19.64 o 1.089136
-1 -2 17 1361.35 1312.20 o 1.088742
-7 2 1 39.56 37.95 o 1.088866
-5 -3 12 642.48 618.86 o 1.088579
-1 -4 11 2.93 2.83 o 1.087993
3 -3 11 555.24 535.75 o 1.088024
-3 -2 17 0.41 0.40 o 1.087538
-7 -1 12 28.37 27.67 o 1.087378
3 4 1 58.06 56.61 o 1.087279
5 1 9 297.58 290.96 o 1.087131
-6 -3 6 137.60 134.83 o 1.086931
-6 -3 5 97.57 95.64 o 1.086823
1 4 5 133.36 130.67 o 1.086934
5 -2 9 37.83 37.30 o 1.085100
-4 2 14 16.79 16.70 o 1.084635
-4 -3 14 1405.32 1403.18 o 1.084062
-2 -1 18 131.37 131.87 o 1.083588
-6 -3 7 4.76 4.79 o 1.083329
0 4 6 123.67 124.66 o 1.083241
-6 -3 4 88.47 88.70 o 1.083009
3 0 14 24.16 24.23 o 1.083058
-2 4 6 52.34 52.36 o 1.082830
-7 2 6 1.97 1.96 o 1.082484
-7 -2 9 201.78 196.24 o 1.081321
3 1 13 27.18 26.31 o 1.081146
-6 0 15 502.64 482.97 o 1.080887
3 2 11 1122.73 1078.23 o 1.080918
-3 -3 15 68.07 65.17 o 1.080688
-6 -1 15 296.77 283.98 o 1.080652
1 -3 14 205.31 196.92 o 1.080695
-2 -4 11 3052.85 2913.54 o 1.080596
-7 -2 2 1.54 1.46 o 1.079987
4 -3 9 26.55 25.00 o 1.079918
-6 3 2 19.26 18.10 o 1.079814
-7 1 11 27.95 26.13 o 1.079238
1 -4 10 12.75 11.81 o 1.079019
7 -2 0 28.53 26.41 o 1.079047
-4 -4 5 120.20 111.39 o 1.078930
-6 3 1 56.95 52.57 o 1.078226
3 -4 6 6.07 5.61 o 1.078152
-5 2 13 2.75 2.54 o 1.078013
-3 -4 10 618.54 569.84 o 1.077633
-6 3 3 126.67 116.90 o 1.077756
-4 -4 4 687.72 632.76 o 1.077534
-6 2 11 67.04 61.68 o 1.077523
-3 -1 18 4.50 4.13 o 1.077188
-3 4 5 2212.61 2032.56 o 1.076969
0 -4 11 579.95 531.94 o 1.076758
-4 -4 6 572.98 525.90 o 1.076691
5 -3 6 2121.55 1946.01 o 1.076488
-6 -3 8 1455.29 1339.30 o 1.076128
-6 -3 3 299.01 274.92 o 1.075606
6 -2 6 11.96 11.03 o 1.075413
7 0 4 1393.65 1283.51 o 1.074584
-8 0 5 938.97 864.61 o 1.074260
1 -2 16 240.62 221.72 o 1.074202
-2 2 15 25.71 23.69 o 1.074325
5 2 7 98.73 90.66 o 1.073194
6 -3 0 67.42 61.82 o 1.073041
2 4 4 17.95 16.45 o 1.073000
-2 0 18 795.11 729.74 o 1.072689
-8 0 4 1.12 1.03 o 1.072551
-4 -4 3 109.78 100.63 o 1.072544
-8 0 6 1582.35 1449.89 o 1.072380
4 -4 0 81.22 74.41 o 1.072397
2 -3 13 286.34 262.34 o 1.072042
0 -3 15 197.23 180.64 o 1.071949
-6 3 4 3222.49 2952.71 o 1.072116
-1 -1 18 12.23 11.17 o 1.071593
-2 1 17 27.67 25.17 o 1.071095
-4 -4 7 865.41 786.02 o 1.070883
-4 4 1 5.93 5.39 o 1.070941
-6 1 14 178.71 161.93 o 1.070506
-7 2 7 9.61 8.71 o 1.070380
4 -4 1 461.36 418.02 o 1.070283
2 -2 15 161.86 145.43 o 1.069371
6 2 4 176.48 156.95 o 1.067922
-3 0 18 283.92 251.62 o 1.067593
-8 0 3 740.19 654.61 o 1.067303
-7 -2 10 157.31 139.02 o 1.067117
-2 3 12 3319.28 2934.28 o 1.067359
3 3 8 154.37 136.55 o 1.067223
-8 0 7 255.63 225.75 o 1.066967
5 3 3 65.66 57.85 o 1.066423
-5 3 9 68.95 60.83 o 1.066491
3 4 2 2136.60 1882.61 o 1.066401
7 -2 1 182.45 159.74 o 1.065956
-7 0 13 17.28 15.09 o 1.065765
-4 4 2 551.78 483.11 o 1.065958
-1 2 15 130.06 113.68 o 1.065844
-6 -3 9 385.07 335.54 o 1.065540
7 -1 4 1069.05 931.54 o 1.065535
-7 -2 1 213.49 186.11 o 1.065470
-3 1 17 661.91 575.59 o 1.064946
-6 -3 2 0.09 0.07 o 1.064830
-3 2 15 393.19 341.80 o 1.064853
4 -4 2 915.83 795.07 o 1.064661
6 -3 1 188.37 163.46 o 1.064413
-1 3 12 386.52 335.41 o 1.064426
-4 -4 2 41.88 36.35 o 1.064108
2 -4 9 736.38 639.46 o 1.064074
-6 -2 14 0.18 0.16 o 1.063494
4 3 6 785.50 684.35 o 1.063590
-6 3 5 57.46 50.01 o 1.063058
7 1 3 35.16 30.70 o 1.062870
-1 4 7 25.65 22.44 o 1.062445
0 -2 17 239.29 209.24 o 1.061980
6 0 8 553.76 484.31 o 1.061833
-4 -4 8 376.02 329.62 o 1.061678
-5 -3 13 467.94 413.63 o 1.061217
-7 -1 13 24.07 21.72 o 1.060264
6 -1 8 1564.51 1412.70 o 1.060221
-5 -1 17 1045.73 948.00 o 1.059972
-1 0 18 737.06 668.86 o 1.059955
-4 -2 17 69.90 63.98 o 1.059750
-1 1 17 24.78 22.95 o 1.059471
-8 0 2 357.61 339.01 o 1.058671
-8 0 8 0.02 0.00 < 1.058179
-4 3 11 945.48 903.49 o 1.058034
-5 -2 16 1.54 1.49 o 1.057690
4 -2 12 148.01 143.01 o 1.057723
-1 -4 12 1.22 1.19 o 1.057607
-4 4 3 78.33 76.13 o 1.057593
3 -4 7 23.08 22.59 o 1.057070
1 -1 17 152.36 149.30 o 1.056771
1 4 6 19.79 19.42 o 1.056514
-3 -4 11 50.61 50.57 o 1.055664
4 -4 3 27.89 27.84 o 1.055695
-3 4 6 12.95 12.91 o 1.055752
-2 4 7 12.55 12.53 o 1.055689
-7 2 8 174.08 175.18 o 1.055246
-5 0 17 97.06 97.85 o 1.054996
6 1 7 466.39 470.20 o 1.054923
2 -1 16 447.57 454.10 o 1.054412
1 3 11 52.22 53.02 o 1.054399
-4 -1 18 0.09 0.09 o 1.053334
1 2 14 11.75 12.16 o 1.053397
4 -1 13 210.97 219.00 o 1.053002
-2 -4 12 27.84 28.92 o 1.052911
-3 3 12 879.16 915.92 o 1.052780
6 -3 2 111.03 116.26 o 1.052589
-4 -4 1 20.00 20.95 o 1.052468
-7 1 12 37.56 39.65 o 1.052044
-6 -3 10 1865.08 1970.43 o 1.051864
-2 -3 16 58.15 61.59 o 1.051804
0 4 7 1213.65 1284.77 o 1.051842
-8 -1 6 781.74 829.99 o 1.051237
-8 -1 5 432.61 460.23 o 1.050984
-6 -3 1 60.85 64.74 o 1.050986
-6 3 6 1420.04 1508.86 o 1.050843
-7 -2 11 25.47 27.03 o 1.050082
2 2 13 24.72 26.22 o 1.050102
7 -2 2 52.16 55.30 o 1.049955
-4 -4 9 206.50 218.33 o 1.049336
5 -3 7 0.50 0.52 o 1.049266
-5 1 16 898.40 949.31 o 1.049031
1 -4 11 33.25 35.54 o 1.048542
-4 -3 15 972.43 1038.33 o 1.048156
-8 1 4 34.08 36.36 o 1.048261
7 2 0 168.60 180.02 o 1.048165
-8 -1 7 438.69 468.42 o 1.048132
3 -2 14 25.41 27.13 o 1.048157
2 3 10 15.76 16.81 o 1.048238
5 -1 11 80.84 86.55 o 1.048020
-8 1 5 1060.28 1136.98 o 1.047851
-8 -1 4 692.77 741.14 o 1.047380
3 -3 12 211.35 226.43 o 1.047192
-1 -3 16 39.30 42.01 o 1.047017
-8 0 1 84.29 90.25 o 1.046898
4 0 13 58.46 62.88 o 1.046629
-8 0 9 120.18 129.50 o 1.046264
-6 2 12 153.97 165.70 o 1.046372
-4 4 4 5.45 5.88 o 1.046084
1 1 16 152.32 164.18 o 1.045730
1 0 17 6.71 7.22 o 1.045494
-4 0 18 76.13 81.70 o 1.045403
-8 1 3 573.39 614.13 o 1.045340
0 -4 12 15.07 16.18 o 1.045212
5 -2 10 138.44 148.83 o 1.045105
2 4 5 102.68 109.95 o 1.044953
5 0 11 79.90 85.75 o 1.044642
4 1 12 240.54 258.20 o 1.044589
4 -3 10 1513.21 1623.52 o 1.044487
0 3 12 14.00 15.01 o 1.044401
6 -2 7 84.04 89.87 o 1.044212
-2 -2 18 53.10 56.91 o 1.044100
2 0 16 172.30 184.43 o 1.044144
-8 1 6 131.74 141.16 o 1.044122
7 0 5 343.52 367.69 o 1.044048
2 1 15 300.03 321.41 o 1.044065
4 -4 4 1016.64 1083.83 o 1.043637
3 4 3 1198.71 1279.51 o 1.043368
0 -1 18 437.06 463.52 o 1.042945
4 2 10 20.62 21.85 o 1.042822
-6 -1 16 1463.79 1538.58 o 1.041927
-4 1 17 31.96 33.58 o 1.041911
-8 -1 8 24.84 26.07 o 1.041758
5 1 10 334.67 346.24 o 1.040986
-8 -1 3 275.47 281.88 o 1.040527
0 2 15 268.19 275.52 o 1.040633
-6 0 16 806.20 817.78 o 1.040175
-3 -3 16 753.35 758.52 o 1.039772
-8 1 2 32.05 31.80 o 1.039171
-4 2 15 16.09 15.88 o 1.038791
-5 3 10 364.56 359.72 o 1.038786
-5 2 14 32.60 31.92 o 1.038198
5 3 4 232.32 227.65 o 1.038007
4 4 0 3.75 3.67 o 1.037940
6 -3 3 1480.59 1448.14 o 1.037889
7 -1 5 99.07 96.59 o 1.037679
-3 -2 18 84.99 82.99 o 1.037345
-7 2 9 55.31 54.04 o 1.037479
-8 1 7 85.58 83.55 o 1.037178
3 -1 15 635.92 619.64 o 1.036187
6 2 5 162.45 157.97 o 1.036071
2 -4 10 47.12 45.84 o 1.036029
-6 3 7 10.45 10.16 o 1.035798
-6 -3 11 334.12 323.38 o 1.035463
-7 0 14 62.35 60.06 o 1.035014
1 -3 15 610.95 588.37 o 1.034957
7 1 4 690.95 662.95 o 1.034582
6 3 0 95.11 90.99 o 1.034440
-1 -2 18 73.34 70.07 o 1.034369
-4 -4 10 337.82 320.97 o 1.034189
3 -4 8 292.69 276.96 o 1.033954
5 2 8 78.31 72.49 o 1.033185
-5 -3 14 8.93 8.18 o 1.032609
-8 -1 9 52.52 47.80 o 1.032290
-3 4 7 2836.03 2591.16 o 1.032531
8 0 0 1180.19 1075.46 o 1.032302
-6 1 15 128.63 116.96 o 1.032192
-7 -1 14 1.70 1.54 o 1.031878
-3 -4 12 20.76 18.71 o 1.031783
-6 -2 15 42.52 38.27 o 1.031580
0 1 17 561.12 505.51 o 1.031728
-8 0 10 327.60 294.56 o 1.031543
-4 4 5 0.23 0.21 o 1.031740
7 -2 3 2.34 2.10 o 1.031453
-1 4 8 530.31 476.83 o 1.031565
0 0 18 38.77 34.75 o 1.031199
3 2 12 180.30 161.63 o 1.031187
-7 -2 12 229.53 205.03 o 1.030646
-8 -1 2 492.79 440.19 o 1.030616
-8 1 1 18.52 16.53 o 1.029925
4 -4 5 213.48 191.75 o 1.028808
2 -3 14 203.94 183.79 o 1.028541
7 2 1 0.26 0.23 o 1.028504
4 3 7 42.43 37.99 o 1.027817
3 0 15 35.58 31.73 o 1.027327
-8 1 8 31.53 28.14 o 1.027211
-2 4 8 165.45 147.59 o 1.027329
3 1 14 3980.21 3549.25 o 1.026953
-2 -1 19 156.35 139.33 o 1.026863
3 3 9 52.76 47.10 o 1.026738
-1 -4 13 171.53 152.92 o 1.026480
0 -3 16 58.29 51.69 o 1.026079
1 4 7 428.30 379.46 o 1.025369
-2 -4 13 314.33 276.74 o 1.024118
-2 3 13 275.20 242.74 o 1.024074
-7 1 13 92.75 82.03 o 1.023680
-3 -1 19 330.39 292.62 o 1.023340
-2 2 16 456.55 403.67 o 1.022684
-4 3 12 101.26 89.55 o 1.022727
6 -1 9 70.72 62.27 o 1.022136
6 0 9 636.46 561.97 o 1.021721
1 -2 17 248.11 217.88 o 1.021122
4 4 1 590.75 518.51 o 1.020896
5 -3 8 235.55 206.80 o 1.020908
6 -3 4 71.41 63.12 o 1.020688
-8 -1 10 20.32 17.99 o 1.019982
0 4 8 533.96 473.09 o 1.019931
-1 3 13 36.09 32.19 o 1.019563
3 4 4 1121.87 1003.09 o 1.018684
-5 -2 17 364.13 326.29 o 1.018152
-6 3 8 597.14 537.16 o 1.018303
2 -2 16 10.45 9.36 o 1.018125
-8 -1 1 293.79 263.07 o 1.017907
8 -1 0 3.64 3.26 o 1.017846
1 -4 12 352.99 317.76 o 1.017438
-7 2 10 188.00 169.24 o 1.017510
-6 -3 12 173.30 156.00 o 1.016743
6 1 8 18.08 16.26 o 1.016782
-4 -4 11 4.79 4.32 o 1.016617
-3 2 16 25.55 22.97 o 1.016394
2 4 6 944.85 850.79 o 1.015939
-2 0 19 0.20 0.18 o 1.015747
6 3 1 446.59 401.31 o 1.015598
-2 1 18 142.56 128.11 o 1.015610
-5 -1 18 197.48 177.15 o 1.015294
8 0 1 18.43 16.54 o 1.015249
-4 -2 18 0.00 0.00 < 1.015029
-1 -1 19 118.39 105.88 o 1.014746
-4 4 6 112.43 100.97 o 1.014923
-6 2 13 1419.65 1270.00 o 1.014729
-8 1 9 747.81 667.94 o 1.014482
-8 0 11 0.09 0.08 o 1.014382
-1 2 16 303.18 270.99 o 1.013476
4 -2 13 172.23 153.69 o 1.013319
-3 0 19 87.41 78.09 o 1.013289
0 -4 13 938.56 838.96 o 1.013252
7 0 6 1974.21 1778.18 o 1.012945
-3 3 13 125.32 112.73 o 1.013048
-4 -3 16 1432.54 1298.04 o 1.012569
6 -2 8 4.03 3.65 o 1.012552
-3 1 18 29.46 26.79 o 1.012231
4 -4 6 431.95 396.63 o 1.011575
7 -2 4 7.54 6.96 o 1.010884
-5 -4 6 110.75 102.18 o 1.010023
-5 -4 5 1746.86 1611.77 o 1.010006
-5 3 11 274.89 253.65 o 1.010128
1 3 12 17.76 16.39 o 1.010011
0 -2 18 387.44 355.60 o 1.009476
-7 -2 13 23.97 21.87 o 1.009253
4 -3 11 0.00 0.00 o 1.009332
3 -4 9 29.52 26.94 o 1.009294
-2 -3 17 926.25 846.54 o 1.009097
-5 0 18 524.92 479.39 o 1.009128
7 -1 6 67.58 61.80 o 1.008906
5 3 5 377.78 344.06 o 1.008755
3 -3 13 0.47 0.42 o 1.007655
-3 4 8 105.46 95.48 o 1.007794
-5 -4 7 38.09 34.67 o 1.007063
2 -4 11 509.76 463.55 o 1.007113
-5 -4 4 720.32 656.19 o 1.007012
7 2 2 1.01 0.92 o 1.006933
-3 -4 13 403.76 368.88 o 1.006481
5 -2 11 245.18 223.01 o 1.006259
2 3 11 323.74 296.02 o 1.005706
7 1 5 101.25 92.80 o 1.005474
-8 -1 11 6.43 5.91 o 1.005144
-5 1 17 365.81 335.52 o 1.005083
-4 -1 19 0.04 0.04 o 1.004647
4 -1 14 70.35 64.96 o 1.004430
-6 -1 17 2.45 2.25 o 1.004136
5 -1 12 5.21 4.80 o 1.004128
6 2 6 417.85 385.69 o 1.003959
-7 0 15 313.56 289.35 o 1.003831
-1 1 18 847.54 782.80 o 1.003853
-5 4 1 25.42 23.49 o 1.003559
-5 -3 15 102.77 94.95 o 1.003253
8 -1 1 188.22 173.89 o 1.003239
-1 -3 17 2.66 2.46 o 1.003041
-1 0 19 235.56 217.37 o 1.003087
5 -4 0 23.50 21.75 o 1.002931
-7 -1 15 1364.66 1266.32 o 1.002717
8 1 0 167.38 155.32 o 1.002718
1 2 15 22.82 21.44 o 1.002044
4 4 2 22.47 21.30 o 1.001735
1 -1 18 8.32 7.91 o 1.001421
6 -3 5 4534.07 4310.39 o 1.001388
-5 -4 8 104.63 99.50 o 1.001203
-5 -4 3 365.62 348.27 o 1.001119
-5 4 2 846.47 804.65 o 1.001263
3 -2 15 13.27 12.69 o 1.000865
-6 0 17 38.89 37.21 o 1.000820
2 -1 17 197.37 189.81 o 1.000510
-3 -3 17 24.90 23.97 o 1.000260
2 2 14 395.18 380.29 o 1.000302
-1 4 9 7.53 7.24 o 1.000312
0 3 13 38.96 37.55 o 1.000114
-6 -2 16 342.50 331.86 o 0.999466
-5 2 15 318.66 308.43 o 0.999580
5 0 12 242.04 234.89 o 0.999416
-8 1 10 73.33 71.21 o 0.999305
5 -4 1 53.82 52.23 o 0.999394
4 2 11 15.78 15.36 o 0.999047
-6 3 9 32.19 31.43 o 0.998761
-2 4 9 13.72 13.47 o 0.998239
5 1 11 16.37 16.03 o 0.997366
4 0 14 3.97 3.89 o 0.997166
-4 -4 12 30.42 29.87 o 0.997021
4 1 13 53.68 52.80 o 0.996551
-6 -3 13 355.26 349.15 o 0.996120
8 0 2 1262.92 1241.17 o 0.996133
-4 0 19 20.53 20.14 o 0.996037
-5 4 3 5.21 5.12 o 0.996101
-4 4 7 93.55 91.76 o 0.996021
-7 2 11 6.12 6.00 o 0.995773
-4 2 16 420.56 413.03 o 0.995433
-8 0 12 486.16 477.69 o 0.995178
-1 -4 14 701.47 690.26 o 0.995076
6 3 2 92.00 90.92 o 0.994879
-2 -2 19 320.41 317.26 o 0.994778
-6 1 16 105.79 104.54 o 0.994847
-2 -4 14 129.54 128.34 o 0.994696
-7 1 14 125.79 124.75 o 0.994624
5 2 9 50.85 50.46 o 0.994475
-4 1 18 1006.00 1001.59 o 0.994158
0 -5 3 130.72 130.17 o 0.994095
1 4 8 1271.75 1267.69 o 0.993963
5 -4 2 177.22 178.09 o 0.993039
3 4 5 824.18 828.59 o 0.992821
-5 -4 9 179.13 179.93 o 0.992594
0 -5 2 77.65 78.13 o 0.992687
0 -5 4 88.18 88.68 o 0.992657
4 3 8 569.45 571.86 o 0.992576
-5 -4 2 536.15 538.87 o 0.992478
4 -4 7 327.59 329.55 o 0.992332
5 -3 9 159.40 160.34 o 0.991887
1 -3 16 124.93 125.53 o 0.991731
1 1 17 1274.43 1279.19 o 0.991450
2 1 16 13.73 13.76 o 0.991097
-3 -2 19 56.56 56.60 o 0.990681
1 0 18 1.97 1.97 o 0.990117
2 0 17 0.03 0.03 o 0.990033
0 2 16 573.71 574.03 o 0.989972
-7 -3 6 625.04 625.99 o 0.989716
-7 -3 7 695.98 694.95 o 0.988735
7 -2 5 1784.83 1784.37 o 0.988682
-8 -2 6 1616.40 1615.49 o 0.988568
0 -1 19 21.11 21.10 o 0.988571
0 -5 1 1005.41 1003.63 o 0.988471
0 -5 5 177.00 176.63 o 0.988410
-8 -1 12 448.49 448.59 o 0.988123
-5 4 4 3.65 3.65 o 0.988205
-1 -5 4 77.72 77.77 o 0.988096
-7 -3 5 69.56 69.68 o 0.987890
0 4 9 407.17 407.82 o 0.987947
-4 3 13 564.71 565.82 o 0.987922
-8 -2 7 1491.17 1497.41 o 0.987655
-1 -5 3 290.06 290.70 o 0.987770
3 3 10 414.73 415.99 o 0.987728
2 -3 15 865.20 868.53 o 0.987135
-8 -2 5 18.81 18.92 o 0.986683
-7 -2 14 773.81 779.01 o 0.986342
8 -1 2 1.60 1.61 o 0.986445
1 -5 2 15.80 15.90 o 0.986527
2 4 7 764.38 769.94 o 0.986417
1 -4 13 3206.60 3238.93 o 0.986153
1 -5 3 382.99 386.87 o 0.986172
3 -1 16 570.07 575.24 o 0.985949
-1 -5 5 92.31 93.26 o 0.985632
8 1 1 86.35 87.27 o 0.985400
6 -1 10 56.96 57.44 o 0.985094
-7 -3 8 0.27 0.27 o 0.984972
3 2 13 115.18 116.27 o 0.984959
-1 -2 19 751.32 757.06 o 0.984624
-1 -5 2 322.61 324.92 o 0.984661
-8 -2 8 195.80 196.40 o 0.983968
1 -5 1 10.81 10.85 o 0.984104
5 -4 3 433.38 434.94 o 0.984027
7 2 3 534.35 535.38 o 0.983889
3 -4 10 502.69 503.18 o 0.983545
-8 2 4 16.00 16.00 o 0.983503
-7 -3 4 454.09 453.31 o 0.983302
6 0 10 96.07 95.65 o 0.983067
1 -5 4 224.42 223.45 o 0.983049
-6 2 14 344.52 342.71 o 0.983024
0 -3 17 326.28 324.22 o 0.982868
-2 3 14 300.53 298.70 o 0.982893
-7 3 3 963.98 957.92 o 0.982856
-8 2 3 301.99 299.87 o 0.982735
-7 3 2 146.60 145.57 o 0.982698
-8 -2 4 118.60 116.26 o 0.982049
-8 1 11 176.59 173.09 o 0.982029
-3 4 9 2660.95 2607.90 o 0.981994
7 0 7 562.50 549.62 o 0.981709
-5 -4 10 220.91 215.84 o 0.981447
-8 2 5 587.81 573.96 o 0.981516
0 5 0 164.80 160.89 o 0.981551
0 -5 6 329.32 321.76 o 0.981462
0 -4 14 814.38 795.00 o 0.981301
-5 -4 1 149.04 145.49 o 0.981303
-5 3 12 27.73 26.92 o 0.980967
6 -2 9 23.38 22.67 o 0.980857
4 4 3 1301.07 1261.81 o 0.980863
-1 -5 6 329.21 318.64 o 0.980439
6 -3 6 272.72 263.88 o 0.980396
-3 -4 14 247.54 238.79 o 0.980208
-7 3 4 14.28 13.78 o 0.980269
-5 -2 18 127.60 123.14 o 0.979996
6 1 9 99.48 95.84 o 0.979758
-7 3 1 901.72 868.70 o 0.979799
7 -1 7 2.52 2.43 o 0.979661
-8 2 2 413.05 396.97 o 0.979232
5 3 6 30.18 28.97 o 0.979109
1 -5 0 3.86 3.71 o 0.978965
-1 -5 1 275.52 263.81 o 0.978848
-7 -3 9 576.71 551.07 o 0.978521
0 1 18 0.10 0.10 o 0.978464
2 -4 12 50.99 48.82 o 0.977766
-4 -3 17 408.55 391.24 o 0.977654
-8 -2 9 422.78 405.35 o 0.977599
-5 4 5 70.82 67.81 o 0.977769
-6 3 10 119.77 115.08 o 0.977580
3 1 15 1431.30 1375.37 o 0.977447
1 -5 5 1335.07 1284.53 o 0.977234
-1 3 14 66.05 63.55 o 0.977214
0 0 19 426.05 409.64 o 0.976925
-8 2 6 13.58 13.07 o 0.976825
3 0 16 91.54 87.85 o 0.976683
-7 -3 3 29.10 28.03 o 0.976067
7 1 6 21.53 20.74 o 0.975983
-4 -4 13 786.75 759.69 o 0.975809
-2 -1 20 3.19 3.07 o 0.975500
8 0 3 57.02 55.10 o 0.975353
-4 4 8 229.41 221.50 o 0.975433
-2 2 17 21.41 20.64 o 0.975137
-7 3 5 188.25 180.95 o 0.975001
-8 -2 3 137.28 131.67 o 0.974780
4 -3 12 1467.20 1407.27 o 0.974803
-3 3 14 77.99 74.80 o 0.974800
-8 0 13 2.13 2.04 o 0.974328
-3 -1 20 851.41 813.42 o 0.974143
7 -3 0 119.30 114.15 o 0.974230
-6 -3 14 557.61 532.86 o 0.974011
-5 -3 16 0.49 0.46 o 0.973576
-7 -1 16 15.79 14.91 o 0.973210
-5 -1 19 527.83 497.47 o 0.973142
-8 2 1 358.21 337.14 o 0.973082
-4 -2 19 235.08 220.52 o 0.972847
6 3 3 280.08 262.84 o 0.972696
-7 0 16 558.83 523.91 o 0.972625
-7 2 12 98.90 92.81 o 0.972689
-1 -5 7 224.82 210.79 o 0.972646
1 -2 18 63.90 59.81 o 0.972524
5 -4 4 152.32 142.74 o 0.972575
0 5 1 11.57 10.76 o 0.972097
6 2 7 735.98 682.52 o 0.971984
0 -5 7 5.05 4.69 o 0.971983
4 -4 8 148.60 137.17 o 0.971475
4 -2 14 58.93 54.26 o 0.971404
-3 2 17 164.23 151.46 o 0.971330
-1 5 1 5.03 4.63 o 0.971235
2 -2 17 972.81 895.94 o 0.970937
1 5 0 257.28 236.64 o 0.970473
-2 -5 4 3.51 3.22 o 0.969935
-7 -3 10 580.53 535.24 o 0.969539
3 -3 14 459.10 423.55 o 0.969625
-8 2 7 46.91 43.25 o 0.969544
-8 -1 13 159.55 147.97 o 0.969284
-2 -5 5 127.23 118.09 o 0.969244
-1 4 10 34.12 31.71 o 0.969085
1 -5 6 250.51 232.51 o 0.968872
-8 -2 10 0.99 0.92 o 0.968703
5 -2 12 455.17 423.23 o 0.968795
-2 4 10 252.02 234.15 o 0.968838
-2 -3 18 0.04 0.03 o 0.968555
-5 -4 11 541.81 502.26 o 0.968024
1 3 13 17.15 15.94 o 0.968150
-2 -5 3 1540.47 1426.52 o 0.967985
5 4 0 115.07 106.44 o 0.967855
8 -1 3 1330.12 1232.44 o 0.967826
-6 -2 17 472.42 437.67 o 0.967536
-6 -1 18 0.57 0.53 o 0.967539
-7 3 6 7.98 7.40 o 0.967180
2 -5 2 175.28 161.95 o 0.966945
-7 -3 2 93.39 86.24 o 0.966360
8 1 2 1343.16 1239.68 o 0.966320
2 -5 1 713.40 658.19 o 0.966288
-5 0 19 23.04 21.29 o 0.966136
3 4 6 127.22 117.60 o 0.966203
7 -3 1 574.03 530.44 o 0.966126
-2 -5 6 38.82 35.81 o 0.965928
-1 2 17 49.33 45.50 o 0.965515
-2 1 19 102.31 94.34 o 0.965320
-7 1 15 0.00 0.00 < 0.965289
2 3 12 67.02 61.80 o 0.965342
7 -2 6 9.71 8.95 o 0.965260
-2 -4 15 31.08 28.65 o 0.965053
-8 -2 2 194.05 178.86 o 0.965050
-5 4 6 73.47 67.70 o 0.965038
2 -5 3 187.57 173.16 o 0.964984
-2 0 20 36.83 34.31 o 0.964391
8 -2 0 7.46 6.94 o 0.964431
-3 1 19 912.44 853.24 o 0.964030
-3 0 20 889.23 830.84 o 0.963900
-1 -4 15 87.93 82.20 o 0.963780
-5 1 18 1341.28 1258.21 o 0.963625
-1 -1 20 8.86 8.33 o 0.963475
-2 -5 2 1051.25 989.01 o 0.963440
-6 0 18 22.17 20.88 o 0.963016
-8 1 12 198.41 186.91 o 0.963017
2 -5 0 20.77 19.57 o 0.963030
5 -1 13 50.79 48.33 o 0.962726
5 -3 10 3.28 3.13 o 0.962608
1 4 9 609.39 580.81 o 0.962676
-7 -2 15 401.61 383.48 o 0.962327
-3 -3 18 303.07 289.39 o 0.962337
-1 -5 8 18.49 17.65 o 0.962437
-5 2 16 59.28 56.64 o 0.962377
-1 -3 18 49.35 47.22 o 0.961587
0 -2 19 5.34 5.12 o 0.961471
-1 5 2 133.31 128.10 o 0.961098
2 -5 4 6.69 6.46 o 0.960454
0 5 2 272.96 262.98 o 0.960331
0 -5 8 3.52 3.39 o 0.960193
-2 -5 7 46.89 45.04 o 0.960066
7 2 4 543.27 521.79 o 0.959781
-8 2 8 367.56 353.49 o 0.959847
1 5 1 0.98 0.94 o 0.959732
-4 -1 20 16.32 15.69 o 0.959568
4 -1 15 387.09 371.97 o 0.959439
5 -4 5 544.99 522.76 o 0.958943
-6 1 17 83.79 80.36 o 0.958715
4 4 4 72.46 69.49 o 0.958676
0 3 14 33.24 31.81 o 0.958455
-7 -3 11 220.84 210.85 o 0.958235
4 3 9 3.88 3.70 o 0.958164
1 -5 7 850.09 810.99 o 0.958157
6 -3 7 896.24 854.55 o 0.958108
4 2 12 455.61 432.69 o 0.957799
-8 -2 11 46.01 43.36 o 0.957487
5 2 10 54.90 51.79 o 0.957257
-2 5 1 4.94 4.66 o 0.957248
3 -4 11 516.43 487.02 o 0.957116
5 0 13 340.34 320.57 o 0.957043
3 -2 16 732.22 686.42 o 0.956892
-7 3 7 9.28 8.73 o 0.956990
2 4 8 1425.59 1337.48 o 0.956776
-2 -5 1 429.34 398.62 o 0.956409
5 1 12 61.41 56.98 o 0.956258
0 4 10 54.37 50.44 o 0.956247
