#------------------------------------------------------------------------------
#$Date: 2016-03-24 14:28:49 +0200 (Thu, 24 Mar 2016) $
#$Revision: 179665 $
#$URL: svn://www.crystallography.net/cod/cif/4/51/18/4511864.cif $
#------------------------------------------------------------------------------
#
# This file is available in the Crystallography Open Database (COD),
# http://www.crystallography.net/
#
# All data on this site have been placed in the public domain by the
# contributors.
#
data_4511864
loop_
_publ_author_name
'Miyake, Ryosuke'
'Nakagawa, Yuki'
'Hase, Mariko'
_publ_section_title
;
 Selective Thermal Elongation of Metal--Metal Distances in the
 Two-Dimensional Assembly of Ag(I) Ions Templated by Assembled Peptide
 Ligands
;
_journal_issue                   10
_journal_name_full               'Crystal Growth &amp; Design'
_journal_page_first              4882
_journal_paper_doi               10.1021/cg5009347
_journal_volume                  14
_journal_year                    2014
_chemical_absolute_configuration ad
_chemical_formula_sum            'C7 H11 Ag2 N3 O5'
_chemical_formula_weight         432.93
_space_group_crystal_system      monoclinic
_space_group_IT_number           4
_space_group_name_Hall           'P 2yb'
_space_group_name_H-M_alt        'P 1 21 1'
_symmetry_space_group_name_Hall  'P 2yb'
_symmetry_space_group_name_H-M   'P 1 21 1'
_atom_sites_solution_hydrogens   geom
_cell_angle_alpha                90
_cell_angle_beta                 103.038(5)
_cell_angle_gamma                90
_cell_formula_units_Z            2
_cell_length_a                   4.8330(16)
_cell_length_b                   19.978(7)
_cell_length_c                   5.5547(19)
_cell_measurement_temperature    293
_cell_volume                     522.5(3)
_computing_cell_refinement       'SAINT V8.32B (Bruker AXS)'
_computing_data_collection       'Bruker SMART APEXII ULTRA'
_computing_data_reduction        'SAINT V8.32B (Bruker AXS)'
_computing_molecular_graphics    'XSHELL V6.3.1 (Bruker AXS)'
_computing_publication_material  'Generate Report (Bruker AXS)'
_computing_structure_refinement  'SHELXL-2013 (Sheldrick, 2013)'
_computing_structure_solution    'SHELXS-97 (Sheldrick, 1997)'
_diffrn_ambient_temperature      293
_diffrn_detector_area_resol_mean 8.333
_diffrn_measured_fraction_theta_full 0.961
_diffrn_measured_fraction_theta_max 0.961
_diffrn_measurement_device_type  'Bruker D8 goniometer'
_diffrn_measurement_method       'omega scans'
_diffrn_radiation_monochromator  'multilayered conforcal mirror'
_diffrn_radiation_type           MoK\a
_diffrn_radiation_wavelength     0.71073
_diffrn_reflns_av_R_equivalents  0.0151
_diffrn_reflns_limit_h_max       5
_diffrn_reflns_limit_h_min       -6
_diffrn_reflns_limit_k_max       23
_diffrn_reflns_limit_k_min       -27
_diffrn_reflns_limit_l_max       7
_diffrn_reflns_limit_l_min       -7
_diffrn_reflns_number            3718
_diffrn_reflns_theta_full        30.50
_diffrn_reflns_theta_max         30.50
_diffrn_reflns_theta_min         2.04
_diffrn_source                   'rotating-anode X-ray tube'
_diffrn_source_type              'Bruker Tourbo X-ray Source'
_exptl_absorpt_coefficient_mu    3.762
_exptl_absorpt_correction_T_max  0.96
_exptl_absorpt_correction_T_min  0.82
_exptl_absorpt_correction_type   empirical
_exptl_absorpt_process_details   'SADABS V2012/1 (Bruker AXS)'
_exptl_crystal_colour            colorless
_exptl_crystal_density_diffrn    2.752
_exptl_crystal_density_method    'not measured'
_exptl_crystal_description       plate
_exptl_crystal_F_000             416
_exptl_crystal_size_max          0.055
_exptl_crystal_size_mid          0.023
_exptl_crystal_size_min          0.010
_refine_diff_density_max         2.222
_refine_diff_density_min         -1.590
_refine_ls_abs_structure_details
;
Flack x determined using 876 quotients [(I+)-(I-)]/[(I+)+(I-)]
(Parsons and Flack (2004), Acta Cryst. A60, s61).
;
_refine_ls_abs_structure_Flack   0.04(3)
_refine_ls_extinction_method     none
_refine_ls_goodness_of_fit_ref   1.067
_refine_ls_hydrogen_treatment    constr
_refine_ls_matrix_type           full
_refine_ls_number_parameters     154
_refine_ls_number_reflns         2541
_refine_ls_number_restraints     1
_refine_ls_restrained_S_all      1.067
_refine_ls_R_factor_all          0.0370
_refine_ls_R_factor_gt           0.0317
_refine_ls_shift/su_max          0.000
_refine_ls_shift/su_mean         0.000
_refine_ls_structure_factor_coef Fsqd
_refine_ls_weighting_details
'w=1/[\s^2^(Fo^2^)+(0.0266P)^2^+1.2840P] where P=(Fo^2^+2Fc^2^)/3'
_refine_ls_weighting_scheme      calc
_refine_ls_wR_factor_gt          0.0703
_refine_ls_wR_factor_ref         0.0727
_reflns_number_gt                2301
_reflns_number_total             2541
_reflns_threshold_expression     'I > 2\s(I)'
_cod_data_source_file            cg5009347_si_001.cif
_cod_data_source_block           p21_293K
_cod_depositor_comments
'Adding full bibliography for 4511859--4511871.cif.'
_cod_database_code               4511864
#BEGIN Tags that were not found in dictionaries:
_shelx_res_file
;
TITL p21(20) in P2(1)
CELL 0.71073   4.83300  19.97800   5.55470  90.0000 103.0382  90.0000
ZERR    2.00   0.00160   0.00660   0.00190   0.0000   0.0054   0.0000
LATT -1
SYMM -X, 0.5+Y, -Z
SFAC C  H  N  O  Ag
UNIT 14  22  6  10  4
L.S. 10
SHEL 20 0.7
ACTA
BOND $h
FMAP 2
PLAN 20
size 0.055 0.023 0.010
TEMP 20
WGHT    0.026600    1.284000
FVAR       0.18545
AG1   5    0.209730    0.857350    0.437154    11.00000    0.03956    0.01792 =
         0.04476   -0.00461   -0.00453    0.00846
AG2   5   -0.430798    0.867442   -0.007554    11.00000    0.04171    0.02333 =
         0.03960   -0.00510   -0.00227    0.00838
C1    1   -0.024043    0.756479    0.032134    11.00000    0.02148    0.02310 =
         0.02514   -0.00273   -0.00123    0.00120
C2    1    0.140453    0.695295    0.146775    11.00000    0.03000    0.02157 =
         0.02610   -0.00163    0.00195    0.00394
AFIX  23
H2A   2    0.305869    0.689660    0.077147    11.00000   -1.20000
H2B   2    0.021813    0.655937    0.104959    11.00000   -1.20000
AFIX   0
C3    1    0.236892    0.700530    0.428558    11.00000    0.01524    0.01446 =
         0.02737    0.00286    0.00809   -0.00017
AFIX  13
H3    2    0.069523    0.704462    0.499628    11.00000   -1.20000
AFIX   0
C4    1    0.399457    0.636915    0.526349    11.00000    0.01767    0.01629 =
         0.03044    0.00470    0.00699    0.00173
C5    1    0.383495    0.524675    0.691138    11.00000    0.01597    0.01144 =
         0.02856    0.00359    0.00348    0.00041
AFIX  13
H5    2    0.558246    0.520110    0.631019    11.00000   -1.20000
AFIX   0
C6    1    0.467348    0.525889    0.972953    11.00000    0.03271    0.01613 =
         0.03207   -0.00033    0.00351   -0.00113
AFIX  23
H6A   2    0.581060    0.565411    1.026877    11.00000   -1.20000
H6B   2    0.297374    0.528594    1.037781    11.00000   -1.20000
AFIX   0
C7    1    0.192078    0.465510    0.590710    11.00000    0.02281    0.01660 =
         0.02734    0.00293    0.00293    0.00127
N1    3    0.415561    0.759741    0.494689    11.00000    0.02407    0.01591 =
         0.03069   -0.00137    0.00034   -0.00031
AFIX  23
H1A   2    0.562262    0.758572    0.400953    11.00000   -1.20000
H1B   2    0.509534    0.756161    0.668002    11.00000   -1.20000
AFIX   0
N2    3    0.249430    0.587450    0.594876    11.00000    0.01312    0.01851 =
         0.03974    0.01087    0.00977    0.00507
AFIX  43
H2    2    0.070053    0.592645    0.582089    11.00000   -1.20000
AFIX   0
N3    3    0.629336    0.465999    1.072257    11.00000    0.03104    0.02716 =
         0.02587    0.00432    0.00399    0.00186
AFIX  23
H3A   2    0.690991    0.471864    1.249642    11.00000   -1.20000
H3B   2    0.799132    0.465095    1.006747    11.00000   -1.20000
AFIX   0
O1    4    0.058888    0.789307   -0.127786    11.00000    0.05592    0.06773 =
         0.04079    0.02739    0.02294    0.01868
O2    4   -0.241305    0.771763    0.110915    11.00000    0.03508    0.03493 =
         0.06958    0.02212    0.02767    0.01440
O3    4    0.656958    0.632223    0.536744    11.00000    0.01450    0.02757 =
         0.09382    0.02551    0.01733    0.00365
O4    4    0.258840    0.428403    0.435974    11.00000    0.05954    0.07500 =
         0.06161   -0.04250    0.02820   -0.02477
O5    4   -0.024783    0.456512    0.675139    11.00000    0.02545    0.03270 =
         0.06718   -0.01327    0.02077   -0.01175
HKLF 4

REM  p21(20) in P2(1)
REM R1 =  0.0317 for    2301 Fo > 4sig(Fo)  and  0.0370 for all    2541 data
REM    154 parameters refined using      1 restraints

END

WGHT      0.0267      1.2820

REM Highest difference peak  2.222,  deepest hole -1.590,  1-sigma level  0.125
Q1    1   0.0869  0.8497  0.5042  11.00000  0.05    2.22
Q2    1  -0.3069  0.8762 -0.0744  11.00000  0.05    1.76
Q3    1  -0.3779  0.8611  0.0764  11.00000  0.05    0.73
Q4    1   0.1712  0.8625  0.3574  11.00000  0.05    0.71
Q5    1   0.3009  0.8582  0.4641  11.00000  0.05    0.65
Q6    1   0.8830  0.3785  0.9402  11.00000  0.05    0.55
Q7    1   0.1205  0.4603  0.3652  11.00000  0.05    0.48
Q8    1  -0.1232  0.8611 -0.1290  11.00000  0.05    0.46
Q9    1   0.4178  0.8638  0.3327  11.00000  0.05    0.46
Q10   1   0.1778  0.8128  0.4309  11.00000  0.05    0.45
Q11   1   0.2354  0.8908  0.4462  11.00000  0.05    0.44
Q12   1  -0.5599  0.8677 -0.0322  11.00000  0.05    0.43
Q13   1  -0.4274  0.8619  0.2158  11.00000  0.05    0.40
Q14   1   0.5734  0.8387  0.6554  11.00000  0.05    0.40
Q15   1  -0.2453  0.8345 -0.0385  11.00000  0.05    0.39
Q16   1  -0.3791  0.9133  0.0162  11.00000  0.05    0.39
Q17   1   0.2187  0.8672  0.2215  11.00000  0.05    0.39
Q18   1  -0.0724  0.7781 -0.1661  11.00000  0.05    0.38
Q19   1  -0.1117  0.7524 -0.2170  11.00000  0.05    0.37
Q20   1  -0.3378  0.8321 -0.1040  11.00000  0.05    0.37
;
_shelx_res_checksum              13531
_shelx_hkl_file
;
  -1   0   0  113.17    2.00
  -1   0   0  116.63    1.93
  -2   0   0   17.68    0.50
  -2   0   0   18.05    0.54
  -3   0   0   24.42    0.77
  -3   0   0   23.36    0.71
  -4   0   0    7.26    0.53
  -4   0   0    6.69    0.56
  -5   0   0   52.25    1.54
  -5   0   0   50.80    1.40
  -6   0   0    7.67    0.78
   0  -1   0   -1.34    0.01
   0  -1   0   -1.33    0.01
   0   1   0   -1.33    0.01
  -1  -1   0   82.21    1.38
  -1   1   0   77.63    1.37
  -1   1   0   78.85    1.43
  -2  -1   0  218.56    3.85
  -2  -1   0  222.38    3.74
  -2   1   0  221.07    3.73
  -2   1   0  222.98    3.87
  -3  -1   0  100.10    2.04
  -3  -1   0  102.00    1.95
  -3   1   0   98.31    2.04
  -3   1   0  102.02    1.94
  -4  -1   0    7.55    0.54
  -4  -1   0    6.65    0.56
  -4   1   0    6.81    0.51
  -4   1   0    7.25    0.57
  -5  -1   0    3.70    0.48
  -5  -1   0    5.06    0.57
  -5   1   0    4.49    0.56
  -5   1   0    4.46    0.51
  -6  -1   0   11.09    0.91
  -6   1   0    9.69    0.86
   0  -2   0  889.21   16.59
  -1  -2   0   38.16    0.76
  -1  -2   0   37.42    0.76
  -1   2   0   39.93    0.79
  -1   2   0   42.20    0.75
  -2  -2   0    2.01    0.21
  -2  -2   0    2.27    0.22
  -2   2   0    2.23    0.23
  -2   2   0    2.23    0.21
  -3  -2   0   69.43    1.50
  -3  -2   0   67.34    1.42
  -3   2   0   65.51    1.39
  -3   2   0   66.48    1.50
  -4  -2   0    7.81    0.59
  -4  -2   0    8.17    0.55
  -4   2   0    8.24    0.54
  -4   2   0    8.98    0.60
  -5  -2   0   26.57    1.08
  -5  -2   0   26.54    1.01
  -5   2   0   26.55    1.12
  -5   2   0   27.85    0.99
  -6  -2   0    2.72    0.57
  -6   2   0    3.17    0.58
   0  -3   0   -0.37    0.06
  -1  -3   0   50.64    0.96
   1  -3   0   51.79    0.94
  -1  -3   0   50.45    0.95
  -1   3   0   51.51    0.99
  -2  -3   0  165.94    3.02
  -2  -3   0  174.82    2.97
  -2   3   0  173.42    3.08
  -2   3   0  170.12    2.94
  -3  -3   0  172.02    3.21
  -3  -3   0  174.87    3.12
  -3   3   0  173.78    3.09
  -3   3   0  172.98    3.26
  -4  -3   0    2.05    0.36
  -4  -3   0    2.53    0.37
  -4   3   0    3.31    0.40
  -4   3   0    2.18    0.38
  -5  -3   0    4.25    0.54
  -5  -3   0    3.73    0.51
  -5   3   0    3.76    0.54
  -6  -3   0   11.44    0.89
  -6   3   0   10.80    0.91
   0  -4   0  389.15    6.50
   1  -4   0  127.62    2.13
  -1  -4   0  126.65    2.16
  -1  -4   0  123.26    2.16
  -1   4   0  122.07    2.20
  -2  -4   0   26.53    0.68
  -2  -4   0   25.65    0.66
  -2   4   0   27.09    0.71
  -3  -4   0   51.03    1.19
  -3  -4   0   52.20    1.22
  -3   4   0   50.96    1.25
  -4  -4   0    2.63    0.39
  -4  -4   0    2.34    0.37
  -4   4   0    2.82    0.41
  -5  -4   0   14.14    0.78
  -5  -4   0   13.90    0.84
  -5   4   0   14.82    0.86
  -6  -4   0    3.81    0.58
  -6   4   0    3.94    0.65
   0  -5   0   -0.54    0.11
  -1  -5   0   63.69    1.23
   1  -5   0   64.28    1.19
  -1  -5   0   63.76    1.18
  -1   5   0   65.58    1.24
  -1   5   0   65.47    1.24
  -2  -5   0  316.08    5.16
  -2  -5   0  300.61    5.22
   2  -5   0  299.98    5.09
  -2   5   0  307.32    5.29
  -3  -5   0  237.21    4.26
  -3  -5   0  240.16    4.19
   3  -5   0  235.72    4.12
  -3   5   0  238.83    4.34
  -4  -5   0    1.55    0.33
  -4  -5   0    0.86    0.30
  -4   5   0    1.32    0.33
  -5  -5   0    3.76    0.51
  -5  -5   0    2.30    0.44
  -5   5   0    3.16    0.51
  -6  -5   0    7.27    0.73
  -6   5   0    8.41    0.82
   0  -6   0  314.51    5.21
  -1  -6   0  124.20    2.18
   1  -6   0  124.63    2.19
  -1  -6   0  127.78    2.23
  -1   6   0  126.04    2.30
  -1   6   0  125.03    2.24
   2  -6   0    5.77    0.29
  -2  -6   0    5.26    0.36
  -2  -6   0    5.73    0.31
  -2   6   0    6.65    0.36
  -3  -6   0   99.88    1.99
   3  -6   0   96.59    1.90
  -3  -6   0   99.81    2.00
  -3   6   0   98.48    2.05
  -4  -6   0    2.42    0.37
   4  -6   0    1.52    0.25
  -4  -6   0    1.87    0.37
  -4   6   0    3.21    0.42
  -5  -6   0   15.28    0.84
  -5  -6   0   15.45    0.81
  -5   6   0   16.61    0.92
  -6  -6   0    4.94    0.63
  -6   6   0    5.69    0.71
   0  -7   0    0.05    0.13
   1  -7   0  208.70    3.61
  -1  -7   0  216.26    3.67
  -1  -7   0  214.47    3.63
  -1   7   0  215.37    3.70
  -1   7   0  214.24    3.82
  -2  -7   0  179.76    3.17
  -2  -7   0  170.26    3.13
   2  -7   0  180.32    3.11
  -2   7   0  181.56    3.24
  -3  -7   0  261.52    4.60
   3  -7   0  254.16    4.46
  -3  -7   0  260.00    4.55
  -3   7   0  258.57    4.69
   4  -7   0    0.78    0.22
  -4  -7   0    0.82    0.29
  -4  -7   0    0.81    0.32
  -4   7   0    0.55    0.31
  -5  -7   0    1.80    0.40
  -5  -7   0    1.37    0.43
  -5   7   0    2.00    0.47
  -6  -7   0    7.81    0.74
  -6   7   0    8.02    0.82
   0  -8   0  617.90   10.25
  -1  -8   0  170.89    3.05
   1  -8   0  171.81    3.01
  -1  -8   0  172.99    2.98
  -1   8   0  175.38    3.17
  -1   8   0  175.26    3.06
  -2  -8   0   37.89    0.94
  -2  -8   0   35.92    0.84
   2  -8   0   37.22    0.87
  -2   8   0   35.95    0.92
  -3  -8   0   43.72    1.12
   3  -8   0   41.98    1.02
  -3  -8   0   43.77    1.07
  -3   8   0   40.27    1.13
  -4  -8   0    6.16    0.52
  -4  -8   0    6.87    0.56
   4  -8   0    5.41    0.41
  -4   8   0    6.20    0.57
  -5  -8   0   25.48    1.05
  -5  -8   0   25.86    1.03
  -5   8   0   25.72    1.13
  -6   8   0    3.46    0.63
   0  -9   0   -0.29    0.14
  -1  -9   0   46.14    0.94
   1  -9   0   47.55    1.03
  -1  -9   0   46.81    1.06
  -2  -9   0   39.24    1.00
  -2  -9   0   38.99    0.89
   2  -9   0   40.07    0.94
  -2   9   0   41.52    1.00
  -2   9   0   39.04    0.92
   3  -9   0   59.43    1.35
  -3  -9   0   63.80    1.47
  -3  -9   0   63.19    1.38
  -3   9   0   59.64    1.47
  -4  -9   0    7.30    0.61
   4  -9   0    5.22    0.43
  -4  -9   0    6.76    0.52
  -4   9   0    7.08    0.59
  -5  -9   0    2.55    0.44
  -5  -9   0    3.34    0.52
  -5   9   0    4.21    0.61
  -6   9   0    7.95    0.83
   0 -10   0  655.45   10.74
  -1 -10   0   24.75    0.60
   1 -10   0   26.65    0.70
  -1 -10   0   26.04    0.73
  -2 -10   0    1.99    0.21
   2 -10   0    1.86    0.24
  -2 -10   0    1.94    0.30
  -2  10   0    1.95    0.24
  -2  10   0    2.12    0.28
  -3 -10   0   25.15    0.87
   3 -10   0   23.36    0.74
  -3 -10   0   25.31    0.77
  -3  10   0   24.67    0.84
  -4 -10   0    6.62    0.52
  -4 -10   0    6.53    0.57
   4 -10   0    6.68    0.46
  -4  10   0    7.44    0.63
  -5 -10   0   28.85    1.07
  -5 -10   0   27.05    1.11
  -5  10   0   28.04    1.19
  -6  10   0    5.55    0.74
   0 -11   0    0.45    0.18
   1 -11   0   53.09    1.18
  -1 -11   0   53.63    1.21
  -1 -11   0   51.48    1.06
   2 -11   0   70.48    1.48
  -2 -11   0   68.56    1.40
  -2 -11   0   69.52    1.55
  -2  11   0   68.96    1.52
   3 -11   0   91.34    1.88
  -3 -11   0   91.24    1.87
  -3 -11   0   92.90    2.00
  -3  11   0   88.79    1.99
  -4 -11   0   15.93    0.80
  -4 -11   0   16.30    0.70
   4 -11   0   15.51    0.66
  -4  11   0   15.21    0.79
  -5 -11   0    2.57    0.50
  -5  11   0    2.57    0.51
  -6  11   0    7.97    0.91
   0 -12   0  607.53   10.06
  -1 -12   0   38.53    1.01
  -1 -12   0   39.71    0.87
   1 -12   0   41.75    1.02
   2 -12   0   19.27    0.66
  -2 -12   0   19.68    0.58
  -2 -12   0   20.03    0.74
  -2  12   0   19.15    0.67
   3 -12   0   41.69    1.09
  -3 -12   0   41.11    1.05
  -3 -12   0   41.93    1.20
  -3  12   0   40.66    1.17
   4 -12   0   12.22    0.61
  -4 -12   0   12.52    0.75
  -4 -12   0   12.63    0.67
  -4  12   0   12.08    0.73
  -5 -12   0   19.82    1.00
  -5  12   0   19.36    1.04
   0 -13   0    0.59    0.21
  -1 -13   0   34.89    0.80
   1 -13   0   35.69    0.96
  -1 -13   0   34.46    0.97
   2 -13   0  112.42    2.20
  -2 -13   0  108.31    2.24
  -2 -13   0  106.29    2.06
  -3 -13   0   74.26    1.61
   3 -13   0   76.15    1.68
  -3 -13   0   77.02    1.79
  -3  13   0   73.49    1.76
   4 -13   0   20.95    0.80
  -4 -13   0   20.29    0.93
  -4  13   0   20.09    0.92
  -5 -13   0    0.61    0.43
  -5  13   0    0.94    0.43
   0 -14   0  196.58    3.60
  -1 -14   0   37.72    1.05
   1 -14   0   38.00    1.04
  -1 -14   0   37.65    0.86
  -2 -14   0   36.57    1.09
  -2 -14   0   36.99    0.89
   2 -14   0   37.64    1.03
  -3 -14   0   26.70    0.99
   3 -14   0   27.72    0.89
  -3  14   0   27.39    0.94
  -4 -14   0    4.43    0.56
   4 -14   0    4.68    0.47
  -4  14   0    6.63    0.62
  -5 -14   0    7.10    0.71
  -5  14   0    8.09    0.77
   0 -15   0    0.43    0.23
  -1 -15   0   53.44    1.15
  -1 -15   0   54.77    1.36
   1 -15   0   55.11    1.35
  -2 -15   0   46.95    1.29
  -2 -15   0   47.17    1.12
   2 -15   0   46.64    1.22
  -3 -15   0   70.83    1.75
   3 -15   0   70.13    1.66
  -3  15   0   68.27    1.70
   4 -15   0   12.09    0.65
  -4 -15   0   12.34    0.79
  -4  15   0   11.46    0.72
  -5 -15   0    0.82    0.47
  -5  15   0    1.76    0.47
   0 -16   0   59.99    1.48
  -1 -16   0   31.66    1.00
  -1 -16   0   31.10    0.79
   1 -16   0   32.82    1.01
  -2 -16   0   19.34    0.83
   2 -16   0   19.40    0.77
  -3 -16   0   28.47    1.06
   3 -16   0   28.48    0.97
   4 -16   0    4.68    0.51
  -4 -16   0    4.03    0.56
  -4  16   0    5.24    0.60
  -5 -16   0    2.24    0.55
  -5  16   0    4.06    0.58
   0 -17   0    0.03    0.24
  -1 -17   0   26.61    0.93
   1 -17   0   26.18    0.92
  -2 -17   0   39.73    1.23
   2 -17   0   41.06    1.19
  -3 -17   0   43.76    1.37
   3 -17   0   45.02    1.28
  -4 -17   0    1.33    0.44
   4 -17   0    1.34    0.37
  -5 -17   0   -0.21    0.43
  -5  17   0    0.53    0.34
   0 -18   0  234.79    4.37
   1 -18   0   43.28    1.26
  -1 -18   0   43.49    1.27
   2 -18   0   11.90    0.66
  -2 -18   0   10.03    0.70
  -3 -18   0   13.73    0.83
   3 -18   0   15.89    0.76
   4 -18   0    1.29    0.37
  -4 -18   0    1.51    0.48
  -5 -18   0    7.12    0.77
   0 -19   0    0.37    0.28
   1 -19   0   64.14    1.65
  -1 -19   0   64.82    1.67
  -2 -19   0   17.28    0.87
   2 -19   0   17.10    0.79
   3 -19   0   33.92    1.18
  -3 -19   0   37.01    1.29
   4 -19   0   12.93    0.77
  -4 -19   0   12.30    0.89
  -5 -19   0    1.66    0.53
   0 -20   0   87.68    2.08
  -1 -20   0   38.86    1.26
   1 -20   0   37.37    1.21
   2 -20   0    9.75    0.68
  -2 -20   0   10.60    0.75
   3 -20   0   12.98    0.75
  -3 -20   0   13.81    0.88
  -4 -20   0    6.00    0.72
   0 -21   0    0.19    0.30
   1 -21   0   33.86    1.17
  -1 -21   0   34.13    1.21
  -2 -21   0    6.60    0.68
   2 -21   0    7.96    0.71
   3 -21   0   15.80    0.84
  -3 -21   0   15.08    0.93
  -4 -21   0   11.98    0.92
   0 -22   0   51.85    1.52
  -1 -22   0   14.38    0.86
   1 -22   0   15.58    0.84
  -2 -22   0    8.39    0.76
   2 -22   0    9.20    0.69
   3 -22   0    6.97    0.68
  -3 -22   0    5.57    0.68
  -4 -22   0    4.88    0.69
   0 -23   0    0.60    0.35
  -1 -23   0   19.15    0.97
   1 -23   0   17.98    0.93
  -2 -23   0   11.64    0.86
   2 -23   0   10.43    0.76
  -3 -23   0   16.89    1.01
   3 -23   0   16.28    0.91
   0 -24   0   25.44    1.10
  -1 -24   0    8.74    0.78
   1 -24   0    8.28    0.72
   2 -24   0   10.32    0.77
  -2 -24   0    9.48    0.84
   3 -24   0   12.93    0.86
  -3 -24   0   13.45    0.97
   0 -25   0    0.25    0.37
  -1 -25   0   20.78    1.08
   1 -25   0   22.41    1.07
   2 -25   0   13.07    0.88
  -2 -25   0   14.65    0.99
   3 -25   0   27.54    1.21
   0 -26   0   24.33    1.16
   1 -26   0   19.58    1.06
  -1 -26   0   19.88    1.11
   2 -26   0   25.84    1.19
  -2 -26   0   25.47    1.26
   0 -27   0    0.67    0.43
   1 -27   0   18.54    1.04
  -1 -27   0   17.16    1.08
   2 -27   0    0.34    0.39
  -6   0   1    0.72    0.44
  -5   0   1    4.07    0.55
  -4   0   1   21.38    0.83
  -3   0   1   -0.10    0.18
  -2   0   1  576.15    9.63
  -1   0   1   82.54    1.50
   0   0  -1   14.67    0.36
  -1   0  -1  223.34    3.84
  -1   0  -1  228.54    3.80
  -2   0  -1  264.28    4.42
  -2   0  -1  249.69    4.46
  -3   0  -1   19.96    0.70
  -3   0  -1   19.40    0.73
  -4   0  -1    2.61    0.42
  -4   0  -1    2.85    0.44
  -5   0  -1    6.22    0.64
  -5   0  -1    5.26    0.60
  -6   0  -1    0.92    0.47
  -6  -1   1    2.22    0.52
  -6   1   1    1.73    0.51
  -5  -1   1   45.07    1.41
  -5   1   1   44.00    1.39
  -4  -1   1   62.12    1.56
  -4   1   1   62.51    1.56
  -3  -1   1   10.63    0.51
  -3   1   1   12.48    0.54
  -2  -1   1   78.07    1.53
  -2   1   1   76.97    1.53
  -1  -1   1  447.26    7.45
  -1   1   1  434.20    7.50
   0  -1  -1   74.19    1.30
   0   1  -1   76.13    1.31
  -1  -1  -1  205.61    3.40
  -1  -1  -1  202.81    3.42
  -1   1  -1  194.60    3.45
  -1   1  -1  200.19    3.40
  -2  -1  -1    1.73    0.22
  -2  -1  -1    2.17    0.26
  -2   1  -1    2.05    0.26
  -2   1  -1    1.58    0.23
  -3  -1  -1   23.34    0.80
  -3  -1  -1   22.78    0.76
  -3   1  -1   23.91    0.80
  -3   1  -1   24.46    0.79
  -4  -1  -1  124.93    2.58
  -4  -1  -1  123.14    2.57
  -4   1  -1  122.32    2.61
  -4   1  -1  121.25    2.54
  -5  -1  -1    9.67    0.75
  -5  -1  -1    8.87    0.74
  -5   1  -1    8.41    0.73
  -5   1  -1    8.50    0.76
  -6  -1  -1    1.92    0.51
  -6   1  -1    1.54    0.52
  -6  -2   1    1.28    0.48
  -6   2   1    1.51    0.49
  -5  -2   1    3.03    0.49
  -5   2   1    2.68    0.47
  -4  -2   1   34.95    1.09
  -4   2   1   34.66    1.08
  -3  -2   1   10.20    0.49
  -3   2   1   10.23    0.51
  -2  -2   1  225.24    4.01
  -2   2   1  235.28    4.03
  -1  -2   1  288.84    5.00
  -1   2   1  305.81    5.14
   0  -2  -1   39.88    0.76
  -1  -2  -1  510.90    8.40
  -1  -2  -1  496.76    8.50
  -1   2  -1  512.59    8.32
  -1   2  -1  508.56    8.44
  -2  -2  -1  177.13    3.19
  -2  -2  -1  181.81    3.19
  -2   2  -1  182.17    3.18
  -2   2  -1  177.45    3.24
  -3  -2  -1   46.61    1.16
  -3  -2  -1   45.61    1.17
  -3   2  -1   47.48    1.20
  -3   2  -1   47.14    1.17
  -4  -2  -1    8.40    0.65
  -4  -2  -1    9.77    0.65
  -4   2  -1    9.61    0.67
  -4   2  -1    8.01    0.64
  -5  -2  -1    2.37    0.47
  -5  -2  -1    1.69    0.47
  -5   2  -1    3.06    0.53
  -5   2  -1    2.54    0.50
  -6  -2  -1    6.39    0.72
  -6   2  -1    6.94    0.77
  -6  -3   1    1.72    0.49
  -6   3   1    0.62    0.45
  -5  -3   1   10.97    0.77
  -5   3   1   11.59    0.77
  -4  -3   1   58.15    1.47
  -4   3   1   56.40    1.47
  -3  -3   1    7.86    0.45
  -3  -3   1    7.06    0.37
  -3   3   1    7.22    0.45
  -2  -3   1   81.92    1.58
  -2   3   1   77.72    1.57
  -1  -3   1  364.66    5.99
  -1  -3   1  371.51    6.20
  -1   3   1  371.85    6.50
  -1   3   1  373.08    6.34
   0  -3   1    3.89    0.19
   0  -3  -1    3.86    0.19
  -1  -3  -1  379.58    6.14
  -1  -3  -1  377.19    6.12
  -1   3  -1  365.35    6.24
  -1   3  -1  360.61    6.10
  -2  -3  -1   10.68    0.41
  -2  -3  -1   11.58    0.48
  -2   3  -1   11.47    0.47
  -2   3  -1   10.78    0.47
  -3  -3  -1   13.88    0.64
  -3  -3  -1   13.66    0.59
  -3   3  -1   15.47    0.65
  -3   3  -1   15.19    0.63
  -4  -3  -1   92.07    2.08
  -4  -3  -1   93.61    2.10
  -4   3  -1   93.72    2.14
  -4   3  -1   93.75    2.07
  -5  -3  -1    2.54    0.51
  -5  -3  -1    2.78    0.47
  -5   3  -1    2.64    0.50
  -5   3  -1    3.04    0.53
  -6  -3  -1    1.23    0.46
  -6   3  -1    1.37    0.50
  -6  -4   1    0.39    0.39
  -6   4   1   -0.26    0.38
  -5  -4   1    2.97    0.50
  -5   4   1    3.49    0.51
  -4  -4   1   26.62    0.83
  -4  -4   1   27.50    0.96
  -4   4   1   28.51    0.97
  -3  -4   1    2.13    0.24
  -3  -4   1    2.25    0.28
  -3   4   1    1.88    0.28
  -2  -4   1  260.46    4.58
  -2  -4   1  257.15    4.38
  -2   4   1  271.36    4.59
  -2   4   1  267.36    4.67
  -1  -4   1   68.00    1.28
  -1  -4   1   65.17    1.20
  -1   4   1   65.73    1.23
  -1   4   1   65.20    1.30
   0  -4  -1   30.49    0.65
   1  -4   1  425.92    7.09
  -1  -4  -1  435.87    7.14
  -1  -4  -1  425.50    7.10
   1   4   1  440.79    7.45
  -2  -4  -1  236.34    4.06
  -2  -4  -1  230.24    4.03
  -2   4  -1  228.80    4.12
  -2   4  -1  234.26    4.03
  -3  -4  -1    9.40    0.50
  -3  -4  -1    9.19    0.56
  -3   4  -1    8.93    0.53
  -3   4  -1    9.04    0.54
  -4  -4  -1    7.10    0.59
  -4  -4  -1    6.51    0.56
  -4   4  -1    7.69    0.61
  -4   4  -1    6.53    0.57
  -5  -4  -1    0.70    0.35
  -5  -4  -1    0.97    0.45
  -5   4  -1    0.44    0.40
  -6  -4  -1    7.50    0.75
  -6   4  -1    7.06    0.79
  -6  -5   1    0.10    0.39
  -6   5   1    0.84    0.46
  -5  -5   1   13.91    0.82
  -5   5   1   10.90    0.77
  -4  -5   1   91.56    2.01
  -4  -5   1   88.36    1.84
  -4   5   1   87.79    2.03
  -3  -5   1    8.87    0.43
  -3  -5   1    8.96    0.49
  -3   5   1    8.26    0.49
  -2  -5   1   55.85    1.12
  -2  -5   1   55.77    1.19
  -2   5   1   54.44    1.17
  -2   5   1   57.30    1.20
   1  -5  -1  259.16    4.38
  -1  -5   1  265.52    4.42
  -1  -5   1  267.49    4.55
  -1   5   1  271.99    4.50
  -1   5   1  270.80    4.71
   0  -5   1   22.09    0.54
   0  -5  -1   22.36    0.54
   0   5   1   23.52    0.58
   1  -5   1  269.06    4.47
  -1  -5  -1  271.91    4.50
   1   5   1  256.56    4.67
  -2  -5  -1    9.82    0.46
  -2  -5  -1    9.67    0.38
  -2   5  -1   11.16    0.47
  -3  -5  -1   20.57    0.76
  -3  -5  -1   19.76    0.69
  -3   5  -1   20.54    0.76
  -4  -5  -1   89.24    2.06
  -4  -5  -1   92.21    2.02
  -4   5  -1   89.76    2.11
  -5  -5  -1    3.98    0.51
  -5  -5  -1    4.16    0.57
  -5   5  -1    3.31    0.54
  -6  -5  -1    2.48    0.56
  -6   5  -1    3.06    0.62
  -6  -6   1   -0.11    0.39
  -6   6   1    0.55    0.41
  -5  -6   1    1.49    0.41
  -5   6   1    2.41    0.47
  -4  -6   1   36.53    1.12
  -4   6   1   37.79    1.16
  -3  -6   1    0.66    0.23
  -3  -6   1    0.85    0.23
  -3   6   1    0.72    0.24
   2  -6  -1  306.48    5.26
  -2  -6   1  321.44    5.51
  -2  -6   1  323.36    5.35
  -2   6   1  328.78    5.52
  -2   6   1  322.63    5.65
  -1  -6   1   93.96    1.73
   1  -6  -1   93.01    1.66
  -1  -6   1   93.72    1.70
  -1   6   1   92.15    1.80
  -1   6   1   92.74    1.68
   0  -6   1   41.69    0.87
   0  -6  -1   42.29    0.88
  -1  -6  -1  594.83    9.71
   1  -6   1  594.10    9.76
   1   6   1  591.69   10.23
   2  -6   1  115.63    2.16
  -2  -6  -1  112.53    2.20
  -2  -6  -1  112.18    2.09
  -2   6  -1  117.35    2.25
  -3  -6  -1   22.76    0.82
  -3  -6  -1   22.81    0.72
  -3   6  -1   23.10    0.81
  -4  -6  -1    2.59    0.45
  -4  -6  -1    2.84    0.39
  -4   6  -1    2.93    0.44
  -5  -6  -1    7.01    0.68
   5  -6   1    4.84    0.53
  -5  -6  -1    6.99    0.64
  -5   6  -1    7.08    0.69
  -6   6  -1    3.44    0.63
  -6  -7   1    0.79    0.43
  -6   7   1    0.47    0.46
  -5  -7   1   24.28    1.03
  -5   7   1   25.40    1.09
  -4  -7   1   58.10    1.48
  -4   7   1   58.39    1.52
  -3  -7   1   16.92    0.65
  -3  -7   1   16.99    0.61
   3  -7  -1   16.26    0.50
  -3   7   1   17.14    0.66
   2  -7  -1   46.76    0.96
  -2  -7   1   46.88    1.04
  -2  -7   1   47.61    1.08
  -2   7   1   46.85    1.06
  -2   7   1   50.21    1.08
  -1  -7   1  379.26    6.43
  -1  -7   1  386.58    6.31
   1  -7  -1  379.68    6.43
  -1   7   1  380.21    6.37
  -1   7   1  381.36    6.67
   0  -7  -1   42.69    0.91
   0  -7   1   42.39    0.91
   0   7   1   41.92    0.96
   1  -7   1  345.43    5.79
  -1  -7  -1  347.32    5.82
  -2  -7  -1   17.38    0.62
  -2  -7  -1   16.14    0.48
   2  -7   1   16.50    0.55
  -2   7  -1   16.32    0.60
  -3  -7  -1   10.22    0.60
   3  -7   1   11.06    0.52
  -3  -7  -1   10.53    0.51
  -3   7  -1   12.08    0.60
  -4  -7  -1   54.91    1.38
   4  -7   1   53.36    1.37
  -4  -7  -1   52.47    1.47
  -4   7  -1   53.43    1.51
  -5  -7  -1    8.06    0.66
   5  -7   1    8.43    0.62
  -5  -7  -1    7.81    0.72
  -5   7  -1    9.50    0.81
  -6   7  -1    0.51    0.48
  -6  -8   1    1.48    0.48
  -6   8   1    1.76    0.53
  -5  -8   1    1.05    0.40
  -5   8   1    1.02    0.41
   4  -8  -1   24.40    0.75
  -4  -8   1   26.76    0.87
  -4  -8   1   24.97    0.91
  -4   8   1   23.32    0.93
   3  -8  -1   12.52    0.45
  -3  -8   1   13.54    0.59
  -3  -8   1   14.31    0.58
  -3   8   1   14.75    0.62
  -2  -8   1  199.24    3.53
  -2  -8   1  198.74    3.46
   2  -8  -1  195.02    3.38
  -2   8   1  195.19    3.62
  -2   8   1  196.23    3.52
  -1  -8   1   81.71    1.54
   1  -8  -1   78.77    1.49
  -1   8   1   77.25    1.60
  -1   8   1   76.33    1.46
   0  -8  -1   66.63    1.33
   0  -8   1   65.88    1.32
   0   8   1   66.01    1.40
  -1  -8  -1  273.11    4.72
   1  -8   1  278.79    4.70
  -2  -8  -1  106.57    2.14
   2  -8   1  108.06    2.07
  -2  -8  -1  107.94    1.97
  -2   8  -1  106.70    2.16
   3  -8   1   20.45    0.70
  -3  -8  -1   19.72    0.66
  -3  -8  -1   19.47    0.79
  -3   8  -1   19.60    0.78
  -4  -8  -1    8.11    0.65
  -4  -8  -1    6.75    0.53
   4  -8   1    6.90    0.52
  -4   8  -1    7.37    0.64
  -5  -8  -1    4.50    0.59
   5  -8   1    4.27    0.49
  -5   8  -1    5.86    0.67
  -6   8  -1    3.66    0.66
  -6  -9   1    0.76    0.43
  -6   9   1    0.74    0.46
  -5  -9   1   21.95    0.98
  -5   9   1   20.86    1.00
  -4  -9   1   20.74    0.80
  -4  -9   1   23.15    0.87
  -4   9   1   22.26    0.91
  -3  -9   1    8.93    0.50
  -3  -9   1    8.70    0.50
   3  -9  -1    9.24    0.39
  -3   9   1    7.20    0.48
  -3   9   1    7.58    0.40
  -2  -9   1   74.08    1.53
   2  -9  -1   71.55    1.45
  -2  -9   1   73.23    1.53
  -2   9   1   75.32    1.57
  -2   9   1   77.03    1.53
   1  -9  -1  267.08    4.58
  -1  -9   1  274.95    4.63
  -1   9   1  271.68    4.87
  -1   9   1  269.48    4.60
   0  -9   1   12.83    0.47
   0  -9  -1   13.08    0.47
   0   9   1   12.70    0.50
   1  -9   1   77.84    1.57
  -1  -9  -1   78.46    1.61
  -2  -9  -1   15.25    0.64
   2  -9   1   15.46    0.58
  -2   9  -1   15.99    0.62
  -3  -9  -1   25.90    0.92
   3  -9   1   26.79    0.83
  -3  -9  -1   27.87    0.77
  -3   9  -1   25.13    0.90
  -4  -9  -1   88.89    1.98
  -4  -9  -1   89.71    2.13
   4  -9   1   90.94    2.01
  -4   9  -1   93.32    2.20
   5  -9   1    6.52    0.60
  -5  -9  -1    6.46    0.69
  -5   9  -1    7.50    0.75
  -6 -10   1    0.62    0.40
  -6  10   1    0.29    0.43
  -5 -10   1    3.08    0.48
  -5  10   1    3.43    0.53
  -4 -10   1   15.64    0.74
  -4 -10   1   16.71    0.76
  -4  10   1   18.14    0.81
  -3 -10   1   13.25    0.60
   3 -10  -1   13.71    0.50
  -3 -10   1   13.84    0.62
  -3  10   1   14.10    0.54
  -3  10   1   13.96    0.61
  -2 -10   1  118.99    2.27
  -2 -10   1  120.03    2.28
   2 -10  -1  120.29    2.21
  -2  10   1  116.16    2.34
  -2  10   1  118.47    2.27
  -1 -10   1   86.20    1.72
   1 -10  -1   83.55    1.67
  -1  10   1   86.63    1.62
  -1  10   1   88.61    1.80
   0 -10   1  101.75    1.96
   0 -10  -1  102.06    1.95
   0  10   1  101.81    2.07
  -1 -10  -1  173.81    3.16
   1 -10   1  172.23    3.11
   2 -10   1   77.53    1.65
  -2 -10  -1   77.09    1.48
  -2 -10  -1   81.43    1.74
  -3 -10  -1   21.26    0.84
  -3 -10  -1   20.96    0.67
   3 -10   1   20.78    0.75
  -3  10  -1   21.89    0.83
   4 -10   1    4.17    0.46
  -4 -10  -1    6.21    0.62
  -4  10  -1    7.51    0.66
   5 -10   1    7.82    0.64
  -5 -10  -1    6.75    0.70
  -5  10  -1    9.59    0.84
  -6  11   1    0.36    0.44
  -5 -11   1   28.25    1.09
  -5  11   1   26.94    1.16
  -4 -11   1   26.53    0.93
  -4 -11   1   25.10    0.93
  -4  11   1   25.67    0.98
  -3 -11   1    0.56    0.27
  -3 -11   1    0.55    0.23
   3 -11  -1    1.05    0.22
  -3  11   1    1.55    0.31
  -3  11   1    1.36    0.25
   2 -11  -1   50.24    1.14
  -2 -11   1   50.21    1.21
  -2 -11   1   51.30    1.17
  -2  11   1   51.89    1.17
  -2  11   1   49.49    1.21
  -1 -11   1  262.63    4.49
   1 -11  -1  258.99    4.45
  -1  11   1  256.97    4.72
  -1  11   1  252.16    4.41
   0 -11  -1   31.49    0.84
   0 -11   1   31.82    0.85
   0  11   1   33.32    0.91
   1 -11   1  148.23    2.76
  -1 -11  -1  150.22    2.81
  -2 -11  -1    7.75    0.52
   2 -11   1    9.60    0.49
  -3 -11  -1    5.08    0.51
   3 -11   1    5.98    0.50
  -3  11  -1    5.89    0.53
  -4 -11  -1   46.15    1.44
   4 -11   1   47.38    1.32
  -4  11  -1   47.91    1.45
   5 -11   1    7.29    0.66
  -5 -11  -1    6.11    0.68
  -5  11  -1    8.46    0.79
  -6  12   1    1.81    0.53
  -5 -12   1    4.09    0.53
  -5  12   1    5.55    0.66
  -4 -12   1   14.59    0.72
  -4 -12   1   13.72    0.75
  -4  12   1   14.73    0.76
  -3 -12   1    5.65    0.50
   3 -12  -1    4.51    0.36
  -3 -12   1    4.85    0.43
  -3  12   1    5.03    0.43
  -3  12   1    4.63    0.41
  -2 -12   1  163.21    2.99
  -2 -12   1  163.59    3.03
   2 -12  -1  160.40    2.96
  -2  12   1  160.80    2.99
  -2  12   1  158.55    3.13
  -1 -12   1   53.94    1.27
   1 -12  -1   54.62    1.23
  -1  12   1   55.28    1.32
   0 -12  -1   50.15    1.17
   0 -12   1   49.81    1.19
   0  12   1   48.73    1.24
   1 -12   1  176.94    3.23
  -1 -12  -1  175.14    3.26
  -2 -12  -1   67.60    1.60
   2 -12   1   68.46    1.54
   3 -12   1   13.28    0.64
  -3 -12  -1   14.98    0.76
  -4 -12  -1    4.35    0.57
   4 -12   1    3.16    0.44
  -4  12  -1    3.52    0.51
   5 -12   1    4.61    0.56
  -5 -12  -1    4.13    0.62
  -5  12  -1    4.58    0.64
  -5  13   1   17.99    0.98
  -4 -13   1   40.87    1.25
  -4 -13   1   40.37    1.19
  -4  13   1   40.49    1.26
  -3 -13   1   18.18    0.71
   3 -13  -1   19.33    0.67
  -3 -13   1   18.23    0.78
  -3  13   1   19.01    0.73
  -3  13   1   19.46    0.69
  -2 -13   1   31.91    0.95
   2 -13  -1   31.30    0.88
  -2 -13   1   31.66    0.86
  -2  13   1   31.73    0.86
  -2  13   1   29.28    0.91
  -1 -13   1  105.67    2.13
   1 -13  -1  106.89    2.09
  -1  13   1  101.64    2.20
   0 -13  -1   18.56    0.66
   0 -13   1   19.01    0.69
  -1 -13  -1   94.72    2.00
   1 -13   1   94.90    1.96
  -2 -13  -1   36.37    1.10
   2 -13   1   38.28    1.05
  -3 -13  -1    9.37    0.68
   3 -13   1    9.58    0.58
  -4 -13  -1   61.32    1.73
   4 -13   1   62.50    1.60
  -4  13  -1   59.17    1.71
   5 -13   1    2.91    0.48
  -5 -13  -1    2.68    0.54
  -5  13  -1    4.29    0.61
  -5  14   1    6.38    0.66
  -4 -14   1   15.70    0.73
  -4 -14   1   15.53    0.84
  -4  14   1   16.55    0.79
  -3 -14   1    1.96    0.39
   3 -14  -1    2.40    0.32
  -3 -14   1    2.18    0.32
  -3  14   1    2.65    0.35
  -3  14   1    2.00    0.31
  -2 -14   1   97.18    1.98
   2 -14  -1   96.85    2.01
  -2 -14   1   96.64    2.07
  -2  14   1   98.51    2.12
  -2  14   1   98.16    1.98
  -1 -14   1   55.23    1.36
   1 -14  -1   54.10    1.32
  -1  14   1   57.65    1.40
   0 -14   1   70.97    1.60
   0 -14  -1   68.75    1.56
  -1 -14  -1  121.83    2.46
   1 -14   1  119.62    2.42
   2 -14   1   89.39    1.93
  -2 -14  -1   87.94    2.00
   3 -14   1    9.23    0.59
  -3 -14  -1    8.43    0.67
  -4 -14  -1    5.65    0.64
   4 -14   1    5.07    0.54
  -5 -14  -1    3.25    0.58
   5 -14   1    2.61    0.51
  -5  15   1    1.95    0.45
  -4 -15   1   24.22    1.01
  -4  15   1   23.04    0.95
  -3 -15   1   30.59    0.93
  -3 -15   1   29.63    1.04
   3 -15  -1   29.54    0.93
  -3  15   1   32.54    0.99
  -3  15   1   29.45    0.95
   2 -15  -1   21.53    0.77
  -2 -15   1   20.64    0.82
  -2 -15   1   22.75    0.73
  -2  15   1   22.48    0.81
  -2  15   1   21.27    0.70
  -1 -15   1   73.11    1.68
   1 -15  -1   73.27    1.64
  -1  15   1   73.30    1.74
   0 -15  -1    0.81    0.26
   0 -15   1    0.89    0.28
   1 -15   1   81.44    1.81
  -1 -15  -1   82.50    1.86
  -2 -15  -1   37.60    1.16
   2 -15   1   37.12    1.10
  -3 -15  -1    6.65    0.63
   3 -15   1    7.32    0.61
   4 -15   1   30.61    1.09
  -4 -15  -1   28.23    1.17
  -5 -15  -1    0.69    0.48
  -5  16   1    3.89    0.58
  -4 -16   1   14.98    0.84
  -4  16   1   14.05    0.77
  -3 -16   1    3.99    0.50
  -3 -16   1    3.51    0.38
   3 -16  -1    3.56    0.41
  -3  16   1    3.30    0.41
  -3  16   1    3.60    0.42
   2 -16  -1   68.05    1.59
  -2 -16   1   66.53    1.51
  -2 -16   1   68.38    1.66
  -2  16   1   67.62    1.66
  -1 -16   1   15.20    0.70
   1 -16  -1   14.42    0.64
   0 -16   1   33.31    1.06
   0 -16  -1   35.64    1.04
  -1 -16  -1   95.64    2.11
   1 -16   1   93.89    2.06
  -2 -16  -1   57.45    1.55
   2 -16   1   59.15    1.50
   3 -16   1   15.29    0.77
  -3 -16  -1   15.39    0.85
  -4 -16  -1   -0.06    0.36
   4 -16   1    0.71    0.34
  -5 -16  -1    4.59    0.69
  -5  17   1    9.06    0.75
  -4 -17   1   23.55    1.02
  -4  17   1   22.21    0.95
   3 -17  -1   15.09    0.69
  -3 -17   1   16.62    0.83
  -3  17   1   14.91    0.69
   2 -17  -1   28.13    0.94
  -2 -17   1   28.68    0.86
  -2 -17   1   28.91    1.01
  -1 -17   1   39.25    1.16
   1 -17  -1   38.42    1.11
   0 -17  -1    9.01    0.58
   0 -17   1    9.01    0.61
  -1 -17  -1   30.19    1.03
   1 -17   1   29.27    1.00
   2 -17   1   31.67    1.07
  -2 -17  -1   32.58    1.14
  -3 -17  -1   14.07    0.86
   3 -17   1   13.44    0.75
   4 -17   1   30.37    1.13
  -4 -17  -1   27.83    1.20
  -5 -17  -1    6.75    0.79
  -5  18   1    6.40    0.71
  -4 -18   1    6.84    0.67
  -4  18   1    7.57    0.68
   3 -18  -1    1.04    0.29
  -3 -18   1    1.39    0.41
  -2 -18   1  100.19    2.27
  -2 -18   1  100.84    2.14
   2 -18  -1  101.78    2.21
   1 -18  -1    8.60    0.57
  -1 -18   1   10.07    0.65
   0 -18   1   48.16    1.36
   0 -18  -1   47.15    1.33
  -1 -18  -1   44.98    1.35
   1 -18   1   47.77    1.35
   2 -18   1   43.67    1.30
  -2 -18  -1   42.93    1.36
   3 -18   1    8.93    0.66
  -3 -18  -1    9.31    0.77
  -4 -18  -1    1.52    0.49
   4 -18   1    1.26    0.42
  -5  19   1   15.68    0.91
  -4 -19   1   10.18    0.79
   3 -19  -1   19.47    0.84
  -3 -19   1   18.22    0.93
  -2 -19   1   23.97    0.99
   2 -19  -1   24.38    0.92
  -1 -19   1   54.28    1.52
   1 -19  -1   56.15    1.48
  -1 -19   1   54.49    1.32
   0 -19  -1   13.14    0.72
   0 -19   1   11.27    0.69
  -1 -19  -1   30.55    1.11
   1 -19   1   29.81    1.08
   2 -19   1   18.18    0.86
  -2 -19  -1   18.04    0.92
  -3 -19  -1   10.62    0.82
   3 -19   1    9.26    0.70
  -4 -19  -1   17.91    1.05
   4 -19   1   20.14    0.97
  -4 -20   1    5.34    0.66
  -3 -20   1    2.99    0.52
   3 -20  -1    4.26    0.52
  -2 -20   1   38.77    1.29
   2 -20  -1   39.15    1.23
   1 -20  -1   28.28    1.02
  -1 -20   1   29.13    1.09
   0 -20  -1   44.89    1.36
   0 -20   1   44.93    1.36
   1 -20   1   42.86    1.34
  -1 -20  -1   40.76    1.34
  -2 -20  -1   20.88    1.00
   2 -20   1   19.09    0.92
   3 -20   1   14.09    0.82
  -3 -20  -1   12.68    0.90
  -4 -20  -1    1.31    0.51
   4 -20   1    1.23    0.42
  -4 -21   1    4.15    0.62
   3 -21  -1    8.73    0.64
  -3 -21   1    8.09    0.74
   2 -21  -1   11.61    0.71
  -2 -21   1   10.46    0.77
  -1 -21   1   38.42    1.29
   1 -21  -1   40.57    1.26
   0 -21   1    7.42    0.64
   0 -21  -1    5.42    0.57
   1 -21   1   19.66    0.95
  -1 -21  -1   19.94    0.97
   2 -21   1   17.73    0.90
  -2 -21  -1   17.84    0.97
  -3 -21  -1    7.03    0.76
   3 -21   1    9.41    0.82
   4 -21   1   19.11    0.99
  -4 -21  -1   16.73    1.07
  -4 -22   1    1.98    0.52
  -3 -22   1    0.30    0.42
   3 -22  -1    0.36    0.31
   2 -22  -1   21.92    0.96
  -2 -22   1   22.02    1.04
  -1 -22   1   13.21    0.81
   1 -22  -1   12.92    0.75
   0 -22   1   38.73    1.34
   0 -22  -1   39.16    1.33
   1 -22   1   21.17    1.00
  -1 -22  -1   22.86    1.05
  -2 -22  -1   17.11    0.98
   2 -22   1   15.00    0.87
   3 -22   1    8.29    0.80
  -3 -22  -1    7.37    0.82
   4 -22   1    3.28    0.56
  -4 -23   1    6.96    0.80
  -3 -23   1    7.81    0.78
   3 -23  -1    8.85    0.70
   2 -23  -1   16.50    0.87
  -2 -23   1   16.46    0.95
   1 -23  -1   29.12    1.10
  -1 -23   1   25.08    1.10
   0 -23   1    4.89    0.60
   0 -23  -1    4.95    0.58
   1 -23   1   22.25    1.05
  -1 -23  -1   22.20    1.08
   2 -23   1   13.90    0.87
  -2 -23  -1   12.67    0.93
   3 -23   1    4.63    0.62
  -3 -23  -1    4.93    0.69
  -3 -24   1    3.12    0.61
  -2 -24   1   26.67    1.19
   2 -24  -1   25.42    1.10
   1 -24  -1    9.98    0.75
  -1 -24   1    8.67    0.77
   0 -24   1   30.48    1.24
   0 -24  -1   30.08    1.24
   1 -24   1   28.24    1.20
  -1 -24  -1   29.66    1.24
  -2 -24  -1    8.61    0.83
   2 -24   1    9.53    0.87
  -3 -24  -1    4.17    0.76
   3 -24   1    5.60    0.69
  -3 -25   1   21.13    1.17
  -2 -25   1    8.13    0.83
   2 -25  -1    7.16    0.69
   1 -25  -1   14.10    0.88
  -1 -25   1   13.79    0.93
   0 -25   1    5.61    0.67
   0 -25  -1    5.54    0.66
  -1 -25  -1   18.37    1.07
   1 -25   1   19.61    1.04
   2 -25   1   21.11    1.10
  -2 -25  -1   21.82    1.16
   2 -26  -1   19.07    0.99
  -2 -26   1   19.93    1.13
   1 -26  -1    2.63    0.52
  -1 -26   1    3.33    0.59
   0 -26   1   31.66    1.34
   0 -26  -1   29.98    1.31
   1 -26   1    8.62    0.83
  -1 -26  -1    9.21    0.85
   2 -26   1   13.93    0.95
   2 -27  -1   10.17    0.82
   1 -27  -1    8.60    0.81
  -1 -27   1    7.32    0.81
   0 -27  -1    0.84    0.48
   0 -27   1    0.86    0.45
  -1 -27  -1    4.84    0.70
   1 -27   1    5.61    0.73
  -6   0   2   15.09    0.98
  -5   0   2    5.62    0.60
  -4   0   2    4.28    0.45
  -3   0   2    0.30    0.24
  -2   0   2   23.29    0.68
  -1   0   2  531.14    8.85
   0   0  -2 1000.00   16.40
  -1   0  -2    8.54    0.41
  -2   0  -2    6.98    0.42
  -2   0  -2    5.89    0.45
  -3   0  -2   67.40    1.59
  -3   0  -2   68.94    1.65
  -4   0  -2    0.41    0.37
  -4   0  -2    0.38    0.32
  -5   0  -2   29.37    1.24
  -5   0  -2   29.54    1.21
  -6   0  -2   -0.02    0.47
  -6   0  -2   -0.27    0.49
  -6  -1   2    3.74    0.61
  -6   1   2    3.82    0.61
  -5  -1   2    1.15    0.39
  -5   1   2    0.66    0.37
  -4  -1   2    6.84    0.54
  -4   1   2    7.14    0.57
  -3  -1   2  125.62    2.44
  -3   1   2  120.23    2.43
  -2  -1   2   43.12    1.00
  -2   1   2   40.88    0.98
  -1  -1   2   31.28    0.74
  -1   1   2   29.87    0.71
   0  -1  -2  191.28    3.29
   0   1  -2  196.84    3.29
  -1  -1  -2    1.57    0.24
  -1   1  -2    1.50    0.23
  -2  -1  -2  146.34    2.74
  -2  -1  -2  149.78    2.80
  -2   1  -2  147.56    2.79
  -2   1  -2  147.81    2.78
  -3  -1  -2   34.92    1.02
  -3  -1  -2   36.07    1.11
  -3   1  -2   37.10    1.10
  -3   1  -2   35.27    1.05
  -4  -1  -2    4.34    0.56
  -4  -1  -2    3.54    0.48
  -4   1  -2    4.41    0.55
  -4   1  -2    2.66    0.45
  -5  -1  -2   24.31    1.15
  -5  -1  -2   24.84    1.11
  -5   1  -2   25.49    1.18
  -5   1  -2   27.74    1.18
  -6  -1  -2    5.25    0.72
  -6  -1  -2    6.03    0.79
  -6   1  -2    4.55    0.74
  -6   1  -2    6.53    0.78
  -6  -2   2   11.03    0.90
  -6   2   2   10.62    0.87
  -5  -2   2    5.05    0.58
  -5   2   2    4.37    0.56
  -4  -2   2   10.94    0.63
  -4   2   2   11.67    0.66
  -3  -2   2   16.46    0.66
  -3   2   2   16.60    0.65
  -2  -2   2   24.89    0.72
  -2   2   2   26.63    0.72
  -1  -2   2  331.84    5.56
  -1   2   2  320.59    5.50
   0  -2  -2  365.66    6.02
   0   2  -2  366.46    6.03
  -1  -2  -2   23.40    0.68
  -1   2  -2   25.29    0.69
  -2  -2  -2   22.50    0.66
  -2  -2  -2   22.12    0.74
  -2   2  -2   22.08    0.74
  -2   2  -2   21.48    0.70
  -3  -2  -2   81.78    1.92
  -3  -2  -2   85.29    1.85
  -3   2  -2   87.10    1.92
  -3   2  -2   88.94    1.93
  -4  -2  -2    2.56    0.49
  -4  -2  -2    2.38    0.41
  -4   2  -2    2.87    0.49
  -4   2  -2    2.46    0.43
  -5  -2  -2   21.12    1.07
  -5  -2  -2   21.13    1.02
  -5   2  -2   19.99    1.07
  -5   2  -2   20.94    1.08
  -6  -2  -2   -0.16    0.51
  -6   2  -2   -0.45    0.44
  -6  -3   2    4.22    0.64
  -6   3   2    5.22    0.66
  -5  -3   2    0.72    0.37
  -5   3   2    0.72    0.39
  -4  -3   2   11.53    0.64
  -4   3   2   10.68    0.65
  -3  -3   2  193.95    3.59
  -3   3   2  191.88    3.57
  -2  -3   2   73.00    1.52
  -2   3   2   73.11    1.49
  -1  -3   2   26.35    0.67
  -1  -3   2   25.10    0.55
  -1   3   2   25.34    0.60
   0  -3   2   81.70    1.50
   0  -3  -2   76.65    1.48
   0   3   2   81.56    1.59
  -1  -3  -2    4.89    0.34
  -1   3  -2    5.06    0.35
  -2  -3  -2  211.01    3.81
  -2  -3  -2  217.28    3.90
  -2   3  -2  219.39    3.87
  -3  -3  -2   34.28    1.07
  -3  -3  -2   33.30    0.95
  -3   3  -2   32.16    1.02
  -3   3  -2   32.29    1.04
  -4  -3  -2    1.38    0.35
  -4  -3  -2    0.73    0.42
  -4   3  -2    1.52    0.44
  -4   3  -2    1.42    0.41
  -5  -3  -2    9.98    0.86
  -5  -3  -2   10.33    0.78
  -5   3  -2   11.58    0.89
  -5   3  -2   10.10    0.87
  -6  -3  -2    1.62    0.58
  -6   3  -2    1.98    0.58
  -6  -4   2    7.29    0.75
  -6   4   2    7.45    0.76
  -5  -4   2   18.33    0.92
  -5   4   2   17.93    0.92
  -4  -4   2   13.49    0.69
  -4   4   2   12.73    0.69
  -3  -4   2    6.50    0.49
  -3   4   2    6.03    0.45
  -2  -4   2   19.84    0.64
  -2   4   2   20.54    0.61
  -1  -4   2  164.01    2.97
  -1  -4   2  156.63    2.80
  -1   4   2  175.41    3.09
  -1   4   2  167.70    2.88
   0  -4  -2  366.72    6.22
   0  -4   2  380.96    6.23
   0   4   2  384.30    6.60
  -1  -4  -2   16.93    0.57
   1   4   2   16.33    0.51
  -1   4  -2   17.29    0.57
  -2  -4  -2   22.85    0.64
  -2  -4  -2   25.19    0.80
  -2   4  -2   21.95    0.76
  -3  -4  -2   55.36    1.44
  -3  -4  -2   55.51    1.31
  -3   4  -2   54.64    1.42
  -3   4  -2   54.53    1.42
  -4  -4  -2    7.66    0.69
  -4  -4  -2    7.24    0.57
  -4   4  -2    7.53    0.67
  -4   4  -2    7.88    0.67
  -5  -4  -2    5.90    0.74
  -5  -4  -2    7.28    0.68
  -5   4  -2    8.42    0.81
  -6  -4  -2    0.00    0.51
  -6   4  -2    0.04    0.49
  -6  -5   2    2.91    0.56
  -6   5   2    2.58    0.56
  -5  -5   2    0.57    0.37
  -5   5   2    0.20    0.37
  -4  -5   2   36.84    1.13
  -4   5   2   32.95    1.09
  -4   5   2   34.24    0.97
  -3  -5   2  202.10    3.70
  -3   5   2  197.85    3.66
  -3   5   2  193.81    3.70
  -2  -5   2   11.09    0.47
  -2   5   2   10.35    0.45
  -2   5   2   10.40    0.43
  -1  -5   2   26.56    0.62
  -1   5   2   25.63    0.60
  -1   5   2   26.35    0.72
   0  -5   2   55.24    1.12
   0  -5  -2   54.35    1.11
   0   5   2   53.81    1.19
  -1  -5  -2    7.85    0.42
   1  -5   2    7.28    0.37
   1   5   2    8.17    0.37
  -2  -5  -2  298.98    5.21
  -2  -5  -2  309.88    5.32
  -3  -5  -2   34.93    0.95
  -3  -5  -2   35.12    1.11
  -3   5  -2   35.75    1.09
  -3   5  -2   33.76    1.07
  -4  -5  -2    0.25    0.39
  -4  -5  -2    0.81    0.31
  -4   5  -2    1.29    0.40
  -5  -5  -2    8.82    0.82
  -5   5  -2   10.59    0.89
  -6  -5  -2    8.05    0.83
  -6  -6   2    6.57    0.73
  -6   6   2    5.97    0.71
  -5  -6   2    2.27    0.47
  -5   6   2    3.65    0.52
  -4  -6   2   37.01    1.15
  -4   6   2   36.52    1.02
  -4   6   2   38.46    1.17
  -3  -6   2    3.06    0.37
  -3   6   2    3.23    0.37
  -3   6   2    3.02    0.32
  -2  -6   2    6.15    0.31
  -2  -6   2    5.83    0.38
  -2   6   2    6.21    0.38
  -2   6   2    5.82    0.35
  -1  -6   2   84.09    1.56
   1  -6  -2   82.90    1.51
  -1   6   2   81.11    1.52
  -1   6   2   83.96    1.71
   0  -6   2  234.85    4.02
   0  -6  -2  231.15    4.02
   0   6   2  240.11    4.27
  -1  -6  -2   10.15    0.47
   1  -6   2   10.60    0.44
   1   6   2    9.68    0.43
  -2  -6  -2   20.30    0.75
  -2  -6  -2   20.14    0.56
  -3  -6  -2  104.39    2.10
  -3  -6  -2  103.64    2.28
  -3   6  -2  107.64    2.30
  -4  -6  -2    1.07    0.31
  -4  -6  -2    0.68    0.40
  -4   6  -2    1.23    0.40
  -5  -6  -2   11.02    0.91
  -5   6  -2   11.89    0.94
  -6  -7   2    2.92    0.56
  -6   7   2    3.49    0.59
  -5  -7   2    2.20    0.44
  -5   7   2    2.60    0.50
  -4  -7   2   18.17    0.80
  -4   7   2   15.63    0.63
  -4   7   2   17.87    0.80
  -3  -7   2  171.17    3.08
  -3  -7   2  178.49    3.34
  -3   7   2  171.31    3.34
  -3   7   2  178.58    3.31
  -2  -7   2   13.87    0.56
  -2  -7   2   12.88    0.47
  -2   7   2   14.77    0.55
  -2   7   2   15.48    0.51
  -1  -7   2   31.10    0.75
   1  -7  -2   31.13    0.71
  -1   7   2   30.34    0.67
  -1   7   2   31.41    0.84
   0  -7   2   99.75    1.86
   0  -7  -2   97.72    1.86
   0   7   2   96.81    1.97
   1  -7   2   35.54    0.90
  -1  -7  -2   36.38    0.94
   1   7   2   35.92    0.91
  -2  -7  -2  217.98    3.95
   2  -7   2  213.35    3.88
   3  -7   2   45.28    1.22
  -3  -7  -2   44.78    1.09
  -3  -7  -2   43.62    1.28
  -4  -7  -2    6.26    0.65
   4  -7   2    4.17    0.49
  -4   7  -2    4.83    0.57
  -5  -7  -2   14.78    0.99
  -5   7  -2   14.91    0.99
  -6  -8   2    6.33    0.73
  -6   8   2    7.35    0.76
  -5  -8   2   15.37    0.86
  -5   8   2   14.97    0.89
  -4  -8   2    6.94    0.59
  -4  -8   2    6.54    0.49
  -4   8   2    7.19    0.58
  -4   8   2    6.44    0.44
  -3  -8   2   11.30    0.51
  -3  -8   2   12.05    0.60
  -3   8   2   11.76    0.58
  -3   8   2   11.82    0.55
  -2  -8   2   12.59    0.47
  -2  -8   2   12.62    0.54
  -2   8   2   11.77    0.46
  -2   8   2   12.12    0.53
   1  -8  -2  148.72    2.66
  -1  -8   2  152.10    2.71
  -1   8   2  158.18    2.92
  -1   8   2  146.53    2.63
   0  -8   2  337.25    5.68
   0  -8  -2  334.98    5.68
   0   8   2  338.74    6.02
  -1  -8  -2   16.30    0.62
   1  -8   2   16.78    0.58
   1   8   2   17.15    0.60
  -2  -8  -2   34.57    1.03
   2  -8   2   36.46    0.98
   3  -8   2   40.35    1.14
  -3  -8  -2   40.29    1.22
  -4  -8  -2    2.05    0.49
   4  -8   2    2.83    0.43
  -4   8  -2    3.43    0.52
  -5  -8  -2   11.38    0.93
   5  -8   2   12.77    0.81
  -5   8  -2   15.99    1.00
  -6  -9   2    1.60    0.51
  -6   9   2    1.62    0.52
  -5  -9   2    2.36    0.47
  -5   9   2    2.34    0.49
  -4  -9   2    7.13    0.59
  -4  -9   2    7.19    0.50
  -4   9   2    5.85    0.44
  -4   9   2    7.87    0.61
  -3  -9   2  115.79    2.22
  -3  -9   2  116.37    2.38
  -3   9   2  115.27    2.39
  -3   9   2  116.39    2.35
  -2  -9   2    6.62    0.40
  -2  -9   2    5.79    0.42
  -2   9   2    7.44    0.37
  -2   9   2    7.30    0.45
  -1  -9   2   27.00    0.75
   1  -9  -2   26.69    0.70
  -1   9   2   28.39    0.82
   0  -9  -2   79.12    1.60
   0  -9   2   80.33    1.61
   0   9   2   77.94    1.70
  -1  -9  -2    3.11    0.34
   1  -9   2    3.31    0.31
   1   9   2    3.57    0.35
   2  -9   2  124.55    2.44
  -2  -9  -2  122.51    2.50
  -3  -9  -2   12.42    0.73
   3  -9   2   12.72    0.63
   4  -9   2    7.08    0.60
  -4  -9  -2    6.39    0.66
   5  -9   2   11.39    0.78
  -5  -9  -2    9.92    0.87
  -6 -10   2   10.43    0.88
  -6  10   2   11.88    0.90
  -5 -10   2    9.75    0.74
  -5  10   2    9.01    0.78
  -4 -10   2    3.80    0.45
  -4 -10   2    3.55    0.41
  -4  10   2    3.13    0.38
  -4  10   2    4.42    0.51
  -3 -10   2    2.53    0.33
  -3 -10   2    2.05    0.34
  -3  10   2    2.14    0.33
  -3  10   2    2.97    0.36
   2 -10  -2    8.17    0.37
  -2 -10   2    8.70    0.48
  -2 -10   2    8.34    0.45
  -2  10   2    8.54    0.49
  -2  10   2    8.06    0.39
   1 -10  -2  174.73    3.07
  -1 -10   2  174.69    3.12
  -1  10   2  166.65    3.30
   0 -10   2  247.14    4.33
   0 -10  -2  251.10    4.34
   0  10   2  246.42    4.59
   1 -10   2   21.20    0.70
  -1 -10  -2   20.38    0.75
   1  10   2   21.83    0.74
  -2 -10  -2    6.91    0.53
   2 -10   2    7.03    0.47
   3 -10   2   40.30    1.17
  -3 -10  -2   40.66    1.28
   4 -10   2    1.24    0.35
  -4 -10  -2    2.14    0.49
   5 -10   2   15.55    0.88
  -5 -10  -2   16.21    1.01
  -6 -11   2    6.44    0.73
  -6  11   2    6.27    0.74
  -5 -11   2    0.21    0.35
  -5  11   2    0.24    0.38
  -4 -11   2   16.01    0.79
  -4 -11   2   15.61    0.71
  -4  11   2   18.68    0.83
  -4  11   2   15.66    0.67
  -3 -11   2   82.50    1.84
  -3 -11   2   80.94    1.74
  -3  11   2   82.02    1.85
  -3  11   2   80.60    1.78
  -2 -11   2   17.40    0.65
   2 -11  -2   18.10    0.58
  -2 -11   2   18.75    0.69
  -2  11   2   20.25    0.73
  -2  11   2   18.53    0.59
  -1 -11   2   25.43    0.78
   1 -11  -2   25.76    0.74
  -1  11   2   26.28    0.83
   0 -11   2   49.13    1.18
   0 -11  -2   49.37    1.19
   0  11   2   51.65    1.27
   1 -11   2   14.16    0.59
  -1 -11  -2   12.85    0.62
   1  11   2   13.27    0.61
   2 -11   2   63.05    1.50
  -2 -11  -2   64.10    1.57
  -3 -11  -2   42.76    1.34
   3 -11   2   43.77    1.23
   4 -11   2    4.75    0.54
  -4 -11  -2    3.79    0.57
  -5 -11  -2   12.36    0.97
   5 -11   2   15.70    0.88
  -6 -12   2    7.18    0.75
  -6  12   2    8.14    0.80
  -5 -12   2    0.31    0.33
  -5  12   2    0.02    0.35
  -4 -12   2   31.13    0.99
  -4 -12   2   32.51    1.09
  -4  12   2   28.96    0.96
  -4  12   2   30.26    1.06
  -3 -12   2    0.26    0.25
  -3 -12   2    0.11    0.27
  -3  12   2    0.75    0.27
  -3  12   2    0.36    0.22
   2 -12  -2   16.18    0.57
  -2 -12   2   17.98    0.68
  -2 -12   2   18.17    0.67
  -2  12   2   15.85    0.55
  -2  12   2   17.14    0.69
  -1 -12   2  152.06    2.87
   1 -12  -2  152.30    2.82
  -1  12   2  152.81    3.04
   0 -12  -2  162.43    3.03
   0 -12   2  159.58    3.02
   0  12   2  163.16    3.20
  -1 -12  -2   32.93    1.00
   1 -12   2   34.23    0.97
   1  12   2   32.82    1.01
   2 -12   2    7.13    0.51
  -2 -12  -2    7.17    0.58
   3 -12   2   64.88    1.62
  -3 -12  -2   64.05    1.73
  -4 -12  -2    0.56    0.42
   4 -12   2    0.62    0.35
   5 -12   2   13.68    0.87
  -5 -12  -2   13.97    1.01
  -6 -13   2    1.37    0.47
  -6  13   2    2.20    0.54
  -5 -13   2    1.47    0.42
  -5  13   2    1.70    0.46
  -4 -13   2   16.71    0.81
  -4 -13   2   16.64    0.76
  -4  13   2   16.50    0.72
  -4  13   2   17.29    0.81
  -3 -13   2   65.91    1.60
  -3 -13   2   67.90    1.57
  -3  13   2   65.58    1.61
  -3  13   2   64.47    1.53
  -2 -13   2   16.66    0.69
   2 -13  -2   17.15    0.61
  -2 -13   2   18.99    0.71
  -2  13   2   17.24    0.58
  -2  13   2   19.04    0.75
   1 -13  -2   20.12    0.69
  -1 -13   2   20.10    0.75
  -1  13   2   21.91    0.79
   0 -13  -2   35.05    0.99
   0 -13   2   33.12    0.98
   0  13   2   35.70    1.06
  -1 -13  -2    8.97    0.57
   1 -13   2    9.05    0.53
   2 -13   2   85.99    1.93
  -2 -13  -2   86.89    2.02
   3 -13   2   26.30    0.97
  -3 -13  -2   26.89    1.07
  -4 -13  -2   11.60    0.85
   4 -13   2   11.87    0.76
   5 -13   2    6.07    0.67
  -5 -13  -2    5.59    0.72
  -5 -14   2    2.81    0.50
  -5  14   2    3.73    0.55
  -4 -14   2   11.11    0.69
  -4 -14   2   11.23    0.68
  -4  14   2   10.29    0.60
  -4  14   2   10.75    0.66
  -3 -14   2    4.16    0.47
  -3 -14   2    4.77    0.48
  -3  14   2    6.04    0.55
  -3  14   2    4.35    0.42
  -2 -14   2   20.09    0.78
   2 -14  -2   20.76    0.69
  -2 -14   2   20.05    0.75
  -2  14   2   21.45    0.65
  -2  14   2   21.08    0.82
   1 -14  -2   86.11    1.83
  -1 -14   2   87.52    1.89
  -1  14   2   83.35    1.96
   0 -14  -2  107.85    2.20
   0 -14   2  106.70    2.20
   0  14   2  103.66    2.32
   1 -14   2   44.80    1.20
  -1 -14  -2   42.71    1.23
  -2 -14  -2   13.11    0.74
   2 -14   2   13.37    0.68
  -3 -14  -2   39.90    1.32
   3 -14   2   37.01    1.20
  -4 -14  -2    1.93    0.49
   4 -14   2    1.77    0.42
  -5 -14  -2    5.03    0.72
   5 -14   2    5.05    0.65
  -5 -15   2    1.19    0.41
  -5  15   2    1.38    0.42
  -4 -15   2   12.07    0.73
  -4 -15   2   13.65    0.75
  -4  15   2   12.51    0.67
  -4  15   2   13.08    0.71
  -3 -15   2   70.46    1.69
  -3 -15   2   69.83    1.69
  -3  15   2   67.72    1.61
  -3  15   2   69.97    1.74
  -2 -15   2   18.19    0.73
  -2 -15   2   19.73    0.78
   2 -15  -2   19.22    0.68
  -2  15   2   16.97    0.60
  -2  15   2   16.84    0.77
  -1 -15   2   40.04    1.14
   1 -15  -2   36.31    1.05
  -1  15   2   36.76    1.14
   0 -15  -2   16.57    0.72
   0 -15   2   15.34    0.69
   0  15   2   15.23    0.74
  -1 -15  -2    6.59    0.55
   1 -15   2    6.31    0.52
   2 -15   2   70.45    1.72
  -2 -15  -2   69.85    1.80
  -3 -15  -2   20.76    1.00
   3 -15   2   21.58    0.93
  -4 -15  -2    7.79    0.80
   4 -15   2    8.71    0.72
   5 -15   2    3.15    0.55
  -5  16   2    1.86    0.42
  -4 -16   2   13.49    0.76
  -4 -16   2   13.81    0.80
  -4  16   2   13.23    0.72
  -4  16   2   13.83    0.73
  -3 -16   2   10.85    0.68
  -3 -16   2   10.14    0.63
  -3  16   2    9.61    0.63
  -3  16   2    9.93    0.54
  -2 -16   2   17.01    0.71
  -2 -16   2   16.77    0.76
   2 -16  -2   17.38    0.68
  -2  16   2   17.96    0.79
  -1 -16   2   49.80    1.35
   1 -16  -2   49.04    1.29
  -1  16   2   49.17    1.40
   0 -16  -2   68.21    1.65
   0 -16   2   66.08    1.66
   0  16   2   69.76    1.75
  -1 -16  -2   30.82    1.06
   1 -16   2   30.21    1.02
  -2 -16  -2    8.22    0.70
   2 -16   2    9.05    0.64
   3 -16   2   23.22    0.98
  -3 -16  -2   22.53    1.06
   4 -16   2    0.90    0.42
  -4 -16  -2    1.11    0.48
  -5  17   2   -0.01    0.32
  -4 -17   2    8.01    0.69
  -4 -17   2    7.70    0.64
  -4  17   2    7.43    0.60
  -3 -17   2   47.69    1.38
  -3 -17   2   47.82    1.33
  -3  17   2   46.11    1.25
  -3  17   2   48.62    1.41
  -2 -17   2    6.76    0.57
   2 -17  -2    6.97    0.48
  -2 -17   2    6.70    0.51
  -2  17   2    7.14    0.58
   1 -17  -2   26.44    0.92
  -1 -17   2   27.25    0.99
  -1  17   2   25.97    1.00
   0 -17  -2   37.29    1.15
   0 -17   2   38.01    1.18
   0  17   2   35.58    1.21
  -1 -17  -2    3.72    0.49
   1 -17   2    4.55    0.51
   2 -17   2   61.84    1.63
  -2 -17  -2   61.57    1.73
   3 -17   2   11.46    0.75
  -3 -17  -2   11.84    0.83
  -4 -17  -2    2.33    0.59
   4 -17   2    3.38    0.55
  -5  18   2    2.11    0.46
  -4 -18   2    6.85    0.66
  -4  18   2    6.16    0.59
  -3 -18   2    4.12    0.54
  -3 -18   2    3.02    0.42
  -3  18   2    4.19    0.52
  -2 -18   2   13.52    0.67
   2 -18  -2   13.71    0.66
  -2 -18   2   15.50    0.77
  -2  18   2   13.67    0.76
  -1 -18   2   41.22    1.27
   1 -18  -2   41.47    1.21
  -1  18   2   38.58    1.27
   0 -18  -2  106.04    2.35
   0 -18   2  106.00    2.37
   1 -18   2   22.73    0.93
  -1 -18  -2   22.43    0.98
  -2 -18  -2    6.70    0.69
   2 -18   2    7.21    0.65
   3 -18   2   17.10    0.91
  -3 -18  -2   18.38    1.01
  -4 -18  -2    0.74    0.49
   4 -18   2    0.14    0.38
  -4 -19   2    4.76    0.59
  -3 -19   2   30.05    1.05
  -3 -19   2   29.62    1.11
  -3  19   2   27.02    1.08
   2 -19  -2    5.46    0.51
  -2 -19   2    6.44    0.62
  -2 -19   2    4.89    0.48
  -2  19   2    7.14    0.66
   1 -19  -2   35.57    1.16
  -1 -19   2   35.73    1.20
  -1  19   2   36.28    1.26
   0 -19  -2   22.88    0.96
   0 -19   2   23.28    0.99
   1 -19   2    7.78    0.65
  -1 -19  -2    8.38    0.71
   2 -19   2   31.55    1.18
  -2 -19  -2   33.61    1.27
   3 -19   2    9.88    0.77
  -3 -19  -2    9.65    0.83
   4 -19   2   14.10    0.90
  -4 -19  -2   12.44    1.00
  -4 -20   2    8.31    0.76
  -3 -20   2    1.36    0.45
  -3  20   2    0.68    0.35
  -2 -20   2   11.15    0.63
   2 -20  -2   12.61    0.69
  -2 -20   2   11.31    0.75
  -2  20   2   11.10    0.75
  -1 -20   2   37.76    1.28
   1 -20  -2   38.58    1.24
   0 -20  -2   50.30    1.47
   0 -20   2   47.59    1.49
  -1 -20  -2   28.36    1.15
   1 -20   2   27.41    1.11
   2 -20   2    5.15    0.61
  -2 -20  -2    5.78    0.67
   3 -20   2   17.61    0.97
  -3 -20  -2   15.41    0.98
   4 -20   2    0.16    0.38
  -4 -21   2    4.30    0.61
  -3 -21   2   24.00    1.08
   2 -21  -2    9.21    0.65
  -2 -21   2    8.83    0.72
   1 -21  -2   23.47    0.99
  -1 -21   2   22.88    1.04
   0 -21  -2   14.79    0.85
   0 -21   2   14.11    0.88
  -1 -21  -2    7.92    0.71
   1 -21   2    7.33    0.69
   2 -21   2   22.39    1.03
  -2 -21  -2   20.32    1.09
   3 -21   2    9.23    0.84
  -3 -21  -2    7.48    0.78
  -4 -22   2    7.50    0.76
  -3 -22   2    0.76    0.44
   2 -22  -2    9.58    0.70
  -2 -22   2   10.99    0.80
  -1 -22   2   31.23    1.22
   1 -22  -2   30.52    1.17
   0 -22   2   31.81    1.26
   0 -22  -2   30.77    1.21
   1 -22   2   25.48    1.13
  -1 -22  -2   26.59    1.17
  -2 -22  -2    0.58    0.44
   2 -22   2    1.43    0.44
   3 -22   2    9.28    0.82
  -3 -22  -2    9.46    0.92
  -3 -23   2   14.64    0.96
  -2 -23   2    4.66    0.64
   2 -23  -2    4.94    0.57
  -1 -23   2   22.41    1.06
   1 -23  -2   18.76    0.98
   0 -23  -2    2.98    0.52
   0 -23   2    2.17    0.53
   1 -23   2    7.90    0.77
  -1 -23  -2    6.72    0.73
  -2 -23  -2   13.44    0.98
   2 -23   2   13.41    0.92
  -3 -24   2   -0.53    0.39
  -2 -24   2    7.49    0.79
   2 -24  -2    7.77    0.72
  -1 -24   2   17.15    1.00
   1 -24  -2   17.15    0.97
   0 -24  -2    6.62    0.69
   0 -24   2    8.46    0.80
  -1 -24  -2   21.95    1.16
   1 -24   2   20.87    1.13
   2 -24   2    2.00    0.53
  -2 -24  -2    2.60    0.60
  -3 -25   2   13.28    0.98
  -2 -25   2    5.02    0.71
   2 -25  -2    6.10    0.66
   1 -25  -2   13.71    0.93
  -1 -25   2   13.45    0.96
   0 -25  -2    6.52    0.72
   0 -25   2    5.14    0.68
  -1 -25  -2    7.11    0.78
   1 -25   2    5.69    0.72
  -2 -26   2    9.84    0.93
   2 -26  -2   11.85    0.94
  -1 -26   2   13.51    0.96
   1 -26  -2   12.99    0.96
   0 -26  -2   13.59    0.99
   0 -26   2   12.03    0.97
  -1 -26  -2   20.81    1.17
   1 -26   2   19.66    1.15
   1 -27  -2   16.74    1.06
   0 -27  -2    5.83    0.74
  -6   0   3    0.20    0.39
  -5   0   3    1.68    0.44
  -4   0   3    7.43    0.61
  -3   0   3   12.89    0.64
  -2   0   3  120.52    2.36
  -1   0   3    1.40    0.23
   0   0  -3   19.56    0.60
  -1   0  -3  242.48    4.30
  -2   0  -3   36.37    1.09
  -3   0  -3   14.21    0.80
  -4   0  -3   10.60    0.85
  -5   0  -3   -0.60    0.46
  -6  -1   3    0.68    0.44
  -6   1   3    0.52    0.46
  -5  -1   3   22.82    1.02
  -5   1   3   21.00    1.00
  -4  -1   3    5.01    0.52
  -4   1   3    5.18    0.51
  -3  -1   3    4.05    0.41
  -3   1   3    3.46    0.40
  -2  -1   3  150.37    2.85
  -2   1   3  150.19    2.82
  -1  -1   3  124.73    2.36
  -1   1   3  124.10    2.33
   0  -1  -3   48.01    1.07
   0   1  -3   46.93    1.06
  -1  -1  -3   15.50    0.64
  -1   1  -3   14.47    0.62
  -2  -1  -3    9.49    0.60
  -2   1  -3   10.09    0.60
  -3  -1  -3   79.99    1.99
  -3   1  -3   82.48    1.97
  -4  -1  -3   60.29    1.77
  -4   1  -3   64.08    1.81
  -5  -1  -3    0.15    0.49
  -5   1  -3    0.09    0.47
  -6  -2   3    1.11    0.48
  -6   2   3    1.08    0.45
  -5  -2   3    9.33    0.75
  -5   2   3    8.99    0.75
  -4  -2   3   30.39    1.05
  -4   2   3   31.32    1.05
  -3  -2   3   11.10    0.62
  -3   2   3   11.62    0.61
  -2  -2   3   91.90    1.92
  -2   2   3   95.30    1.90
  -1  -2   3    4.49    0.26
  -1  -2   3    4.70    0.36
  -1   2   3    5.03    0.34
   0  -2  -3   75.17    1.55
   0   2  -3   80.91    1.57
  -1  -2  -3  268.73    4.65
  -1   2  -3  258.15    4.61
  -2  -2  -3   26.24    0.90
  -2   2  -3   24.08    0.87
  -3  -2  -3   13.58    0.81
  -3   2  -3   15.38    0.84
  -4  -2  -3    7.65    0.75
  -4   2  -3    6.48    0.72
  -5  -2  -3    0.41    0.50
  -5   2  -3    0.66    0.51
  -6  -3   3    0.24    0.43
  -6   3   3    0.13    0.41
  -5  -3   3   19.41    0.97
  -5   3   3   19.47    0.97
  -4  -3   3   15.87    0.79
  -4   3   3   17.15    0.79
  -3  -3   3    4.25    0.43
  -3   3   3    4.89    0.44
  -2  -3   3   86.88    1.80
  -2   3   3   83.13    1.74
  -1  -3   3   44.41    1.07
  -1  -3   3   45.00    0.93
  -1   3   3   45.77    1.00
   0  -3  -3   44.45    1.02
   0   3   3   43.94    1.07
  -1  -3  -3   15.04    0.62
   1   3   3   12.13    0.52
  -1   3  -3   12.53    0.60
  -2  -3  -3    8.57    0.59
  -2   3  -3    7.15    0.55
  -3  -3  -3   26.18    1.06
  -3   3  -3   28.34    1.07
  -4  -3  -3   25.21    1.16
  -4   3  -3   27.21    1.18
  -5  -3  -3   -0.18    0.47
  -5   3  -3   -0.46    0.44
  -6  -4   3    0.48    0.43
  -6   4   3    0.17    0.40
  -5  -4   3    4.26    0.57
  -5   4   3    3.87    0.55
  -4  -4   3   18.08    0.84
  -4   4   3   17.69    0.82
  -3  -4   3   17.25    0.72
  -3   4   3   18.10    0.71
  -2  -4   3   58.71    1.38
  -2   4   3   59.14    1.31
  -1  -4   3   11.38    0.40
  -1   4   3   10.23    0.41
   0  -4  -3   14.50    0.53
   0  -4   3   13.71    0.51
   0   4   3   13.25    0.54
  -1  -4  -3  267.70    4.69
  -1   4  -3  265.48    4.67
   1   4   3  263.23    4.79
  -2  -4  -3   12.77    0.67
  -2   4  -3   12.79    0.66
  -3  -4  -3    2.29    0.47
  -3   4  -3    2.62    0.48
  -4  -4  -3    3.26    0.58
  -4   4  -3    4.81    0.65
  -5  -4  -3    0.13    0.50
  -6  -5   3    1.09    0.46
  -6   5   3    1.57    0.49
  -5  -5   3   15.60    0.91
  -5   5   3   16.07    0.91
  -4  -5   3    7.31    0.63
  -4   5   3    7.81    0.61
  -3  -5   3    2.86    0.39
  -3   5   3    2.77    0.36
  -2  -5   3   96.53    1.99
  -2   5   3   93.02    1.88
  -1  -5   3  101.26    1.89
  -1   5   3   99.86    1.90
  -1   5   3  105.66    2.13
   0  -5  -3   45.92    1.07
   0  -5   3   44.86    1.04
   0   5   3   45.03    0.94
   0   5   3   48.37    1.13
  -1  -5  -3   17.03    0.68
   1   5   3   15.70    0.62
  -2  -5  -3    6.49    0.55
  -3  -5  -3   34.98    1.22
  -3   5  -3   35.89    1.20
  -4  -5  -3   40.12    1.45
  -5  -5  -3    0.03    0.51
  -6  -6   3   -0.01    0.38
  -6   6   3    0.69    0.44
  -5  -6   3    6.83    0.69
  -5   6   3    7.39    0.69
  -5   6   3    4.63    0.48
  -4  -6   3   27.89    1.03
  -4   6   3   28.31    1.03
  -4   6   3   27.52    0.95
  -3  -6   3   12.97    0.65
  -3   6   3   11.24    0.59
  -3   6   3   11.46    0.59
  -2  -6   3   88.01    1.88
  -2   6   3   86.58    1.91
  -2   6   3   88.73    1.77
   1  -6  -3    3.45    0.28
  -1  -6   3    3.38    0.28
  -1   6   3    3.24    0.35
  -1   6   3    3.06    0.26
   0  -6   3   52.28    1.17
   0  -6  -3   52.69    1.19
   0   6   3   51.39    1.25
   1  -6   3  406.09    7.01
  -1  -6  -3  412.62    7.05
   1   6   3  420.39    7.33
  -2  -6  -3   18.72    0.80
  -3  -6  -3   10.48    0.73
  -4  -6  -3    3.91    0.62
   5  -6   3    0.63    0.38
  -5  -6  -3    1.57    0.59
  -6  -7   3    0.31    0.42
  -6   7   3    0.53    0.44
  -5  -7   3   14.16    0.89
  -5   7   3   14.02    0.88
  -4  -7   3    8.91    0.67
  -4   7   3    7.73    0.61
  -4   7   3    7.83    0.56
  -3  -7   3   22.61    0.86
  -3   7   3   23.56    0.81
  -3   7   3   23.61    0.84
  -2  -7   3   81.25    1.59
  -2  -7   3   81.55    1.79
  -2   7   3   79.69    1.65
  -2   7   3   82.93    1.83
  -1  -7   3   94.56    1.80
   1  -7  -3   94.05    1.76
  -1   7   3   91.39    1.73
  -1   7   3   93.33    1.99
   0  -7  -3   66.63    1.45
   0  -7   3   68.02    1.45
   0   7   3   68.75    1.56
   1  -7   3   17.06    0.66
  -1  -7  -3   17.57    0.70
   1   7   3   15.91    0.65
  -2  -7  -3   27.49    0.97
  -3  -7  -3   29.16    1.13
   3  -7   3   28.28    1.01
  -4  -7  -3   33.53    1.33
   5  -7   3    1.66    0.44
  -5  -7  -3    1.51    0.59
  -6  -8   3   -0.35    0.39
  -6   8   3   -0.54    0.37
  -5  -8   3    2.35    0.50
  -5   8   3    1.34    0.43
  -4  -8   3    9.72    0.68
  -4   8   3    8.10    0.57
  -4   8   3    8.41    0.67
  -3  -8   3    6.03    0.54
  -3   8   3    6.65    0.49
  -3   8   3    6.37    0.52
  -2  -8   3   71.01    1.45
  -2  -8   3   70.38    1.61
  -2   8   3   69.29    1.46
  -2   8   3   69.28    1.63
  -1  -8   3    4.78    0.36
   1  -8  -3    4.69    0.33
  -1   8   3    5.08    0.43
   0  -8   3   31.36    0.86
   0  -8  -3   31.83    0.87
   0   8   3   29.07    0.91
  -1  -8  -3  116.84    2.35
   1  -8   3  113.71    2.29
   1   8   3  113.93    2.35
   2  -8   3   15.16    0.68
  -2  -8  -3   15.69    0.76
   2   8   3   15.69    0.62
   3  -8   3    9.26    0.64
  -3  -8  -3    9.36    0.77
  -4  -8  -3    6.11    0.70
   4  -8   3    5.41    0.59
  -5  -8  -3    0.83    0.54
   5  -8   3    1.00    0.44
  -6  -9   3    1.01    0.44
  -6   9   3    1.24    0.47
  -5  -9   3   18.98    1.00
  -5   9   3   20.98    1.00
  -4  -9   3    3.20    0.48
  -4   9   3    2.98    0.41
  -4   9   3    2.85    0.44
  -3  -9   3   16.93    0.77
  -3   9   3   16.43    0.68
  -3   9   3   17.91    0.75
  -2  -9   3  101.43    2.01
  -2  -9   3  104.40    2.19
  -2   9   3  101.28    2.00
  -2   9   3  105.91    2.24
  -1  -9   3   81.35    1.67
   1  -9  -3   80.16    1.63
  -1   9   3   82.15    1.84
   0  -9   3   43.36    1.10
   0  -9  -3   44.02    1.11
   0   9   3   44.37    1.19
  -1  -9  -3    1.43    0.32
   1  -9   3    1.30    0.29
   1   9   3    1.74    0.33
   2  -9   3   12.66    0.63
  -2  -9  -3   12.61    0.72
   2   9   3   12.40    0.59
  -3  -9  -3   29.93    1.15
   3  -9   3   29.04    1.04
   4  -9   3   40.09    1.36
  -4  -9  -3   41.56    1.47
  -5  -9  -3    1.79    0.59
   5  -9   3    1.84    0.48
  -6 -10   3    1.71    0.52
  -6  10   3    1.15    0.48
  -5 -10   3    1.72    0.46
  -5  10   3    2.64    0.48
  -4 -10   3    8.24    0.69
  -4  10   3    8.08    0.64
  -4  10   3    7.56    0.58
  -3 -10   3    4.86    0.51
  -3 -10   3    4.32    0.38
  -3  10   3    3.98    0.39
  -3  10   3    4.12    0.47
  -2 -10   3   62.91    1.52
  -2 -10   3   63.78    1.41
  -2  10   3   61.58    1.34
  -2  10   3   62.98    1.57
  -1 -10   3   33.93    0.93
   1 -10  -3   33.71    0.88
  -1  10   3   33.33    1.03
   0 -10  -3   27.12    0.86
   0 -10   3   27.91    0.85
   0  10   3   27.59    0.90
   1 -10   3   73.71    1.68
  -1 -10  -3   75.83    1.73
   1  10   3   73.95    1.73
  -2 -10  -3   10.82    0.70
   2 -10   3   11.20    0.63
   3 -10   3    7.81    0.63
  -3 -10  -3    9.39    0.78
   4 -10   3    4.36    0.58
  -4 -10  -3    4.87    0.66
  -5 -10  -3    0.29    0.53
   5 -10   3    0.63    0.42
  -6 -11   3    1.35    0.49
  -6  11   3    2.45    0.55
  -5 -11   3   10.57    0.81
  -5  11   3   10.79    0.81
  -4 -11   3    4.86    0.56
  -4  11   3    3.85    0.47
  -4  11   3    4.55    0.51
  -3 -11   3    2.46    0.41
  -3 -11   3    1.77    0.31
  -3  11   3    2.24    0.40
  -3  11   3    2.14    0.32
  -2 -11   3   71.90    1.69
  -2 -11   3   74.05    1.59
  -2  11   3   69.69    1.48
  -2  11   3   73.81    1.76
   1 -11  -3   48.44    1.15
  -1 -11   3   48.82    1.20
  -1  11   3   48.02    1.32
   0 -11   3   40.28    1.09
   0 -11  -3   40.75    1.12
   0  11   3   41.37    1.17
  -1 -11  -3    9.28    0.60
   1 -11   3    9.01    0.55
   1  11   3    8.24    0.56
   2 -11   3    2.93    0.40
  -2 -11  -3    2.88    0.45
  -3 -11  -3   30.21    1.18
   3 -11   3   29.06    1.07
   4 -11   3   28.20    1.13
  -4 -11  -3   25.81    1.22
   5 -11   3    0.28    0.39
  -6 -12   3    1.43    0.48
  -6  12   3    2.63    0.56
  -5 -12   3    5.65    0.65
  -5  12   3    6.57    0.66
  -4 -12   3   13.95    0.82
  -4  12   3   13.19    0.73
  -4  12   3   12.98    0.74
  -3 -12   3    7.63    0.61
  -3 -12   3    7.05    0.50
  -3  12   3    7.61    0.60
  -3  12   3    7.64    0.48
  -2 -12   3   55.51    1.43
  -2 -12   3   56.87    1.35
  -2  12   3   56.94    1.50
  -2  12   3   53.43    1.21
   1 -12  -3    9.60    0.50
  -1 -12   3   10.36    0.56
  -1  12   3    8.04    0.57
   0 -12  -3   26.54    0.89
   0 -12   3   27.34    0.87
   0  12   3   24.94    0.92
   1 -12   3  162.65    3.17
  -1 -12  -3  164.12    3.22
   1  12   3  163.42    3.32
  -2 -12  -3   14.76    0.82
   2 -12   3   15.34    0.74
  -3 -12  -3    9.73    0.78
   3 -12   3    8.99    0.69
   4 -12   3    6.41    0.65
  -4 -12  -3    5.51    0.70
  -6 -13   3    1.24    0.47
  -6  13   3    1.12    0.49
  -5 -13   3   13.64    0.87
  -5  13   3   12.35    0.85
  -4 -13   3    2.87    0.49
  -4  13   3    2.91    0.45
  -4  13   3    3.25    0.45
  -3 -13   3    3.20    0.40
  -3 -13   3    3.00    0.44
  -3  13   3    3.13    0.36
  -3  13   3    3.69    0.47
  -2 -13   3   65.88    1.60
   2 -13  -3   63.26    1.40
  -2 -13   3   61.45    1.49
  -2  13   3   62.78    1.63
   1 -13  -3   32.46    0.95
  -1 -13   3   33.63    1.01
  -1  13   3   34.11    1.09
   0 -13  -3   41.17    1.17
   0 -13   3   42.27    1.16
   0  13   3   40.45    1.23
   1 -13   3   10.06    0.63
  -1 -13  -3   10.03    0.66
   1  13   3    9.60    0.66
   2 -13   3   24.12    0.93
  -2 -13  -3   24.34    1.02
   3 -13   3   25.97    1.07
  -3 -13  -3   27.75    1.17
   4 -13   3   30.56    1.21
  -4 -13  -3   26.80    1.26
  -5 -14   3    2.71    0.54
  -5  14   3    3.37    0.52
  -4 -14   3   10.44    0.76
  -4  14   3   11.34    0.71
  -4  14   3   11.78    0.69
  -3 -14   3   14.66    0.70
  -3 -14   3   14.99    0.77
  -3  14   3   13.10    0.61
  -3  14   3   15.36    0.79
   2 -14  -3   26.98    0.83
  -2 -14   3   28.55    0.94
  -2 -14   3   29.11    0.99
  -2  14   3   28.04    1.03
  -1 -14   3   21.28    0.84
   1 -14  -3   22.92    0.79
  -1  14   3   21.95    0.91
   0 -14  -3   59.97    1.51
   0 -14   3   58.49    1.49
   0  14   3   61.60    1.62
   1 -14   3  122.13    2.62
  -1 -14  -3  128.47    2.70
   1  14   3  128.67    2.78
   2 -14   3   12.59    0.74
  -2 -14  -3   12.85    0.81
   3 -14   3    7.87    0.70
  -3 -14  -3    7.35    0.74
  -4 -14  -3    3.97    0.65
   4 -14   3    4.27    0.60
  -5 -15   3    8.88    0.79
  -5  15   3    8.96    0.75
  -4 -15   3    4.95    0.60
  -4  15   3    4.72    0.50
  -4  15   3    4.85    0.56
  -3 -15   3   12.22    0.68
  -3 -15   3   12.80    0.74
  -3  15   3   12.56    0.76
   2 -15  -3   22.71    0.77
  -2 -15   3   21.48    0.88
  -2 -15   3   22.97    0.88
  -2  15   3   22.51    0.95
  -1 -15   3    8.42    0.61
   1 -15  -3    9.10    0.56
  -1  15   3    8.64    0.65
   0 -15   3   13.38    0.71
   0 -15  -3   13.94    0.72
   0  15   3   13.86    0.77
  -1 -15  -3    4.70    0.54
   1 -15   3    4.79    0.52
   1  15   3    4.82    0.55
   2 -15   3   16.53    0.83
  -2 -15  -3   17.21    0.92
  -3 -15  -3    5.75    0.70
   3 -15   3    5.84    0.63
  -4 -15  -3    5.00    0.71
   4 -15   3    4.99    0.63
  -5 -16   3    3.68    0.57
  -5  16   3    4.14    0.55
  -4 -16   3   10.55    0.78
  -4  16   3   10.96    0.75
  -3 -16   3   13.09    0.72
  -3 -16   3   12.30    0.75
  -3  16   3   13.66    0.80
  -2 -16   3   20.13    0.88
  -2 -16   3   19.95    0.86
   2 -16  -3   21.97    0.78
  -2  16   3   22.42    0.96
   1 -16  -3   -0.06    0.24
  -1 -16   3   -0.12    0.31
  -1  16   3    0.58    0.33
   0 -16   3   13.74    0.75
   0 -16  -3   13.86    0.75
   0  16   3   12.21    0.79
   1 -16   3   84.68    2.03
  -1 -16  -3   87.92    2.13
   1  16   3   88.12    2.17
  -2 -16  -3    7.98    0.73
   2 -16   3    8.02    0.69
  -3 -16  -3    4.50    0.66
   3 -16   3    4.80    0.61
  -4 -16  -3    1.69    0.56
   4 -16   3    1.48    0.48
  -5 -17   3   10.81    0.85
  -4 -17   3    2.57    0.48
  -4  17   3    3.52    0.53
  -3 -17   3   16.78    0.85
  -3 -17   3   18.32    0.86
  -3  17   3   18.90    0.93
  -2 -17   3   23.31    0.94
  -2 -17   3   21.54    0.92
   2 -17  -3   21.67    0.82
  -2  17   3   21.64    0.99
   1 -17  -3   22.43    0.88
  -1 -17   3   20.92    0.92
  -1  17   3   21.12    0.97
   0 -17   3   19.90    0.89
   0 -17  -3   21.87    0.93
   0  17   3   21.63    1.01
   1 -17   3    3.99    0.54
  -1 -17  -3    2.69    0.50
  -2 -17  -3   18.20    0.98
   2 -17   3   17.30    0.89
  -3 -17  -3   12.48    0.93
   3 -17   3   13.81    0.88
   4 -17   3   15.67    1.01
  -4 -18   3    1.68    0.44
  -4  18   3    2.04    0.47
  -3 -18   3    7.67    0.66
  -3 -18   3    7.35    0.65
  -3  18   3    7.88    0.72
  -2 -18   3   25.52    1.00
  -2 -18   3   26.26    1.03
  -2  18   3   26.32    1.10
  -1 -18   3    6.28    0.64
   1 -18  -3    5.32    0.53
  -1  18   3    7.52    0.70
   0 -18   3   17.96    0.88
   0 -18  -3   18.28    0.89
   0  18   3   18.46    0.95
   1 -18   3   48.22    1.48
  -1 -18  -3   50.80    1.57
   2 -18   3    8.85    0.73
  -2 -18  -3    9.07    0.81
   3 -18   3    7.44    0.73
  -3 -18  -3    6.33    0.76
  -4 -19   3    0.66    0.41
  -4  19   3    0.59    0.39
  -3 -19   3   13.16    0.80
  -3 -19   3   13.14    0.81
  -3  19   3   12.66    0.84
  -2 -19   3   33.53    1.16
  -2 -19   3   34.27    1.19
  -2  19   3   31.99    1.26
  -1 -19   3   21.77    1.02
   1 -19  -3   21.45    0.94
  -1  19   3   23.23    1.08
   0 -19  -3   21.78    0.99
   0 -19   3   21.60    1.01
   0  19   3   22.52    1.08
   1 -19   3    1.94    0.46
  -1 -19  -3    2.11    0.49
  -2 -19  -3   19.03    1.05
   2 -19   3   18.49    0.97
  -3 -19  -3   12.03    0.96
   3 -19   3   14.63    0.94
  -4  20   3    4.41    0.59
  -3 -20   3    4.35    0.60
  -3 -20   3    3.85    0.55
  -3  20   3    3.61    0.56
  -2 -20   3   21.70    0.95
  -2 -20   3   23.17    1.02
  -2  20   3   20.63    1.06
  -1 -20   3   20.29    1.01
   1 -20  -3   21.22    0.96
  -1  20   3   19.00    1.05
   0 -20  -3   23.49    1.04
   0 -20   3   22.24    1.05
  -1 -20  -3   24.05    1.15
   1 -20   3   24.18    1.08
  -2 -20  -3   11.17    0.89
   2 -20   3   10.91    0.88
   3 -20   3   13.57    0.93
  -3 -20  -3   11.28    0.96
  -4  21   3    1.89    0.47
  -3 -21   3    8.10    0.76
  -3 -21   3    9.24    0.73
  -3  21   3    8.50    0.78
  -2 -21   3   18.92    0.97
  -2 -21   3   17.06    0.88
  -2  21   3   18.20    1.02
   1 -21  -3    4.51    0.55
  -1 -21   3    4.60    0.63
  -1  21   3    4.52    0.63
   0 -21  -3   23.48    1.08
   0 -21   3   22.31    1.08
  -1 -21  -3    0.32    0.43
   1 -21   3    1.03    0.44
  -2 -21  -3   16.19    1.02
   2 -21   3   15.95    1.00
  -3 -22   3    2.45    0.52
  -3  22   3    2.93    0.54
  -2 -22   3   10.87    0.76
  -2 -22   3   11.16    0.83
  -2  22   3   10.19    0.86
   1 -22  -3   12.28    0.84
  -1 -22   3   14.22    0.93
  -1  22   3   14.71    1.00
   0 -22  -3   11.57    0.86
   0 -22   3   12.26    0.89
   1 -22   3   12.31    0.91
  -1 -22  -3   10.58    0.92
  -2 -22  -3    2.91    0.59
   2 -22   3    2.42    0.55
  -3 -23   3    4.30    0.62
  -3  23   3    4.14    0.63
  -2 -23   3   15.47    0.94
  -2  23   3   15.71    1.02
   1 -23  -3    3.62    0.55
  -1 -23   3    3.09    0.59
   0 -23   3   10.99    0.94
   0 -23  -3    9.98    0.86
  -1 -23  -3    1.52    0.51
   1 -23   3    2.15    0.55
   2 -23   3    3.58    0.62
  -2 -23  -3    4.42    0.69
  -3 -24   3    3.60    0.61
  -2 -24   3   11.82    0.88
  -1 -24   3    8.08    0.75
   1 -24  -3    7.55    0.73
  -1 -24   3    5.96    0.74
   0 -24   3   12.68    0.99
   0 -24  -3   12.40    0.94
   1 -24   3   42.91    1.59
  -1 -24  -3   40.68    1.60
  -2 -25   3    7.56    0.80
  -1 -25   3    1.87    0.55
   1 -25  -3    1.74    0.49
   0 -25  -3   16.83    1.06
   0 -25   3   14.90    1.08
  -1 -25  -3    2.23    0.60
   1 -26  -3    5.82    0.70
   0 -26  -3   13.90    1.03
  -6   0   4    4.52    0.65
  -5   0   4    1.15    0.45
  -4   0   4    0.04    0.34
  -3   0   4   10.71    0.69
  -2   0   4   13.45    0.65
  -1   0   4  254.13    4.57
   0   0  -4   35.37    0.97
  -1   0  -4    0.74    0.33
  -2   0  -4   50.60    1.45
  -3   0  -4   14.31    0.89
  -4   0  -4    7.28    0.83
  -6  -1   4   -0.27    0.41
  -6   1   4    0.02    0.42
  -5  -1   4    0.43    0.40
  -5   1   4    0.25    0.38
  -4  -1   4    9.04    0.72
  -4   1   4    9.12    0.72
  -3  -1   4   75.30    1.80
  -3   1   4   77.15    1.81
  -2  -1   4    3.80    0.41
  -2   1   4    4.14    0.41
  -1  -1   4    7.20    0.51
   1  -1  -4    6.49    0.39
  -1   1   4    6.69    0.48
   0  -1  -4   50.62    1.22
   0   1  -4   50.68    1.23
  -1  -1  -4    3.29    0.44
   1   1   4    3.88    0.38
  -1   1  -4    3.16    0.43
  -2  -1  -4   66.47    1.72
  -2   1  -4   65.79    1.71
  -3  -1  -4    1.98    0.49
  -3   1  -4    2.60    0.54
  -4  -1  -4    0.98    0.53
  -4   1  -4    1.46    0.57
  -6  -2   4    5.55    0.71
  -6   2   4    4.55    0.66
  -5  -2   4    0.17    0.40
  -5   2   4    0.44    0.39
  -4  -2   4    4.65    0.56
  -4   2   4    3.82    0.52
  -3  -2   4    9.70    0.64
  -3   2   4    8.78    0.65
  -2  -2   4    3.24    0.41
  -2   2   4    3.60    0.39
  -1  -2   4  125.79    2.27
  -1  -2   4  121.21    2.45
  -1   2   4  122.29    2.40
   0  -2  -4   37.38    1.01
   0   2  -4   36.27    1.01
  -1  -2  -4    0.47    0.31
  -1   2  -4    1.30    0.34
   1   2   4    0.54    0.24
  -2  -2  -4   41.24    1.30
  -2   2  -4   37.91    1.26
  -3  -2  -4   23.93    1.10
  -3   2  -4   24.56    1.11
  -4  -2  -4    4.09    0.68
  -4   2  -4    5.14    0.72
  -6  -3   4   -0.16    0.40
  -6   3   4    0.74    0.44
  -5  -3   4    0.39    0.41
  -5   3   4   -0.62    0.34
  -4  -3   4   16.32    0.87
  -4   3   4   15.31    0.84
  -3  -3   4   31.48    1.06
  -3   3   4   32.74    1.06
  -2  -3   4    9.60    0.59
  -2   3   4    9.98    0.56
  -1  -3   4   10.42    0.46
  -1  -3   4   11.56    0.58
   1  -3  -4   10.23    0.47
  -1   3   4   10.79    0.53
   0  -3  -4   60.02    1.39
   0   3   4   59.66    1.45
  -1  -3  -4    5.29    0.51
  -1   3  -4    7.31    0.58
   1   3   4    5.68    0.45
  -2  -3  -4   46.55    1.41
  -2   3  -4   44.83    1.37
  -3  -3  -4    1.58    0.51
  -3   3  -4    0.62    0.45
  -4  -3  -4    3.17    0.64
  -4   3  -4    3.65    0.65
  -6  -4   4    3.51    0.62
  -6   4   4    3.73    0.64
  -5  -4   4    1.15    0.45
  -5   4   4    1.12    0.43
  -4  -4   4    0.81    0.39
  -4   4   4    1.08    0.39
  -3  -4   4   10.67    0.68
  -3   4   4   12.17    0.69
  -2  -4   4    1.29    0.33
  -2   4   4    1.96    0.32
  -1  -4   4   81.98    1.63
   1  -4  -4   80.65    1.63
  -1   4   4   83.12    1.69
   0  -4  -4   50.13    1.25
   0  -4   4   52.14    1.24
   0   4   4   51.27    1.32
  -1  -4  -4    1.71    0.37
   1   4   4    1.15    0.29
  -2  -4  -4   43.81    1.34
  -2   4  -4   39.28    1.29
  -3  -4  -4   26.62    1.16
  -3   4  -4   22.80    1.09
  -4  -4  -4    8.31    0.87
  -6  -5   4    0.67    0.45
  -6   5   4    1.12    0.47
  -5  -5   4   -0.42    0.36
  -5   5   4    0.43    0.38
  -5   5   4    0.06    0.33
  -4  -5   4   51.59    1.53
  -4   5   4   51.94    1.48
  -3  -5   4   29.58    1.04
  -3   5   4   29.45    0.98
  -2  -5   4    1.08    0.32
  -2   5   4    0.94    0.26
  -1  -5   4    6.06    0.40
   1  -5  -4    5.08    0.39
  -1   5   4    6.61    0.43
  -1   5   4    5.99    0.50
   0  -5   4   56.48    1.32
   0  -5  -4   54.25    1.32
   0   5   4   56.26    1.22
   0   5   4   58.23    1.42
  -1  -5  -4   29.57    0.98
   1   5   4   26.84    0.88
  -2  -5  -4   54.45    1.56
  -3  -5  -4    1.57    0.51
  -4  -5  -4    1.17    0.56
  -6  -6   4    6.79    0.78
  -6   6   4    9.14    0.83
  -5  -6   4    0.32    0.37
  -5   6   4    0.12    0.39
  -5   6   4    0.17    0.33
  -4  -6   4   11.63    0.79
  -4   6   4   11.36    0.73
  -4   6   4   11.93    0.76
  -3  -6   4    3.61    0.47
  -3   6   4    3.24    0.42
  -3   6   4    3.26    0.43
  -2  -6   4    0.87    0.31
  -2   6   4    1.29    0.28
  -2   6   4    1.06    0.31
   1  -6  -4   98.62    1.92
  -1  -6   4  100.39    1.95
  -1   6   4  101.60    1.93
  -1   6   4   95.17    2.17
   0  -6  -4   47.03    1.20
   0  -6   4   45.98    1.17
   0   6   4   45.79    1.25
  -1  -6  -4    2.90    0.43
   1  -6   4    2.60    0.37
   1   6   4    3.47    0.41
  -2  -6  -4   39.88    1.30
  -3  -6  -4   21.43    1.06
  -4  -6  -4    4.86    0.75
   4  -6   4    3.74    0.55
  -6  -7   4    0.16    0.44
  -6   7   4    0.42    0.46
  -5  -7   4    0.87    0.41
  -5   7   4    0.74    0.37
  -5   7   4    1.26    0.42
  -4  -7   4   33.39    1.23
  -4   7   4   33.99    1.16
  -4   7   4   33.94    1.19
  -3  -7   4   22.03    0.92
  -3   7   4   23.64    0.85
  -3   7   4   22.63    0.92
  -2  -7   4    5.11    0.38
  -2  -7   4    5.44    0.50
  -2   7   4    5.82    0.53
  -2   7   4    5.65    0.43
  -1  -7   4    8.53    0.49
   1  -7  -4    8.09    0.45
  -1   7   4    7.42    0.58
  -1   7   4    7.66    0.41
   0  -7   4   68.08    1.53
   0  -7  -4   68.61    1.55
   0   7   4   65.75    1.64
  -1  -7  -4   15.73    0.78
   1  -7   4   14.84    0.71
   1   7   4   15.22    0.69
  -2  -7  -4   56.06    1.59
  -3  -7  -4    1.65    0.49
   3  -7   4    1.66    0.42
   4  -7   4    1.93    0.48
  -4  -7  -4    2.49    0.63
  -6  -8   4    4.12    0.64
  -6   8   4    5.16    0.68
  -5  -8   4    1.69    0.47
  -5   8   4    0.67    0.41
  -5   8   4    0.82    0.38
  -4  -8   4    3.53    0.54
  -4   8   4    2.84    0.47
  -4   8   4    3.88    0.49
  -3  -8   4    4.88    0.52
  -3   8   4    4.07    0.42
  -3   8   4    6.05    0.55
  -2  -8   4    2.73    0.31
  -2  -8   4    2.60    0.39
  -2   8   4    3.23    0.32
  -2   8   4    3.65    0.44
  -1  -8   4   70.14    1.52
   1  -8  -4   68.69    1.47
  -1   8   4   68.32    1.69
   0  -8  -4   51.46    1.31
   0  -8   4   52.36    1.31
   0   8   4   53.75    1.42
   1  -8   4   10.30    0.61
  -1  -8  -4    8.13    0.64
   1   8   4    9.56    0.60
   2  -8   4   34.11    1.14
  -2  -8  -4   33.31    1.22
   3  -8   4   12.96    0.80
  -3  -8  -4   12.70    0.88
  -4  -8  -4    4.40    0.71
   4  -8   4    4.87    0.63
  -6  -9   4    0.77    0.48
  -6   9   4   -0.56    0.38
  -5  -9   4    0.48    0.41
  -5   9   4    0.92    0.43
  -5   9   4    0.30    0.34
  -4  -9   4    8.47    0.73
  -4   9   4    7.68    0.64
  -4   9   4    8.17    0.67
  -3  -9   4   32.14    1.11
  -3   9   4   30.81    0.97
  -3   9   4   30.64    1.08
  -2  -9   4    2.76    0.40
  -2  -9   4    2.98    0.34
  -2   9   4    3.28    0.31
  -2   9   4    3.32    0.43
  -1  -9   4    4.61    0.41
   1  -9  -4    4.24    0.38
  -1   9   4    4.69    0.51
   0  -9  -4   43.88    1.19
   0  -9   4   42.81    1.18
   0   9   4   44.07    1.28
   1  -9   4    0.49    0.29
  -1  -9  -4   -0.17    0.30
   1   9   4    0.25    0.29
  -2  -9  -4   43.03    1.40
   2  -9   4   43.92    1.31
   3  -9   4    3.59    0.52
  -3  -9  -4    3.67    0.61
   4  -9   4    1.35    0.46
  -4  -9  -4    1.31    0.56
  -6  10   4    3.34    0.61
  -5 -10   4    0.44    0.43
  -5  10   4    0.52    0.36
  -5  10   4    0.81    0.41
  -4 -10   4    2.07    0.47
  -4  10   4    0.46    0.34
  -4  10   4    1.72    0.40
  -3 -10   4    3.73    0.49
  -3  10   4    3.27    0.38
  -3  10   4    4.24    0.50
  -2 -10   4    3.92    0.46
  -2 -10   4    3.20    0.38
  -2  10   4    4.36    0.51
   1 -10  -4   64.16    1.45
  -1 -10   4   64.28    1.47
  -1  10   4   61.62    1.64
   0 -10  -4   24.00    0.88
   0 -10   4   24.90    0.88
   0  10   4   24.47    0.95
  -1 -10  -4   13.11    0.77
   1 -10   4   13.47    0.71
   1  10   4   14.21    0.72
   2 -10   4   27.13    1.04
  -2 -10  -4   28.45    1.14
  -3 -10  -4   10.94    0.87
   3 -10   4   11.91    0.79
   4 -10   4    3.08    0.56
  -4 -10  -4    3.79    0.70
  -5 -11   4    0.17    0.40
  -5  11   4   -0.16    0.34
  -5  11   4   -0.19    0.34
  -4 -11   4    7.21    0.69
  -4  11   4    7.64    0.69
  -4  11   4    7.13    0.60
  -3 -11   4   32.30    1.15
  -3  11   4   33.17    1.17
  -3  11   4   32.43    0.99
  -2 -11   4    2.55    0.42
  -2 -11   4    2.74    0.37
  -2  11   4    4.40    0.51
   1 -11  -4   14.96    0.65
  -1 -11   4   17.27    0.72
  -1  11   4   15.58    0.81
   0 -11  -4   32.39    1.06
   0 -11   4   33.93    1.06
   0  11   4   36.88    1.17
  -1 -11  -4    2.10    0.43
   1 -11   4    2.07    0.41
   1  11   4    2.00    0.40
   2 -11   4   34.48    1.19
  -2 -11  -4   36.77    1.31
   2  11   4   38.97    1.25
   3 -11   4    7.01    0.68
  -3 -11  -4    6.46    0.75
  -4 -11  -4    3.89    0.70
   4 -11   4    2.93    0.55
  -5 -12   4    0.31    0.43
  -5  12   4    0.93    0.41
  -5  12   4    0.58    0.38
  -4 -12   4    5.99    0.66
  -4  12   4    6.15    0.57
  -4  12   4    5.28    0.60
  -3 -12   4    4.48    0.55
  -3  12   4    4.07    0.55
  -2 -12   4    3.34    0.41
  -2 -12   4    3.20    0.45
  -2  12   4    3.41    0.48
  -1 -12   4   98.54    2.12
   1 -12  -4   99.35    2.06
  -1  12   4   99.17    2.32
   0 -12  -4   14.00    0.72
   0 -12   4   13.69    0.72
   0  12   4   14.50    0.79
   1 -12   4   16.97    0.81
  -1 -12  -4   16.54    0.88
   1  12   4   17.43    0.84
   2 -12   4   21.81    0.98
  -2 -12  -4   23.63    1.07
   2  12   4   22.48    0.94
  -3 -12  -4   11.60    0.90
   3 -12   4   11.53    0.82
   4 -12   4    5.06    0.66
  -4 -12  -4    4.61    0.72
  -5 -13   4    2.18    0.52
  -5  13   4    2.84    0.50
  -5  13   4    2.12    0.50
  -4 -13   4   20.47    1.02
  -4  13   4   20.56    0.99
  -3 -13   4   28.36    1.11
  -3  13   4   30.94    1.16
  -2 -13   4    8.39    0.65
  -2 -13   4    7.26    0.59
  -2  13   4    7.86    0.69
  -1 -13   4    5.11    0.53
   1 -13  -4    4.39    0.43
  -1  13   4    5.89    0.60
   0 -13  -4   19.19    0.84
   0 -13   4   18.00    0.82
   0  13   4   19.11    0.89
  -1 -13  -4    8.09    0.69
   1 -13   4    9.57    0.69
   1  13   4    7.67    0.68
  -2 -13  -4   30.50    1.24
   2 -13   4   29.84    1.14
   3 -13   4    7.76    0.75
  -3 -13  -4    7.55    0.81
  -5 -14   4    0.03    0.40
  -5  14   4    0.77    0.44
  -4 -14   4    2.16    0.48
  -4  14   4    1.92    0.46
  -3 -14   4    6.95    0.64
  -3  14   4    6.15    0.65
  -2 -14   4    4.97    0.55
  -2 -14   4    3.92    0.49
  -2  14   4    6.27    0.64
   1 -14  -4   48.44    1.30
  -1 -14   4   48.40    1.35
  -1  14   4   47.44    1.47
   0 -14   4   12.38    0.74
   0 -14  -4   13.15    0.74
   0  14   4   11.21    0.77
  -1 -14  -4   16.58    0.91
   1 -14   4   16.95    0.85
   1  14   4   16.39    0.90
  -2 -14  -4   17.74    1.00
   2 -14   4   16.51    0.89
   3 -14   4   15.69    0.93
  -3 -14  -4   15.37    1.01
  -5 -15   4    1.15    0.49
  -4 -15   4   12.68    0.87
  -4  15   4   11.07    0.81
  -3 -15   4    8.89    0.73
  -3  15   4    8.93    0.76
  -2 -15   4    7.66    0.67
  -2 -15   4    7.51    0.63
  -2  15   4    7.67    0.69
  -1 -15   4   10.68    0.70
   1 -15  -4   10.73    0.65
  -1  15   4    8.83    0.76
   0 -15  -4   19.28    0.89
   0 -15   4   19.45    0.90
   0  15   4   18.79    0.95
  -1 -15  -4    4.64    0.60
   1 -15   4    4.27    0.56
   1  15   4    4.10    0.58
  -2 -15  -4   14.53    0.96
   2 -15   4   13.93    0.86
   3 -15   4    7.39    0.75
  -3 -15  -4    5.87    0.75
  -5 -16   4    1.35    0.50
  -4 -16   4    5.18    0.63
  -4  16   4    5.71    0.67
  -3 -16   4    2.53    0.48
  -3  16   4    4.17    0.58
  -2 -16   4    0.63    0.37
  -2 -16   4    1.29    0.40
  -2  16   4    1.92    0.47
   1 -16  -4   30.51    1.06
  -1 -16   4   31.83    1.14
  -1  16   4   32.25    1.26
   0 -16   4   17.39    0.90
   0 -16  -4   17.48    0.89
   0  16   4   19.34    0.99
  -1 -16  -4   10.30    0.81
   1 -16   4   10.26    0.75
   1  16   4    9.70    0.81
  -2 -16  -4   12.89    0.95
   2 -16   4   12.98    0.86
  -3 -16  -4   10.90    0.98
   3 -16   4    9.59    0.82
  -4 -17   4    9.38    0.82
  -4  17   4   10.87    0.83
  -3 -17   4   11.27    0.81
  -3  17   4   11.37    0.84
  -2 -17   4    4.94    0.60
  -2 -17   4    4.21    0.56
  -2  17   4    5.57    0.65
   1 -17  -4    9.07    0.67
  -1 -17   4    8.22    0.72
  -1  17   4    8.52    0.78
   0 -17   4   16.15    0.91
   0 -17  -4   17.39    0.91
   0  17   4   17.53    1.00
  -1 -17  -4    7.09    0.71
   1 -17   4    6.85    0.68
   1  17   4    6.73    0.72
  -2 -17  -4   18.68    1.09
   2 -17   4   17.80    0.98
   3 -17   4    1.37    0.48
  -3 -17  -4    1.79    0.57
  -4 -18   4    2.54    0.53
  -4  18   4    4.51    0.63
  -3 -18   4    1.20    0.43
  -3  18   4    1.26    0.49
  -2 -18   4    5.90    0.64
  -2 -18   4    5.52    0.62
  -2  18   4    5.91    0.69
  -1 -18   4   47.60    1.50
   1 -18  -4   45.73    1.41
  -1  18   4   47.16    1.59
   0 -18   4   12.61    0.85
   0 -18  -4   13.45    0.87
   0  18   4   13.86    0.96
   1 -18   4    9.49    0.79
  -1 -18  -4   10.34    0.85
   1  18   4    9.28    0.85
  -2 -18  -4   14.95    1.04
   2 -18   4   13.38    0.90
  -4 -19   4    7.61    0.75
  -4  19   4    8.06    0.79
  -3 -19   4    9.68    0.80
  -3  19   4    8.91    0.84
  -2 -19   4   15.05    0.89
  -2 -19   4   14.69    0.90
  -2  19   4   14.76    0.98
   1 -19  -4    4.27    0.53
  -1 -19   4    4.30    0.61
  -1  19   4    4.49    0.67
   0 -19   4   14.15    0.89
   0 -19  -4   12.92    0.90
   0  19   4   15.03    1.02
  -1 -19  -4    2.97    0.57
   1 -19   4    4.06    0.63
  -2 -19  -4   15.64    1.08
   2 -19   4   16.03    0.97
  -4 -20   4    5.26    0.67
  -4  20   4    6.09    0.75
  -3 -20   4    1.36    0.44
  -3  20   4    1.93    0.54
  -2 -20   4    8.15    0.76
  -2 -20   4    7.21    0.72
  -2  20   4    7.64    0.81
  -1 -20   4   25.40    1.16
  -1  20   4   23.95    1.22
   0 -20  -4    9.90    0.86
   0 -20   4    9.19    0.82
   0  20   4   10.68    0.92
  -1 -20  -4   17.29    1.04
   1 -20   4   15.25    0.99
  -2 -20  -4    4.91    0.74
   2 -20   4    5.40    0.71
  -3 -21   4    4.54    0.63
  -3  21   4    5.68    0.74
  -2 -21   4   11.91    0.87
  -2 -21   4   11.99    0.89
  -2  21   4   11.56    0.97
  -1 -21   4    4.20    0.65
  -1  21   4    5.02    0.72
   0 -21   4   10.58    0.89
   0 -21  -4   10.18    0.86
   0  21   4   10.19    0.94
  -1 -21  -4    0.41    0.45
   1 -21   4    0.07    0.43
  -3 -22   4    0.75    0.44
  -3  22   4    1.53    0.50
  -2 -22   4    1.88    0.52
  -2 -22   4    2.20    0.51
  -2  22   4    2.70    0.60
  -1 -22   4   12.58    0.97
  -1  22   4   12.52    1.03
   0 -22  -4    4.00    0.64
   0 -22   4    3.58    0.64
   1 -22   4   14.21    1.01
  -1 -22  -4   14.69    1.04
  -2 -23   4    4.10    0.62
  -2 -23   4    3.49    0.61
  -2  23   4    5.58    0.78
  -1 -23   4    9.42    0.85
  -1 -23   4    8.29    0.89
  -1  23   4    9.46    0.96
   0 -23   4    2.99    0.63
   0 -23  -4    3.92    0.66
  -1 -23  -4    3.07    0.63
  -2 -24   4    1.13    0.52
  -2 -24   4    1.18    0.48
  -1 -24   4   15.71    1.00
  -1 -24   4   15.88    1.08
   0 -24  -4    2.26    0.58
  -6   0   5   -0.21    0.45
  -5   0   5    3.12    0.60
  -4   0   5    0.32    0.41
  -3   0   5   31.64    1.15
  -2   0   5    1.67    0.38
  -1   0   5    1.50    0.35
   0   0  -5   30.76    1.00
  -1   0  -5   47.39    1.40
  -2   0  -5   -0.42    0.37
  -3   0  -5    0.82    0.51
  -6   1   5    1.01    0.54
  -5  -1   5    4.55    0.64
  -5   1   5    4.58    0.67
  -4  -1   5    0.37    0.41
  -4   1   5    0.58    0.42
  -3  -1   5   15.20    0.85
  -3   1   5   13.38    0.83
  -2  -1   5   36.30    1.18
  -2   1   5   37.97    1.16
  -1  -1   5   10.75    0.52
  -1  -1   5   10.60    0.66
   1  -1  -5   10.69    0.54
  -1   1   5   11.92    0.65
   0  -1  -5    7.81    0.58
   0   1  -5    6.78    0.58
  -1  -1  -5    4.72    0.57
  -1   1  -5    2.80    0.49
   1   1   5    3.31    0.44
  -2  -1  -5   -0.30    0.39
  -2   1  -5    0.02    0.38
  -3  -1  -5   29.56    1.32
  -3   1  -5   30.39    1.33
  -6   2   5    1.18    0.54
  -5  -2   5    7.60    0.77
  -5   2   5    7.92    0.76
  -4  -2   5    6.90    0.70
  -4   2   5    7.22    0.69
  -3  -2   5    7.65    0.65
  -3   2   5    9.21    0.75
  -2  -2   5    6.67    0.60
  -2   2   5    6.38    0.55
  -1  -2   5    1.13    0.25
   1  -2  -5    1.01    0.28
  -1  -2   5    1.44    0.36
  -1   2   5    1.52    0.33
   0  -2  -5   31.22    1.01
   0   2   5   31.73    1.05
  -1  -2  -5   66.44    1.69
  -1   2  -5   61.22    1.66
   1   2   5   62.36    1.56
  -2  -2  -5    0.22    0.40
  -2   2  -5    0.57    0.42
  -3  -2  -5    1.69    0.56
  -3   2  -5    0.79    0.51
  -6   3   5    0.84    0.54
  -5  -3   5    4.57    0.65
  -5   3   5    3.70    0.60
  -4  -3   5    2.00    0.49
  -4   3   5    2.29    0.49
  -3  -3   5    7.98    0.68
  -3   3   5    7.82    0.64
  -2  -3   5   44.31    1.33
  -2   3   5   46.52    1.28
  -1  -3   5    4.78    0.39
  -1  -3   5    4.53    0.49
   1  -3  -5    5.38    0.44
  -1   3   5    5.34    0.46
   0  -3   5   14.51    0.68
   0  -3  -5   14.41    0.70
   0   3   5   13.58    0.63
   0   3   5   13.21    0.71
  -1  -3  -5    5.02    0.57
   1   3   5    2.90    0.41
  -2  -3  -5    0.17    0.41
  -2   3  -5   -0.19    0.39
  -3  -3  -5   22.54    1.17
  -3   3  -5   23.52    1.20
  -6   4   5    1.27    0.55
  -5  -4   5    3.76    0.63
  -5   4   5    3.94    0.61
  -4  -4   5    1.18    0.46
  -4   4   5    1.00    0.43
  -3  -4   5    5.27    0.60
  -3   4   5    5.09    0.54
  -2  -4   5    6.49    0.59
  -2   4   5    5.76    0.51
  -1  -4   5    0.83    0.34
   1  -4  -5    0.68    0.25
  -1  -4   5    0.98    0.27
  -1   4   5    1.08    0.29
  -1   4   5    0.59    0.33
   0  -4   5   40.47    1.14
   0  -4  -5   37.85    1.15
   0   4   5   38.81    1.20
  -1  -4  -5   61.97    1.69
   1   4   5   63.23    1.59
  -2  -4  -5    0.00    0.41
  -3  -4  -5   -0.10    0.43
  -5  -5   5    4.05    0.64
  -5   5   5    2.62    0.55
  -5   5   5    3.86    0.59
  -4  -5   5    0.06    0.39
  -4   5   5    0.91    0.40
  -4   5   5   -0.26    0.35
  -3  -5   5    2.75    0.48
  -3   5   5    3.38    0.48
  -2  -5   5   48.93    1.42
  -2   5   5   50.22    1.30
  -2   5   5   47.87    1.45
  -1  -5   5    0.60    0.26
  -1  -5   5    0.36    0.31
   1  -5  -5    0.46    0.25
  -1   5   5    1.04    0.36
  -1   5   5    1.06    0.27
   0  -5  -5    6.85    0.58
   0  -5   5    6.79    0.55
   0   5   5    6.57    0.59
   1  -5   5    3.42    0.46
  -1  -5  -5    3.80    0.54
   1   5   5    2.79    0.44
  -2  -5  -5    0.76    0.44
  -3  -5  -5   18.56    1.12
  -5  -6   5    4.35    0.67
  -5   6   5    4.29    0.63
  -5   6   5    5.11    0.64
  -4  -6   5    1.42    0.47
  -4   6   5    1.57    0.46
  -4   6   5    1.35    0.42
  -3  -6   5    8.69    0.72
  -3   6   5    9.95    0.67
  -3   6   5    9.07    0.75
  -2  -6   5    4.94    0.54
  -2   6   5    4.30    0.44
  -2   6   5    4.63    0.55
  -1  -6   5   -0.03    0.23
  -1   6   5    0.35    0.33
   0  -6   5   38.43    1.15
   0  -6  -5   40.67    1.19
   0   6   5   40.16    1.23
   1  -6   5   58.66    1.58
  -1  -6  -5   60.96    1.66
   1   6   5   58.13    1.56
   2  -6   5    3.79    0.56
  -2  -6  -5    5.45    0.70
   3  -6   5    0.02    0.37
  -3  -6  -5    0.58    0.49
  -5  -7   5    1.93    0.53
  -5   7   5    2.82    0.55
  -5   7   5    2.80    0.54
  -4  -7   5    0.78    0.44
  -4   7   5    0.68    0.38
  -4   7   5    0.36    0.40
  -3  -7   5    7.65    0.68
  -3   7   5    8.01    0.72
  -3   7   5    8.59    0.64
  -2  -7   5   39.40    1.28
  -2   7   5   40.83    1.33
  -2   7   5   39.01    1.15
  -1  -7   5    0.25    0.27
  -1   7   5    0.27    0.33
   0  -7  -5    9.18    0.63
   0  -7   5    8.47    0.62
   0   7   5   10.36    0.71
   1  -7   5    3.37    0.48
  -1  -7  -5    3.33    0.53
   1   7   5    2.78    0.45
   2  -7   5    2.92    0.51
  -2  -7  -5    5.02    0.67
  -3  -7  -5   19.12    1.15
   3  -7   5   19.84    1.05
  -5  -8   5    3.65    0.61
  -5   8   5    2.60    0.51
  -5   8   5    2.62    0.55
  -4  -8   5    1.09    0.45
  -4   8   5    1.22    0.40
  -4   8   5    1.92    0.47
  -3  -8   5    9.11    0.74
  -3   8   5    7.93    0.61
  -3   8   5    8.54    0.74
  -2  -8   5    5.76    0.60
  -2   8   5    7.84    0.69
  -1  -8   5    0.79    0.30
  -1   8   5    0.41    0.35
   0  -8  -5   29.70    1.00
   0  -8   5   29.23    1.01
   0   8   5   27.01    1.06
  -1  -8  -5   29.73    1.14
   1  -8   5   31.67    1.12
   1   8   5   29.57    1.09
  -2  -8  -5    4.97    0.68
   2  -8   5    5.58    0.64
   3  -8   5    1.29    0.46
  -3  -8  -5    1.07    0.54
  -5  -9   5    2.79    0.57
  -5   9   5    2.79    0.55
  -5   9   5    3.08    0.54
  -4  -9   5    0.37    0.41
  -4   9   5    0.89    0.36
  -4   9   5    0.74    0.41
  -3  -9   5    7.24    0.67
  -3   9   5    9.17    0.75
  -2  -9   5   46.56    1.42
  -2   9   5   45.75    1.45
  -1  -9   5   14.16    0.70
  -1   9   5   14.51    0.83
   0  -9  -5    6.62    0.59
   0  -9   5    7.02    0.62
   0   9   5    7.75    0.67
   1  -9   5    1.35    0.40
  -1  -9  -5    1.23    0.42
   1   9   5    0.98    0.39
   2  -9   5    3.53    0.56
  -2  -9  -5    3.33    0.61
  -3  -9  -5   18.69    1.15
   3  -9   5   22.06    1.08
  -5 -10   5    3.91    0.64
  -5  10   5    4.63    0.59
  -5  10   5    4.89    0.63
  -4 -10   5    2.50    0.52
  -4  10   5    3.10    0.53
  -3 -10   5    8.20    0.72
  -3  10   5    7.76    0.70
  -2 -10   5    4.47    0.57
  -2  10   5    3.73    0.52
  -1 -10   5    4.30    0.46
  -1  10   5    3.98    0.56
   0 -10   5   24.70    0.97
   0 -10  -5   25.64    0.98
   0  10   5   24.56    1.04
   1 -10   5   23.52    1.01
  -1 -10  -5   23.94    1.07
   1  10   5   22.32    0.98
   2 -10   5    1.09    0.44
  -2 -10  -5    2.03    0.52
   3 -10   5    1.06    0.46
  -3 -10  -5    0.59    0.51
  -5 -11   5    1.97    0.55
  -5  11   5    2.18    0.52
  -4 -11   5   -0.10    0.38
  -4  11   5    0.24    0.39
  -3 -11   5   10.22    0.81
  -3  11   5   10.04    0.79
  -2 -11   5   25.87    1.08
  -2  11   5   26.77    1.11
  -1 -11   5    2.28    0.40
  -1  11   5    1.70    0.44
   0 -11   5   12.40    0.76
   0 -11  -5   10.97    0.71
   0  11   5   11.85    0.80
  -1 -11  -5    2.53    0.52
   1 -11   5    2.01    0.46
   1  11   5    1.86    0.45
  -2 -11  -5    0.58    0.47
   2 -11   5    0.36    0.39
  -3 -11  -5   16.77    1.12
   3 -11   5   17.93    1.03
  -5 -12   5    2.75    0.57
  -5  12   5    3.09    0.58
  -4 -12   5    0.07    0.40
  -4  12   5    0.08    0.40
  -3 -12   5   11.38    0.85
  -3  12   5   10.12    0.81
  -2 -12   5    2.11    0.45
  -2  12   5    1.76    0.48
  -1 -12   5    6.07    0.57
  -1  12   5    6.40    0.69
   0 -12   5   18.13    0.88
   0 -12  -5   18.34    0.88
   0  12   5   18.44    0.94
  -1 -12  -5   31.51    1.24
   1 -12   5   34.30    1.22
   1  12   5   32.50    1.23
  -2 -12  -5    1.20    0.51
   2 -12   5    1.58    0.48
  -3 -12  -5    1.58    0.57
   3 -12   5    1.74    0.52
  -5  13   5    2.38    0.54
  -4 -13   5    1.03    0.44
  -4  13   5    1.35    0.47
  -3 -13   5    2.24    0.52
  -3  13   5    1.95    0.49
  -2 -13   5   18.34    0.97
  -2  13   5   18.62    0.99
  -1 -13   5    3.18    0.48
  -1  13   5    3.67    0.59
   0 -13   5    9.11    0.73
   0 -13  -5    8.86    0.70
   0  13   5    8.88    0.77
  -1 -13  -5    2.99    0.56
   1 -13   5    3.41    0.57
   1  13   5    2.97    0.55
   2 -13   5    1.21    0.47
  -2 -13  -5    0.23    0.48
  -5  14   5    2.18    0.54
  -4 -14   5   -0.01    0.39
  -4  14   5    0.32    0.42
  -3 -14   5    4.34    0.62
  -3  14   5    4.61    0.62
  -2 -14   5    2.59    0.51
  -2  14   5    2.60    0.51
  -1 -14   5    8.32    0.71
  -1  14   5    7.55    0.76
   0 -14   5   22.63    1.00
   0 -14  -5   21.10    0.99
   0  14   5   22.17    1.07
   1 -14   5   37.91    1.36
  -1 -14  -5   38.18    1.41
   1  14   5   38.59    1.39
   2 -14   5    2.86    0.56
  -2 -14  -5    1.87    0.57
  -4 -15   5    1.34    0.49
  -4  15   5    1.14    0.47
  -3 -15   5    4.07    0.62
  -3  15   5    3.35    0.58
  -2 -15   5   15.70    0.95
  -2  15   5   16.25    0.96
  -1 -15   5    1.00    0.41
  -1  15   5    1.35    0.47
   0 -15   5    9.03    0.79
   0 -15  -5    7.54    0.72
   0  15   5    7.80    0.77
   1 -15   5    2.70    0.54
  -1 -15  -5    2.91    0.57
   1  15   5    3.13    0.59
   2 -15   5    1.38    0.51
  -2 -15  -5    1.40    0.54
  -4 -16   5    1.32    0.49
  -4  16   5    1.80    0.52
  -3 -16   5    4.10    0.62
  -3  16   5    3.23    0.60
  -2 -16   5    3.14    0.55
  -2  16   5    2.41    0.53
  -1 -16   5    3.41    0.54
  -1  16   5    4.04    0.65
   0 -16   5   15.12    0.91
   0 -16  -5   16.06    0.94
   0  16   5   15.15    1.02
   1 -16   5   24.34    1.13
  -1 -16  -5   25.39    1.21
   1  16   5   25.23    1.22
  -2 -16  -5    5.19    0.72
   2 -16   5    5.80    0.73
  -4 -17   5    0.33    0.44
  -4  17   5    0.83    0.47
  -3 -17   5   10.06    0.89
  -3  17   5   11.37    0.92
  -2 -17   5   13.82    0.94
  -2  17   5   12.43    0.92
  -1 -17   5    1.29    0.46
  -1  17   5    1.28    0.49
   0 -17  -5    7.25    0.74
   0 -17   5    9.47    0.87
   0  17   5    7.21    0.80
  -1 -17  -5    0.84    0.48
   1 -17   5    0.16    0.41
   1  17   5    0.74    0.50
  -2 -17  -5    4.20    0.69
  -3 -18   5   12.79    0.96
  -3  18   5   11.56    0.95
  -2 -18   5    0.47    0.44
  -2  18   5    0.62    0.45
  -1 -18   5    2.55    0.57
  -1  18   5    2.01    0.55
   0 -18  -5   13.61    0.95
   0 -18   5   14.56    0.98
   0  18   5   14.46    1.09
   1 -18   5    7.86    0.79
  -1 -18  -5    8.69    0.86
   1  18   5    8.12    0.86
  -3 -19   5    3.27    0.58
  -3  19   5    3.35    0.63
  -2 -19   5   12.31    0.95
  -2  19   5   12.48    0.97
  -1 -19   5    0.79    0.47
  -1  19   5    1.30    0.54
   0 -19   5    4.57    0.66
   0 -19  -5    6.49    0.74
   0  19   5    6.88    0.89
   1 -19   5    2.27    0.57
  -1 -19  -5    1.58    0.55
   1  19   5    1.26    0.53
  -3 -20   5    3.82    0.67
  -2 -20   5    1.63    0.51
  -2  20   5    0.76    0.50
  -1 -20   5    2.69    0.61
  -1  20   5    3.96    0.73
   0 -20   5    7.66    0.80
   0  20   5    8.71    0.97
  -1 -20  -5    7.39    0.84
  -2 -21   5    8.05    0.84
  -1 -21   5    1.16    0.53
  -1 -21   5    1.27    0.51
  -1  21   5    0.97    0.56
   0 -21   5    8.99    0.89
   0  21   5    9.85    1.03
  -1 -22   5    6.58    0.87
  -5   0   6    0.45    0.47
  -4   0   6    2.30    0.52
  -3   0   6    6.63    0.69
  -2   0   6   12.82    0.81
  -1   0   6   24.51    1.00
   0   0  -6    1.91    0.43
  -1   0  -6    1.17    0.46
  -2   0  -6   32.60    1.38
  -5  -1   6    0.76    0.48
  -5   1   6    1.55    0.53
  -4  -1   6    7.12    0.75
  -4   1   6    6.23    0.71
  -3  -1   6    4.60    0.60
  -3   1   6    4.90    0.60
  -2  -1   6    1.78    0.45
  -2   1   6    1.50    0.44
  -1  -1   6   11.50    0.78
  -1   1   6   13.50    0.78
   0  -1  -6    8.40    0.66
   0   1   6    7.09    0.67
  -1  -1  -6    3.99    0.61
  -1   1  -6    3.27    0.58
  -2  -1  -6    5.61    0.74
  -2   1  -6    7.63    0.84
  -5  -2   6    0.32    0.46
  -5   2   6    0.08    0.45
  -4  -2   6    0.40    0.43
  -4   2   6   -0.09    0.42
  -3  -2   6    2.45    0.52
  -3   2   6    1.34    0.45
  -2  -2   6    5.16    0.61
  -2   2   6    5.50    0.58
  -1  -2   6   16.43    0.88
  -1   2   6   14.63    0.79
   0  -2  -6    1.07    0.38
   0  -2   6    1.04    0.35
   0   2   6    0.42    0.38
  -1  -2  -6    1.87    0.51
  -2  -2  -6   15.48    1.04
  -5  -3   6    0.55    0.48
  -5   3   6   -0.26    0.42
  -4  -3   6   10.50    0.90
  -4   3   6   11.77    0.89
  -3  -3   6    2.93    0.54
  -3   3   6    3.43    0.54
  -2  -3   6    3.32    0.52
  -2   3   6    2.45    0.45
  -1  -3   6   12.13    0.83
  -1   3   6   12.81    0.84
   0  -3   6    5.98    0.58
   0  -3  -6    6.47    0.62
   0   3   6    6.63    0.65
  -1  -3  -6    5.32    0.66
  -2  -3  -6    1.82    0.58
  -5  -4   6    0.38    0.47
  -5   4   6    0.31    0.45
  -5   4   6   -0.49    0.44
  -4  -4   6    1.69    0.51
  -4   4   6    1.02    0.47
  -3  -4   6    2.93    0.56
  -3   4   6    3.48    0.52
  -2  -4   6    1.50    0.46
  -2   4   6    1.13    0.44
  -1  -4   6   19.29    0.97
  -1   4   6   19.25    0.97
   0  -4   6    0.08    0.32
   0  -4  -6    1.02    0.37
   0   4   6    0.91    0.41
  -1  -4  -6    3.38    0.57
   1  -4   6    3.25    0.53
  -2  -4  -6   14.26    1.01
   2  -4   6   16.72    1.00
  -5  -5   6    1.37    0.52
  -5   5   6    1.06    0.57
  -5   5   6    1.46    0.50
  -4  -5   6   11.53    0.94
  -3  -5   6    2.40    0.52
  -3   5   6    1.94    0.46
  -3   5   6    1.63    0.49
  -2  -5   6    1.74    0.47
  -2   5   6    0.85    0.44
  -1  -5   6    7.60    0.71
  -1   5   6    7.96    0.75
   0  -5  -6    7.74    0.65
   0  -5   6    7.70    0.64
   0   5   6    6.90    0.66
   1  -5   6   12.37    0.83
  -1  -5  -6   12.17    0.86
  -2  -5  -6    3.32    0.63
   2  -5   6    2.72    0.56
  -5  -6   6    0.22    0.47
  -5   6   6    0.41    0.51
  -5   6   6    0.27    0.42
  -4  -6   6    1.60    0.52
  -4   6   6    1.03    0.45
  -4   6   6    1.11    0.50
  -3  -6   6    1.20    0.45
  -3   6   6    0.85    0.45
  -2  -6   6    1.16    0.46
  -2   6   6    1.16    0.45
  -1  -6   6   19.34    1.01
  -1   6   6   19.83    0.99
   0  -6   6    2.62    0.45
   0  -6  -6    2.76    0.48
   0   6   6    2.91    0.53
  -1  -6  -6    2.91    0.58
   1  -6   6    3.08    0.51
  -2  -6  -6   19.01    1.11
   2  -6   6   18.58    1.07
  -5   7   6    1.45    0.56
  -5   7   6    1.43    0.49
  -4  -7   6    6.30    0.75
  -4   7   6    5.65    0.73
  -3  -7   6    0.20    0.41
  -3   7   6    0.68    0.42
  -2  -7   6    0.23    0.41
  -2   7   6    0.02    0.37
  -1  -7   6   14.46    0.90
  -1   7   6   13.61    0.89
   0  -7  -6   11.33    0.75
   0  -7   6   11.70    0.74
   0   7   6   11.51    0.83
  -1  -7  -6    9.08    0.85
   1  -7   6   10.00    0.78
  -2  -7  -6    5.56    0.77
   2  -7   6    5.56    0.70
  -5   8   6    1.71    0.54
  -4  -8   6    0.22    0.44
  -4   8   6    0.24    0.45
  -3  -8   6    2.03    0.51
  -3   8   6    1.36    0.46
  -2  -8   6    2.96    0.55
  -2   8   6    4.30    0.63
  -1  -8   6   16.90    0.96
  -1   8   6   16.56    0.96
   0  -8   6    5.38    0.60
   0  -8  -6    5.79    0.62
   0   8   6    6.28    0.66
  -1  -8  -6    5.68    0.70
   1  -8   6    7.35    0.71
  -2  -8  -6   16.13    1.08
   2  -8   6   15.36    0.97
  -4  -9   6    4.09    0.62
  -4   9   6    4.27    0.64
  -3  -9   6    3.32    0.57
  -3   9   6    3.83    0.59
  -2  -9   6    0.23    0.42
  -2   9   6    0.49    0.42
  -1  -9   6    6.93    0.70
  -1   9   6    5.96    0.69
   0  -9   6    2.90    0.49
   0   9   6    3.81    0.58
   1  -9   6    2.55    0.52
  -1  -9  -6    2.82    0.59
  -2  -9  -6    1.56    0.56
   2  -9   6    2.11    0.54
  -4 -10   6    0.26    0.44
  -4  10   6    0.20    0.42
  -3 -10   6    1.31    0.46
  -3  10   6    1.02    0.44
  -2 -10   6    6.42    0.71
  -2  10   6    6.37    0.72
  -1 -10   6    9.84    0.85
  -1  10   6   10.48    0.85
   0 -10   6    0.53    0.39
   0  10   6    0.46    0.43
   1 -10   6    1.88    0.50
  -1 -10  -6    1.23    0.50
   2 -10   6   15.68    1.03
  -2 -10  -6   13.88    1.07
  -4 -11   6    5.04    0.71
  -4  11   6    4.81    0.65
  -3 -11   6    0.38    0.43
  -3  11   6    0.66    0.43
  -2 -11   6    2.64    0.56
  -2  11   6    3.24    0.56
  -1 -11   6    9.61    0.83
  -1  11   6    9.32    0.84
   0 -11   6    6.62    0.68
   0  11   6    7.66    0.77
  -1 -11  -6    2.90    0.61
   1 -11   6    2.09    0.51
  -2 -11  -6    5.14    0.76
   2 -11   6    4.84    0.70
  -4 -12   6    0.42    0.47
  -4  12   6    0.68    0.48
  -3 -12   6    1.41    0.52
  -3  12   6    1.70    0.49
  -2 -12   6    4.04    0.63
  -2  12   6    5.05    0.67
  -1 -12   6   12.62    0.93
  -1  12   6   11.08    0.93
   0 -12   6    1.69    0.47
   0  12   6    1.29    0.46
   1 -12   6    2.50    0.55
  -1 -12  -6    2.51    0.60
  -2 -12  -6   13.67    1.07
  -4  13   6    5.96    0.74
  -3 -13   6    1.44    0.51
  -3  13   6    1.34    0.49
  -2 -13   6    3.85    0.62
  -2  13   6    3.66    0.63
  -1 -13   6    4.63    0.65
  -1  13   6    4.70    0.71
   0 -13   6    3.00    0.56
   0  13   6    2.21    0.55
   1 -13   6    5.77    0.75
  -1 -13  -6    4.60    0.69
  -3 -14   6    0.92    0.49
  -3  14   6    1.55    0.51
  -2 -14   6    2.55    0.58
  -2  14   6    3.35    0.64
  -1 -14   6   10.11    0.90
  -1  14   6    8.76    0.90
   0 -14   6    1.70    0.49
   0  14   6    1.09    0.50
   1 -14   6    4.67    0.70
  -1 -14  -6    5.74    0.74
  -3 -15   6    0.53    0.50
  -3  15   6    1.72    0.52
  -2 -15   6    2.82    0.59
  -2  15   6    2.23    0.56
  -1 -15   6    4.68    0.68
  -1  15   6    5.28    0.71
   0 -15   6    1.56    0.50
   0  15   6    1.98    0.58
   1 -15   6    5.26    0.73
  -1 -15  -6    4.23    0.70
  -2 -16   6    0.89    0.51
  -2  16   6    0.89    0.49
  -1 -16   6    7.48    0.81
  -1  16   6    8.78    0.93
   0 -16   6    2.70    0.56
   0  16   6    2.57    0.62
  -1 -16  -6    3.67    0.69
  -1 -17   6    4.01    0.67
  -1  17   6    3.15    0.64
   0 -17   6    0.68    0.50
   0  17   6    1.02    0.53
   0 -18   6    1.77    0.58
  -4   0   7    1.24    0.50
  -3   0   7    4.63    0.67
  -2   0   7    0.09    0.42
  -4  -1   7    0.29    0.49
  -4   1   7    0.32    0.47
  -3  -1   7    4.74    0.65
  -3   1   7    4.60    0.65
  -2  -1   7    5.27    0.66
  -1   1   7    0.25    0.45
  -1  -1  -7    2.40    0.60
  -4  -2   7    0.05    0.46
  -4   2   7    0.26    0.47
  -3  -2   7    0.56    0.46
  -2  -2   7    0.04    0.41
  -2   2   7   -0.04    0.42
  -1  -2   7    0.87    0.46
  -1   2   7    0.13    0.44
  -1  -2  -7    3.62    0.65
   1  -2   7    4.86    0.68
  -4  -3   7    0.04    0.47
  -3  -3   7    2.09    0.56
  -3   3   7    2.10    0.57
  -2  -3   7    5.62    0.69
  -2   3   7    4.85    0.73
  -1  -3   7    0.32    0.44
  -1   3   7    0.19    0.44
   0  -3   7    0.11    0.41
   1  -3   7    2.66    0.57
  -1  -3  -7    2.42    0.60
  -4  -4   7    0.39    0.49
  -3  -4   7    0.91    0.49
  -3   4   7    0.22    0.46
  -2  -4   7    0.63    0.46
  -2   4   7    0.23    0.46
  -1  -4   7    0.38    0.45
  -1   4   7    0.42    0.46
  -1  -4  -7    5.68    0.74
   1  -4   7    5.21    0.68
  -4  -5   7    0.36    0.48
  -3  -5   7    1.49    0.55
  -3   5   7    1.91    0.55
  -2  -5   7    5.78    0.71
  -2   5   7    6.07    0.76
  -1  -5   7    0.24    0.44
  -1   5   7    0.63    0.46
  -1  -5  -7    2.26    0.59
   1  -5   7    2.23    0.55
  -3  -6   7    1.45    0.54
  -3   6   7    1.25    0.53
  -2  -6   7    0.55    0.45
  -2   6   7    0.31    0.44
  -1  -6   7    2.47    0.58
  -1   6   7    1.71    0.52
  -1  -6  -7    2.93    0.68
   1  -6   7    3.35    0.59
  -3  -7   7    5.38    0.71
  -3   7   7    4.58    0.68
  -2  -7   7    5.09    0.69
  -2   7   7    5.76    0.76
  -1  -7   7    1.72    0.53
  -1   7   7    1.06    0.50
   1  -7   7    2.11    0.54
  -3  -8   7    2.34    0.58
  -3   8   7    1.60    0.53
  -2  -8   7    0.34    0.46
  -2   8   7    1.06    0.50
  -1  -8   7    0.61    0.47
  -1   8   7    1.27    0.51
   1  -8   7    3.46    0.60
  -3  -9   7    3.81    0.65
  -3   9   7    3.76    0.63
  -2  -9   7    3.23    0.64
  -2   9   7    2.38    0.58
  -1  -9   7    0.96    0.50
  -1   9   7    1.02    0.51
   0   9   7    0.84    0.50
   1  -9   7    0.92    0.53
  -2 -10   7   -0.02    0.45
  -2  10   7   -0.15    0.41
  -1 -10   7    0.36    0.48
  -1  10   7    0.85    0.50
   0  10   7    4.61    0.70
  -2 -11   7    4.66    0.72
  -2  11   7    3.91    0.69
  -1 -11   7    0.89    0.49
  -1  11   7   -0.18    0.42
   0  11   7    1.23    0.52
  -1 -12   7    0.33    0.50
  -1  12   7    0.93    0.52
   0  12   7   11.01    0.95
  -1  13   7    1.26    0.55
   0   0   0    0.00    0.00
;
_shelx_hkl_checksum              23133
#END Tags that were not found in dictionaries
loop_
_space_group_symop_operation_xyz
'x, y, z'
'-x, y+1/2, -z'
loop_
_atom_site_type_symbol
_atom_site_label
_atom_site_fract_x
_atom_site_fract_y
_atom_site_fract_z
_atom_site_U_iso_or_equiv
_atom_site_adp_type
_atom_site_calc_flag
_atom_site_refinement_flags_adp
_atom_site_refinement_flags_posn
_atom_site_occupancy
Ag Ag1 0.20973(12) 0.85735(2) 0.43715(11) 0.03631(16) Uani d . . 1
Ag Ag2 -0.43080(12) 0.86744(3) -0.00755(10) 0.03669(16) Uani d . . 1
C C1 -0.0240(15) 0.7565(4) 0.0321(13) 0.0243(14) Uani d . . 1
C C2 0.1405(17) 0.6953(4) 0.1468(14) 0.0266(15) Uani d . . 1
H H2A 0.3059 0.6897 0.0771 0.032 Uiso calc U R 1
H H2B 0.0218 0.6559 0.105 0.032 Uiso calc U R 1
C C3 0.2369(13) 0.7005(4) 0.4286(12) 0.0185(13) Uani d . . 1
H H3 0.0695 0.7045 0.4996 0.022 Uiso calc U R 1
C C4 0.3995(13) 0.6369(3) 0.5263(13) 0.0212(13) Uani d . . 1
C C5 0.3835(14) 0.5247(3) 0.6911(12) 0.0189(12) Uani d . . 1
H H5 0.5582 0.5201 0.631 0.023 Uiso calc U R 1
C C6 0.4673(18) 0.5259(4) 0.9730(15) 0.0276(15) Uani d . . 1
H H6A 0.5811 0.5654 1.0269 0.033 Uiso calc U R 1
H H6B 0.2974 0.5286 1.0378 0.033 Uiso calc U R 1
C C7 0.1921(15) 0.4655(4) 0.5907(13) 0.0227(14) Uani d . . 1
N N1 0.4156(13) 0.7597(3) 0.4947(12) 0.0245(12) Uani d . . 1
H H1A 0.5623 0.7586 0.401 0.029 Uiso calc U R 1
H H1B 0.5095 0.7562 0.668 0.029 Uiso calc U R 1
N N2 0.2494(11) 0.5875(3) 0.5949(12) 0.0232(12) Uani d . . 1
H H2 0.0701 0.5926 0.5821 0.028 Uiso calc U R 1
N N3 0.6293(14) 0.4660(3) 1.0723(12) 0.0284(14) Uani d . . 1
H H3A 0.691 0.4719 1.2496 0.034 Uiso calc U R 1
H H3B 0.7991 0.4651 1.0067 0.034 Uiso calc U R 1
O O1 0.0589(15) 0.7893(4) -0.1278(12) 0.0529(19) Uani d . . 1
O O2 -0.2413(13) 0.7718(4) 0.1109(13) 0.0440(16) Uani d . . 1
O O3 0.6570(11) 0.6322(3) 0.5367(14) 0.0445(17) Uani d . . 1
O O4 0.2588(17) 0.4284(4) 0.4360(14) 0.063(2) Uani d . . 1
O O5 -0.0248(12) 0.4565(3) 0.6751(13) 0.0401(15) Uani d . . 1
loop_
_atom_site_aniso_label
_atom_site_aniso_U_11
_atom_site_aniso_U_22
_atom_site_aniso_U_33
_atom_site_aniso_U_12
_atom_site_aniso_U_13
_atom_site_aniso_U_23
Ag1 0.0396(3) 0.0179(3) 0.0448(3) 0.0085(2) -0.0045(2) -0.0046(2)
Ag2 0.0417(3) 0.0233(3) 0.0396(3) 0.0084(2) -0.0023(2) -0.0051(2)
C1 0.021(3) 0.023(3) 0.025(3) 0.001(3) -0.001(3) -0.003(3)
C2 0.030(4) 0.022(3) 0.026(3) 0.004(3) 0.002(3) -0.002(3)
C3 0.015(3) 0.014(3) 0.027(3) 0.000(2) 0.008(3) 0.003(2)
C4 0.018(3) 0.016(3) 0.030(3) 0.002(2) 0.007(3) 0.005(2)
C5 0.016(3) 0.011(3) 0.029(3) 0.000(2) 0.003(2) 0.004(2)
C6 0.033(4) 0.016(4) 0.032(4) -0.001(3) 0.004(3) 0.000(3)
C7 0.023(3) 0.017(3) 0.027(4) 0.001(3) 0.003(3) 0.003(3)
N1 0.024(3) 0.016(3) 0.031(3) 0.000(2) 0.000(2) -0.001(2)
N2 0.013(2) 0.019(3) 0.040(3) 0.0051(19) 0.010(2) 0.011(2)
N3 0.031(3) 0.027(3) 0.026(3) 0.002(3) 0.004(3) 0.004(3)
O1 0.056(4) 0.068(5) 0.041(4) 0.019(4) 0.023(3) 0.027(3)
O2 0.035(3) 0.035(3) 0.070(4) 0.014(3) 0.028(3) 0.022(3)
O3 0.014(2) 0.028(3) 0.094(5) 0.004(2) 0.017(3) 0.026(3)
O4 0.060(5) 0.075(6) 0.062(5) -0.025(4) 0.028(4) -0.043(4)
O5 0.025(3) 0.033(3) 0.067(4) -0.012(2) 0.021(3) -0.013(3)
loop_
_atom_type_symbol
_atom_type_description
_atom_type_scat_dispersion_real
_atom_type_scat_dispersion_imag
_atom_type_scat_source
C C 0.0033 0.0016 'International Tables Vol C Tables 4.2.6.8 and 6.1.1.4'
H H 0.0000 0.0000 'International Tables Vol C Tables 4.2.6.8 and 6.1.1.4'
N N 0.0061 0.0033 'International Tables Vol C Tables 4.2.6.8 and 6.1.1.4'
O O 0.0106 0.0060 'International Tables Vol C Tables 4.2.6.8 and 6.1.1.4'
Ag Ag -0.8971 1.1015 'International Tables Vol C Tables 4.2.6.8 and 6.1.1.4'
loop_
_geom_angle_atom_site_label_1
_geom_angle_atom_site_label_2
_geom_angle_atom_site_label_3
_geom_angle_site_symmetry_1
_geom_angle_site_symmetry_3
_geom_angle
N1 Ag1 O5 . 2_556 171.1(2)
N1 Ag1 Ag2 . 1_656 77.50(16)
O5 Ag1 Ag2 2_556 1_656 108.34(19)
N1 Ag1 Ag2 . 1_655 82.28(17)
O5 Ag1 Ag2 2_556 1_655 88.96(16)
Ag2 Ag1 Ag2 1_656 1_655 116.89(3)
O2 Ag2 N3 . 2_556 171.7(3)
O2 Ag2 Ag1 . 1_454 109.9(2)
N3 Ag2 Ag1 2_556 1_454 76.96(17)
O2 Ag2 Ag1 . 1_455 88.67(16)
N3 Ag2 Ag1 2_556 1_455 83.88(18)
Ag1 Ag2 Ag1 1_454 1_455 116.89(3)
O1 C1 O2 . . 123.2(8)
O1 C1 C2 . . 120.2(7)
O2 C1 C2 . . 116.6(7)
C1 C2 C3 . . 112.5(6)
C1 C2 H2A . . 109.1
C3 C2 H2A . . 109.1
C1 C2 H2B . . 109.1
C3 C2 H2B . . 109.1
H2A C2 H2B . . 107.8
N1 C3 C4 . . 110.9(5)
N1 C3 C2 . . 109.8(6)
C4 C3 C2 . . 108.7(6)
N1 C3 H3 . . 109.2
C4 C3 H3 . . 109.2
C2 C3 H3 . . 109.2
O3 C4 N2 . . 122.5(6)
O3 C4 C3 . . 120.7(6)
N2 C4 C3 . . 116.7(5)
N2 C5 C6 . . 110.9(6)
N2 C5 C7 . . 110.5(5)
C6 C5 C7 . . 112.7(6)
N2 C5 H5 . . 107.5
C6 C5 H5 . . 107.5
C7 C5 H5 . . 107.5
N3 C6 C5 . . 111.6(6)
N3 C6 H6A . . 109.3
C5 C6 H6A . . 109.3
N3 C6 H6B . . 109.3
C5 C6 H6B . . 109.3
H6A C6 H6B . . 108.0
O4 C7 O5 . . 123.2(8)
O4 C7 C5 . . 119.2(7)
O5 C7 C5 . . 117.6(6)
C3 N1 Ag1 . . 117.6(4)
C3 N1 H1A . . 107.9
Ag1 N1 H1A . . 107.9
C3 N1 H1B . . 107.9
Ag1 N1 H1B . . 107.9
H1A N1 H1B . . 107.2
C4 N2 C5 . . 121.2(5)
C4 N2 H2 . . 119.4
C5 N2 H2 . . 119.4
C6 N3 Ag2 . 2_546 119.7(5)
C6 N3 H3A . . 107.4
Ag2 N3 H3A 2_546 . 107.4
C6 N3 H3B . . 107.4
Ag2 N3 H3B 2_546 . 107.4
H3A N3 H3B . . 106.9
C1 O2 Ag2 . . 115.9(5)
C7 O5 Ag1 . 2_546 110.0(5)
loop_
_geom_bond_atom_site_label_1
_geom_bond_atom_site_label_2
_geom_bond_site_symmetry_2
_geom_bond_distance
Ag1 N1 . 2.180(6)
Ag1 O5 2_556 2.205(6)
Ag1 Ag2 1_656 3.1867(12)
Ag1 Ag2 1_655 3.3313(12)
Ag2 O2 . 2.157(6)
Ag2 N3 2_556 2.184(7)
Ag2 Ag1 1_454 3.1867(12)
Ag2 Ag1 1_455 3.3313(12)
C1 O1 . 1.241(10)
C1 O2 . 1.263(9)
C1 C2 . 1.518(10)
C2 C3 . 1.533(10)
C2 H2A . 0.97
C2 H2B . 0.97
C3 N1 . 1.462(9)
C3 C4 . 1.528(9)
C3 H3 . 0.98
C4 O3 . 1.236(8)
C4 N2 . 1.331(8)
C5 N2 . 1.457(8)
C5 C6 . 1.526(10)
C5 C7 . 1.527(10)
C5 H5 . 0.98
C6 N3 . 1.468(10)
C6 H6A . 0.97
C6 H6B . 0.97
C7 O4 . 1.232(10)
C7 O5 . 1.254(9)
N1 H1A . 0.97
N1 H1B . 0.97
N2 H2 . 0.86
N3 Ag2 2_546 2.184(7)
N3 H3A . 0.97
N3 H3B . 0.97
O5 Ag1 2_546 2.205(6)
