#------------------------------------------------------------------------------
#$Date: 2016-02-16 22:30:59 +0200 (Tue, 16 Feb 2016) $
#$Revision: 176467 $
#$URL: svn://www.crystallography.net/cod/cif/4/51/19/4511960.cif $
#------------------------------------------------------------------------------
#
# This file is available in the Crystallography Open Database (COD),
# http://www.crystallography.net/
#
# All data on this site have been placed in the public domain by the
# contributors.
#
data_4511960
loop_
_publ_author_name
'Cuesta, Ana'
'De la Torre, \'Angeles G.'
'Losilla, Enrique R.'
'Santacruz, Isabel'
'Aranda, Miguel A. G.'
_publ_section_title
;
 Pseudocubic Crystal Structure and Phase Transition in Doped
 Ye&#x2019;elimite
;
_journal_issue                   10
_journal_name_full               'Crystal Growth &amp; Design'
_journal_page_first              5158
_journal_paper_doi               10.1021/cg501290q
_journal_volume                  14
_journal_year                    2014
_chemical_formula_sum            'Al6 Ca4 O16 S'
_chemical_formula_weight         610.26
_chemical_name_systematic        ' ?'
_space_group_IT_number           217
_symmetry_cell_setting           cubic
_symmetry_space_group_name_Hall  'I -4 2 3'
_symmetry_space_group_name_H-M   'I -4 3 m'
_audit_creation_date             2014-06-09T12:11
_audit_creation_method           'from EXP file using GSAS2CIF'
_audit_update_record
' 2014-06-09T12:11  Initial CIF as created by GSAS2CIF'
_cell_angle_alpha                90.0
_cell_angle_beta                 90.0
_cell_angle_gamma                90.0
_cell_formula_units_Z            2
_cell_length_a                   9.19703(6)
_cell_length_b                   9.19703
_cell_length_c                   9.19703
_cell_measurement_temperature    299
_cell_volume                     777.934(5)
_computing_structure_refinement  GSAS
_diffrn_ambient_temperature      299
_diffrn_radiation_polarisn_ratio 1.0
_diffrn_radiation_probe          x-ray
_diffrn_radiation_wavelength     0.6202
_exptl_absorpt_correction_T_max  1.00000
_exptl_absorpt_correction_T_min  1.00000
_exptl_absorpt_process_details
;   GSAS Absorption/surface roughness correction: function number 0
 No correction is applied.
;
_pd_block_id                     2014-06-09T12:11|C4A3S_DOP_PAPER||SK_dop
_pd_calc_method                  'Rietveld Refinement'
_pd_instr_location               ' ?'
_pd_meas_2theta_range_inc        0.005
_pd_meas_2theta_range_max        62.985
_pd_meas_2theta_range_min        0.005
_pd_meas_number_of_points        12597
_pd_phase_name                   'cubic refined vf'
_pd_proc_2theta_range_inc        0.005
_pd_proc_2theta_range_max        63.00573
_pd_proc_2theta_range_min        0.02573
_pd_proc_info_datetime           2014-06-09T12:11:59
_pd_proc_info_excluded_regions   ' ?'
_pd_proc_ls_background_function
;   GSAS Background function number 1 with 28 terms.
 Shifted Chebyshev function of 1st kind
      1:    1508.96     2:   -80.3916     3:   -331.582     4:    83.8127    
      5:    102.264     6:   -60.6250     7:    110.822     8:   -86.5889    
      9:    104.867    10:   -60.0036    11:   -24.4928    12:    81.0664    
     13:   -62.1021    14:    51.8516    15:    34.9623    16:   -67.4358    
     17:    42.1988    18:   -4.14719    19:    40.6957    20:   -11.4139    
     21:   -21.1455    22:    43.5232    23:    15.7018    24:   -20.6001    
     25:    24.4921    26:   -24.3776    27:    7.01509    28:    49.8089    
;
_pd_proc_ls_peak_cutoff          0.00200
_pd_proc_ls_profile_function
;
 CW Profile function number 4 with  14 terms
 Pseudovoigt profile coefficients as parameterized in
 P. Thompson, D.E. Cox & J.B. Hastings (1987). J. Appl. Cryst.,20,79-83.
 Asymmetry correction of L.W. Finger, D.E. Cox & A. P. Jephcoat (1994).
 J. Appl. Cryst.,27,892-900.
 Microstrain broadening by P.W. Stephens,  (1999). J. Appl. Cryst.,32,281-289.
 Peak tails are ignored  where the intensity is below 0.0020 times the peak
   Aniso. broadening axis   0.0   0.0   1.0
;
_pd_proc_ls_prof_R_factor        0.0779
_pd_proc_ls_prof_wR_expected     0.0195
_pd_proc_ls_prof_wR_factor       0.1098
_pd_proc_number_of_points        12597
_pd_spec_mounting                ' ?'
_refine_ls_goodness_of_fit_all   5.64
_refine_ls_matrix_type           full
_refine_ls_number_parameters     51
_refine_ls_number_restraints     8
_refine_ls_R_Fsqd_factor         0.08441
_refine_ls_shift/su_max          0.07
_refine_ls_shift/su_mean         0.01
_reflns_d_resolution_high        0.813
_reflns_d_resolution_low         6.503
_reflns_limit_h_max              11
_reflns_limit_h_min              1
_reflns_limit_k_max              8
_reflns_limit_k_min              0
_reflns_limit_l_max              6
_reflns_limit_l_min              0
_reflns_number_total             98
_cod_data_source_file            cg501290q_si_002.cif
_cod_data_source_block           C4A3S_DOP_PAPER_publ
_cod_depositor_comments
;
The following automatic conversions were performed:

'_geom_bond_publ_flag' value 'N' changed to 'n' according to
/home/saulius/struct/COD-crude-data--automatic-downloads/rss-feeds/ACS/lib/dictionaries/cif_core.dic
dictionary named 'cif_core.dic' version 2.4.2 from 2011-04-26 (52
times).

'_geom_angle_publ_flag' value 'N' changed to 'n' according
to
/home/saulius/struct/COD-crude-data--automatic-downloads/rss-feeds/ACS/lib/dictionaries/cif_core.dic
dictionary named 'cif_core.dic' version 2.4.2 from 2011-04-26 (178
times).

Automatic conversion script
Id: cif_fix_values 2281 2013-09-26 08:29:07Z andrius 

 Adding full bibliography for 4511960.cif.
;
_cod_original_cell_volume        777.935(14)
_cod_original_formula_sum        'Al6 Ca4 O16.00 S'
_cod_database_code               4511960
#BEGIN Tags that were not found in dictionaries:
_gsas_exptl_extinct_corr_t_min   1.00000
_gsas_exptl_extinct_corr_t_max   1.00000
#END Tags that were not found in dictionaries
loop_
_symmetry_equiv_pos_site_id
_symmetry_equiv_pos_as_xyz
1 +x,+y,+z
2 +z,+x,+y
3 +y,+z,+x
4 +y,-x,-z
5 -z,+y,-x
6 -x,-z,+y
7 -x,-y,+z
8 -z,+x,-y
9 -y,-z,+x
10 +x,-y,-z
11 +z,-x,-y
12 -y,+z,-x
13 -y,+x,-z
14 -z,-y,+x
15 +x,-z,-y
16 +x,+z,+y
17 +y,+x,+z
18 +z,+y,+x
19 +y,-z,-x
20 -y,-x,+z
21 +z,-y,-x
22 -x,+z,-y
23 -x,+y,-z
24 -z,-x,+y
101 +x+1/2,+y+1/2,+z+1/2
102 +z+1/2,+x+1/2,+y+1/2
103 +y+1/2,+z+1/2,+x+1/2
104 +y+1/2,-x+1/2,-z+1/2
105 -z+1/2,+y+1/2,-x+1/2
106 -x+1/2,-z+1/2,+y+1/2
107 -x+1/2,-y+1/2,+z+1/2
108 -z+1/2,+x+1/2,-y+1/2
109 -y+1/2,-z+1/2,+x+1/2
110 +x+1/2,-y+1/2,-z+1/2
111 +z+1/2,-x+1/2,-y+1/2
112 -y+1/2,+z+1/2,-x+1/2
113 -y+1/2,+x+1/2,-z+1/2
114 -z+1/2,-y+1/2,+x+1/2
115 +x+1/2,-z+1/2,-y+1/2
116 +x+1/2,+z+1/2,+y+1/2
117 +y+1/2,+x+1/2,+z+1/2
118 +z+1/2,+y+1/2,+x+1/2
119 +y+1/2,-z+1/2,-x+1/2
120 -y+1/2,-x+1/2,+z+1/2
121 +z+1/2,-y+1/2,-x+1/2
122 -x+1/2,+z+1/2,-y+1/2
123 -x+1/2,+y+1/2,-z+1/2
124 -z+1/2,-x+1/2,+y+1/2
loop_
_atom_site_aniso_label
_atom_site_aniso_U_11
_atom_site_aniso_U_12
_atom_site_aniso_U_13
_atom_site_aniso_U_22
_atom_site_aniso_U_23
_atom_site_aniso_U_33
Ca1 0.0952(13) 0.0679(15) 0.0679(15) 0.0952(13) 0.0679(15) 0.0952(13)
Al1 0.0069(11) 0.0 0.0 0.0148(7) 0.0 0.0148(7)
O1 0.0283(12) 0.0091(15) 0.0075(11) 0.0283(12) 0.0075(11) 0.0334(23)
loop_
_atom_site_type_symbol
_atom_site_label
_atom_site_fract_x
_atom_site_fract_y
_atom_site_fract_z
_atom_site_occupancy
_atom_site_thermal_displace_type
_atom_site_U_iso_or_equiv
_atom_site_symmetry_multiplicity
Ca Ca1 0.29440(14) 0.29440(14) 0.29440(14) 1.0 Uani 0.09517 8
Al Al1 0.25 0.5 0.0 1.0 Uani 0.01218 12
S S1 0.0 0.0 0.0 1.0 Uiso 0.0870(15) 2
O O1 0.34794(18) 0.34794(18) 0.05339(26) 1.0 Uani 0.03002 24
O O2 0.1130(5) 0.1130(5) 0.0135(15) 0.33333 Uiso 0.137(7) 24
loop_
_atom_type_symbol
_atom_type_number_in_cell
_atom_type_scat_dispersion_real
_atom_type_scat_dispersion_imag
_atom_type_scat_Cromer_Mann_a1
_atom_type_scat_Cromer_Mann_a2
_atom_type_scat_Cromer_Mann_a3
_atom_type_scat_Cromer_Mann_a4
_atom_type_scat_Cromer_Mann_b1
_atom_type_scat_Cromer_Mann_b2
_atom_type_scat_Cromer_Mann_b3
_atom_type_scat_Cromer_Mann_b4
_atom_type_scat_Cromer_Mann_c
_atom_type_scat_source
Ca 8.0 0.000 0.000 8.62660 10.4421 7.38730 0.65990 1.58990 85.7484 1.02110
178.437 1.37510 International_Tables_Vol_C
Al 12.0 0.000 0.000 6.42020 3.03870 1.90020 0.74260 1.59360 31.5472 1.96460
85.0886 1.11510 International_Tables_Vol_C
S 2.0 0.000 0.000 6.90530 1.46790 5.20340 22.2151 1.43790 0.25360 1.58630
56.1720 0.86690 International_Tables_Vol_C
O 32.0 0.000 0.000 3.04850 13.2771 2.28680 5.70110 1.54630 0.32390 0.86700
32.9089 0.25080 International_Tables_Vol_C
loop_
_geom_angle_atom_site_label_1
_geom_angle_atom_site_label_2
_geom_angle_atom_site_label_3
_geom_angle
_geom_angle_site_symmetry_1
_geom_angle_site_symmetry_3
_geom_angle_publ_flag
Al1 Ca1 Al1 115.609(25) 1_555 2_555 n
Al1 Ca1 Al1 115.609(25) 1_555 3_555 n
Al1 Ca1 Al1 58.494(9) 1_555 13_655 n
Al1 Ca1 Al1 58.494(9) 1_555 14_565 n
Al1 Ca1 Al1 155.45(7) 1_555 15_556 n
Al1 Ca1 O1 29.462(8) 1_555 1_555 n
Al1 Ca1 O1 86.269(22) 1_555 2_555 n
Al1 Ca1 O1 137.78(7) 1_555 3_555 n
Al1 Ca1 O2 122.46(16) 1_555 107_555 n
Al1 Ca1 O2 101.210(35) 1_555 111_555 n
Al1 Ca1 O2 81.50(17) 1_555 112_555 n
Al1 Ca1 Al1 115.609(25) 2_555 3_555 n
Al1 Ca1 Al1 155.45(7) 2_555 13_655 n
Al1 Ca1 Al1 58.494(9) 2_555 14_565 n
Al1 Ca1 Al1 58.494(9) 2_555 15_556 n
Al1 Ca1 O1 137.78(7) 2_555 1_555 n
Al1 Ca1 O1 29.462(8) 2_555 2_555 n
Al1 Ca1 O1 86.269(22) 2_555 3_555 n
Al1 Ca1 O2 81.50(17) 2_555 107_555 n
Al1 Ca1 O2 122.46(16) 2_555 111_555 n
Al1 Ca1 O2 101.210(35) 2_555 112_555 n
Al1 Ca1 Al1 58.494(9) 3_555 13_655 n
Al1 Ca1 Al1 155.45(7) 3_555 14_565 n
Al1 Ca1 Al1 58.494(9) 3_555 15_556 n
Al1 Ca1 O1 86.269(22) 3_555 1_555 n
Al1 Ca1 O1 137.78(7) 3_555 2_555 n
Al1 Ca1 O1 29.462(8) 3_555 3_555 n
Al1 Ca1 O2 101.210(35) 3_555 107_555 n
Al1 Ca1 O2 81.50(17) 3_555 111_555 n
Al1 Ca1 O2 122.46(16) 3_555 112_555 n
Al1 Ca1 Al1 115.609(25) 13_655 14_565 n
Al1 Ca1 Al1 115.609(25) 13_655 15_556 n
Al1 Ca1 O1 29.462(8) 13_655 1_555 n
Al1 Ca1 O1 137.78(7) 13_655 2_555 n
Al1 Ca1 O1 86.269(22) 13_655 3_555 n
Al1 Ca1 O2 122.46(16) 13_655 107_555 n
Al1 Ca1 O2 81.50(17) 13_655 111_555 n
Al1 Ca1 O2 101.210(35) 13_655 112_555 n
Al1 Ca1 Al1 115.609(25) 14_565 15_556 n
Al1 Ca1 O1 86.269(22) 14_565 1_555 n
Al1 Ca1 O1 29.462(8) 14_565 2_555 n
Al1 Ca1 O1 137.78(7) 14_565 3_555 n
Al1 Ca1 O2 101.210(35) 14_565 107_555 n
Al1 Ca1 O2 122.46(16) 14_565 111_555 n
Al1 Ca1 O2 81.50(17) 14_565 112_555 n
Al1 Ca1 O1 137.78(7) 15_556 1_555 n
Al1 Ca1 O1 86.269(22) 15_556 2_555 n
Al1 Ca1 O1 29.462(8) 15_556 3_555 n
Al1 Ca1 O2 81.50(17) 15_556 107_555 n
Al1 Ca1 O2 101.210(35) 15_556 111_555 n
Al1 Ca1 O2 122.46(16) 15_556 112_555 n
O1 Ca1 O1 111.07(6) 1_555 2_555 n
O1 Ca1 O1 111.07(6) 1_555 3_555 n
O1 Ca1 O2 131.68(22) 1_555 107_555 n
O1 Ca1 O2 95.02(11) 1_555 111_555 n
O1 Ca1 O2 95.02(11) 1_555 112_555 n
O1 Ca1 O1 111.07(6) 2_555 3_555 n
O1 Ca1 O2 95.02(11) 2_555 107_555 n
O1 Ca1 O2 131.68(22) 2_555 111_555 n
O1 Ca1 O2 95.02(11) 2_555 112_555 n
O1 Ca1 O2 95.02(11) 3_555 107_555 n
O1 Ca1 O2 95.02(11) 3_555 111_555 n
O1 Ca1 O2 131.68(22) 3_555 112_555 n
O2 Ca1 O2 41.01(32) 107_555 111_555 n
O2 Ca1 O2 41.01(32) 107_555 112_555 n
O2 Ca1 O2 41.01(32) 111_555 112_555 n
Ca1 Al1 Ca1 165.90(4) 1_555 4_565 n
Ca1 Al1 Ca1 90.863(5) 1_555 105_555 n
Ca1 Al1 Ca1 90.863(5) 1_555 106_554 n
Ca1 Al1 O1 41.21(8) 1_555 1_555 n
Ca1 Al1 O1 128.67(8) 1_555 4_565 n
Ca1 Al1 O1 123.98(8) 1_555 106_554 n
Ca1 Al1 O1 64.44(7) 1_555 112_555 n
Ca1 Al1 Ca1 90.863(5) 4_565 105_555 n
Ca1 Al1 Ca1 90.863(5) 4_565 106_554 n
Ca1 Al1 O1 128.67(8) 4_565 1_555 n
Ca1 Al1 O1 41.21(8) 4_565 4_565 n
Ca1 Al1 O1 64.44(7) 4_565 106_554 n
Ca1 Al1 O1 123.98(8) 4_565 112_555 n
Ca1 Al1 Ca1 165.90(4) 105_555 106_554 n
Ca1 Al1 O1 123.98(8) 105_555 1_555 n
Ca1 Al1 O1 64.44(7) 105_555 4_565 n
Ca1 Al1 O1 128.67(8) 105_555 106_554 n
Ca1 Al1 O1 41.21(8) 105_555 112_555 n
Ca1 Al1 O1 64.44(7) 106_554 1_555 n
Ca1 Al1 O1 123.98(8) 106_554 4_565 n
Ca1 Al1 O1 41.21(8) 106_554 106_554 n
Ca1 Al1 O1 128.67(8) 106_554 112_555 n
O1 Al1 O1 117.43(15) 1_555 4_565 n
O1 Al1 O1 105.65(7) 1_555 106_554 n
O1 Al1 O1 105.65(7) 1_555 112_555 n
O1 Al1 O1 105.65(7) 4_565 106_554 n
O1 Al1 O1 105.65(7) 4_565 112_555 n
O1 Al1 O1 117.43(15) 106_554 112_555 n
O2 S1 O2 52.1(9) 1_555 2_555 n
O2 S1 O2 52.1(9) 1_555 3_555 n
O2 S1 O2 90.40(9) 1_555 4_555 n
O2 S1 O2 67.8(9) 1_555 5_555 n
O2 S1 O2 119.77(5) 1_555 6_555 n
O2 S1 O2 170.4(11) 1_555 7_555 n
O2 S1 O2 119.77(5) 1_555 11_555 n
O2 S1 O2 119.77(5) 1_555 12_555 n
O2 S1 O2 90.40(9) 1_555 13_555 n
O2 S1 O2 119.77(5) 1_555 14_555 n
O2 S1 O2 67.8(9) 1_555 15_555 n
O2 S1 O2 52.1(9) 2_555 3_555 n
O2 S1 O2 119.77(5) 2_555 4_555 n
O2 S1 O2 90.40(9) 2_555 5_555 n
O2 S1 O2 67.8(9) 2_555 6_555 n
O2 S1 O2 119.77(5) 2_555 7_555 n
O2 S1 O2 170.4(11) 2_555 11_555 n
O2 S1 O2 119.77(5) 2_555 12_555 n
O2 S1 O2 67.8(9) 2_555 13_555 n
O2 S1 O2 90.40(9) 2_555 14_555 n
O2 S1 O2 119.77(5) 2_555 15_555 n
O2 S1 O2 67.8(9) 3_555 4_555 n
O2 S1 O2 119.77(5) 3_555 5_555 n
O2 S1 O2 90.40(9) 3_555 6_555 n
O2 S1 O2 119.77(5) 3_555 7_555 n
O2 S1 O2 119.77(5) 3_555 11_555 n
O2 S1 O2 170.4(11) 3_555 12_555 n
O2 S1 O2 119.77(5) 3_555 13_555 n
O2 S1 O2 67.8(9) 3_555 14_555 n
O2 S1 O2 90.40(9) 3_555 15_555 n
O2 S1 O2 119.77(5) 4_555 5_555 n
O2 S1 O2 119.77(5) 4_555 6_555 n
O2 S1 O2 90.40(9) 4_555 7_555 n
O2 S1 O2 52.1(9) 4_555 11_555 n
O2 S1 O2 119.77(5) 4_555 12_555 n
O2 S1 O2 170.4(11) 4_555 13_555 n
O2 S1 O2 67.8(9) 4_555 14_555 n
O2 S1 O2 52.1(9) 4_555 15_555 n
O2 S1 O2 119.77(5) 5_555 6_555 n
O2 S1 O2 119.77(5) 5_555 7_555 n
O2 S1 O2 90.40(9) 5_555 11_555 n
O2 S1 O2 52.1(9) 5_555 12_555 n
O2 S1 O2 52.1(9) 5_555 13_555 n
O2 S1 O2 170.4(11) 5_555 14_555 n
O2 S1 O2 67.8(9) 5_555 15_555 n
O2 S1 O2 52.1(9) 6_555 7_555 n
O2 S1 O2 119.77(5) 6_555 11_555 n
O2 S1 O2 90.40(9) 6_555 12_555 n
O2 S1 O2 67.8(9) 6_555 13_555 n
O2 S1 O2 52.1(9) 6_555 14_555 n
O2 S1 O2 170.4(11) 6_555 15_555 n
O2 S1 O2 67.8(9) 7_555 11_555 n
O2 S1 O2 67.8(9) 7_555 12_555 n
O2 S1 O2 90.40(9) 7_555 13_555 n
O2 S1 O2 52.1(9) 7_555 14_555 n
O2 S1 O2 119.77(5) 7_555 15_555 n
O2 S1 O2 67.8(9) 11_555 12_555 n
O2 S1 O2 119.77(5) 11_555 13_555 n
O2 S1 O2 90.40(9) 11_555 14_555 n
O2 S1 O2 52.1(9) 11_555 15_555 n
O2 S1 O2 52.1(9) 12_555 13_555 n
O2 S1 O2 119.77(5) 12_555 14_555 n
O2 S1 O2 90.40(9) 12_555 15_555 n
O2 S1 O2 119.77(5) 13_555 14_555 n
O2 S1 O2 119.77(5) 13_555 15_555 n
O2 S1 O2 119.77(5) 14_555 15_555 n
Ca1 O1 Al1 109.33(8) 1_555 1_555 n
Ca1 O1 Al1 109.33(8) 1_555 13_655 n
Al1 O1 Al1 139.23(15) 1_555 13_655 n
Ca1 O2 S1 116.1(7) 106_554 1_555 n
Ca1 O2 O2 149.711(25) 106_554 2_555 n
Ca1 O2 O2 149.711(25) 106_554 3_555 n
Ca1 O2 O2 69.50(16) 106_554 5_555 n
Ca1 O2 O2 69.50(16) 106_554 15_555 n
S1 O2 O2 64.0(5) 1_555 2_555 n
S1 O2 O2 64.0(5) 1_555 3_555 n
S1 O2 O2 56.1(4) 1_555 5_555 n
S1 O2 O2 56.1(4) 1_555 15_555 n
O2 O2 O2 60.00000(30) 2_555 3_555 n
O2 O2 O2 90.0000(5) 2_555 5_555 n
O2 O2 O2 120.00000(30) 2_555 15_555 n
O2 O2 O2 120.00000(30) 3_555 5_555 n
O2 O2 O2 90.0000(5) 3_555 15_555 n
O2 O2 O2 60.00000(30) 5_555 15_555 n
loop_
_geom_bond_atom_site_label_1
_geom_bond_atom_site_label_2
_geom_bond_distance
_geom_bond_site_symmetry_2
_geom_bond_publ_flag
Ca1 Al1 3.3277(5) 1_555 n
Ca1 Al1 3.3277(5) 2_555 n
Ca1 Al1 3.3277(5) 3_555 n
Ca1 Al1 3.3277(5) 13_655 n
Ca1 Al1 3.3277(5) 14_565 n
Ca1 Al1 3.3277(5) 15_556 n
Ca1 S1 3.2751(22) 101_555 n
Ca1 O1 2.3234(25) 1_555 n
Ca1 O1 2.3234(25) 2_555 n
Ca1 O1 2.3234(25) 3_555 n
Ca1 O1 3.0168(23) 107_555 n
Ca1 O1 3.0168(23) 111_555 n
Ca1 O1 3.0168(23) 112_555 n
Ca1 O2 2.348(13) 107_555 n
Ca1 O2 2.348(13) 111_555 n
Ca1 O2 2.348(13) 112_555 n
Al1 Ca1 3.3277(5) 1_555 n
Al1 Ca1 3.3277(5) 4_565 n
Al1 Ca1 3.3277(5) 105_555 n
Al1 Ca1 3.3277(5) 106_554 n
Al1 O1 1.7344(8) 1_555 n
Al1 O1 1.7344(8) 4_565 n
Al1 O1 1.7344(8) 106_554 n
Al1 O1 1.7344(8) 112_555 n
S1 Ca1 3.2751(22) 101_444 n
S1 Ca1 3.2751(22) 104_455 n
S1 Ca1 3.2751(22) 105_545 n
S1 Ca1 3.2751(22) 106_554 n
S1 O2 1.474(6) 1_555 n
S1 O2 1.474(6) 2_555 n
S1 O2 1.474(6) 3_555 n
S1 O2 1.474(6) 4_555 n
S1 O2 1.474(6) 5_555 n
S1 O2 1.474(6) 6_555 n
S1 O2 1.474(6) 7_555 n
S1 O2 1.474(6) 11_555 n
S1 O2 1.474(6) 12_555 n
S1 O2 1.474(6) 13_555 n
S1 O2 1.474(6) 14_555 n
S1 O2 1.474(6) 15_555 n
O1 Ca1 2.3234(25) 1_555 n
O1 Ca1 3.0168(23) 106_554 n
O1 Al1 1.7344(8) 1_555 n
O1 Al1 1.7344(8) 13_655 n
O2 Ca1 2.348(13) 106_554 n
O2 S1 1.474(6) 1_555 n
O2 O2 1.294(23) 2_555 n
O2 O2 1.294(23) 3_555 n
O2 O2 2.093(8) 4_555 n
O2 O2 1.645(19) 5_555 n
O2 O2 2.093(8) 13_555 n
O2 O2 1.645(19) 15_555 n
loop_
_pd_meas_intensity_total
_pd_proc_ls_weight
_pd_proc_intensity_bkg_calc
_pd_calc_intensity_total
3.8(24) 0.0 -222755.98 .
7.8(33) 0.0 -218600.91 .
1.2(15) 0.0 -214513.30 .
3.8(24) 0.0 -210492.31 .
2.5(20) 0.0 -206537.16 .
5.0(27) 0.0 -202646.56 .
2.5(20) 0.0 -198819.70 .
1.3(16) 0.0 -195055.78 .
2.6(20) 0.0 -191353.59 .
5.1(27) 0.0 -187712.56 .
1.3(16) 0.0 -184131.67 .
0.0(9) 0.0 -180610.05 .
3.0(22) 0.0 -177146.72 .
2.1(19) 0.0 -173741.23 .
0.0(9) 0.0 -170392.20 .
1.3(16) 0.0 -167099.22 .
1.3(16) 0.0 -163861.30 .
1.3(16) 0.0 -160677.50 .
5.1(27) 0.0 -157547.34 .
2.6(20) 0.0 -154469.70 .
3.8(24) 0.0 -151444.08 .
1.3(16) 0.0 -148469.56 .
3.8(24) 0.0 -145545.33 .
1.3(16) 0.0 -142670.75 .
5.1(27) 0.0 -139845.13 .
2.5(20) 0.0 -137067.53 .
1.3(16) 0.0 -134337.64 .
2.6(20) 0.0 -131654.28 .
6.4(30) 0.0 -129017.04 .
0.0(9) 0.0 -126425.13 .
5.1(27) 0.0 -123877.79 .
2.3(19) 0.0 -121374.54 .
2.8(21) 0.0 -118914.52 .
0.0(9) 0.0 -116497.23 .
1.3(16) 0.0 -114121.98 .
1.3(16) 0.0 -111788.05 .
1.3(16) 0.0 -109494.92 .
1.3(16) 0.0 -107241.92 .
1.3(16) 0.0 -105028.44 .
0.0(9) 0.0 -102853.95 .
1.3(16) 0.0 -100717.63 .
3.8(24) 0.0 -98619.21 .
2.6(20) 0.0 -96557.85 .
3.4(23) 0.0 -94533.16 .
1.7(17) 0.0 -92544.42 .
0.6(12) 0.0 -90591.12 .
5.8(29) 0.0 -88672.76 .
0.7(13) 0.0 -86788.75 .
1.8(18) 0.0 -84938.57 .
1.3(16) 0.0 -83121.78 .
0.0(9) 0.0 -81337.71 .
3.8(24) 0.0 -79585.98 .
0.0(9) 0.0 -77865.91 .
8.9(35) 0.0 -76177.21 .
0.0(9) 0.0 -74519.22 .
3.7(23) 0.0 -72891.55 .
6.4(30) 0.0 -71293.75 .
6.3(30) 0.0 -69725.25 .
1.3(16) 0.0 -68185.62 .
0.0(9) 0.0 -66674.37 .
1.3(16) 0.0 -65191.16 .
1.3(16) 0.0 -63735.40 .
1.3(16) 0.0 -62306.71 .
1.3(16) 0.0 -60904.75 .
1.3(15) 0.0 -59528.93 .
0.0(9) 0.0 -58178.92 .
1.3(16) 0.0 -56854.30 .
1.3(16) 0.0 -55554.62 .
1.3(16) 0.0 -54279.47 .
1.5(16) 0.0 -53028.59 .
2.4(20) 0.0 -51801.40 .
0.0(9) 0.0 -50597.58 .
2.5(20) 0.0 -49416.79 .
1.9(18) 0.0 -48258.63 .
3.1(22) 0.0 -47122.70 .
1.3(16) 0.0 -46008.67 .
0.5(12) 0.0 -44916.11 .
2.0(18) 0.0 -43844.78 .
1.3(16) 0.0 -42794.23 .
1.3(16) 0.0 -41764.13 .
1.3(16) 0.0 -40754.22 .
2.5(20) 0.0 -39764.05 .
1.3(16) 0.0 -38793.36 .
2.7(21) 0.0 -37841.80 .
8.7(34) 0.0 -36909.08 .
0.0(9) 0.0 -35994.84 .
0.0(9) 0.0 -35098.78 .
6.4(30) 0.0 -34220.59 .
3.8(24) 0.0 -33360.00 .
2.6(20) 0.0 -32516.62 .
3.8(24) 0.0 -31690.30 .
3.8(24) 0.0 -30880.64 .
1.3(16) 0.0 -30087.40 .
5.1(27) 0.0 -29310.27 .
2.5(20) 0.0 -28548.96 .
6.3(30) 0.0 -27803.26 .
1.3(15) 0.0 -27072.82 .
0.0(9) 0.0 -26357.49 .
3.0(22) 0.0 -25656.89 .
5.9(29) 0.0 -24970.81 .
4.6(26) 0.0 -24298.98 .
4.4(25) 0.0 -23641.17 .
3.8(24) 0.0 -22997.13 .
6.3(30) 0.0 -22366.63 .
7.7(32) 0.0 -21749.41 .
3.8(24) 0.0 -21145.25 .
7.6(32) 0.0 -20553.89 .
6.4(30) 0.0 -19975.15 .
2.6(20) 0.0 -19408.77 .
8.3(34) 0.0 -18854.52 .
4.5(26) 0.0 -18312.19 .
7.7(33) 0.0 -17781.59 .
7.7(33) 0.0 -17262.52 .
10(4) 0.0 -16754.7 .
7.2(32) 0.0 -16258.00 .
10(4) 0.0 -15772.2 .
6.9(31) 0.0 -15297.05 .
9.2(35) 0.0 -14832.41 .
12(4) 0.0 -14378.1 .
11(4) 0.0 -13933.8 .
14(4) 0.0 -13499.5 .
10(4) 0.0 -13075.0 .
13(4) 0.0 -12660.0 .
8.9(35) 0.0 -12254.41 .
7.9(33) 0.0 -11858.01 .
11(4) 0.0 -11470.6 .
14(4) 0.0 -11092.1 .
13(4) 0.0 -10722.3 .
22(5) 0.0 -10361.1 .
17(5) 0.0 -10008.2 .
16(5) 0.0 -9663.5 .
22(5) 0.0 -9326.9 .
8.9(35) 0.0 -8998.22 .
8.7(34) 0.0 -8677.24 .
24(6) 0.0 -8363.9 .
18(5) 0.0 -8058.0 .
23(6) 0.0 -7759.4 .
13(4) 0.0 -7468.0 .
25(6) 0.0 -7183.6 .
19(5) 0.0 -6906.1 .
22(5) 0.0 -6635.4 .
18(5) 0.0 -6371.3 .
25(6) 0.0 -6113.7 .
24(6) 0.0 -5862.5 .
25(6) 0.0 -5617.5 .
23(5) 0.0 -5378.6 .
41(7) 0.0 -5145.7 .
29(6) 0.0 -4918.6 .
43(8) 0.0 -4697.4 .
36(7) 0.0 -4481.8 .
40(7) 0.0 -4271.6 .
41(7) 0.0 -4067.0 .
59(9) 0.0 -3867.6 .
65(9) 0.0 -3673.4 .
57(9) 0.0 -3484.2 .
67(9) 0.0 -3300.1 .
72(10) 0.0 -3120.8 .
76(10) 0.0 -2946.3 .
83(10) 0.0 -2776.5 .
83(10) 0.0 -2611.3 .
106(12) 0.0 -2450.5 .
104(12) 0.0 -2294.2 .
127(13) 0.0 -2142.1 .
114(12) 0.0 -1994.2 .
108(12) 0.0 -1850.5 .
114(12) 0.0 -1710.7 .
128(13) 0.0 -1574.9 .
129(13) 0.0 -1443.0 .
124(13) 0.0 -1314.8 .
165(15) 0.0 -1190.3 .
144(14) 0.0 -1069.4 .
145(14) 0.0 -952.0 .
190(16) 0.0 -838.1 .
167(15) 0.0 -727.5 .
205(16) 0.0 -620.3 .
211(16) 0.0 -516.3 .
181(15) 0.0 -415.4 .
188(16) 0.0 -317.6 .
230(17) 0.0 -222.8 .
242(18) 0.0 -130.9 .
235(17) 0.0 -41.9 .
272(19) 0.0 44.2 .
259(18) 0.0 127.7 .
310(20) 0.0 208.4 .
287(19) 0.0 286.6 .
288(19) 0.0 362.2 .
383(21) 0.0 435.3 .
366(21) 0.0 505.9 .
350(20) 0.0 574.2 .
431(23) 0.0 640.2 .
390(21) 0.0 703.9 .
420(22) 0.0 765.4 .
448(23) 0.0 824.7 .
470(23) 0.0 882.0 .
479(24) 0.0 937.2 .
465(23) 0.0 990.4 .
486(24) 0.0 1041.6 .
517(25) 0.0 1090.9 .
542(25) 0.0 1138.4 .
510(25) 0.0 1184.1 .
591(26) 0.0 1228.0 .
565(26) 0.0 1270.2 .
565(26) 0.0 1310.8 .
523(25) 0.0 1349.7 .
516(25) 0.0 1387.0 .
563(26) 0.0 1422.8 .
591(26) 0.0 1457.0 .
660(28) 0.0 1489.8 .
686(28) 0.0 1521.2 .
668(28) 0.0 1551.2 .
726(29) 0.0 1579.9 .
733(29) 0.0 1607.2 .
766(30) 0.0 1633.3 .
830(31) 0.0 1658.1 .
842(31) 0.0 1681.7 .
807(31) 0.0 1704.2 .
825(31) 0.0 1725.5 .
831(31) 0.0 1745.7 .
864(32) 0.0 1764.8 .
835(31) 0.0 1782.9 .
911(33) 0.0 1800.0 .
1017(35) 0.0 1816.1 .
882(32) 0.0 1831.2 .
914(33) 0.0 1845.4 .
1002(34) 0.0 1858.7 .
922(33) 0.0 1871.2 .
964(34) 0.0 1882.8 .
938(33) 0.0 1893.6 .
977(34) 0.0 1903.6 .
967(34) 0.0 1912.8 .
1055(35) 0.0 1921. .
1067(35) 0.0 1929. .
1027(35) 0.0 1936.1 .
1013(34) 0.0 1942.5 .
1011(34) 0.0 1948.3 .
1027(35) 0.0 1953.4 .
1035(35) 0.0 1958.0 .
1099(36) 0.0 1962. .
1042(35) 0.0 1965.3 .
1063(35) 0.0 1968. .
1118(36) 0.0 1970. .
1106(36) 0.0 1972. .
1112(36) 0.0 1974. .
1102(36) 0.0 1974. .
1172(37) 0.0 1975. .
1089(36) 0.0 1975. .
1157(37) 0.0 1974. .
1177(37) 0.0 1973. .
1122(36) 0.0 1972. .
1144(37) 0.0 1970. .
1221(38) 0.0 1968. .
1177(37) 0.0 1966. .
1180(37) 0.0 1963. .
1218(38) 0.0 1961. .
1217(38) 0.0 1957. .
1289(39) 0.0 1954. .
1293(39) 0.0 1950. .
1214(38) 0.0 1946. .
1256(38) 0.0 1941. .
1170(37) 0.0 1937. .
1205(38) 0.0 1932. .
1298(39) 0.0 1927. .
1201(37) 0.0 1922. .
1293(39) 0.0 1917. .
1295(39) 0.0 1911. .
1263(38) 0.0 1905. .
1282(39) 0.0 1899. .
1287(39) 0.0 1893. .
1353(40) 0.0 1887. .
1350(40) 0.0 1881. .
1349(40) 0.0 1874. .
1307(39) 0.0 1868. .
1279(39) 0.0 1861. .
1398(40) 0.0 1854. .
1328(39) 0.0 1847. .
1394(40) 0.0 1841. .
1348(40) 0.0 1834. .
1345(40) 0.0 1826. .
1412(41) 0.0 1819. .
1464(42) 0.0 1812. .
1466(41) 0.0 1805. .
1495(42) 0.0 1798. .
1417(41) 0.0 1790. .
1380(40) 0.0 1783. .
1471(41) 0.0 1776. .
1423(41) 0.0 1768. .
1474(41) 0.0 1761. .
1397(41) 0.0 1753. .
1475(42) 0.0 1746. .
1518(42) 0.0 1739. .
1473(42) 0.0 1731. .
1552(43) 0.0 1724. .
1512(42) 0.0 1716. .
1473(41) 0.0 1709. .
1455(41) 0.0 1702. .
1532(42) 0.0 1694. .
1547(42) 0.0 1687. .
1486(42) 0.0 1680. .
1545(43) 0.0 1672. .
1509(42) 0.0 1665. .
1503(42) 0.000572 1658. 1658.
1576(43) 0.000546 1651. 1651.
1482(42) 0.000578 1644. 1644.
1558(43) 0.000548 1637. 1637.
1458(41) 0.000592 1630. 1630.
1461(41) 0.000592 1623. 1623.
1494(42) 0.000575 1616. 1616.
1533(42) 0.000556 1610. 1610.
1489(42) 0.000572 1603. 1603.
1507(42) 0.000567 1596. 1596.
1494(42) 0.000570 1590. 1590.
1491(42) 0.000572 1583. 1583.
1518(42) 0.000564 1577. 1577.
1612(43) 0.000533 1570. 1570.
1554(43) 0.000554 1564. 1564.
1485(42) 0.000578 1558. 1558.
1539(42) 0.000559 1552. 1552.
1481(42) 0.000578 1546. 1546.
1574(43) 0.000541 1540. 1540.
1548(43) 0.000548 1534. 1534.
1555(43) 0.000548 1528. 1528.
1601(43) 0.000536 1522. 1522.
1571(43) 0.000546 1517. 1517.
1540(42) 0.000556 1511. 1511.
1486(42) 0.000581 1506. 1506.
1500(42) 0.000575 1500. 1500.
1585(43) 0.000541 1495. 1495.
1586(43) 0.000536 1490. 1490.
1492(42) 0.000570 1485. 1485.
1565(43) 0.000543 1479. 1479.
1589(43) 0.000536 1474. 1474.
1507(42) 0.000564 1470. 1470.
1469(41) 0.000583 1465. 1465.
1514(42) 0.000567 1460. 1460.
1576(43) 0.000546 1455. 1455.
1499(42) 0.000572 1451. 1451.
1521(42) 0.000564 1446. 1446.
1508(42) 0.000567 1442. 1442.
1491(42) 0.000570 1438. 1438.
1509(42) 0.000562 1434. 1434.
1566(43) 0.000546 1429. 1429.
1513(42) 0.000567 1425. 1425.
1501(42) 0.000570 1421. 1421.
1502(42) 0.000570 1418. 1418.
1479(41) 0.000583 1414. 1414.
1497(42) 0.000578 1410. 1410.
1523(42) 0.000564 1406. 1406.
1498(42) 0.000570 1403. 1403.
1471(42) 0.000578 1399. 1399.
1464(41) 0.000583 1396. 1396.
1513(42) 0.000564 1393. 1393.
1525(42) 0.000559 1390. 1390.
1491(42) 0.000575 1386. 1386.
1541(42) 0.000559 1383. 1383.
1453(41) 0.000592 1380. 1380.
1487(42) 0.000578 1378. 1378.
1410(41) 0.000610 1375. 1375.
1449(41) 0.000592 1372. 1372.
1430(41) 0.000595 1369. 1369.
1412(41) 0.000601 1367. 1367.
1412(41) 0.000604 1364. 1364.
1469(41) 0.000583 1362. 1362.
1412(41) 0.000607 1359. 1359.
1445(41) 0.000592 1357. 1357.
1437(41) 0.000601 1355. 1355.
1439(41) 0.000601 1353. 1353.
1360(40) 0.000634 1351. 1351.
1418(41) 0.000604 1349. 1349.
1438(41) 0.000592 1347. 1347.
1402(41) 0.000610 1345. 1345.
1380(40) 0.000619 1343. 1343.
1390(40) 0.000613 1341. 1341.
1372(40) 0.000625 1339. 1339.
1359(40) 0.000634 1338. 1338.
1409(41) 0.000610 1336. 1336.
1379(40) 0.000622 1335. 1335.
1404(40) 0.000613 1333. 1333.
1375(40) 0.000622 1332. 1332.
1435(41) 0.000592 1330. 1330.
1306(39) 0.000651 1329. 1329.
1335(40) 0.000641 1328. 1328.
1426(41) 0.000601 1327. 1327.
1368(40) 0.000628 1326. 1326.
1361(40) 0.000628 1324. 1324.
1332(39) 0.000647 1323. 1323.
1311(39) 0.000657 1322. 1322.
1389(40) 0.000619 1321. 1321.
1328(40) 0.000641 1321. 1321.
1374(40) 0.000619 1320. 1320.
1334(40) 0.000641 1319. 1319.
1334(40) 0.000641 1318. 1318.
1349(40) 0.000631 1317. 1317.
1386(40) 0.000619 1317. 1317.
1388(40) 0.000622 1316. 1316.
1340(39) 0.000644 1316. 1316.
1324(39) 0.000647 1315. 1315.
1322(39) 0.000651 1314. 1314.
1301(39) 0.000657 1314. 1314.
1296(39) 0.000657 1313. 1313.
1309(39) 0.000647 1313. 1313.
1275(39) 0.000668 1313. 1313.
1298(39) 0.000661 1312. 1312.
1361(40) 0.000631 1312. 1312.
1240(38) 0.000689 1312. 1312.
1299(39) 0.000664 1311. 1311.
1347(40) 0.000641 1311. 1311.
1279(39) 0.000671 1311. 1311.
1299(39) 0.000657 1311. 1311.
1266(39) 0.000671 1311. 1311.
1326(40) 0.000641 1311. 1311.
1278(39) 0.000668 1310. 1310.
1236(38) 0.000689 1310. 1310.
1294(39) 0.000664 1310. 1310.
1241(38) 0.000693 1310. 1310.
1251(38) 0.000689 1310. 1310.
1308(39) 0.000654 1310. 1310.
1270(39) 0.000675 1310. 1310.
1274(39) 0.000671 1310. 1310.
1190(37) 0.000715 1310. 1310.
1298(39) 0.000654 1310. 1310.
1332(40) 0.000641 1310. 1310.
1219(38) 0.000704 1310. 1310.
1288(39) 0.000664 1311. 1311.
1283(39) 0.000668 1311. 1311.
1294(39) 0.000664 1311. 1311.
1284(39) 0.000671 1311. 1311.
1221(38) 0.000704 1311. 1311.
1274(39) 0.000668 1311. 1311.
1229(38) 0.000693 1311. 1311.
1235(38) 0.000689 1312. 1312.
1256(38) 0.000678 1312. 1312.
1233(38) 0.000693 1312. 1312.
1209(38) 0.000707 1312. 1312.
1272(39) 0.000675 1312. 1312.
1225(38) 0.000704 1312. 1313.
1198(37) 0.000715 1313. 1313.
1251(38) 0.000685 1313. 1313.
1180(37) 0.000727 1313. 1313.
1155(37) 0.000734 1313. 1313.
1193(38) 0.000711 1314. 1314.
1232(38) 0.000693 1314. 1314.
1230(38) 0.000696 1314. 1314.
1258(38) 0.000682 1314. 1314.
1255(38) 0.000682 1314. 1314.
1264(38) 0.000682 1315. 1315.
1203(37) 0.000719 1315. 1315.
1149(37) 0.000751 1315. 1315.
1258(38) 0.000678 1315. 1315.
1214(38) 0.000700 1315. 1315.
1221(38) 0.000700 1315. 1315.
1222(38) 0.000700 1316. 1316.
1213(38) 0.000704 1316. 1316.
1243(38) 0.000689 1316. 1316.
1228(38) 0.000700 1316. 1316.
1194(37) 0.000723 1316. 1316.
1241(38) 0.000693 1316. 1316.
1155(37) 0.000747 1316. 1317.
1275(39) 0.000675 1317. 1317.
1213(38) 0.000704 1317. 1317.
1229(38) 0.000693 1317. 1317.
1200(38) 0.000711 1317. 1317.
1158(37) 0.000742 1317. 1317.
1177(37) 0.000730 1317. 1317.
1108(36) 0.000772 1317. 1317.
1199(37) 0.000719 1317. 1317.
1190(37) 0.000727 1317. 1317.
1198(37) 0.000719 1317. 1317.
1264(39) 0.000675 1317. 1317.
1114(36) 0.000763 1317. 1317.
1221(38) 0.000700 1317. 1317.
1186(37) 0.000719 1317. 1317.
1116(36) 0.000767 1317. 1317.
1140(36) 0.000755 1317. 1317.
1161(37) 0.000742 1317. 1317.
1201(37) 0.000715 1317. 1317.
1079(35) 0.000798 1317. 1317.
1095(36) 0.000785 1317. 1317.
1217(38) 0.000704 1317. 1317.
1163(37) 0.000734 1316. 1316.
1227(38) 0.000693 1316. 1316.
1161(37) 0.000734 1316. 1316.
1142(37) 0.000751 1316. 1316.
1121(35) 0.000803 1316. 1316.
1178(36) 0.000789 1315. 1315.
1161(35) 0.000803 1315. 1315.
1145(35) 0.000816 1314.8 1314.8
1216(36) 0.000767 1315. 1315.
1177(36) 0.000785 1314. 1314.
1197(36) 0.000772 1314. 1314.
1146(35) 0.000807 1314. 1314.
1187(36) 0.000780 1313. 1313.
1164(36) 0.000793 1313. 1313.
1135(35) 0.000816 1312.5 1312.5
1162(35) 0.000803 1312. 1312.
1192(36) 0.000785 1312. 1312.
1170(35) 0.000798 1311. 1311.
1207(36) 0.000772 1311. 1311.
1152(35) 0.000807 1310. 1310.
1227(36) 0.000755 1310. 1310.
1225(36) 0.000755 1309. 1309.
1204(36) 0.000767 1309. 1309.
1194(36) 0.000776 1308. 1308.
1260(37) 0.000734 1308. 1308.
1176(36) 0.000789 1307. 1307.
1258(37) 0.000742 1306. 1306.
1281(37) 0.000727 1306. 1306.
1212(36) 0.000767 1305. 1305.
1256(37) 0.000738 1304. 1304.
1233(37) 0.000751 1304. 1304.
1171(36) 0.000789 1303. 1303.
1289(37) 0.000719 1302. 1302.
1314(38) 0.000700 1302. 1302.
1231(37) 0.000751 1301. 1301.
1294(37) 0.000719 1300. 1300.
1311(38) 0.000711 1299. 1299.
1325(38) 0.000700 1298. 1298.
1341(38) 0.000693 1298. 1298.
1360(38) 0.000682 1297. 1297.
1337(38) 0.000689 1296. 1296.
1363(39) 0.000675 1295. 1295.
1469(40) 0.000628 1294. 1294.
1419(39) 0.000654 1293. 1293.
1340(38) 0.000693 1292. 1292.
1414(39) 0.000654 1291. 1291.
1429(39) 0.000651 1290. 1290.
1458(40) 0.000638 1289. 1289.
1551(41) 0.000601 1288. 1288.
1565(41) 0.000592 1287. 1287.
1678(43) 0.000551 1286. 1286.
1642(42) 0.000562 1285. 1285.
1767(44) 0.000524 1284. 1284.
1743(44) 0.000528 1283. 1283.
1797(44) 0.000517 1282. 1282.
1846(45) 0.000503 1281. 1281.
2043(47) 0.000455 1280. 1280.
2022(47) 0.000459 1279. 1279.
2120(48) 0.000440 1277. 1277.
2189(49) 0.000423 1276. 1276.
2192(49) 0.000422 1275. 1275.
2312(50) 0.000398 1274. 1274.
2233(49) 0.000413 1273. 1273.
2220(49) 0.000416 1271. 1271.
2253(49) 0.000411 1270. 1270.
2104(48) 0.000440 1269. 1269.
2129(48) 0.000438 1268. 1268.
2058(47) 0.000453 1266. 1266.
2060(47) 0.000453 1265. 1265.
1993(46) 0.000464 1264. 1264.
1879(45) 0.000492 1262. 1262.
1898(45) 0.000487 1261. 1261.
1768(44) 0.000524 1259. 1259.
1828(45) 0.000505 1258. 1258.
1671(43) 0.000554 1257. 1257.
1667(42) 0.000559 1255. 1255.
1682(43) 0.000554 1254. 1254.
1553(41) 0.000598 1252. 1252.
1578(41) 0.000592 1251. 1251.
1563(41) 0.000595 1250. 1250.
1446(40) 0.000641 1248. 1248.
1463(40) 0.000631 1247. 1247.
1494(40) 0.000619 1245. 1245.
1388(39) 0.000668 1244. 1244.
1369(38) 0.000678 1242. 1242.
1338(38) 0.000693 1241. 1241.
1310(38) 0.000711 1239. 1239.
1369(38) 0.000685 1237. 1237.
1293(37) 0.000723 1236. 1236.
1272(37) 0.000730 1234. 1234.
1329(38) 0.000696 1233. 1233.
1220(36) 0.000759 1231. 1231.
1326(38) 0.000700 1230. 1230.
1241(37) 0.000742 1228. 1228.
1317(38) 0.000704 1226. 1226.
1226(36) 0.000759 1225. 1225.
1255(37) 0.000742 1223. 1223.
1252(37) 0.000742 1221. 1221.
1243(37) 0.000751 1220. 1220.
1180(36) 0.000789 1218. 1218.
1252(37) 0.000738 1216. 1216.
1206(36) 0.000763 1215. 1215.
1157(35) 0.000798 1213. 1213.
1142(35) 0.000812 1211. 1211.
1202(36) 0.000772 1210. 1210.
1193(36) 0.000776 1208. 1208.
1122(35) 0.000831 1206.4 1206.4
1222(36) 0.000763 1205. 1205.
1181(36) 0.000789 1203. 1203.
1142(35) 0.000812 1201. 1201.
1120(35) 0.000826 1199.5 1199.5
1205(36) 0.000767 1198. 1198.
1171(36) 0.000789 1196. 1196.
1116(35) 0.000826 1194.3 1194.3
1134(35) 0.000821 1192.5 1192.5
1086(34) 0.000855 1190.8 1190.8
1115(35) 0.000840 1189.0 1189.0
1089(34) 0.000855 1187.3 1187.3
1114(35) 0.000835 1185.5 1185.5
1129(35) 0.000826 1183.8 1183.8
1168(36) 0.000793 1182. 1182.
1113(35) 0.000835 1180.2 1180.2
1157(35) 0.000803 1178. 1178.
1149(35) 0.000807 1177. 1177.
1146(35) 0.000812 1175. 1175.
1094(34) 0.000850 1173.1 1173.1
1137(35) 0.000821 1171.3 1171.3
1075(34) 0.000870 1169.6 1169.6
1090(34) 0.000855 1167.8 1167.8
1072(34) 0.000865 1166.0 1166.0
1023(33) 0.000902 1164.2 1164.2
1099(35) 0.000840 1162.4 1162.4
1099(35) 0.000840 1160.6 1160.6
1087(34) 0.000850 1158.8 1158.8
1049(34) 0.000886 1157.0 1157.0
1056(34) 0.000881 1155.3 1155.3
1000(33) 0.000935 1153.5 1153.5
1074(34) 0.000865 1151.7 1151.7
1037(33) 0.000896 1149.9 1149.9
1083(34) 0.000860 1148.1 1148.1
1050(34) 0.000881 1146.3 1146.3
1090(34) 0.000845 1144.5 1144.5
1107(35) 0.000835 1142.7 1142.7
1012(33) 0.000918 1141.0 1141.0
988(33) 0.000941 1139.2 1139.2
996(33) 0.000930 1137.4 1137.4
1025(33) 0.000907 1135.6 1135.6
1055(34) 0.000886 1133.8 1133.8
1103(34) 0.000845 1132.1 1132.1
1032(33) 0.000896 1130.3 1130.3
1062(34) 0.000870 1128.5 1128.5
1063(34) 0.000870 1126.7 1126.8
1043(34) 0.000886 1125.0 1125.0
1093(34) 0.000845 1123.2 1123.2
1045(34) 0.000886 1121.5 1121.5
1027(33) 0.000907 1119.7 1119.7
1058(34) 0.000881 1118.0 1118.0
1045(34) 0.000891 1116.2 1116.2
1049(34) 0.000886 1114.5 1114.5
1035(33) 0.000896 1112.7 1112.7
1050(34) 0.000881 1111.0 1111.0
997(33) 0.000924 1109.2 1109.3
1034(33) 0.000896 1107.5 1107.5
1039(34) 0.000891 1105.8 1105.8
1015(33) 0.000913 1104.1 1104.1
1026(33) 0.000902 1102.4 1102.4
1023(33) 0.000913 1100.7 1100.7
972(32) 0.000964 1098.9 1099.0
1006(33) 0.000930 1097.2 1097.3
1054(34) 0.000881 1095.6 1095.6
986(33) 0.000941 1093.9 1093.9
997(33) 0.000930 1092.2 1092.2
1001(33) 0.000924 1090.5 1090.5
983(33) 0.000941 1088.8 1088.8
1025(33) 0.000907 1087.2 1087.2
1050(34) 0.000886 1085.5 1085.5
977(32) 0.000959 1083.9 1083.9
987(33) 0.000947 1082.2 1082.2
972(32) 0.000959 1080.6 1080.6
1075(34) 0.000865 1078.9 1078.9
1034(33) 0.000896 1077.3 1077.3
1032(34) 0.000891 1075.7 1075.7
1010(33) 0.000918 1074.1 1074.1
1024(33) 0.000907 1072.5 1072.5
1019(33) 0.000913 1070.8 1070.9
955(32) 0.000970 1069.3 1069.3
1082(34) 0.000865 1067.7 1067.7
1003(33) 0.000930 1066.1 1066.1
1025(33) 0.000913 1064.5 1064.5
1022(33) 0.000907 1062.9 1063.0
1071(34) 0.000865 1061.4 1061.4
1026(33) 0.000902 1059.8 1059.8
999(33) 0.000930 1058.3 1058.3
1020(33) 0.000907 1056.8 1056.8
970(32) 0.000959 1055.2 1055.2
1050(34) 0.000886 1053.7 1053.7
1070(34) 0.000875 1052.2 1052.2
987(33) 0.000947 1050.7 1050.7
986(33) 0.000947 1049.2 1049.2
1004(33) 0.000930 1047.7 1047.7
1009(33) 0.000918 1046.2 1046.2
983(33) 0.000941 1044.8 1044.8
958(32) 0.000964 1043.3 1043.3
940(32) 0.000989 1041.9 1041.9
982(33) 0.000947 1040.4 1040.4
1016(33) 0.000913 1039.0 1039.0
1058(34) 0.000881 1037.5 1037.5
964(32) 0.000970 1036.1 1036.1
997(33) 0.000935 1034.7 1034.7
1003(33) 0.000924 1033.3 1033.3
957(32) 0.000964 1031.9 1031.9
997(33) 0.000930 1030.5 1030.5
966(32) 0.000959 1029.2 1029.2
957(32) 0.000964 1027.8 1027.8
1023(33) 0.000907 1026.4 1026.4
978(32) 0.000953 1025.1 1025.1
973(32) 0.000959 1023.7 1023.7
982(33) 0.000947 1022.4 1022.4
986(33) 0.000947 1021.1 1021.1
990(33) 0.000941 1019.8 1019.8
990(33) 0.000935 1018.5 1018.5
964(32) 0.000953 1017.2 1017.2
974(33) 0.000947 1015.9 1015.9
1045(34) 0.000886 1014.6 1014.6
993(33) 0.000935 1013.3 1013.3
971(32) 0.000953 1012.1 1012.1
1000(33) 0.000935 1010.8 1010.8
964(32) 0.000970 1009.6 1009.6
1032(33) 0.000902 1008.4 1008.4
930(32) 0.000995 1007.1 1007.1
909(31) 0.001021 1005.9 1005.9
1061(34) 0.000870 1004.7 1004.7
948(32) 0.000977 1003.5 1003.5
1019(33) 0.000902 1002.3 1002.4
986(33) 0.000941 1001.2 1001.2
989(33) 0.000941 1000.0 1000.0
1041(33) 0.000896 998.9 998.9
990(33) 0.000941 997.7 997.7
975(32) 0.000953 996.6 996.6
955(32) 0.000970 995.4 995.4
1023(33) 0.000902 994.3 994.3
978(33) 0.000941 993.2 993.2
958(32) 0.000964 992.1 992.1
1035(33) 0.000896 991.0 991.0
972(32) 0.000953 989.9 989.9
1003(33) 0.000924 988.9 988.9
1020(33) 0.000913 987.8 987.8
1019(33) 0.000918 986.7 986.8
966(32) 0.000964 985.7 985.7
970(32) 0.000953 984.7 984.7
982(33) 0.000941 983.6 983.6
1045(34) 0.000886 982.6 982.6
984(33) 0.000941 981.6 981.6
1008(33) 0.000913 980.6 980.6
943(32) 0.000983 979.6 979.6
981(33) 0.000947 978.6 978.7
1026(33) 0.000907 977.7 977.7
981(33) 0.000947 976.7 976.7
940(32) 0.000989 975.8 975.8
964(32) 0.000964 974.8 974.8
978(33) 0.000947 973.9 973.9
925(32) 0.000995 973.0 973.0
941(32) 0.000983 972.0 972.0
987(33) 0.000941 971.1 971.1
986(33) 0.000941 970.2 970.2
916(31) 0.001014 969.3 969.3
955(32) 0.000977 968.5 968.5
967(32) 0.000964 967.6 967.6
967(32) 0.000964 966.7 966.7
933(32) 0.000995 965.9 965.9
986(33) 0.000935 965.0 965.0
974(33) 0.000947 964.2 964.2
1002(33) 0.000924 963.3 963.3
1033(34) 0.000891 962.5 962.5
984(33) 0.000941 961.7 961.7
958(32) 0.000970 960.9 960.9
998(33) 0.000935 960.1 960.1
1012(33) 0.000924 959.3 959.3
975(32) 0.000959 958.5 958.5
973(32) 0.000959 957.8 957.8
944(32) 0.000983 957.0 957.0
1029(33) 0.000896 956.2 956.2
1009(33) 0.000918 955.5 955.5
1067(34) 0.000870 954.8 954.8
961(32) 0.000964 954.0 954.0
1016(33) 0.000913 953.3 953.3
1043(33) 0.000896 952.6 952.6
1026(33) 0.000913 951.9 951.9
1060(34) 0.000881 951.2 951.2
1073(34) 0.000865 950.5 950.5
1004(33) 0.000924 949.8 949.8
1088(34) 0.000850 949.1 949.1
1120(35) 0.000826 948.5 948.5
1078(34) 0.000855 947.8 947.8
1037(33) 0.000896 947.1 947.1
1034(33) 0.000902 946.5 946.5
1024(33) 0.000913 945.9 945.9
991(33) 0.000941 945.2 945.2
1032(33) 0.000907 944.6 944.6
1025(33) 0.000907 944.0 944.0
998(33) 0.000930 943.4 943.4
1018(33) 0.000907 942.8 942.8
940(32) 0.000983 942.2 942.2
943(32) 0.000983 941.6 941.6
980(33) 0.000947 941.0 941.0
911(31) 0.001021 940.4 940.4
955(32) 0.000977 939.9 939.9
1021(33) 0.000918 939.3 939.3
956(32) 0.000977 938.7 938.7
950(32) 0.000977 938.2 938.2
937(32) 0.000989 937.7 937.7
961(32) 0.000964 937.1 937.1
918(32) 0.001008 936.6 936.6
944(32) 0.000977 936.1 936.1
996(33) 0.000930 935.6 935.6
940(32) 0.000989 935.0 935.0
940(32) 0.000995 934.5 934.5
1031(33) 0.000902 934.0 934.0
987(33) 0.000947 933.6 933.6
969(32) 0.000977 933.1 933.1
980(31) 0.001027 932.6 932.6
946(30) 0.001126 932.1 932.1
919(30) 0.001134 931.7 931.7
935(31) 0.001068 931.2 931.2
896(30) 0.001119 930.7 930.7
948(31) 0.001061 930.3 930.3
961(31) 0.001047 929.9 929.9
953(31) 0.001054 929.4 929.4
908(30) 0.001111 929.0 929.0
907(30) 0.001104 928.6 928.6
945(31) 0.001054 928.1 928.1
910(30) 0.001096 927.7 927.7
921(30) 0.001089 927.3 927.3
949(31) 0.001054 926.9 926.9
906(30) 0.001111 926.5 926.5
908(30) 0.001111 926.1 926.1
916(30) 0.001104 925.7 925.7
904(30) 0.001111 925.4 925.4
888(30) 0.001134 925.0 925.0
908(30) 0.001104 924.6 924.6
957(31) 0.001041 924.2 924.2
903(30) 0.001104 923.9 923.9
915(30) 0.001089 923.5 923.5
971(31) 0.001027 923.2 923.2
848(29) 0.001181 922.8 922.8
909(30) 0.001104 922.5 922.5
887(30) 0.001134 922.1 922.1
909(30) 0.001111 921.8 921.8
900(30) 0.001119 921.5 921.5
908(30) 0.001104 921.1 921.1
853(29) 0.001173 920.8 920.8
932(31) 0.001068 920.5 920.5
921(30) 0.001082 920.2 920.2
936(31) 0.001068 919.9 919.9
890(30) 0.001126 919.6 919.6
921(30) 0.001089 919.3 919.3
969(31) 0.001041 919.0 919.0
880(30) 0.001141 918.7 918.7
891(30) 0.001126 918.4 918.4
909(30) 0.001104 918.1 918.1
916(30) 0.001089 917.9 917.9
943(31) 0.001054 917.6 917.6
898(30) 0.001111 917.3 917.3
877(30) 0.001141 917.1 917.1
887(30) 0.001134 916.8 916.8
855(29) 0.001173 916.5 916.5
941(31) 0.001075 916.3 916.3
918(30) 0.001096 916.0 916.0
885(30) 0.001141 915.8 915.8
915(30) 0.001096 915.5 915.5
913(30) 0.001096 915.3 915.3
896(30) 0.001119 915.1 915.1
906(30) 0.001104 914.8 914.8
897(30) 0.001119 914.6 914.6
930(30) 0.001082 914.4 914.4
945(31) 0.001068 914.2 914.2
955(31) 0.001061 913.9 913.9
907(30) 0.001111 913.7 913.7
914(30) 0.001104 913.5 913.5
931(31) 0.001075 913.3 913.3
923(30) 0.001082 913.1 913.1
950(31) 0.001054 912.9 912.9
929(31) 0.001075 912.7 912.7
951(31) 0.001054 912.5 912.5
883(30) 0.001141 912.3 912.3
857(29) 0.001173 912.1 912.1
911(30) 0.001111 911.9 911.9
875(30) 0.001149 911.8 911.8
906(30) 0.001111 911.6 911.6
926(30) 0.001082 911.4 911.4
927(30) 0.001082 911.2 911.2
819(29) 0.001223 911.1 911.1
898(30) 0.001119 910.9 910.9
936(31) 0.001068 910.7 910.7
857(29) 0.001173 910.6 910.6
933(30) 0.001082 910.4 910.4
881(30) 0.001149 910.3 910.3
914(30) 0.001104 910.1 910.1
929(30) 0.001082 910.0 910.0
913(30) 0.001096 909.8 909.8
903(30) 0.001111 909.7 909.7
888(30) 0.001126 909.5 909.5
890(30) 0.001126 909.4 909.4
931(31) 0.001075 909.3 909.3
844(29) 0.001189 909.1 909.1
885(30) 0.001134 909.0 909.0
900(30) 0.001119 908.9 908.9
888(30) 0.001134 908.7 908.7
888(30) 0.001134 908.6 908.6
864(29) 0.001165 908.5 908.5
897(30) 0.001119 908.4 908.4
893(30) 0.001119 908.3 908.3
887(30) 0.001126 908.2 908.2
896(30) 0.001119 908.1 908.1
952(31) 0.001054 908.0 908.0
906(30) 0.001111 907.8 907.9
938(31) 0.001075 907.8 907.8
903(30) 0.001119 907.7 907.7
880(30) 0.001141 907.6 907.6
895(30) 0.001119 907.5 907.5
862(29) 0.001165 907.4 907.4
876(30) 0.001141 907.3 907.3
922(30) 0.001082 907.2 907.2
870(30) 0.001149 907.1 907.1
881(30) 0.001141 907.1 907.1
860(29) 0.001173 907.0 907.0
872(29) 0.001157 906.9 906.9
854(29) 0.001181 906.8 906.8
902(30) 0.001119 906.8 906.8
913(30) 0.001096 906.7 906.7
856(29) 0.001165 906.6 906.6
904(30) 0.001104 906.6 906.6
888(30) 0.001126 906.5 906.5
866(29) 0.001157 906.5 906.5
879(30) 0.001141 906.4 906.4
909(30) 0.001111 906.4 906.4
940(31) 0.001075 906.3 906.3
978(31) 0.001027 906.3 906.3
959(31) 0.001047 906.2 906.2
919(30) 0.001089 906.2 906.2
942(31) 0.001061 906.2 906.2
920(30) 0.001082 906.1 906.1
884(30) 0.001134 906.1 906.1
891(30) 0.001126 906.1 906.1
898(30) 0.001119 906.1 906.1
893(30) 0.001126 906.0 906.0
894(30) 0.001126 906.0 906.0
845(29) 0.001189 906.0 906.0
895(30) 0.001126 906.0 906.0
897(30) 0.001119 906.0 906.0
894(30) 0.001119 906.0 906.0
907(30) 0.001096 906.0 906.0
941(31) 0.001061 906.0 906.0
916(30) 0.001089 906.0 906.0
930(30) 0.001082 906.0 906.0
871(29) 0.001157 906.0 906.0
867(29) 0.001165 906.0 906.0
935(31) 0.001075 906.0 906.0
884(30) 0.001141 906.1 906.1
902(30) 0.001111 906.1 906.1
898(30) 0.001111 906.1 906.1
914(30) 0.001089 906.1 906.1
918(30) 0.001089 906.2 906.2
883(30) 0.001134 906.2 906.2
897(30) 0.001119 906.2 906.2
888(30) 0.001134 906.3 906.3
877(30) 0.001149 906.3 906.3
891(30) 0.001134 906.4 906.4
926(30) 0.001089 906.4 906.4
870(30) 0.001149 906.5 906.5
900(30) 0.001111 906.5 906.5
920(30) 0.001082 906.6 906.6
881(30) 0.001134 906.7 906.7
956(31) 0.001047 906.7 906.7
900(30) 0.001119 906.8 906.8
904(30) 0.001119 906.9 906.9
928(30) 0.001089 907.0 907.0
925(30) 0.001089 907.1 907.1
859(29) 0.001173 907.1 907.1
925(30) 0.001082 907.2 907.2
916(30) 0.001096 907.3 907.3
936(31) 0.001068 907.4 907.4
893(30) 0.001119 907.5 907.5
907(30) 0.001104 907.6 907.6
882(30) 0.001141 907.8 907.8
965(31) 0.001047 907.9 907.9
878(30) 0.001149 908.0 908.0
961(31) 0.001054 908.1 908.1
952(31) 0.001061 908.2 908.3
913(30) 0.001096 908.4 908.4
924(30) 0.001082 908.5 908.5
937(31) 0.001068 908.7 908.7
937(31) 0.001068 908.8 908.8
882(30) 0.001134 909.0 909.0
868(29) 0.001157 909.1 909.1
873(29) 0.001157 909.3 909.3
951(31) 0.001061 909.4 909.4
986(31) 0.001021 909.6 909.6
881(30) 0.001141 909.8 909.8
901(30) 0.001111 910.0 910.0
946(31) 0.001061 910.1 910.1
903(30) 0.001104 910.3 910.3
918(30) 0.001089 910.5 910.5
898(30) 0.001119 910.7 910.7
918(30) 0.001096 910.9 910.9
945(31) 0.001068 911.1 911.1
914(30) 0.001104 911.3 911.3
876(30) 0.001149 911.5 911.6
914(30) 0.001104 911.8 911.8
885(30) 0.001134 912.0 912.0
864(29) 0.001157 912.2 912.2
899(30) 0.001111 912.5 912.5
962(31) 0.001041 912.7 912.7
830(29) 0.001206 913.0 913.0
877(30) 0.001149 913.2 913.2
917(30) 0.001096 913.5 913.5
886(30) 0.001141 913.7 913.7
899(30) 0.001119 914.0 914.0
928(30) 0.001082 914.3 914.3
933(31) 0.001075 914.6 914.6
918(30) 0.001089 914.8 914.8
907(30) 0.001096 915.1 915.1
915(30) 0.001089 915.4 915.4
891(30) 0.001126 915.7 915.7
916(30) 0.001096 916.1 916.1
905(30) 0.001111 916.4 916.4
951(31) 0.001061 916.7 916.7
874(29) 0.001157 917.0 917.0
944(31) 0.001068 917.4 917.4
954(31) 0.001047 917.7 917.7
902(30) 0.001104 918.0 918.0
907(30) 0.001104 918.4 918.4
946(31) 0.001054 918.8 918.8
928(31) 0.001075 919.1 919.1
932(31) 0.001075 919.5 919.5
939(31) 0.001075 919.9 919.9
904(30) 0.001119 920.3 920.3
953(31) 0.001054 920.6 920.7
928(30) 0.001082 921.0 921.1
856(29) 0.001173 921.5 921.5
926(30) 0.001082 921.9 921.9
943(31) 0.001054 922.3 922.3
944(31) 0.001061 922.7 922.7
903(30) 0.001111 923.1 923.1
971(31) 0.001034 923.6 923.6
938(31) 0.001068 924.0 924.0
924(30) 0.001089 924.5 924.5
911(30) 0.001104 924.9 924.9
932(30) 0.001082 925.4 925.4
936(31) 0.001068 925.9 925.9
927(31) 0.001075 926.4 926.4
1017(32) 0.000983 926.9 926.9
908(30) 0.001104 927.4 927.4
934(31) 0.001068 927.9 927.9
908(30) 0.001104 928.4 928.4
948(31) 0.001061 928.9 928.9
955(31) 0.001054 929.4 929.4
923(30) 0.001089 930.0 930.0
949(31) 0.001061 930.5 930.5
957(31) 0.001047 931.1 931.1
968(31) 0.001034 931.6 931.6
968(31) 0.001027 932.2 932.2
981(31) 0.001021 932.8 932.8
940(31) 0.001068 933.3 933.3
960(31) 0.001047 933.9 933.9
975(31) 0.001034 934.5 934.5
949(31) 0.001061 935.1 935.1
895(30) 0.001126 935.8 935.8
920(30) 0.001096 936.4 936.4
915(30) 0.001096 937.0 937.0
955(31) 0.001047 937.6 937.7
931(31) 0.001075 938.3 938.3
941(31) 0.001068 939.0 939.0
875(30) 0.001141 939.6 939.6
931(30) 0.001082 940.3 940.3
989(31) 0.001021 941.0 941.0
930(30) 0.001089 941.7 941.7
998(32) 0.001008 942.4 942.4
883(30) 0.001141 943.1 943.1
961(31) 0.001047 943.8 949.7
892(30) 0.001119 944.5 950.9
995(32) 0.001001 945.3 952.1
957(31) 0.001047 946.0 953.3
1019(32) 0.000983 946.8 954.6
997(32) 0.001008 947.5 956.0
921(30) 0.001096 948.3 957.5
986(31) 0.001027 949.1 959.1
956(31) 0.001054 949.9 960.8
969(31) 0.001041 950.7 962.6
973(31) 0.001027 951.5 964.7
950(31) 0.001054 952.3 966.9
1013(32) 0.000989 953.1 969.3
1027(32) 0.000977 954.0 972.1
961(31) 0.001041 954.8 975.2
955(31) 0.001054 955.7 978.8
1030(32) 0.000977 956.5 983.0
971(31) 0.001041 957.4 988.0
978(31) 0.001027 958.3 994.0
979(31) 0.001027 959.2 1001.4
1104(33) 0.000907 960.1 1010.9
1097(33) 0.000913 961.0 1023.2
1119(34) 0.000891 961.9 1039.8
1215(35) 0.000826 962.8 1063.5
1256(35) 0.000798 964. 1102.
1363(37) 0.000738 965. 1182.
1727(41) 0.000583 966. 1400.
2405(49) 0.000420 967. 1994.
4286(65) 0.0002345 968. 3350.
8622(93) 0.0001159 969. 5651.
15010(120) 0.0000656 970. 7950.
13630(120) 0.0000722 971. 8007.
6684(82) 0.0001487 972. 5403.
3015(55) 0.0003318 973. 2850.
1912(44) 0.000524 974. 1627.
1457(38) 0.000689 975. 1252.
1287(36) 0.000785 976. 1145.
1177(34) 0.000860 977.0 1098.3
1112(33) 0.000907 978.1 1070.2
1054(32) 0.000953 979.2 1051.5
1106(33) 0.000907 980.3 1038.6
1083(33) 0.000924 981.4 1029.3
1046(32) 0.000953 982.5 1022.6
1026(32) 0.000977 983.6 1017.7
1057(33) 0.000947 984.8 1014.1
1059(32) 0.000953 985.9 1011.4
1028(32) 0.000977 987.1 1009.4
1083(33) 0.000930 988.3 1008.0
949(31) 0.001061 989.5 1007.0
1039(32) 0.000970 990.7 1006.4
1014(32) 0.000983 991.9 1006.1
975(31) 0.001027 993.1 1006.0
1017(32) 0.000983 994.4 1006.0
1000(32) 0.001001 995.6 1006.3
1027(32) 0.000970 996.9 1006.6
910(29) 0.001197 998.1 1007.1
947(31) 0.001061 999.4 1007.7
988(31) 0.001021 1000.7 1008.4
998(32) 0.001008 1002.0 1009.2
1031(32) 0.000977 1003.3 1010.0
1000(32) 0.001001 1004.6 1010.9
954(31) 0.001047 1006.0 1006.0
1002(32) 0.000995 1007.3 1007.3
1016(32) 0.000983 1008.7 1008.7
1007(32) 0.000995 1010.0 1010.0
1031(32) 0.000977 1011.4 1011.4
1022(32) 0.000983 1012.8 1012.8
986(31) 0.001021 1014.2 1014.2
1061(33) 0.000947 1015.6 1015.6
1050(32) 0.000959 1017.0 1017.0
1006(32) 0.000995 1018.5 1018.5
982(31) 0.001014 1019.9 1019.9
1049(32) 0.000953 1021.4 1021.4
1011(32) 0.000989 1022.8 1022.8
1036(32) 0.000964 1024.3 1024.3
1029(32) 0.000977 1025.8 1025.8
1010(32) 0.000995 1027.3 1027.3
963(31) 0.001047 1028.8 1028.8
1036(32) 0.000970 1030.3 1030.3
986(31) 0.001021 1031.9 1031.9
1008(32) 0.000995 1033.4 1033.4
1019(32) 0.000983 1035.0 1035.0
1034(32) 0.000964 1036.5 1036.5
1041(32) 0.000959 1038.1 1038.1
1043(32) 0.000959 1039.7 1039.7
1070(33) 0.000941 1041.3 1041.3
1082(33) 0.000930 1042.9 1042.9
1044(32) 0.000964 1044.5 1044.5
1032(32) 0.000977 1046.2 1046.2
1077(33) 0.000935 1047.8 1047.8
1048(32) 0.000953 1049.5 1049.5
1024(32) 0.000977 1051.1 1051.2
1066(33) 0.000935 1052.8 1052.8
1108(33) 0.000902 1054.5 1054.5
1095(33) 0.000913 1056.2 1056.2
1107(33) 0.000907 1057.9 1057.9
1040(32) 0.000970 1059.7 1059.7
1006(32) 0.001008 1061.4 1061.4
1050(32) 0.000959 1063.2 1063.2
1140(34) 0.000886 1064.9 1064.9
1062(33) 0.000947 1066.7 1066.7
1072(33) 0.000935 1068.5 1068.5
1138(34) 0.000875 1070.3 1070.3
1114(33) 0.000896 1072.1 1072.1
1144(34) 0.000875 1073.9 1073.9
1126(34) 0.000891 1075.7 1075.7
1095(33) 0.000918 1077.6 1077.6
1067(33) 0.000947 1079.4 1079.4
1155(34) 0.000875 1081.3 1081.3
1174(34) 0.000860 1083.1 1083.1
1173(34) 0.000855 1085.0 1085.0
1155(34) 0.000865 1086.9 1086.9
1130(34) 0.000886 1088.8 1088.8
1178(34) 0.000850 1090.7 1090.7
1174(34) 0.000850 1092.7 1092.7
1132(34) 0.000886 1094.6 1094.6
1150(34) 0.000875 1096.6 1096.6
1179(34) 0.000855 1098.5 1098.5
1199(35) 0.000840 1100.5 1100.5
1165(34) 0.000865 1102.5 1102.5
1177(34) 0.000850 1104.5 1104.5
1134(34) 0.000881 1106.5 1106.5
1122(34) 0.000886 1108.5 1108.5
1130(34) 0.000886 1110.5 1110.5
1214(35) 0.000826 1112.6 1112.6
1190(34) 0.000845 1114.6 1114.6
1112(33) 0.000907 1116.7 1116.7
1210(35) 0.000835 1118.8 1118.8
1141(34) 0.000886 1120.8 1120.8
1148(34) 0.000875 1122.9 1122.9
1178(34) 0.000850 1125.0 1125.0
1135(34) 0.000881 1127.1 1127.2
1129(34) 0.000886 1129.3 1129.3
1171(34) 0.000860 1131.4 1131.4
1294(36) 0.000776 1134. 1134.
1226(35) 0.000821 1135.7 1135.7
1204(35) 0.000835 1137.9 1137.9
1161(34) 0.000870 1140.1 1140.1
1230(35) 0.000816 1142.3 1142.3
1220(35) 0.000826 1144.5 1144.5
1176(34) 0.000850 1146.7 1146.7
1170(34) 0.000855 1148.9 1148.9
1219(35) 0.000816 1151.1 1151.1
1144(34) 0.000875 1153.4 1153.4
1177(34) 0.000850 1155.6 1155.6
1150(34) 0.000875 1157.9 1157.9
1244(35) 0.000807 1160. 1160.
1224(35) 0.000826 1162.4 1162.4
1136(34) 0.000886 1164.7 1164.7
1174(34) 0.000855 1167.0 1167.0
1173(34) 0.000855 1169.3 1169.3
1200(35) 0.000831 1171.7 1171.7
1159(34) 0.000860 1174.0 1174.0
1181(34) 0.000845 1176.3 1176.3
1141(34) 0.000875 1178.7 1178.7
1210(35) 0.000831 1181.1 1181.1
1210(35) 0.000831 1183.4 1183.4
1186(34) 0.000850 1185.8 1185.8
1201(35) 0.000835 1188.2 1188.2
1285(36) 0.000780 1191. 1191.
1218(35) 0.000821 1193.0 1193.0
1230(35) 0.000812 1195. 1195.
1224(35) 0.000816 1197.9 1197.9
1229(35) 0.000812 1200. 1200.
1220(35) 0.000821 1202.8 1202.8
1236(35) 0.000812 1205. 1205.
1235(35) 0.000812 1208. 1208.
1212(35) 0.000831 1210.2 1210.2
1172(34) 0.000860 1212.7 1212.7
1237(35) 0.000812 1215. 1215.
1233(35) 0.000812 1218. 1218.
1213(35) 0.000821 1220.2 1220.2
1183(34) 0.000845 1222.7 1222.7
1142(34) 0.000875 1225.2 1225.2
1178(34) 0.000850 1227.8 1227.8
1256(35) 0.000798 1230. 1230.
1222(35) 0.000826 1232.9 1232.9
1265(35) 0.000798 1235. 1235.
1155(34) 0.000870 1238.0 1238.0
1157(34) 0.000870 1240.6 1240.6
1213(35) 0.000826 1243.2 1243.2
1216(35) 0.000821 1245.8 1245.8
1212(35) 0.000821 1248.4 1248.4
1212(35) 0.000826 1251.0 1251.1
1195(35) 0.000840 1253.7 1253.7
1197(35) 0.000840 1256.3 1256.3
1157(34) 0.000870 1259.0 1259.0
1217(35) 0.000831 1261.6 1261.6
1191(34) 0.000845 1264.3 1264.3
1223(35) 0.000826 1266.9 1266.9
1262(36) 0.000793 1270. 1270.
1203(35) 0.000831 1272.3 1272.3
1217(35) 0.000821 1275.0 1275.0
1207(35) 0.000831 1277.7 1277.7
1219(35) 0.000821 1280.4 1280.4
1200(35) 0.000840 1283.1 1283.1
1248(35) 0.000807 1286. 1286.
1243(35) 0.000812 1289. 1289.
1180(34) 0.000855 1291.3 1291.3
1176(34) 0.000855 1294.0 1294.0
1198(35) 0.000835 1296.8 1296.8
1209(35) 0.000826 1299.6 1299.6
1197(35) 0.000835 1302.3 1302.3
1174(34) 0.000850 1305.1 1305.1
1185(34) 0.000845 1307.9 1307.9
1244(35) 0.000807 1311. 1311.
1220(35) 0.000826 1313.5 1313.5
1306(36) 0.000772 1316. 1316.
1238(35) 0.000816 1319.1 1319.1
1238(35) 0.000816 1321.9 1321.9
1215(35) 0.000826 1324.7 1324.7
1190(35) 0.000840 1327.5 1327.5
1198(35) 0.000835 1330.4 1330.4
1225(35) 0.000816 1333.2 1333.2
1224(35) 0.000816 1336.0 1336.0
1249(35) 0.000803 1339. 1339.
1144(34) 0.000881 1341.8 1341.8
1226(35) 0.000821 1344.6 1344.6
1217(35) 0.000826 1347.5 1347.5
1299(36) 0.000776 1350. 1350.
1299(36) 0.000772 1353. 1353.
1304(36) 0.000767 1356. 1356.
1385(37) 0.000719 1359. 1359.
1309(36) 0.000763 1362. 1362.
1321(36) 0.000759 1365. 1365.
1308(36) 0.000767 1368. 1368.
1315(36) 0.000763 1371. 1371.
1257(35) 0.000803 1374. 1374.
1276(36) 0.000789 1376. 1376.
1276(36) 0.000789 1379. 1379.
1224(35) 0.000816 1382.3 1382.3
1263(36) 0.000793 1385. 1385.
1281(36) 0.000780 1388. 1388.
1239(35) 0.000807 1391. 1391.
1196(35) 0.000840 1394.1 1394.1
1251(35) 0.000803 1397. 1397.
1259(35) 0.000798 1400. 1400.
1274(36) 0.000793 1403. 1403.
1171(34) 0.000860 1406.0 1406.0
1268(36) 0.000793 1409. 1409.
1355(37) 0.000738 1412. 1412.
1391(37) 0.000719 1415. 1415.
1414(38) 0.000704 1418. 1418.
1386(37) 0.000723 1421. 1421.
1380(37) 0.000727 1424. 1424.
1261(35) 0.000798 1427. 1427.
1262(36) 0.000793 1430. 1430.
1252(35) 0.000807 1433. 1433.
1157(34) 0.000870 1435.9 1435.9
1231(35) 0.000816 1438.9 1438.9
1210(35) 0.000826 1441.9 1441.9
1244(35) 0.000803 1445. 1445.
1236(35) 0.000807 1448. 1448.
1208(35) 0.000826 1450.9 1451.0
1278(36) 0.000780 1454. 1454.
1260(35) 0.000798 1457. 1457.
1207(35) 0.000835 1460.0 1460.0
1266(35) 0.000798 1463. 1463.
1201(35) 0.000835 1466.1 1466.1
1209(35) 0.000831 1469.1 1469.1
1171(34) 0.000855 1472.2 1472.2
1266(36) 0.000789 1475. 1475.
1242(35) 0.000803 1478. 1478.
1226(35) 0.000816 1481.3 1481.3
1270(36) 0.000789 1484. 1484.
1242(35) 0.000807 1487. 1487.
1300(36) 0.000772 1490. 1490.
1280(36) 0.000789 1493. 1493.
1265(36) 0.000793 1497. 1497.
1300(36) 0.000772 1500. 1500.
1282(36) 0.000780 1503. 1503.
1244(35) 0.000803 1506. 1506.
1304(36) 0.000763 1509. 1509.
1214(35) 0.000821 1511.8 1511.8
1204(35) 0.000831 1514.9 1514.9
1298(36) 0.000772 1518. 1518.
1275(36) 0.000789 1521. 1521.
1306(36) 0.000772 1524. 1524.
1320(36) 0.000763 1527. 1527.
1296(36) 0.000776 1530. 1530.
1324(36) 0.000755 1533. 1533.
1302(36) 0.000767 1536. 1536.
1333(37) 0.000747 1539. 1539.
1317(36) 0.000759 1542. 1542.
1319(36) 0.000759 1545. 1546.
1255(35) 0.000803 1549. 1549.
1357(37) 0.000738 1552. 1552.
1351(37) 0.000747 1555. 1555.
1309(36) 0.000772 1558. 1558.
1346(37) 0.000747 1561. 1561.
1320(36) 0.000759 1564. 1564.
1320(36) 0.000755 1567. 1567.
1293(36) 0.000772 1570. 1570.
1333(37) 0.000751 1573. 1573.
1322(36) 0.000755 1576. 1576.
1401(37) 0.000719 1579. 1579.
1395(37) 0.000723 1582. 1582.
1325(36) 0.000763 1585. 1585.
1321(36) 0.000763 1588. 1588.
1386(37) 0.000727 1591. 1591.
1369(37) 0.000730 1594. 1594.
1370(37) 0.000730 1597. 1597.
1404(38) 0.000711 1600. 1600.
1403(38) 0.000711 1604. 1604.
1378(37) 0.000727 1607. 1607.
1331(36) 0.000755 1610. 1610.
1395(37) 0.000723 1613. 1613.
1380(37) 0.000730 1616. 1616.
1426(38) 0.000707 1619. 1619.
1401(37) 0.000719 1622. 1622.
1442(38) 0.000696 1625. 1625.
1439(38) 0.000696 1628. 1628.
1468(38) 0.000682 1631. 1631.
1416(38) 0.000707 1634. 1634.
1486(39) 0.000675 1637. 1637.
1446(38) 0.000696 1640. 1640.
1476(38) 0.000682 1643. 1643.
1437(38) 0.000704 1646. 1646.
1513(39) 0.000664 1649. 1649.
1528(39) 0.000657 1652. 1652.
1430(38) 0.000700 1655. 1655.
1522(39) 0.000657 1658. 1658.
1553(40) 0.000641 1661. 1661.
1484(39) 0.000675 1664. 1664.
1513(39) 0.000664 1667. 1667.
1566(39) 0.000644 1670. 1670.
1562(39) 0.000644 1673. 1673.
1567(39) 0.000644 1676. 1676.
1647(40) 0.000613 1679. 1679.
1577(40) 0.000638 1682. 1682.
1648(41) 0.000607 1685. 1685.
1671(41) 0.000598 1688. 1688.
1581(40) 0.000631 1690. 1690.
1676(41) 0.000598 1693. 1693.
1636(41) 0.000610 1696. 1696.
1824(43) 0.000551 1699. 1699.
1891(43) 0.000533 1702. 1702.
1733(41) 0.000583 1705. 1705.
1827(43) 0.000551 1708. 1708.
1773(42) 0.000567 1711. 1711.
1726(42) 0.000581 1714. 1714.
1799(43) 0.000554 1717. 1717.
1772(42) 0.000562 1720. 1720.
1837(43) 0.000543 1723. 1723.
1858(43) 0.000538 1725. 1725.
1858(43) 0.000541 1728. 1728.
1944(44) 0.000517 1731. 1731.
1923(44) 0.000524 1734. 1734.
1968(44) 0.000512 1737. 1737.
1960(44) 0.000512 1740. 1740.
2029(43) 0.000533 1743. 1743.
2054(45) 0.000485 1745. 1745.
2026(45) 0.000492 1748. 1748.
2080(46) 0.000479 1751. 1751.
2210(47) 0.000451 1754. 1754.
2324(48) 0.000430 1757. 1757.
2308(48) 0.000434 1759. 1759.
2313(48) 0.000436 1762. 1762.
2307(48) 0.000434 1765. 1765.
2443(49) 0.000410 1768. 1768.
2442(50) 0.000408 1771. 1771.
2535(50) 0.000394 1773. 1773.
2599(51) 0.000381 1776. 1776.
2683(52) 0.000371 1779. 1779.
2679(52) 0.000373 1782. 1782.
2737(52) 0.000366 1784. 1784.
2710(52) 0.000370 1787. 1787.
2787(53) 0.000360 1790. 1790.
2830(53) 0.000355 1793. 1793.
2940(54) 0.0003404 1795. 1795.
3093(56) 0.0003223 1798. 1798.
3073(56) 0.0003235 1801. 1801.
3051(55) 0.0003258 1803. 1803.
3066(56) 0.0003246 1806. 1806.
3123(56) 0.0003189 1809. 1809.
3248(57) 0.0003078 1811. 1811.
3310(58) 0.0003025 1814. 1814.
3362(58) 0.0002993 1817. 1817.
3362(58) 0.0002983 1819. 1819.
3380(58) 0.0002962 1822. 1822.
3397(58) 0.0002932 1825. 1825.
3382(58) 0.0002942 1827. 1827.
3348(58) 0.0002962 1830. 1830.
3506(59) 0.0002844 1832. 1832.
3481(59) 0.0002873 1835. 1835.
3411(58) 0.0002942 1837. 1837.
3431(59) 0.0002922 1840. 1840.
3313(57) 0.0003035 1843. 1843.
3277(57) 0.0003067 1845. 1845.
3358(58) 0.0002993 1848. 1848.
3169(56) 0.0003144 1850. 1850.
3383(58) 0.0002942 1853. 1853.
3222(57) 0.0003089 1855. 1855.
3242(57) 0.0003078 1858. 1858.
3122(56) 0.0003200 1860. 1860.
2972(55) 0.0003367 1863. 1863.
2990(55) 0.0003367 1865. 1865.
2916(54) 0.0003455 1868. 1868.
2860(53) 0.0003507 1870. 1870.
2894(54) 0.0003468 1872. 1872.
2900(54) 0.0003455 1875. 1875.
2821(53) 0.000353 1877. 1877.
2704(52) 0.000368 1880. 1880.
2725(52) 0.000366 1882. 1882.
2624(51) 0.000381 1884. 1884.
2657(52) 0.000377 1887. 1887.
2508(50) 0.000400 1889. 1889.
2440(49) 0.000413 1891. 1891.
2445(49) 0.000411 1894. 1894.
2335(48) 0.000430 1896. 1896.
2426(49) 0.000411 1898. 1898.
2410(49) 0.000413 1901. 1901.
2331(48) 0.000429 1903. 1903.
2305(48) 0.000434 1905. 1905.
2258(48) 0.000441 1908. 1908.
2241(47) 0.000447 1910. 1910.
2242(47) 0.000449 1912. 1912.
2128(46) 0.000475 1914. 1914.
2154(46) 0.000466 1917. 1917.
2137(46) 0.000471 1919. 1919.
2111(46) 0.000475 1921. 1921.
2136(46) 0.000469 1923. 1923.
2062(46) 0.000483 1925. 1925.
1980(45) 0.000505 1928. 1928.
2009(45) 0.000498 1930. 1930.
2032(45) 0.000494 1932. 1932.
1921(44) 0.000524 1934. 1934.
1927(44) 0.000524 1936. 1936.
1948(44) 0.000517 1938. 1938.
1926(44) 0.000521 1940. 1940.
1876(43) 0.000533 1942. 1942.
1895(44) 0.000528 1944. 1944.
1831(43) 0.000548 1947. 1947.
1839(43) 0.000543 1949. 1950.
1874(43) 0.000533 1951. 1952.
1800(42) 0.000559 1953. 1955.
1807(42) 0.000556 1955. 1957.
1861(43) 0.000543 1957. 1959.
1863(43) 0.000541 1959. 1961.
1778(42) 0.000564 1961. 1963.
1812(43) 0.000551 1963. 1965.
1806(43) 0.000554 1964. 1967.
1842(43) 0.000541 1966. 1969.
1772(42) 0.000564 1968. 1971.
1787(42) 0.000559 1970. 1973.
1781(42) 0.000564 1972. 1975.
1826(43) 0.000548 1974. 1977.
1752(42) 0.000575 1976. 1979.
1810(42) 0.000556 1978. 1981.
1758(42) 0.000570 1980. 1983.
1724(42) 0.000578 1981. 1985.
1779(42) 0.000562 1983. 1987.
1798(43) 0.000554 1985. 1990.
1826(43) 0.000546 1987. 1992.
1886(44) 0.000528 1989. 1994.
1835(43) 0.000546 1990. 1996.
1804(42) 0.000556 1992. 1998.
1818(43) 0.000554 1994. 2000.
1804(42) 0.000556 1996. 2002.
1787(42) 0.000562 1997. 2005.
1780(42) 0.000562 1999. 2007.
1848(43) 0.000538 2001. 2009.
1813(43) 0.000548 2002. 2012.
1845(43) 0.000541 2004. 2014.
1819(43) 0.000551 2006. 2017.
1825(43) 0.000548 2007. 2020.
1807(43) 0.000554 2009. 2023.
1768(42) 0.000570 2011. 2026.
1819(43) 0.000554 2012. 2030.
1910(44) 0.000526 2014. 2034.
1900(44) 0.000526 2015. 2039.
1856(43) 0.000536 2017. 2044.
1812(43) 0.000551 2018. 2050.
1785(42) 0.000559 2020. 2057.
1779(42) 0.000562 2021. 2066.
1806(42) 0.000556 2023. 2078.
1902(44) 0.000528 2024. 2094.
1861(43) 0.000541 2026. 2120.
1964(44) 0.000512 2027. 2168.
2101(46) 0.000479 2029. 2270.
2316(48) 0.000432 2030. 2479.
2668(52) 0.000374 2032. 2848.
3208(57) 0.0003100 2033. 3365.
3641(61) 0.0002732 2034. 3866.
3594(60) 0.0002778 2036. 4065.
2937(54) 0.0003417 2037. 3779.
2412(49) 0.000416 2038. 3229.
2110(46) 0.000477 2040. 2732.
1921(44) 0.000524 2041. 2408.
1872(43) 0.000538 2042. 2240.
1882(43) 0.000531 2044. 2164.
1882(43) 0.000531 2045. 2129.
1813(43) 0.000551 2046. 2111.
1784(42) 0.000559 2047. 2099.
1895(44) 0.000526 2049. 2091.
1796(42) 0.000559 2050. 2085.
1804(42) 0.000556 2051. 2081.
1768(42) 0.000570 2052. 2078.
1762(42) 0.000572 2053. 2076.
1808(42) 0.000556 2055. 2074.
1806(43) 0.000554 2056. 2073.
1790(42) 0.000559 2057. 2072.
1803(43) 0.000551 2058. 2072.
1781(42) 0.000562 2059. 2071.
1781(42) 0.000562 2060. 2071.
1805(42) 0.000556 2061. 2071.
1733(42) 0.000581 2062. 2071.
1804(42) 0.000559 2063. 2072.
1781(42) 0.000567 2064. 2072.
1798(42) 0.000559 2065. 2072.
1804(43) 0.000554 2066. 2073.
1790(42) 0.000559 2067. 2073.
1843(43) 0.000541 2068. 2074.
1789(42) 0.000559 2069. 2075.
1798(42) 0.000556 2070. 2075.
1871(43) 0.000536 2071. 2076.
1782(42) 0.000564 2072. 2076.
1831(43) 0.000551 2073. 2077.
1831(43) 0.000548 2074. 2078.
1817(43) 0.000554 2075. 2078.
1745(42) 0.000575 2076. 2079.
1760(42) 0.000567 2076. 2080.
1814(43) 0.000548 2077. 2080.
1895(44) 0.000526 2078. 2081.
1809(43) 0.000554 2079. 2082.
1755(42) 0.000572 2080. 2082.
1799(42) 0.000559 2080. 2083.
1740(42) 0.000581 2081. 2084.
1909(44) 0.000526 2082. 2084.
1843(43) 0.000546 2083. 2085.
1901(44) 0.000526 2083. 2085.
1857(43) 0.000536 2084. 2086.
1894(44) 0.000526 2085. 2087.
1914(44) 0.000521 2085. 2087.
1920(44) 0.000521 2086. 2088.
1889(43) 0.000531 2087. 2087.
1843(43) 0.000546 2087. 2087.
1988(44) 0.000507 2088. 2088.
1823(43) 0.000551 2088. 2088.
1855(43) 0.000541 2089. 2089.
1906(44) 0.000526 2090. 2090.
1871(43) 0.000533 2090. 2090.
1944(44) 0.000512 2091. 2091.
1849(43) 0.000541 2091. 2091.
1902(44) 0.000526 2092. 2092.
1922(44) 0.000521 2092. 2092.
1972(44) 0.000510 2093. 2093.
1970(44) 0.000512 2093. 2093.
2024(45) 0.000496 2094. 2094.
2018(45) 0.000498 2094. 2094.
2093(46) 0.000477 2095. 2095.
2090(46) 0.000477 2095. 2095.
2090(46) 0.000477 2095. 2095.
1933(44) 0.000517 2096. 2096.
1997(45) 0.000500 2096. 2096.
2046(45) 0.000489 2097. 2097.
2154(46) 0.000466 2097. 2097.
2144(46) 0.000469 2097. 2097.
2171(47) 0.000462 2097. 2098.
2270(48) 0.000441 2098. 2098.
2166(47) 0.000460 2098. 2098.
2235(47) 0.000445 2098. 2098.
2207(47) 0.000451 2099. 2099.
2300(48) 0.000434 2099. 2099.
2278(48) 0.000440 2099. 2099.
2233(47) 0.000449 2099. 2099.
2428(49) 0.000413 2100. 2100.
2432(49) 0.000413 2100. 2100.
2470(50) 0.000406 2100. 2100.
2510(50) 0.000400 2100. 2100.
2616(51) 0.000381 2100. 2100.
2609(51) 0.000381 2100. 2100.
2764(53) 0.000360 2101. 2101.
2773(53) 0.000360 2101. 2101.
2777(53) 0.000359 2101. 2101.
2871(54) 0.0003481 2101. 2101.
2905(54) 0.0003455 2101. 2101.
2969(54) 0.0003392 2101. 2101.
3167(56) 0.0003166 2101. 2101.
3220(57) 0.0003111 2101. 2101.
3207(57) 0.0003111 2101. 2101.
3199(57) 0.0003111 2101. 2101.
3150(56) 0.0003155 2101. 2101.
3138(56) 0.0003177 2101. 2101.
3038(55) 0.0003294 2101. 2101.
3028(55) 0.0003318 2101. 2101.
2999(55) 0.0003342 2101. 2101.
2871(53) 0.0003507 2101. 2101.
2871(54) 0.0003494 2101. 2101.
2867(53) 0.0003507 2101. 2101.
2800(53) 0.000356 2101. 2101.
2626(51) 0.000380 2100. 2100.
2601(51) 0.000383 2100. 2100.
2606(51) 0.000383 2100. 2100.
2483(50) 0.000402 2100. 2100.
2442(49) 0.000411 2100. 2100.
2393(49) 0.000420 2100. 2100.
2281(48) 0.000441 2100. 2100.
2362(49) 0.000425 2099. 2099.
2352(48) 0.000427 2099. 2099.
2252(47) 0.000445 2099. 2099.
2237(47) 0.000447 2099. 2099.
2302(48) 0.000432 2098. 2098.
2251(48) 0.000443 2098. 2098.
2170(47) 0.000460 2098. 2098.
2182(47) 0.000460 2098. 2098.
2233(47) 0.000449 2097. 2097.
2162(46) 0.000466 2097. 2097.
2103(46) 0.000479 2097. 2097.
2127(46) 0.000473 2096. 2096.
2055(45) 0.000487 2096. 2096.
2150(46) 0.000464 2096. 2096.
2150(46) 0.000464 2095. 2095.
2145(46) 0.000466 2095. 2095.
2187(47) 0.000457 2094. 2094.
2209(47) 0.000455 2094. 2094.
2080(46) 0.000483 2094. 2094.
2098(46) 0.000481 2093. 2093.
2040(45) 0.000494 2093. 2093.
1995(45) 0.000503 2092. 2092.
2006(45) 0.000498 2092. 2092.
2043(45) 0.000489 2091. 2091.
2048(45) 0.000485 2091. 2091.
1981(45) 0.000505 2090. 2090.
2029(45) 0.000494 2090. 2090.
2015(45) 0.000498 2089. 2089.
2026(45) 0.000496 2089. 2089.
2126(46) 0.000475 2088. 2088.
1972(44) 0.000512 2088. 2088.
2003(45) 0.000503 2087. 2087.
1981(45) 0.000505 2086. 2086.
1993(45) 0.000500 2086. 2086.
1884(44) 0.000528 2085. 2085.
1984(45) 0.000503 2085. 2085.
1932(44) 0.000517 2084. 2084.
1943(44) 0.000517 2083. 2083.
1979(44) 0.000507 2083. 2083.
1926(44) 0.000524 2082. 2082.
1969(44) 0.000510 2082. 2082.
1960(44) 0.000512 2081. 2081.
1996(45) 0.000500 2080. 2080.
1996(45) 0.000500 2079. 2079.
1851(43) 0.000538 2079. 2079.
1981(45) 0.000503 2078. 2078.
1918(44) 0.000521 2077. 2077.
1905(44) 0.000526 2077. 2077.
1894(43) 0.000536 2076. 2076.
1949(43) 0.000551 2075. 2075.
1913(44) 0.000526 2074. 2074.
1946(44) 0.000517 2074. 2074.
1859(43) 0.000536 2073. 2073.
1951(44) 0.000510 2072. 2072.
1969(45) 0.000505 2071. 2071.
1958(44) 0.000510 2070. 2070.
1947(44) 0.000512 2070. 2070.
1960(44) 0.000510 2069. 2069.
1948(44) 0.000514 2068. 2068.
1972(44) 0.000510 2067. 2067.
1953(44) 0.000514 2066. 2066.
1953(44) 0.000514 2065. 2065.
1908(44) 0.000524 2065. 2065.
1921(44) 0.000519 2064. 2064.
1926(44) 0.000517 2063. 2063.
1849(43) 0.000538 2062. 2062.
1844(43) 0.000541 2061. 2061.
1872(43) 0.000536 2060. 2060.
1922(44) 0.000521 2059. 2059.
1908(44) 0.000528 2058. 2058.
1862(43) 0.000538 2057. 2057.
1990(45) 0.000505 2056. 2056.
1946(44) 0.000512 2055. 2055.
1989(45) 0.000500 2054. 2054.
1894(44) 0.000526 2053. 2053.
1910(44) 0.000521 2053. 2053.
1877(43) 0.000531 2052. 2052.
1945(44) 0.000514 2051. 2051.
1859(43) 0.000541 2050. 2050.
1825(43) 0.000551 2049. 2049.
1915(44) 0.000524 2048. 2048.
1906(44) 0.000526 2046. 2046.
1889(44) 0.000528 2045. 2045.
1887(44) 0.000528 2044. 2044.
1877(43) 0.000531 2043. 2043.
1870(43) 0.000533 2042. 2042.
1894(44) 0.000528 2041. 2041.
1856(43) 0.000541 2040. 2040.
1898(44) 0.000528 2039. 2039.
1884(43) 0.000533 2038. 2038.
1842(43) 0.000546 2037. 2037.
1866(43) 0.000538 2036. 2036.
1886(44) 0.000528 2035. 2035.
1956(44) 0.000510 2034. 2034.
1958(44) 0.000510 2033. 2033.
2051(45) 0.000485 2031. 2031.
2111(46) 0.000473 2030. 2030.
2054(45) 0.000487 2029. 2029.
1912(44) 0.000526 2028. 2028.
1888(43) 0.000533 2027. 2027.
1879(43) 0.000536 2026. 2026.
1892(43) 0.000531 2025. 2025.
1849(43) 0.000541 2023. 2023.
1941(44) 0.000514 2022. 2022.
1869(43) 0.000533 2021. 2021.
1954(44) 0.000512 2020. 2020.
1906(44) 0.000526 2019. 2019.
1845(43) 0.000543 2017. 2017.
1863(43) 0.000538 2016. 2016.
1890(43) 0.000533 2015. 2015.
1820(43) 0.000554 2014. 2014.
1886(43) 0.000533 2013. 2013.
1902(44) 0.000526 2011. 2011.
1971(45) 0.000505 2010. 2010.
1848(43) 0.000538 2009. 2009.
1940(44) 0.000514 2008. 2008.
1934(44) 0.000517 2006. 2006.
1864(43) 0.000538 2005. 2005.
1783(42) 0.000564 2004. 2004.
1959(44) 0.000514 2003. 2003.
1875(43) 0.000536 2001. 2001.
1878(43) 0.000533 2000. 2000.
1860(43) 0.000538 1999. 1999.
1942(44) 0.000514 1998. 1998.
1915(44) 0.000519 1996. 1996.
1886(44) 0.000528 1995. 1995.
1922(44) 0.000521 1994. 1994.
1966(44) 0.000510 1992. 1993.
1854(43) 0.000541 1991. 1991.
1957(44) 0.000514 1990. 1990.
1863(43) 0.000543 1989. 1989.
1926(44) 0.000521 1987. 1987.
1866(43) 0.000536 1986. 1986.
1915(44) 0.000521 1985. 1985.
1920(44) 0.000519 1983. 1983.
1920(44) 0.000521 1982. 1982.
1853(43) 0.000538 1981. 1981.
1892(43) 0.000531 1979. 1979.
1961(44) 0.000512 1978. 1978.
1969(44) 0.000512 1977. 1977.
1906(44) 0.000526 1975. 1975.
1944(44) 0.000517 1974. 1974.
1891(44) 0.000528 1973. 1973.
1878(43) 0.000531 1971. 1971.
1943(44) 0.000512 1970. 1970.
1879(43) 0.000531 1969. 1969.
1899(44) 0.000526 1967. 1967.
1921(44) 0.000521 1966. 1966.
2007(45) 0.000500 1964. 1965.
1977(44) 0.000510 1963. 1963.
1940(44) 0.000519 1962. 1962.
1962(44) 0.000512 1960. 1960.
1980(45) 0.000503 1959. 1959.
1964(44) 0.000507 1958. 1958.
1951(44) 0.000510 1956. 1956.
1971(44) 0.000507 1955. 1955.
1985(45) 0.000503 1953. 1953.
1939(44) 0.000517 1952. 1952.
1957(44) 0.000512 1951. 1951.
1917(44) 0.000526 1949. 1949.
1951(44) 0.000514 1948. 1948.
1958(44) 0.000512 1947. 1947.
1970(44) 0.000507 1945. 1945.
1897(44) 0.000526 1944. 1944.
1996(45) 0.000498 1942. 1942.
1986(45) 0.000503 1941. 1941.
2021(45) 0.000494 1940. 1940.
2104(46) 0.000477 1938. 1938.
2057(45) 0.000487 1937. 1937.
2028(45) 0.000496 1935. 1935.
2051(45) 0.000489 1934. 1934.
2055(45) 0.000487 1933. 1933.
2035(45) 0.000489 1931. 1931.
2025(45) 0.000492 1930. 1930.
2067(46) 0.000481 1928. 1928.
1993(45) 0.000500 1927. 1927.
2000(45) 0.000498 1925. 1925.
2110(46) 0.000475 1924. 1924.
2016(45) 0.000498 1923. 1923.
2026(45) 0.000498 1921. 1921.
2044(45) 0.000492 1920. 1920.
1953(44) 0.000514 1918. 1918.
2005(45) 0.000498 1917. 1917.
1995(45) 0.000500 1916. 1916.
2138(46) 0.000466 1914. 1914.
2099(46) 0.000475 1913. 1913.
2194(47) 0.000457 1911. 1911.
2158(46) 0.000464 1910. 1910.
2121(46) 0.000473 1908. 1908.
2155(46) 0.000466 1907. 1907.
2154(46) 0.000466 1906. 1906.
2199(47) 0.000457 1904. 1904.
2216(47) 0.000451 1903. 1903.
2159(47) 0.000460 1901. 1901.
2240(47) 0.000445 1900. 1900.
2238(47) 0.000447 1899. 1899.
2464(50) 0.000405 1897. 1897.
2299(48) 0.000436 1896. 1896.
2395(49) 0.000420 1894. 1894.
2474(50) 0.000406 1893. 1893.
2561(51) 0.000392 1891. 1892.
2532(50) 0.000397 1890. 1890.
2629(51) 0.000380 1889. 1889.
2738(52) 0.000364 1887. 1887.
2686(52) 0.000370 1886. 2943.
2753(53) 0.000361 1884. 3014.
2728(52) 0.000367 1883. 3094.
2838(53) 0.000353 1882. 3183.
2887(54) 0.0003481 1880. 3282.
2957(54) 0.0003404 1879. 3393.
3061(55) 0.0003282 1877. 3518.
3229(57) 0.0003111 1876. 3659.
3240(57) 0.0003078 1875. 3821.
3466(59) 0.0002873 1873. 4005.
3739(61) 0.0002661 1872. 4217.
3907(63) 0.0002552 1870. 4463.
4077(64) 0.0002441 1869. 4751.
4370(66) 0.0002289 1868. 5089.
4803(69) 0.0002088 1866. 5490.
5074(71) 0.0001978 1865. 5972.
5627(75) 0.0001778 1864. 6557.
6214(79) 0.0001606 1862. 7277.
7113(85) 0.0001397 1861. 8175.
8183(91) 0.0001210 1859. 9315.
9800(100) 0.0001006 1858. 10792.
11690(110) 0.0000843 1857. 12750.
14910(120) 0.0000660 1855. 15423.
19640(140) 0.0000499 1854. 19219.
27310(170) 0.0000355 1853. 25071.
41070(210) 0.0000233 1851. 36003.
68620(270) 0.0000134 1850. 62338.
128770(390) 6.64e-6 1849. 130299.
262580(600) 2.803e-6 1847. 277045.
517110(940) 1.130e-6 1846. 499636.
748600(1200) 6.58e-7 1844. 679900.
649200(1100) 8.15e-7 1843. 640171.
391680(780) 1.662e-6 1842. 414989.
204590(510) 3.83e-6 1840. 208067.
105450(350) 8.35e-6 1839. 93857.
58280(250) 0.0000160 1838. 47530.
36220(190) 0.0000265 1836. 30257.
24320(160) 0.0000400 1835. 22293.
17780(140) 0.0000550 1834. 17501.
13500(120) 0.0000728 1832. 14228.
10980(110) 0.0000895 1831. 11876.
8991(95) 0.0001099 1830. 10129.
7787(89) 0.0001274 1829. 8798.
6751(82) 0.0001476 1827. 7761.
6160(79) 0.0001619 1826. 6937.
5453(74) 0.0001836 1825. 6273.
5094(71) 0.0001967 1823. 5729.
4832(70) 0.0002064 1822. 5279.
4835(70) 0.0002053 1821. 4901.
4671(69) 0.0002119 1819. 4582.
4567(68) 0.0002175 1818. 4309.
4261(66) 0.0002331 1817. 4075.
3783(62) 0.0002627 1816. 3871.
3489(59) 0.0002863 1814. 3694.
3340(58) 0.0003004 1813. 3538.
3145(56) 0.0003189 1812. 3401.
3077(55) 0.0003258 1811. 3279.
2861(54) 0.0003494 1809. 3170.
2813(53) 0.000355 1808. 3073.
2776(53) 0.000359 1807. 2985.
2698(52) 0.000368 1806. 2906.
2684(52) 0.000371 1804. 1804.
2592(51) 0.000384 1803. 1803.
2480(50) 0.000403 1802. 1802.
2436(49) 0.000411 1801. 1801.
2350(48) 0.000427 1799. 1799.
2393(49) 0.000420 1798. 1798.
2399(49) 0.000418 1797. 1797.
2330(48) 0.000427 1796. 1796.
2303(48) 0.000432 1795. 1795.
2220(47) 0.000449 1793. 1793.
2221(47) 0.000449 1792. 1792.
2155(47) 0.000462 1791. 1791.
2148(46) 0.000466 1790. 1790.
2079(46) 0.000483 1789. 1789.
2108(46) 0.000477 1788. 1788.
2080(46) 0.000483 1786. 1786.
2074(46) 0.000483 1785. 1785.
2110(46) 0.000475 1784. 1784.
2017(45) 0.000494 1783. 1783.
1983(45) 0.000500 1782. 1782.
2067(46) 0.000483 1781. 1781.
2035(45) 0.000492 1780. 1780.
1943(44) 0.000517 1778. 1778.
1983(45) 0.000505 1777. 1777.
1913(44) 0.000526 1776. 1776.
1884(43) 0.000533 1775. 1775.
1869(43) 0.000536 1774. 1774.
1929(44) 0.000517 1773. 1773.
1890(44) 0.000526 1772. 1772.
1895(44) 0.000526 1771. 1771.
1849(43) 0.000538 1770. 1770.
2022(45) 0.000494 1768. 1768.
1834(43) 0.000546 1767. 1767.
1905(44) 0.000528 1766. 1766.
1839(43) 0.000548 1765. 1765.
1806(42) 0.000556 1764. 1764.
1847(43) 0.000543 1763. 1763.
1853(43) 0.000541 1762. 1762.
1789(42) 0.000559 1761. 1761.
1834(43) 0.000543 1760. 1760.
1934(44) 0.000517 1759. 1759.
1853(43) 0.000541 1758. 1758.
1781(42) 0.000564 1757. 1757.
1853(43) 0.000541 1756. 1756.
1853(43) 0.000543 1755. 1755.
1798(42) 0.000562 1754. 1754.
1864(43) 0.000538 1753. 1753.
1902(44) 0.000526 1752. 1752.
1797(42) 0.000556 1751. 1751.
1893(44) 0.000526 1750. 1750.
1838(43) 0.000543 1749. 1749.
1759(42) 0.000567 1748. 1748.
1767(42) 0.000567 1747. 1747.
1777(42) 0.000567 1746. 1746.
1810(42) 0.000556 1745. 1745.
1829(43) 0.000548 1744. 1744.
1808(42) 0.000556 1743. 1743.
1838(43) 0.000543 1742. 1742.
1779(42) 0.000559 1742. 1742.
1798(43) 0.000554 1741. 1741.
1832(43) 0.000543 1740. 1740.
1802(42) 0.000556 1739. 1739.
1817(43) 0.000554 1738. 1738.
1801(42) 0.000559 1737. 1737.
1744(42) 0.000578 1736. 1736.
1755(42) 0.000575 1735. 1735.
1666(41) 0.000604 1734. 1734.
1746(42) 0.000572 1734. 1734.
1848(43) 0.000538 1733. 1733.
1747(42) 0.000570 1732. 1732.
1761(42) 0.000567 1731. 1731.
1739(42) 0.000575 1730. 1730.
1711(41) 0.000586 1729. 1729.
1804(42) 0.000556 1728. 1728.
1745(42) 0.000578 1728. 1728.
1708(41) 0.000589 1727. 1727.
1766(42) 0.000567 1726. 1726.
1668(41) 0.000601 1725. 1725.
1648(41) 0.000607 1724. 1724.
1749(42) 0.000570 1724. 1724.
1697(41) 0.000589 1723. 1723.
1653(41) 0.000607 1722. 1722.
1724(42) 0.000581 1721. 1721.
1657(41) 0.000607 1721. 1721.
1648(39) 0.000661 1720. 1720.
1625(40) 0.000619 1719. 1719.
1628(40) 0.000616 1718. 1718.
1635(41) 0.000610 1718. 1718.
1670(41) 0.000595 1717. 1717.
1678(41) 0.000592 1716. 1716.
1626(40) 0.000613 1715. 1715.
1659(41) 0.000601 1715. 1715.
1604(40) 0.000625 1714. 1714.
1642(40) 0.000613 1713. 1713.
1671(41) 0.000604 1713. 1713.
1647(41) 0.000610 1712. 1712.
1688(41) 0.000592 1711. 1711.
1662(41) 0.000601 1711. 1711.
1672(41) 0.000595 1710. 1710.
1668(41) 0.000595 1709. 1709.
1630(41) 0.000610 1709. 1709.
1586(40) 0.000631 1708. 1708.
1743(42) 0.000575 1707. 1707.
1705(41) 0.000586 1707. 1707.
1652(41) 0.000607 1706. 1706.
1720(41) 0.000583 1706. 1706.
1696(41) 0.000592 1705. 1705.
1665(41) 0.000598 1704. 1704.
1680(41) 0.000592 1704. 1704.
1678(41) 0.000592 1703. 1703.
1690(41) 0.000589 1703. 1703.
1643(41) 0.000607 1702. 1702.
1676(41) 0.000598 1702. 1702.
1645(41) 0.000610 1701. 1701.
1641(40) 0.000613 1700. 1700.
1654(41) 0.000607 1700. 1700.
1627(40) 0.000616 1699. 1699.
1675(41) 0.000595 1699. 1699.
1497(39) 0.000664 1698. 1698.
1708(41) 0.000583 1698. 1698.
1620(40) 0.000616 1697. 1697.
1643(41) 0.000607 1697. 1697.
1600(40) 0.000628 1696. 1696.
1625(40) 0.000619 1696. 1696.
1571(40) 0.000641 1695. 1695.
1716(41) 0.000586 1695. 1695.
1672(41) 0.000601 1694. 1694.
1627(40) 0.000613 1694. 1694.
1589(40) 0.000628 1693. 1693.
1640(41) 0.000607 1693. 1693.
1622(40) 0.000616 1693. 1693.
1697(41) 0.000589 1692. 1692.
1744(42) 0.000575 1692. 1692.
1650(41) 0.000610 1691. 1691.
1722(41) 0.000586 1691. 1691.
1743(42) 0.000575 1691. 1691.
1722(41) 0.000583 1690. 1690.
1726(42) 0.000581 1690. 1690.
1834(43) 0.000543 1689. 1689.
1854(43) 0.000538 1689. 1689.
1849(43) 0.000538 1689. 1689.
1753(42) 0.000572 1688. 1688.
1762(42) 0.000570 1688. 1688.
1784(42) 0.000562 1688. 1688.
1690(41) 0.000595 1687. 1687.
1680(41) 0.000598 1687. 1687.
1738(42) 0.000578 1687. 1687.
1789(42) 0.000559 1686. 1686.
1593(40) 0.000625 1686. 1686.
1612(40) 0.000619 1686. 1686.
1628(40) 0.000613 1685. 1685.
1622(40) 0.000616 1685. 1685.
1601(40) 0.000625 1685. 1685.
1647(41) 0.000610 1684. 1684.
1706(41) 0.000592 1684. 1684.
1603(40) 0.000628 1684. 1684.
1591(40) 0.000631 1684. 1684.
1616(40) 0.000619 1683. 1683.
1610(40) 0.000619 1683. 1683.
1613(40) 0.000619 1683. 1683.
1561(40) 0.000641 1683. 1683.
1612(40) 0.000628 1682. 1682.
1629(40) 0.000616 1682. 1682.
1568(40) 0.000641 1682. 1682.
1633(40) 0.000616 1682. 1682.
1611(40) 0.000625 1681. 1681.
1622(40) 0.000619 1681. 1681.
1610(40) 0.000622 1681. 1681.
1644(41) 0.000607 1681. 1681.
1597(40) 0.000625 1681. 1681.
1576(40) 0.000634 1681. 1681.
1567(40) 0.000638 1680. 1680.
1530(39) 0.000654 1680. 1680.
1658(41) 0.000607 1680. 1680.
1626(40) 0.000619 1680. 1680.
1582(40) 0.000634 1680. 1680.
1676(41) 0.000598 1680. 1680.
1665(41) 0.000601 1679. 1679.
1676(41) 0.000595 1679. 1679.
1619(40) 0.000616 1679. 1679.
1660(41) 0.000601 1679. 1679.
1647(41) 0.000607 1679. 1679.
1685(41) 0.000595 1679. 1679.
1701(41) 0.000589 1679. 1679.
1543(39) 0.000651 1679. 1679.
1557(39) 0.000644 1679. 1679.
1565(40) 0.000641 1679. 1679.
1585(40) 0.000628 1679. 1679.
1539(39) 0.000647 1678. 1678.
1520(39) 0.000654 1678. 1678.
1556(40) 0.000641 1678. 1678.
1532(39) 0.000651 1678. 1678.
1514(39) 0.000661 1678. 1678.
1496(39) 0.000671 1678. 1678.
1562(39) 0.000644 1678. 1678.
1561(39) 0.000644 1678. 1678.
1564(40) 0.000641 1678. 1678.
1514(39) 0.000657 1678. 1678.
1553(40) 0.000641 1678. 1678.
1553(40) 0.000641 1678. 1678.
1602(40) 0.000622 1678. 1678.
1521(39) 0.000657 1678. 1678.
1512(39) 0.000661 1678. 1678.
1526(39) 0.000657 1678. 1678.
1500(39) 0.000671 1678. 1678.
1553(39) 0.000647 1678. 1678.
1536(39) 0.000654 1678. 1678.
1579(40) 0.000631 1678. 1678.
1523(39) 0.000654 1678. 1678.
1552(40) 0.000641 1678. 1678.
1621(40) 0.000616 1679. 1679.
1554(40) 0.000641 1679. 1679.
1542(39) 0.000651 1679. 1679.
1537(39) 0.000654 1679. 1679.
1523(39) 0.000661 1679. 1679.
1434(38) 0.000700 1679. 1679.
1591(40) 0.000631 1679. 1679.
1536(39) 0.000651 1679. 1679.
1567(40) 0.000638 1679. 1679.
1563(40) 0.000638 1679. 1679.
1475(39) 0.000675 1679. 1679.
1545(39) 0.000647 1680. 1680.
1561(39) 0.000644 1680. 1680.
1620(40) 0.000619 1680. 1680.
1584(40) 0.000634 1680. 1680.
1604(40) 0.000628 1680. 1680.
1581(40) 0.000634 1680. 1680.
1551(39) 0.000644 1680. 1680.
1580(40) 0.000631 1680. 1680.
1566(40) 0.000634 1681. 1681.
1546(39) 0.000644 1681. 1681.
1572(40) 0.000634 1681. 1681.
1609(40) 0.000622 1681. 1681.
1606(40) 0.000625 1681. 1757.
1567(39) 0.000644 1682. 1762.
1599(40) 0.000628 1682. 1768.
1591(40) 0.000631 1682. 1775.
1547(39) 0.000647 1682. 1782.
1626(40) 0.000613 1682. 1791.
1591(40) 0.000625 1682. 1800.
1667(41) 0.000598 1683. 1810.
1629(40) 0.000613 1683. 1822.
1600(40) 0.000628 1683. 1835.
1638(40) 0.000613 1683. 1851.
1712(41) 0.000589 1684. 1869.
1571(40) 0.000641 1684. 1889.
1619(40) 0.000622 1684. 1914.
1769(42) 0.000564 1684. 1942.
1689(41) 0.000589 1685. 1977.
1776(42) 0.000562 1685. 2018.
1804(43) 0.000554 1685. 2069.
1885(44) 0.000528 1685. 2133.
1989(45) 0.000505 1686. 2213.
2037(45) 0.000494 1686. 2317.
2240(47) 0.000449 1686. 2453.
2406(49) 0.000418 1686. 2639.
2846(53) 0.000352 1687. 2902.
3532(60) 0.0002825 1687. 3310.
4667(69) 0.0002125 1687. 4079.
6586(82) 0.0001502 1687. 5864.
10610(100) 0.0000928 1688. 10124.
17670(130) 0.0000554 1688. 18649.
30410(180) 0.0000318 1688. 31048.
45420(220) 0.0000209 1689. 41211.
45440(220) 0.0000209 1689. 39751.
29810(180) 0.0000325 1689. 27907.
16280(130) 0.0000605 1690. 15977.
8964(95) 0.0001103 1690. 8596.
5788(77) 0.0001709 1690. 5181.
3884(63) 0.0002560 1691. 3799.
3169(56) 0.0003144 1691. 3179.
2796(53) 0.000356 1691. 2825.
2385(49) 0.000420 1692. 2589.
2255(47) 0.000445 1692. 2419.
2090(46) 0.000483 1692. 2293.
2059(45) 0.000487 1693. 2197.
1997(45) 0.000503 1693. 2122.
1915(44) 0.000521 1693. 2063.
1874(43) 0.000531 1694. 2016.
1902(44) 0.000528 1694. 1977.
1779(42) 0.000567 1694. 1944.
1778(42) 0.000562 1695. 1918.
1669(41) 0.000601 1695. 1895.
1687(41) 0.000595 1695. 1876.
1711(41) 0.000586 1696. 1859.
1713(41) 0.000586 1696. 1845.
1717(41) 0.000583 1697. 1832.
1645(41) 0.000607 1697. 1822.
1693(41) 0.000589 1697. 1812.
1751(42) 0.000567 1698. 1804.
1700(41) 0.000586 1698. 1796.
1735(42) 0.000575 1698. 1790.
1671(41) 0.000601 1699. 1784.
1651(41) 0.000607 1699. 1779.
1721(41) 0.000586 1700. 1700.
1691(41) 0.000592 1700. 1700.
1725(42) 0.000581 1700. 1700.
1733(42) 0.000575 1701. 1701.
1803(43) 0.000551 1701. 1701.
1665(41) 0.000598 1702. 1702.
1734(42) 0.000575 1702. 1702.
1803(43) 0.000554 1702. 1702.
1739(42) 0.000575 1703. 1703.
1768(42) 0.000567 1703. 1703.
1720(41) 0.000583 1704. 1704.
1789(42) 0.000562 1704. 1704.
1802(42) 0.000556 1705. 1705.
1783(42) 0.000559 1705. 1705.
1864(43) 0.000533 1705. 1705.
1810(43) 0.000548 1706. 1706.
1759(42) 0.000567 1706. 1706.
1818(43) 0.000548 1707. 1707.
1852(43) 0.000541 1707. 1707.
1969(44) 0.000510 1708. 1708.
1920(44) 0.000524 1708. 1708.
1989(45) 0.000505 1708. 1708.
2053(45) 0.000487 1709. 1709.
2092(46) 0.000477 1709. 1709.
2034(45) 0.000489 1710. 1710.
2055(46) 0.000483 1710. 1710.
2174(47) 0.000459 1711. 1711.
2124(46) 0.000471 1711. 1711.
2184(47) 0.000459 1712. 1712.
2248(47) 0.000445 1712. 1712.
2299(48) 0.000438 1713. 1713.
2308(48) 0.000436 1713. 1713.
2346(48) 0.000427 1713. 1713.
2324(48) 0.000429 1714. 1714.
2537(51) 0.000392 1714. 1714.
2455(50) 0.000405 1715. 1715.
2604(51) 0.000383 1715. 1715.
2665(52) 0.000374 1716. 1716.
2656(52) 0.000377 1716. 1716.
2645(51) 0.000380 1717. 1717.
2484(50) 0.000405 1717. 1717.
2497(50) 0.000402 1718. 1718.
2422(49) 0.000413 1718. 1718.
2524(50) 0.000395 1719. 1719.
2402(49) 0.000415 1719. 1719.
2395(49) 0.000415 1719. 1719.
2277(48) 0.000438 1720. 1720.
2225(47) 0.000449 1720. 1720.
2203(47) 0.000455 1721. 1721.
2101(46) 0.000477 1721. 1721.
2042(45) 0.000494 1722. 1722.
2102(46) 0.000479 1722. 1722.
1941(44) 0.000517 1723. 1723.
1981(45) 0.000503 1723. 1723.
1864(43) 0.000533 1724. 1724.
1790(42) 0.000556 1724. 1724.
1866(43) 0.000536 1725. 1725.
1853(43) 0.000538 1725. 1725.
1741(42) 0.000575 1726. 1726.
1792(42) 0.000562 1726. 1726.
1785(42) 0.000564 1727. 1727.
1740(42) 0.000578 1727. 1727.
1828(43) 0.000548 1728. 1728.
1755(42) 0.000570 1728. 1728.
1764(42) 0.000564 1728. 1728.
1656(41) 0.000601 1729. 1729.
1593(40) 0.000628 1729. 1729.
1703(41) 0.000589 1730. 1730.
1691(41) 0.000595 1730. 1730.
1685(41) 0.000595 1731. 1731.
1634(40) 0.000616 1731. 1731.
1604(40) 0.000628 1732. 1732.
1583(40) 0.000634 1732. 1732.
1621(40) 0.000616 1733. 1733.
1661(41) 0.000601 1733. 1733.
1604(40) 0.000622 1734. 1734.
1589(40) 0.000628 1734. 1734.
1589(40) 0.000628 1735. 1735.
1662(41) 0.000604 1735. 1735.
1538(39) 0.000654 1736. 1736.
1617(40) 0.000622 1736. 1736.
1590(40) 0.000631 1737. 1737.
1566(40) 0.000641 1737. 1737.
1544(39) 0.000647 1737. 1737.
1569(40) 0.000634 1738. 1738.
1582(40) 0.000628 1738. 1738.
1556(38) 0.000696 1739. 1739.
1570(40) 0.000638 1739. 1739.
1599(40) 0.000628 1740. 1740.
1549(39) 0.000647 1740. 1740.
1591(40) 0.000631 1741. 1741.
1572(40) 0.000638 1741. 1741.
1532(39) 0.000654 1742. 1742.
1659(41) 0.000601 1742. 1742.
1623(40) 0.000613 1743. 1743.
1752(42) 0.000567 1743. 1743.
1756(42) 0.000567 1744. 1744.
2024(45) 0.000492 1744. 1744.
2346(49) 0.000425 1744. 1744.
2401(49) 0.000418 1745. 1745.
2261(47) 0.000445 1745. 1745.
2070(45) 0.000485 1746. 1746.
1853(43) 0.000541 1746. 1746.
1710(41) 0.000583 1747. 1747.
1658(41) 0.000601 1747. 1747.
1660(41) 0.000598 1748. 1748.
1607(40) 0.000619 1748. 1748.
1649(41) 0.000604 1749. 1749.
1623(40) 0.000616 1749. 1749.
1557(39) 0.000644 1749. 1749.
1600(40) 0.000628 1750. 1750.
1613(40) 0.000622 1750. 1750.
1634(40) 0.000613 1751. 1751.
1625(40) 0.000613 1751. 1751.
1610(40) 0.000616 1752. 1752.
1596(40) 0.000622 1752. 1752.
1695(41) 0.000589 1752. 1752.
1594(40) 0.000625 1753. 1753.
1576(40) 0.000634 1753. 1753.
1664(41) 0.000604 1754. 1754.
1589(40) 0.000634 1754. 1754.
1587(40) 0.000631 1755. 1755.
1563(40) 0.000641 1755. 1755.
1607(40) 0.000622 1755. 1755.
1653(41) 0.000601 1756. 1756.
1591(40) 0.000625 1756. 1756.
1588(40) 0.000628 1757. 1757.
1572(40) 0.000634 1757. 1757.
1535(39) 0.000654 1757. 1757.
1613(40) 0.000622 1758. 1758.
1559(39) 0.000644 1758. 1758.
1503(39) 0.000668 1759. 1759.
1620(40) 0.000619 1759. 1759.
1627(40) 0.000613 1760. 1760.
1674(41) 0.000595 1760. 1760.
1635(41) 0.000610 1760. 1760.
1598(40) 0.000625 1761. 1761.
1629(40) 0.000613 1761. 1761.
1646(41) 0.000610 1761. 1761.
1659(41) 0.000604 1762. 1762.
1697(41) 0.000592 1762. 1762.
1702(41) 0.000589 1763. 1763.
1719(41) 0.000583 1763. 1763.
1774(42) 0.000564 1763. 1763.
1734(42) 0.000575 1764. 1764.
1806(43) 0.000551 1764. 1764.
1778(42) 0.000562 1764. 1764.
1845(43) 0.000541 1765. 1765.
1835(43) 0.000546 1765. 1765.
1771(42) 0.000567 1766. 1766.
1754(42) 0.000575 1766. 1766.
1869(43) 0.000538 1766. 1766.
1956(44) 0.000512 1767. 1767.
1915(44) 0.000521 1767. 1767.
2015(45) 0.000494 1767. 1767.
2017(45) 0.000494 1768. 1768.
1967(44) 0.000507 1768. 1768.
2031(45) 0.000492 1768. 1768.
2072(46) 0.000483 1769. 1769.
2067(45) 0.000485 1769. 1769.
2084(46) 0.000483 1769. 1769.
2166(46) 0.000464 1770. 1770.
2146(46) 0.000466 1770. 1770.
2166(47) 0.000460 1770. 1770.
2172(47) 0.000459 1771. 1771.
2274(48) 0.000438 1771. 1771.
2327(48) 0.000427 1771. 1771.
2334(48) 0.000429 1772. 1772.
2321(48) 0.000432 1772. 1772.
2373(49) 0.000422 1772. 1772.
2489(50) 0.000403 1772. 1772.
2540(50) 0.000395 1773. 1773.
2603(51) 0.000384 1773. 1773.
2881(54) 0.0003455 1773. 1773.
2914(54) 0.0003417 1774. 1774.
2949(55) 0.0003367 1774. 1774.
2823(53) 0.000352 1774. 1774.
2660(52) 0.000374 1775. 1775.
2531(50) 0.000395 1775. 1833.
2414(49) 0.000415 1775. 1836.
2313(48) 0.000434 1775. 1839.
2300(48) 0.000436 1776. 1842.
2204(47) 0.000455 1776. 1845.
2064(45) 0.000487 1776. 1848.
2094(46) 0.000477 1776. 1852.
1823(43) 0.000546 1777. 1856.
1817(43) 0.000548 1777. 1860.
1825(43) 0.000546 1777. 1864.
1826(43) 0.000548 1777. 1868.
1798(42) 0.000556 1778. 1873.
1847(43) 0.000543 1778. 1879.
1765(42) 0.000570 1778. 1884.
1659(41) 0.000604 1778. 1890.
1712(41) 0.000583 1779. 1897.
1707(41) 0.000583 1779. 1904.
1593(40) 0.000625 1779. 1912.
1636(41) 0.000610 1779. 1920.
1668(41) 0.000598 1779. 1930.
1701(41) 0.000589 1780. 1940.
1691(41) 0.000592 1780. 1951.
1728(42) 0.000581 1780. 1963.
1715(41) 0.000583 1780. 1977.
1663(41) 0.000604 1780. 1992.
1655(41) 0.000604 1781. 2009.
1717(42) 0.000581 1781. 2028.
1765(42) 0.000562 1781. 2050.
1680(41) 0.000592 1781. 2074.
1684(41) 0.000592 1781. 2101.
1750(42) 0.000572 1781. 2133.
1758(42) 0.000570 1782. 2169.
1820(43) 0.000551 1782. 2212.
1853(43) 0.000541 1782. 2261.
1816(43) 0.000551 1782. 2320.
1934(44) 0.000514 1782. 2389.
1937(44) 0.000514 1782. 2473.
2113(46) 0.000471 1783. 2575.
2135(46) 0.000466 1783. 2701.
2383(49) 0.000418 1783. 2859.
2501(50) 0.000400 1783. 3062.
2798(53) 0.000357 1783. 3335.
3356(58) 0.0002993 1783. 3734.
4092(64) 0.0002441 1783. 4385.
5335(73) 0.0001866 1784. 5559.
7277(86) 0.0001362 1784. 7739.
10900(110) 0.0000902 1784. 11573.
16520(130) 0.0000590 1784. 17590.
25200(160) 0.0000383 1784. 25671.
34330(190) 0.0000279 1784. 34372.
40700(210) 0.0000234 1784. 40352.
38020(200) 0.0000251 1784. 39841.
29210(170) 0.0000332 1784. 33217.
20990(150) 0.0000467 1784. 24447.
15290(130) 0.0000644 1785. 16607.
11230(110) 0.0000877 1785. 10911.
7971(90) 0.0001240 1785. 7350.
5682(76) 0.0001745 1785. 5348.
4301(66) 0.0002310 1785. 4271.
3383(58) 0.0002942 1785. 3668.
2866(54) 0.0003494 1785. 3293.
2524(50) 0.000398 1785. 3032.
2258(47) 0.000445 1785. 2837.
2114(46) 0.000475 1785. 2684.
2047(45) 0.000489 1785. 2562.
1919(44) 0.000521 1785. 2463.
1794(42) 0.000556 1785. 2382.
1859(43) 0.000536 1785. 2314.
1858(43) 0.000536 1785. 2257.
1893(44) 0.000528 1785. 2209.
1831(43) 0.000548 1785. 2168.
1919(44) 0.000521 1785. 2132.
1855(43) 0.000543 1785. 2101.
1865(43) 0.000538 1785. 2074.
1858(43) 0.000538 1785. 2051.
1901(44) 0.000526 1785. 2030.
1963(44) 0.000507 1785. 2011.
1999(45) 0.000498 1785. 1995.
1909(44) 0.000521 1785. 1980.
1929(44) 0.000519 1785. 1967.
1792(42) 0.000559 1785. 1955.
1866(43) 0.000538 1785. 1944.
1704(41) 0.000592 1785. 1934.
1759(42) 0.000570 1785. 1925.
1796(42) 0.000559 1785. 1917.
1782(42) 0.000562 1785. 1910.
1741(42) 0.000572 1785. 1903.
1783(42) 0.000559 1785. 1896.
1809(43) 0.000551 1785. 1891.
1819(43) 0.000548 1785. 1885.
1802(42) 0.000556 1785. 1880.
1914(44) 0.000524 1785. 1875.
2042(45) 0.000492 1785. 1871.
2087(46) 0.000481 1785. 1867.
2229(47) 0.000451 1785. 1863.
2527(50) 0.000394 1785. 1860.
3169(56) 0.0003144 1785. 1856.
4191(65) 0.0002367 1784. 1853.
5477(74) 0.0001816 1784. 1850.
6011(78) 0.0001652 1784. 1848.
5363(73) 0.0001856 1784. 1845.
4299(66) 0.0002324 1784. 1784.
3438(59) 0.0002922 1784. 1784.
2766(53) 0.000363 1784. 1784.
2390(49) 0.000418 1784. 1784.
2163(47) 0.000460 1784. 1784.
2017(45) 0.000494 1784. 1784.
1963(45) 0.000505 1783. 1783.
1913(44) 0.000521 1783. 1783.
1932(44) 0.000517 1783. 1783.
1946(44) 0.000514 1783. 1783.
1856(43) 0.000538 1783. 1783.
1969(44) 0.000510 1783. 1783.
1936(44) 0.000519 1783. 1783.
1928(44) 0.000519 1783. 1783.
1949(44) 0.000512 1782. 1782.
1927(44) 0.000517 1782. 1782.
1912(44) 0.000521 1782. 1782.
1858(43) 0.000536 1782. 1782.
1884(44) 0.000528 1782. 1782.
1856(43) 0.000548 1782. 1782.
1908(44) 0.000526 1781. 1781.
1912(44) 0.000526 1781. 1781.
1949(44) 0.000514 1781. 1781.
1905(44) 0.000526 1781. 1781.
1855(43) 0.000538 1781. 1781.
1909(44) 0.000521 1780. 1780.
1930(44) 0.000514 1780. 1780.
1918(44) 0.000519 1780. 1780.
1857(43) 0.000536 1780. 1780.
1840(43) 0.000543 1780. 1780.
1909(44) 0.000524 1779. 1779.
1841(43) 0.000546 1779. 1779.
1849(43) 0.000543 1779. 1779.
1966(44) 0.000510 1779. 1779.
1848(43) 0.000538 1779. 1779.
1808(43) 0.000551 1778. 1778.
1777(42) 0.000559 1778. 1778.
1760(42) 0.000567 1778. 1778.
1742(42) 0.000572 1778. 1778.
1734(42) 0.000578 1777. 1777.
1746(42) 0.000575 1777. 1777.
1726(41) 0.000583 1777. 1777.
1771(42) 0.000567 1777. 1777.
1759(42) 0.000570 1776. 1776.
1746(42) 0.000572 1776. 1776.
1783(42) 0.000559 1776. 1776.
1989(45) 0.000498 1776. 1776.
2049(45) 0.000485 1775. 1775.
2109(46) 0.000473 1775. 1775.
2196(47) 0.000457 1775. 1775.
2435(49) 0.000411 1775. 1775.
2564(51) 0.000392 1774. 1774.
2601(51) 0.000386 1774. 1774.
2296(48) 0.000436 1774. 1774.
2230(47) 0.000447 1773. 1773.
2039(45) 0.000487 1773. 1773.
2002(45) 0.000496 1773. 1773.
1962(44) 0.000507 1773. 1773.
2023(45) 0.000492 1772. 1772.
2020(45) 0.000496 1772. 1772.
2167(47) 0.000462 1772. 1772.
2326(48) 0.000432 1771. 1771.
2338(48) 0.000429 1771. 1771.
2140(46) 0.000469 1771. 1771.
2039(45) 0.000489 1770. 1770.
1918(44) 0.000519 1770. 1770.
1743(42) 0.000570 1770. 1770.
1682(41) 0.000592 1769. 1769.
1727(42) 0.000578 1769. 1769.
1630(40) 0.000616 1769. 1769.
1559(39) 0.000644 1768. 1768.
1476(38) 0.000682 1768. 1768.
1560(39) 0.000644 1768. 1768.
1505(39) 0.000668 1767. 1767.
1546(39) 0.000644 1767. 1767.
1548(39) 0.000644 1767. 1767.
1559(40) 0.000638 1766. 1766.
1565(40) 0.000638 1766. 1766.
1518(39) 0.000657 1766. 1766.
1575(40) 0.000634 1765. 1765.
1588(40) 0.000631 1765. 1765.
1611(40) 0.000625 1764. 1764.
1500(39) 0.000668 1764. 1764.
1578(40) 0.000634 1764. 1764.
1596(40) 0.000625 1763. 1763.
1693(41) 0.000589 1763. 1763.
1622(40) 0.000613 1763. 1763.
1732(42) 0.000575 1762. 1762.
1741(42) 0.000575 1762. 1762.
1806(42) 0.000556 1761. 1761.
1909(44) 0.000526 1761. 1761.
2073(45) 0.000485 1761. 1761.
2216(47) 0.000453 1760. 1760.
2270(48) 0.000441 1760. 1760.
2603(51) 0.000383 1759. 1759.
2485(50) 0.000400 1759. 1759.
2194(47) 0.000453 1759. 1759.
1885(44) 0.000528 1758. 1758.
1760(42) 0.000567 1758. 1758.
1637(40) 0.000613 1757. 1757.
1588(40) 0.000631 1757. 1757.
1665(41) 0.000604 1757. 1757.
1611(40) 0.000622 1756. 1756.
1590(40) 0.000631 1756. 1756.
1679(41) 0.000595 1755. 1755.
1632(41) 0.000610 1755. 1755.
1656(39) 0.000651 1754. 1754.
1658(41) 0.000601 1754. 1754.
1750(42) 0.000570 1754. 1754.
1835(43) 0.000546 1753. 1753.
1729(42) 0.000581 1753. 1753.
1769(42) 0.000567 1752. 1752.
1696(41) 0.000592 1752. 1752.
1657(41) 0.000604 1751. 1751.
1743(42) 0.000572 1751. 1751.
1766(42) 0.000564 1750. 1750.
1892(44) 0.000526 1750. 1750.
1845(43) 0.000538 1750. 1750.
1752(42) 0.000567 1749. 1749.
1654(41) 0.000604 1749. 1749.
1799(42) 0.000556 1748. 1748.
1706(41) 0.000589 1748. 1748.
1837(43) 0.000546 1747. 1747.
1816(43) 0.000551 1747. 1747.
1836(43) 0.000543 1746. 1746.
1703(41) 0.000583 1746. 1746.
1678(41) 0.000592 1745. 1745.
1619(40) 0.000616 1745. 1745.
1588(40) 0.000628 1744. 1744.
1618(40) 0.000619 1744. 1744.
1568(40) 0.000638 1744. 1744.
1554(39) 0.000647 1743. 1743.
1593(40) 0.000631 1743. 1743.
1561(40) 0.000641 1742. 1742.
1617(40) 0.000616 1742. 1742.
1583(40) 0.000628 1741. 1741.
1605(40) 0.000619 1741. 1741.
1635(41) 0.000610 1740. 1740.
1620(40) 0.000616 1740. 1740.
1639(41) 0.000610 1739. 1739.
1549(39) 0.000647 1739. 1739.
1567(40) 0.000641 1738. 1738.
1612(40) 0.000622 1738. 1738.
1608(40) 0.000622 1737. 1737.
1660(41) 0.000601 1737. 1737.
1639(41) 0.000607 1736. 1736.
1616(40) 0.000616 1736. 1736.
1580(40) 0.000631 1735. 1735.
1727(42) 0.000578 1735. 1735.
1705(41) 0.000586 1734. 1734.
1649(41) 0.000607 1734. 1734.
1677(41) 0.000601 1733. 1733.
1687(41) 0.000595 1733. 1733.
1746(42) 0.000575 1732. 1732.
1714(42) 0.000581 1732. 2031.
1797(43) 0.000554 1731. 2051.
1847(43) 0.000538 1731. 2073.
1784(42) 0.000559 1730. 2098.
1803(43) 0.000554 1730. 2126.
1832(43) 0.000546 1729. 2157.
1842(43) 0.000543 1729. 2192.
1769(42) 0.000570 1728. 2231.
1924(44) 0.000521 1728. 2276.
1944(44) 0.000514 1727. 2328.
2063(46) 0.000483 1727. 2387.
2098(46) 0.000475 1726. 2456.
2229(47) 0.000445 1726. 2536.
2343(49) 0.000425 1725. 2630.
2409(49) 0.000415 1725. 2742.
2469(50) 0.000405 1724. 2876.
2698(52) 0.000371 1724. 3038.
2801(53) 0.000359 1723. 3237.
2980(55) 0.0003367 1723. 3485.
3378(58) 0.0002962 1722. 3799.
3754(62) 0.0002644 1721. 4206.
4424(67) 0.0002241 1721. 4743.
5361(74) 0.0001846 1720. 5473.
6630(82) 0.0001494 1720. 6500.
8678(94) 0.0001139 1719. 8009.
12190(110) 0.0000810 1719. 10428.
18770(140) 0.0000522 1718. 15242.
32140(180) 0.0000301 1718. 28080.
64040(260) 0.0000144 1717. 63059.
135630(400) 6.24e-6 1717. 133332.
218680(530) 3.52e-6 1716. 210626.
197950(500) 3.97e-6 1716. 209458.
115860(370) 7.42e-6 1715. 129195.
59350(250) 0.0000156 1715. 59796.
31290(180) 0.0000307 1714. 26522.
18320(140) 0.0000534 1714. 14675.
11860(110) 0.0000834 1713. 10201.
8352(92) 0.0001194 1713. 7883.
6509(81) 0.0001536 1712. 6415.
5249(73) 0.0001902 1712. 5411.
4388(66) 0.0002268 1711. 4695.
3860(62) 0.0002576 1711. 4166.
3377(58) 0.0002942 1710. 3766.
3067(56) 0.0003246 1710. 3455.
2833(53) 0.000352 1709. 3209.
2648(52) 0.000377 1709. 3012.
2442(49) 0.000410 1708. 2851.
2397(49) 0.000420 1708. 2717.
2274(48) 0.000440 1707. 2606.
2203(47) 0.000455 1706. 2511.
2243(47) 0.000445 1706. 2431.
2102(46) 0.000473 1705. 2362.
2044(45) 0.000485 1705. 2302.
1960(44) 0.000507 1704. 2250.
2045(45) 0.000487 1704. 2204.
1938(44) 0.000517 1703. 2164.
1900(44) 0.000526 1703. 2128.
1891(43) 0.000531 1702. 2097.
1915(44) 0.000524 1702. 2068.
1899(44) 0.000526 1701. 2042.
1833(43) 0.000543 1701. 2019.
1812(43) 0.000548 1700. 1700.
1771(42) 0.000562 1700. 1700.
1894(44) 0.000526 1699. 1699.
1875(43) 0.000531 1699. 1699.
1784(42) 0.000559 1698. 1698.
1839(43) 0.000543 1698. 1698.
1790(42) 0.000562 1697. 1697.
1923(44) 0.000521 1697. 1697.
1851(43) 0.000541 1696. 1696.
2002(45) 0.000498 1696. 1696.
1907(44) 0.000521 1695. 1695.
1926(44) 0.000514 1695. 1695.
2037(45) 0.000487 1694. 1694.
2125(46) 0.000469 1694. 1694.
2223(47) 0.000451 1693. 1693.
2166(47) 0.000462 1693. 1693.
2338(48) 0.000429 1692. 1692.
2375(49) 0.000422 1692. 1692.
2235(47) 0.000447 1691. 1691.
2075(46) 0.000479 1691. 1691.
2015(45) 0.000494 1690. 1690.
1915(44) 0.000519 1690. 1690.
1872(43) 0.000531 1689. 1690.
1801(43) 0.000554 1689. 1689.
1790(42) 0.000559 1689. 1689.
1826(43) 0.000548 1688. 1688.
1796(42) 0.000559 1688. 1688.
1675(41) 0.000598 1687. 1687.
1701(41) 0.000589 1687. 1687.
1757(42) 0.000567 1686. 1686.
1660(41) 0.000598 1686. 1686.
1714(42) 0.000578 1685. 1685.
1676(41) 0.000595 1685. 1685.
1707(41) 0.000583 1684. 1684.
1676(41) 0.000598 1684. 1684.
1682(41) 0.000595 1683. 1683.
1588(40) 0.000634 1683. 1683.
1553(39) 0.000647 1682. 1682.
1607(40) 0.000625 1682. 1682.
1661(41) 0.000601 1682. 1682.
1613(40) 0.000616 1681. 1681.
1647(41) 0.000604 1681. 1681.
1649(41) 0.000604 1680. 1680.
1541(39) 0.000647 1680. 1680.
1622(40) 0.000616 1679. 1679.
1566(40) 0.000641 1679. 1679.
1540(39) 0.000654 1678. 1678.
1588(40) 0.000631 1678. 1678.
1541(39) 0.000651 1678. 1678.
1539(39) 0.000647 1677. 1677.
1544(39) 0.000644 1677. 1677.
1579(40) 0.000628 1676. 1676.
1570(40) 0.000634 1676. 1676.
1521(39) 0.000657 1675. 1675.
1602(40) 0.000625 1675. 1675.
1541(39) 0.000651 1675. 1675.
1542(39) 0.000651 1674. 1674.
1478(38) 0.000682 1674. 1674.
1565(40) 0.000641 1673. 1673.
1529(39) 0.000654 1673. 1673.
1564(40) 0.000638 1673. 1673.
1467(38) 0.000678 1672. 1672.
1590(40) 0.000628 1672. 1672.
1540(39) 0.000647 1671. 1671.
1465(38) 0.000685 1671. 1671.
1545(39) 0.000647 1671. 1671.
1564(39) 0.000644 1670. 1670.
1520(39) 0.000661 1670. 1670.
1618(40) 0.000619 1669. 1669.
1526(39) 0.000654 1669. 1669.
1612(40) 0.000619 1669. 1669.
1531(39) 0.000647 1668. 1668.
1571(40) 0.000634 1668. 1668.
1560(40) 0.000641 1668. 1668.
1507(39) 0.000664 1667. 1667.
1555(39) 0.000644 1667. 1667.
1514(39) 0.000664 1666. 1666.
1579(40) 0.000634 1666. 1666.
1584(40) 0.000631 1666. 1666.
1571(40) 0.000634 1665. 1665.
1574(40) 0.000631 1665. 1665.
1643(41) 0.000604 1665. 1665.
1636(41) 0.000610 1664. 1664.
1663(41) 0.000601 1664. 1664.
1665(41) 0.000601 1664. 1664.
1705(41) 0.000589 1663. 1663.
1812(43) 0.000554 1663. 1663.
1720(42) 0.000581 1663. 1663.
1867(43) 0.000536 1662. 1662.
1857(43) 0.000536 1662. 1662.
1881(44) 0.000528 1662. 1662.
1801(43) 0.000551 1661. 1661.
1769(42) 0.000562 1661. 1661.
1943(44) 0.000512 1661. 1661.
1809(43) 0.000554 1660. 1660.
1809(43) 0.000554 1660. 1660.
1731(42) 0.000581 1660. 1660.
1780(42) 0.000564 1660. 1660.
1740(42) 0.000575 1659. 1659.
1739(41) 0.000583 1659. 1659.
1758(42) 0.000564 1659. 1659.
1750(42) 0.000567 1658. 1658.
1743(42) 0.000570 1658. 1658.
1755(42) 0.000567 1658. 1658.
1753(42) 0.000570 1658. 1658.
1772(42) 0.000564 1657. 1657.
1728(42) 0.000581 1657. 1657.
1877(43) 0.000533 1657. 1657.
1933(44) 0.000517 1657. 1657.
1884(44) 0.000528 1656. 1656.
1861(43) 0.000533 1656. 1656.
2000(45) 0.000496 1656. 1656.
1843(43) 0.000541 1656. 1656.
1864(43) 0.000533 1655. 1655.
1839(43) 0.000543 1655. 1655.
1910(44) 0.000524 1655. 1655.
1820(43) 0.000551 1655. 1655.
1860(43) 0.000538 1654. 1654.
1869(43) 0.000536 1654. 1654.
1870(43) 0.000533 1654. 1654.
1792(43) 0.000554 1654. 1654.
1821(43) 0.000546 1654. 1654.
1849(43) 0.000538 1653. 1653.
1789(42) 0.000556 1653. 1653.
1760(42) 0.000567 1653. 1653.
1838(43) 0.000546 1653. 1653.
1845(43) 0.000546 1653. 1653.
1771(42) 0.000564 1652. 1652.
1759(42) 0.000570 1652. 1652.
1742(42) 0.000572 1652. 1652.
1792(43) 0.000554 1652. 1652.
1859(43) 0.000533 1652. 1652.
1770(42) 0.000562 1651. 1651.
1729(42) 0.000578 1651. 1651.
1834(43) 0.000546 1651. 1651.
1806(43) 0.000554 1651. 1709.
1748(42) 0.000575 1651. 1711.
1820(43) 0.000551 1651. 1713.
1805(42) 0.000556 1651. 1716.
1738(42) 0.000572 1650. 1718.
1814(43) 0.000548 1650. 1721.
1768(42) 0.000562 1650. 1724.
1753(42) 0.000570 1650. 1728.
1816(43) 0.000548 1650. 1731.
1812(43) 0.000554 1650. 1735.
1849(43) 0.000543 1650. 1739.
1875(43) 0.000536 1650. 1744.
1775(42) 0.000564 1649. 1749.
1801(42) 0.000556 1649. 1754.
1872(43) 0.000533 1649. 1759.
1771(42) 0.000562 1649. 1766.
1759(42) 0.000564 1649. 1772.
1753(42) 0.000567 1649. 1780.
1833(43) 0.000543 1649. 1788.
1863(43) 0.000538 1649. 1797.
1858(43) 0.000538 1649. 1807.
1788(42) 0.000562 1649. 1817.
1785(42) 0.000562 1649. 1829.
1826(43) 0.000548 1649. 1843.
1886(44) 0.000528 1648. 1858.
1760(42) 0.000564 1648. 1874.
1842(43) 0.000541 1648. 1893.
1711(42) 0.000581 1648. 1914.
1808(43) 0.000551 1648. 1938.
1848(43) 0.000541 1648. 1965.
1878(43) 0.000533 1648. 1997.
1884(43) 0.000533 1648. 2033.
1890(43) 0.000531 1648. 2076.
1941(44) 0.000517 1648. 2126.
1952(44) 0.000512 1648. 2184.
1974(45) 0.000505 1648. 2255.
1982(45) 0.000500 1648. 2340.
2149(47) 0.000462 1648. 2444.
2223(47) 0.000449 1648. 2574.
2384(49) 0.000420 1648. 2737.
2522(50) 0.000397 1648. 2946.
2664(52) 0.000377 1648. 3222.
3124(56) 0.0003200 1648. 3598.
3896(62) 0.0002568 1648. 4155.
4729(66) 0.0002282 1648. 5105.
6538(81) 0.0001513 1648. 6990.
9546(99) 0.0001031 1648. 10906.
15210(130) 0.0000644 1648. 18359.
24150(160) 0.0000400 1649. 30190.
37800(200) 0.0000252 1649. 44590.
50840(230) 0.0000185 1649. 54862.
50110(230) 0.0000188 1649. 52437.
38670(200) 0.0000247 1649. 39662.
26980(170) 0.0000359 1649. 25674.
17910(140) 0.0000545 1649. 15322.
11710(110) 0.0000837 1649. 9243.
7780(89) 0.0001265 1649. 6184.
5566(75) 0.0001778 1649. 4713.
4469(67) 0.0002221 1649. 3936.
3575(60) 0.0002787 1649. 3456.
3063(55) 0.0003258 1650. 3119.
2716(52) 0.000370 1650. 2870.
2414(49) 0.000415 1650. 2678.
2294(48) 0.000436 1650. 2528.
2117(46) 0.000471 1650. 2408.
2101(46) 0.000473 1650. 2311.
1915(44) 0.000519 1650. 2231.
1956(44) 0.000507 1650. 2165.
1904(44) 0.000524 1651. 2110.
1909(44) 0.000524 1651. 2063.
1899(44) 0.000526 1651. 2023.
1892(43) 0.000531 1651. 1988.
1979(45) 0.000505 1651. 1959.
1991(45) 0.000503 1651. 1933.
2120(46) 0.000469 1652. 1910.
2323(48) 0.000427 1652. 1890.
2559(51) 0.000386 1652. 1872.
2434(50) 0.000408 1652. 1856.
2282(48) 0.000436 1652. 1842.
2072(46) 0.000483 1652. 1829.
1948(44) 0.000512 1653. 1818.
1884(43) 0.000531 1653. 1807.
1858(43) 0.000538 1653. 1798.
1778(42) 0.000562 1653. 1790.
1786(42) 0.000556 1654. 1782.
1845(43) 0.000538 1654. 1775.
1795(43) 0.000554 1654. 1768.
1876(43) 0.000531 1654. 1762.
1744(42) 0.000570 1654. 1757.
1841(43) 0.000543 1655. 1752.
1820(43) 0.000551 1655. 1748.
1873(43) 0.000536 1655. 1743.
1817(43) 0.000551 1655. 1739.
1869(43) 0.000536 1656. 1736.
1866(43) 0.000533 1656. 1732.
1894(44) 0.000524 1656. 1729.
1920(44) 0.000517 1657. 1726.
1885(44) 0.000526 1657. 1724.
1941(44) 0.000514 1657. 1721.
1950(44) 0.000512 1657. 1719.
2048(45) 0.000489 1658. 1717.
2038(45) 0.000492 1658. 1658.
1933(44) 0.000519 1658. 1658.
2144(46) 0.000466 1659. 1659.
2137(46) 0.000464 1659. 1659.
2113(46) 0.000471 1659. 1659.
2138(46) 0.000464 1660. 1660.
2067(46) 0.000481 1660. 1660.
2092(46) 0.000477 1660. 1660.
2006(45) 0.000498 1661. 1661.
1938(44) 0.000517 1661. 1661.
2030(45) 0.000496 1661. 1661.
1973(44) 0.000507 1662. 1662.
1930(44) 0.000519 1662. 1662.
1950(44) 0.000512 1662. 1662.
1870(43) 0.000533 1663. 1663.
1978(45) 0.000500 1663. 1663.
2128(46) 0.000469 1664. 1664.
2117(46) 0.000471 1664. 1664.
2270(48) 0.000441 1664. 1664.
2180(47) 0.000459 1665. 1665.
2018(45) 0.000498 1665. 1665.
1927(44) 0.000521 1666. 1666.
1831(43) 0.000546 1666. 1666.
1650(41) 0.000604 1666. 1666.
1619(40) 0.000616 1667. 1667.
1664(41) 0.000598 1667. 1667.
1608(40) 0.000619 1668. 1668.
1598(40) 0.000622 1668. 1668.
1545(39) 0.000647 1668. 1668.
1529(39) 0.000657 1669. 1669.
1494(39) 0.000671 1669. 1669.
1518(39) 0.000661 1670. 1670.
1588(40) 0.000631 1670. 1670.
1454(38) 0.000685 1671. 1671.
1504(39) 0.000661 1671. 1671.
1476(39) 0.000671 1672. 1672.
1503(39) 0.000661 1672. 1672.
1504(39) 0.000664 1673. 1673.
1500(39) 0.000668 1673. 1673.
1528(39) 0.000654 1674. 1674.
1465(38) 0.000685 1674. 1674.
1407(37) 0.000715 1675. 1675.
1461(38) 0.000685 1675. 1675.
1531(39) 0.000651 1676. 1676.
1422(38) 0.000700 1676. 1676.
1401(38) 0.000711 1677. 1677.
1492(39) 0.000668 1677. 1677.
1478(39) 0.000675 1678. 1678.
1438(38) 0.000696 1678. 1678.
1437(38) 0.000696 1679. 1679.
1526(39) 0.000657 1679. 1679.
1517(39) 0.000661 1680. 1680.
1420(38) 0.000704 1680. 1680.
1505(39) 0.000661 1681. 1681.
1488(39) 0.000668 1681. 1681.
1458(38) 0.000682 1682. 1682.
1484(39) 0.000671 1683. 1683.
1510(39) 0.000661 1683. 1683.
1414(38) 0.000707 1684. 1684.
1472(38) 0.000678 1684. 1684.
1471(38) 0.000682 1685. 1685.
1485(39) 0.000675 1685. 1685.
1478(38) 0.000678 1686. 1686.
1472(39) 0.000675 1687. 1687.
1544(39) 0.000644 1687. 1687.
1468(39) 0.000675 1688. 1688.
1479(39) 0.000671 1688. 1688.
1501(39) 0.000664 1689. 1689.
1485(39) 0.000671 1690. 1690.
1470(38) 0.000682 1690. 1690.
1467(38) 0.000685 1691. 1691.
1440(38) 0.000696 1691. 1692.
1474(38) 0.000678 1692. 1692.
1483(39) 0.000671 1693. 1693.
1526(39) 0.000651 1693. 1693.
1431(38) 0.000693 1694. 1721.
1523(39) 0.000654 1695. 1723.
1482(39) 0.000671 1695. 1724.
1482(39) 0.000675 1696. 1726.
1399(37) 0.000715 1697. 1727.
1497(39) 0.000671 1697. 1729.
1466(38) 0.000685 1698. 1730.
1433(38) 0.000700 1699. 1732.
1403(38) 0.000707 1699. 1734.
1530(39) 0.000647 1700. 1735.
1532(39) 0.000647 1701. 1737.
1482(39) 0.000671 1701. 1739.
1481(39) 0.000671 1702. 1741.
1447(38) 0.000689 1703. 1743.
1471(38) 0.000682 1704. 1745.
1568(40) 0.000638 1704. 1747.
1515(39) 0.000661 1705. 1749.
1439(38) 0.000696 1706. 1751.
1497(39) 0.000664 1706. 1753.
1502(39) 0.000661 1707. 1756.
1515(39) 0.000654 1708. 1758.
1551(40) 0.000641 1709. 1761.
1516(39) 0.000657 1709. 1764.
1522(39) 0.000657 1710. 1766.
1515(39) 0.000661 1711. 1769.
1526(39) 0.000657 1712. 1772.
1488(39) 0.000675 1712. 1776.
1530(39) 0.000654 1713. 1779.
1554(40) 0.000641 1714. 1782.
1496(39) 0.000664 1715. 1786.
1609(40) 0.000619 1715. 1790.
1527(39) 0.000651 1716. 1794.
1606(40) 0.000619 1717. 1798.
1528(39) 0.000654 1718. 1803.
1585(40) 0.000631 1718. 1808.
1560(39) 0.000644 1719. 1813.
1569(40) 0.000638 1720. 1819.
1553(39) 0.000644 1721. 1825.
1585(40) 0.000628 1722. 1831.
1602(40) 0.000622 1722. 1838.
1575(40) 0.000631 1723. 1845.
1614(40) 0.000616 1724. 1853.
1565(40) 0.000638 1725. 1861.
1586(40) 0.000631 1726. 1870.
1623(40) 0.000616 1726. 1880.
1622(40) 0.000619 1727. 1891.
1683(41) 0.000598 1728. 1903.
1676(41) 0.000598 1729. 1916.
1668(41) 0.000598 1730. 1930.
1745(42) 0.000570 1731. 1946.
1679(41) 0.000592 1731. 1963.
1672(41) 0.000595 1732. 1983.
1745(42) 0.000570 1733. 2005.
1755(42) 0.000570 1734. 2029.
1749(42) 0.000572 1735. 2057.
1761(42) 0.000570 1736. 2088.
1833(43) 0.000546 1736. 2124.
1864(43) 0.000536 1737. 2166.
1833(43) 0.000543 1738. 2214.
1921(44) 0.000519 1739. 2270.
2003(45) 0.000496 1740. 2336.
2040(45) 0.000487 1741. 2416.
2122(46) 0.000471 1742. 2513.
2187(47) 0.000457 1743. 2638.
2513(50) 0.000398 1743. 2804.
2718(52) 0.000368 1744. 3040.
3089(56) 0.0003246 1745. 3394.
3549(60) 0.0002815 1746. 3941.
4388(67) 0.0002261 1747. 4786.
5701(76) 0.0001736 1748. 6054.
7852(89) 0.0001257 1749. 7860.
10460(100) 0.0000941 1750. 10267.
14110(120) 0.0000694 1751. 13218.
17190(130) 0.0000570 1751. 16478.
19700(140) 0.0000496 1752. 19561.
21630(150) 0.0000452 1753. 21705.
20580(150) 0.0000474 1754. 22146.
17590(130) 0.0000556 1755. 20698.
14680(120) 0.0000667 1756. 17935.
11990(110) 0.0000818 1757. 14679.
10310(100) 0.0000952 1758. 11547.
8773(94) 0.0001122 1759. 8881.
7873(89) 0.0001254 1760. 6808.
6632(82) 0.0001498 1761. 5311.
5629(75) 0.0001773 1762. 4293.
4720(68) 0.0002150 1763. 3628.
3988(63) 0.0002504 1764. 3200.
3458(59) 0.0002883 1764. 2920.
3157(56) 0.0003144 1765. 2729.
2833(54) 0.0003494 1766. 2590.
2524(51) 0.000392 1767. 2483.
2459(50) 0.000403 1768. 2398.
2444(50) 0.000406 1769. 2328.
2441(50) 0.000408 1770. 2270.
2432(49) 0.000411 1771. 2220.
2361(49) 0.000423 1772. 2177.
2369(49) 0.000422 1773. 2141.
2339(48) 0.000427 1774. 2109.
2437(50) 0.000408 1775. 2082.
2364(49) 0.000420 1776. 2058.
2493(50) 0.000397 1777. 2037.
2263(48) 0.000440 1778. 2018.
2344(49) 0.000423 1779. 2002.
2251(48) 0.000443 1780. 1987.
2367(49) 0.000422 1781. 1974.
2350(48) 0.000427 1782. 1962.
2422(49) 0.000413 1783. 1952.
2371(49) 0.000422 1784. 1942.
2373(49) 0.000418 1785. 1934.
2386(49) 0.000415 1786. 1926.
2366(49) 0.000418 1787. 1919.
2526(50) 0.000394 1788. 1913.
2468(50) 0.000403 1789. 1907.
2556(51) 0.000391 1790. 1902.
2691(52) 0.000371 1791. 1897.
2661(52) 0.000377 1792. 1893.
2800(53) 0.000357 1793. 1889.
2847(53) 0.0003507 1794. 1886.
2935(54) 0.0003392 1795. 1882.
2907(54) 0.0003417 1796. 1879.
3016(55) 0.0003282 1797. 1877.
3163(57) 0.0003133 1798. 1874.
3165(56) 0.0003144 1799. 1872.
3169(56) 0.0003155 1800. 1870.
3284(57) 0.0003035 1801. 1868.
3164(56) 0.0003166 1802. 1867.
3249(57) 0.0003078 1803. 1865.
3106(56) 0.0003212 1804. 1864.
3313(58) 0.0002993 1805. 1863.
3195(57) 0.0003100 1806. 1861.
3145(56) 0.0003155 1807. 1860.
3163(57) 0.0003133 1808. 1860.
3098(56) 0.0003200 1809. 1859.
2998(55) 0.0003330 1810. 1858.
3102(56) 0.0003223 1811. 1858.
2899(54) 0.0003455 1813. 1857.
2927(54) 0.0003417 1814. 1857.
2783(53) 0.000359 1815. 1856.
2688(52) 0.000370 1816. 1856.
2529(51) 0.000392 1817. 1856.
2607(51) 0.000380 1818. 1856.
2446(50) 0.000406 1819. 1856.
2478(50) 0.000402 1820. 1856.
2450(50) 0.000408 1821. 1856.
2337(48) 0.000427 1822. 1856.
2324(48) 0.000432 1823. 1856.
2354(49) 0.000425 1824. 1856.
2168(47) 0.000460 1825. 1856.
2185(47) 0.000455 1826. 1856.
2198(47) 0.000453 1827. 1857.
2048(45) 0.000485 1828. 1857.
2090(46) 0.000475 1829. 1857.
2019(45) 0.000492 1830. 1830.
2002(45) 0.000498 1832. 1832.
2004(45) 0.000500 1833. 1833.
1957(44) 0.000514 1834. 1834.
1960(44) 0.000512 1835. 1835.
1963(44) 0.000510 1836. 1836.
1951(44) 0.000510 1837. 1837.
1940(44) 0.000512 1838. 1838.
2009(45) 0.000494 1839. 1839.
1912(44) 0.000519 1840. 1840.
1903(44) 0.000524 1841. 1841.
1847(43) 0.000541 1842. 1842.
1901(44) 0.000526 1843. 1843.
1884(43) 0.000533 1844. 1844.
1848(43) 0.000541 1845. 1845.
1872(43) 0.000533 1847. 1847.
1868(43) 0.000533 1848. 1848.
1840(43) 0.000541 1849. 1849.
1872(43) 0.000536 1850. 1850.
1889(42) 0.000567 1851. 1851.
1882(44) 0.000528 1852. 1852.
1794(42) 0.000556 1853. 1853.
1769(42) 0.000567 1854. 1854.
1863(43) 0.000538 1855. 1855.
1724(42) 0.000581 1856. 1856.
1777(42) 0.000562 1857. 1857.
1796(43) 0.000554 1858. 1858.
1792(43) 0.000554 1859. 1859.
1815(43) 0.000546 1861. 1861.
1856(43) 0.000536 1862. 1862.
1815(43) 0.000548 1863. 1863.
1703(41) 0.000586 1864. 1864.
1845(43) 0.000541 1865. 1865.
1728(42) 0.000581 1866. 1866.
1797(42) 0.000556 1867. 1867.
1855(43) 0.000538 1868. 1868.
1874(43) 0.000531 1869. 1869.
1753(42) 0.000564 1870. 1963.
1837(43) 0.000538 1871. 1966.
1843(43) 0.000538 1872. 1970.
1858(43) 0.000536 1874. 1974.
1818(43) 0.000548 1875. 1978.
1917(44) 0.000521 1876. 1982.
1870(43) 0.000536 1877. 1986.
1903(44) 0.000526 1878. 1990.
1931(44) 0.000517 1879. 1994.
1788(42) 0.000556 1880. 1999.
1888(44) 0.000526 1881. 2004.
1884(44) 0.000526 1882. 2008.
1977(45) 0.000503 1883. 2014.
1959(44) 0.000507 1884. 2019.
2003(45) 0.000498 1885. 2024.
2015(45) 0.000496 1887. 2030.
1937(44) 0.000517 1888. 2036.
2048(45) 0.000489 1889. 2042.
2062(45) 0.000485 1890. 2048.
2103(46) 0.000473 1891. 2055.
2116(46) 0.000469 1892. 2062.
2255(48) 0.000440 1893. 2069.
2288(48) 0.000434 1894. 2077.
2244(48) 0.000443 1895. 2085.
2267(48) 0.000440 1896. 2093.
2375(49) 0.000420 1897. 2181.
2370(49) 0.000423 1898. 2193.
2467(50) 0.000405 1899. 2206.
2447(50) 0.000408 1901. 2220.
2538(51) 0.000392 1902. 2235.
2562(51) 0.000388 1903. 2250.
2699(52) 0.000367 1904. 2267.
2783(53) 0.000356 1905. 2285.
2701(52) 0.000368 1906. 2303.
2865(54) 0.0003481 1907. 2323.
2855(54) 0.0003494 1908. 2345.
2736(52) 0.000366 1909. 2368.
2740(52) 0.000366 1910. 2392.
2727(52) 0.000366 1911. 2419.
2729(52) 0.000364 1912. 2447.
2718(52) 0.000366 1913. 2478.
2730(53) 0.000363 1914. 2512.
2835(53) 0.0003507 1915. 2548.
3012(55) 0.0003294 1916. 2587.
3035(55) 0.0003282 1918. 2630.
3165(56) 0.0003155 1919. 2677.
2988(55) 0.0003354 1920. 2729.
2902(54) 0.0003442 1921. 2786.
2710(52) 0.000368 1922. 2848.
2774(53) 0.000359 1923. 2918.
2745(53) 0.000361 1924. 2995.
2668(52) 0.000371 1925. 3082.
2737(53) 0.000363 1926. 3178.
2769(53) 0.000360 1927. 3288.
2868(54) 0.0003481 1928. 3411.
2884(54) 0.0003468 1929. 3552.
3048(55) 0.0003282 1930. 3714.
3200(57) 0.0003133 1931. 3900.
3277(57) 0.0003046 1932. 4116.
3421(59) 0.0002902 1933. 4369.
3828(62) 0.0002585 1934. 4668.
4104(64) 0.0002411 1935. 5024.
4553(68) 0.0002175 1936. 5454.
5116(72) 0.0001934 1937. 5983.
5676(76) 0.0001750 1938. 6655.
6668(82) 0.0001491 1940. 7545.
8344(92) 0.0001192 1941. 8795.
10070(100) 0.0000982 1942. 10665.
13210(120) 0.0000746 1943. 13606.
18200(140) 0.0000535 1944. 18351.
26230(170) 0.0000366 1945. 25980.
38380(200) 0.0000246 1946. 37857.
55960(250) 0.0000166 1947. 55223.
79320(300) 0.0000114 1948. 78296.
102980(340) 8.52e-6 1949. 104918.
130160(390) 6.53e-6 1950. 129032.
146600(420) 5.70e-6 1951. 140591.
136970(400) 6.17e-6 1952. 132612.
109330(350) 7.98e-6 1953. 110089.
80920(300) 0.0000111 1954. 83337.
58420(250) 0.0000158 1955. 59305.
43770(220) 0.0000215 1956. 40793.
32270(180) 0.0000296 1957. 27929.
23840(160) 0.0000406 1958. 19585.
17370(130) 0.0000564 1959. 14376.
13230(120) 0.0000746 1960. 11154.
10000(100) 0.0000992 1961. 9120.
8079(90) 0.0001229 1962. 7776.
6695(82) 0.0001480 1963. 6832.
5704(76) 0.0001736 1964. 6127.
5051(72) 0.0001956 1965. 5576.
4540(68) 0.0002175 1966. 5131.
3873(63) 0.0002560 1967. 4764.
3723(61) 0.0002661 1968. 4458.
3632(60) 0.0002741 1969. 4199.
3349(58) 0.0002973 1970. 3978.
3250(57) 0.0003078 1971. 3788.
3115(56) 0.0003212 1972. 3624.
3025(55) 0.0003294 1972. 3482.
2939(54) 0.0003379 1973. 3357.
2975(55) 0.0003330 1974. 3247.
2856(54) 0.0003468 1975. 3150.
2843(54) 0.0003494 1976. 3064.
2753(53) 0.000361 1977. 2987.
2655(52) 0.000376 1978. 2918.
2686(52) 0.000371 1979. 2856.
2710(52) 0.000370 1980. 2800.
2720(52) 0.000367 1981. 2749.
2713(52) 0.000367 1982. 2703.
2620(51) 0.000379 1983. 2662.
2738(53) 0.000361 1984. 2624.
2676(52) 0.000370 1985. 2589.
2664(52) 0.000373 1986. 2557.
2681(52) 0.000370 1987. 2528.
2624(51) 0.000380 1988. 2501.
2689(52) 0.000371 1989. 2476.
2699(52) 0.000371 1989. 2453.
2689(52) 0.000371 1990. 2431.
2710(52) 0.000368 1991. 2412.
2725(52) 0.000364 1992. 2393.
2763(53) 0.000359 1993. 2376.
2665(52) 0.000371 1994. 2360.
2686(52) 0.000368 1995. 2346.
2763(53) 0.000359 1996. 2332.
2769(53) 0.000360 1997. 2319.
2750(53) 0.000363 1998. 2307.
2747(52) 0.000364 1999. 2296.
2784(53) 0.000359 1999. 2285.
2678(52) 0.000373 2000. 2275.
2769(53) 0.000359 2001. 2266.
2690(52) 0.000368 2002. 2257.
2771(53) 0.000357 2003. 2249.
2678(52) 0.000370 2004. 2241.
2686(52) 0.000370 2005. 2233.
2666(52) 0.000374 2006. 2227.
2584(51) 0.000386 2006. 2220.
2589(51) 0.000386 2007. 2214.
2536(50) 0.000394 2008. 2208.
2436(49) 0.000410 2009. 2202.
2409(49) 0.000411 2010. 2197.
2428(50) 0.000408 2011. 2192.
2403(49) 0.000411 2012. 2188.
2309(48) 0.000430 2012. 2183.
2278(48) 0.000436 2013. 2179.
2339(48) 0.000427 2014. 2175.
2199(47) 0.000455 2015. 2171.
2193(47) 0.000457 2016. 2168.
2138(46) 0.000469 2017. 2164.
2175(47) 0.000459 2017. 2161.
2191(47) 0.000455 2018. 2158.
2117(46) 0.000469 2019. 2155.
2092(46) 0.000475 2020. 2152.
2079(46) 0.000479 2021. 2021.
2060(46) 0.000483 2022. 2022.
1997(45) 0.000500 2022. 2022.
2006(45) 0.000498 2023. 2023.
2024(45) 0.000496 2024. 2024.
1875(43) 0.000533 2025. 2025.
1937(44) 0.000517 2026. 2026.
1901(44) 0.000524 2026. 2026.
1835(43) 0.000541 2027. 2027.
1943(44) 0.000512 2028. 2028.
1858(43) 0.000536 2029. 2029.
1898(44) 0.000524 2030. 2030.
1897(44) 0.000526 2030. 2030.
1856(43) 0.000541 2031. 2031.
1772(42) 0.000567 2032. 2032.
1842(43) 0.000543 2033. 2033.
1825(43) 0.000548 2033. 2033.
1879(43) 0.000531 2034. 2034.
1860(43) 0.000533 2035. 2035.
1809(43) 0.000548 2036. 2036.
1674(41) 0.000595 2036. 2036.
1799(43) 0.000554 2037. 2037.
1781(42) 0.000562 2038. 2038.
1752(42) 0.000572 2039. 2039.
1728(42) 0.000581 2039. 2039.
1816(43) 0.000551 2040. 2040.
1753(42) 0.000570 2041. 2041.
1784(42) 0.000556 2042. 2042.
1768(42) 0.000562 2042. 2043.
1783(42) 0.000556 2043. 2044.
1746(42) 0.000570 2044. 2045.
1724(42) 0.000578 2044. 2045.
1637(41) 0.000610 2045. 2046.
1735(42) 0.000578 2046. 2047.
1717(41) 0.000583 2046. 2048.
1758(42) 0.000570 2047. 2048.
1854(43) 0.000538 2048. 2049.
1726(42) 0.000578 2049. 2050.
1812(43) 0.000548 2049. 2050.
1816(43) 0.000546 2050. 2051.
1810(43) 0.000548 2051. 2052.
1809(43) 0.000551 2051. 2053.
1844(43) 0.000541 2052. 2053.
1772(42) 0.000564 2053. 2054.
1750(41) 0.000583 2053. 2055.
1773(42) 0.000564 2054. 2055.
1682(41) 0.000595 2055. 2056.
1760(42) 0.000564 2055. 2057.
1709(42) 0.000581 2056. 2058.
1693(41) 0.000586 2057. 2058.
1694(41) 0.000586 2057. 2059.
1759(42) 0.000564 2058. 2060.
1807(43) 0.000551 2058. 2060.
1786(42) 0.000559 2059. 2061.
1720(41) 0.000583 2060. 2062.
1774(42) 0.000564 2060. 2062.
1765(42) 0.000564 2061. 2063.
1761(42) 0.000564 2061. 2064.
1770(42) 0.000559 2062. 2065.
1668(41) 0.000595 2063. 2065.
1733(42) 0.000572 2063. 2066.
1776(42) 0.000562 2064. 2067.
1710(41) 0.000583 2064. 2068.
1748(42) 0.000572 2065. 2068.
1692(41) 0.000592 2066. 2069.
1714(41) 0.000583 2066. 2070.
1713(41) 0.000583 2067. 2071.
1773(42) 0.000559 2067. 2071.
1747(42) 0.000567 2068. 2072.
1695(41) 0.000586 2069. 2073.
1691(41) 0.000586 2069. 2074.
1757(42) 0.000564 2070. 2075.
1825(43) 0.000546 2070. 2075.
1708(41) 0.000586 2071. 2076.
1787(42) 0.000562 2071. 2077.
1739(42) 0.000575 2072. 2078.
1718(42) 0.000581 2072. 2079.
1788(42) 0.000556 2073. 2080.
1762(42) 0.000564 2073. 2081.
1739(42) 0.000570 2074. 2082.
1789(42) 0.000556 2074. 2084.
1742(42) 0.000572 2075. 2085.
1793(42) 0.000556 2075. 2087.
1805(43) 0.000554 2076. 2088.
1764(42) 0.000570 2076. 2090.
1751(42) 0.000572 2077. 2092.
1783(42) 0.000562 2077. 2094.
1869(43) 0.000531 2078. 2096.
1803(43) 0.000551 2078. 2099.
1829(43) 0.000543 2079. 2102.
1891(44) 0.000526 2079. 2106.
1876(43) 0.000531 2080. 2111.
1894(44) 0.000528 2080. 2117.
1913(44) 0.000524 2081. 2125.
1951(44) 0.000514 2081. 2138.
2075(46) 0.000481 2082. 2157.
2115(46) 0.000473 2082. 2187.
2251(48) 0.000441 2083. 2237.
2406(49) 0.000411 2083. 2312.
2525(51) 0.000392 2084. 2418.
2807(53) 0.000353 2084. 2554.
3049(55) 0.0003258 2084. 2706.
3162(56) 0.0003155 2085. 2848.
3197(57) 0.0003122 2085. 2934.
3055(55) 0.0003282 2086. 2926.
2664(52) 0.000376 2086. 2827.
2393(49) 0.000418 2087. 2682.
2378(49) 0.000416 2087. 2531.
2299(48) 0.000430 2087. 2401.
2216(47) 0.000449 2088. 2302.
2153(47) 0.000462 2088. 2232.
2204(47) 0.000451 2089. 2187.
2175(47) 0.000459 2089. 2160.
2262(48) 0.000441 2089. 2143.
2302(48) 0.000436 2090. 2133.
2289(48) 0.000436 2090. 2126.
2284(48) 0.000438 2090. 2121.
2280(48) 0.000436 2091. 2117.
2368(49) 0.000420 2091. 2114.
2414(49) 0.000410 2092. 2112.
2444(50) 0.000406 2092. 2110.
2508(50) 0.000397 2092. 2108.
2599(51) 0.000384 2093. 2107.
2564(51) 0.000389 2093. 2106.
2593(51) 0.000386 2093. 2105.
2490(50) 0.000402 2094. 2104.
2477(50) 0.000403 2094. 2104.
2465(50) 0.000403 2094. 2103.
2447(49) 0.000413 2095. 2103.
2452(48) 0.000430 2095. 2103.
2431(50) 0.000408 2095. 2102.
2406(49) 0.000413 2095. 2102.
2438(49) 0.000410 2096. 2102.
2413(49) 0.000415 2096. 2102.
2483(50) 0.000403 2096. 2102.
2373(49) 0.000420 2097. 2102.
2540(51) 0.000392 2097. 2102.
2578(51) 0.000386 2097. 2102.
2443(50) 0.000405 2098. 2102.
2442(50) 0.000405 2098. 2102.
2513(50) 0.000395 2098. 2102.
2546(51) 0.000391 2098. 2102.
2522(50) 0.000395 2099. 2102.
2547(51) 0.000391 2099. 2102.
2621(51) 0.000381 2099. 2102.
2608(51) 0.000383 2099. 2102.
2560(51) 0.000389 2100. 2102.
2557(51) 0.000388 2100. 2103.
2553(51) 0.000388 2100. 2103.
2552(51) 0.000388 2100. 2103.
2621(51) 0.000379 2101. 2103.
2665(52) 0.000373 2101. 2103.
2789(53) 0.000357 2101. 2103.
2754(53) 0.000361 2101. 2103.
2789(53) 0.000359 2101. 2104.
2783(53) 0.000359 2102. 2104.
2761(53) 0.000360 2102. 2104.
2834(53) 0.0003507 2102. 2104.
2759(53) 0.000359 2102. 2104.
2661(52) 0.000371 2102. 2104.
2801(53) 0.000353 2103. 2104.
2585(51) 0.000384 2103. 2104.
2537(51) 0.000392 2103. 2105.
2589(51) 0.000384 2103. 2105.
2535(50) 0.000395 2103. 2105.
2628(51) 0.000380 2104. 2105.
2496(50) 0.000400 2104. 2105.
2557(51) 0.000388 2104. 2105.
2476(50) 0.000400 2104. 2105.
2385(49) 0.000415 2104. 2105.
2313(48) 0.000429 2104. 2106.
2378(49) 0.000416 2105. 2106.
2275(48) 0.000438 2105. 2106.
2287(48) 0.000436 2105. 2106.
2304(48) 0.000434 2105. 2106.
2280(48) 0.000438 2105. 2106.
2334(48) 0.000427 2105. 2106.
2281(48) 0.000436 2105. 2106.
2246(48) 0.000441 2105. 2106.
2181(47) 0.000453 2106. 2106.
2188(47) 0.000453 2106. 2106.
2228(47) 0.000447 2106. 2106.
2205(47) 0.000453 2106. 2106.
2260(48) 0.000441 2106. 2106.
2153(46) 0.000464 2106. 2106.
2168(47) 0.000462 2106. 2106.
2135(46) 0.000469 2106. 2106.
2181(47) 0.000455 2106. 2106.
2204(47) 0.000449 2106. 2106.
2232(48) 0.000443 2106. 2106.
2159(47) 0.000459 2107. 2107.
2249(48) 0.000441 2107. 2107.
2139(46) 0.000466 2107. 2107.
2134(46) 0.000469 2107. 2107.
2115(46) 0.000473 2107. 2107.
2227(47) 0.000449 2107. 2107.
2225(47) 0.000449 2107. 2107.
2146(47) 0.000462 2107. 2107.
2240(48) 0.000443 2107. 2107.
2164(47) 0.000457 2107. 2107.
2194(47) 0.000453 2107. 2107.
2194(47) 0.000453 2107. 2107.
2183(47) 0.000457 2107. 2107.
2133(46) 0.000469 2107. 2107.
2176(47) 0.000460 2107. 2107.
2181(47) 0.000459 2107. 2107.
2299(48) 0.000434 2107. 2107.
2204(47) 0.000451 2107. 2107.
2167(47) 0.000457 2107. 2107.
2187(47) 0.000453 2107. 2107.
2205(47) 0.000451 2107. 2107.
2253(48) 0.000441 2107. 2107.
2283(48) 0.000436 2107. 2107.
2210(47) 0.000453 2107. 2107.
2271(48) 0.000441 2107. 2107.
2119(46) 0.000471 2107. 2107.
2303(48) 0.000434 2107. 2107.
2224(47) 0.000447 2107. 2107.
2224(47) 0.000445 2107. 2107.
2313(48) 0.000427 2107. 2107.
2271(48) 0.000438 2107. 2107.
2363(49) 0.000422 2107. 2107.
2322(48) 0.000430 2107. 2107.
2466(50) 0.000405 2107. 2119.
2403(49) 0.000416 2107. 2120.
2343(48) 0.000427 2107. 2120.
2444(50) 0.000408 2107. 2121.
2314(48) 0.000429 2107. 2121.
2389(49) 0.000415 2106. 2122.
2429(50) 0.000408 2106. 2122.
2495(50) 0.000398 2106. 2123.
2422(49) 0.000410 2106. 2124.
2364(49) 0.000422 2106. 2124.
2350(49) 0.000425 2106. 2125.
2405(49) 0.000416 2106. 2126.
2326(48) 0.000429 2106. 2127.
2346(49) 0.000425 2106. 2128.
2341(49) 0.000425 2106. 2129.
2263(48) 0.000438 2106. 2130.
2249(48) 0.000440 2106. 2132.
2231(48) 0.000443 2105. 2133.
2309(48) 0.000430 2105. 2135.
2224(47) 0.000449 2105. 2136.
2182(47) 0.000457 2105. 2138.
2260(48) 0.000443 2105. 2140.
2221(47) 0.000451 2105. 2143.
2298(48) 0.000434 2105. 2145.
2229(47) 0.000445 2105. 2148.
2272(48) 0.000436 2104. 2152.
2265(48) 0.000438 2104. 2155.
2212(47) 0.000449 2104. 2159.
2266(48) 0.000438 2104. 2164.
2236(47) 0.000445 2104. 2169.
2313(48) 0.000432 2104. 2175.
2284(48) 0.000438 2104. 2182.
2316(48) 0.000430 2103. 2190.
2243(47) 0.000445 2103. 2200.
2287(48) 0.000434 2103. 2211.
2280(48) 0.000434 2103. 2224.
2370(49) 0.000416 2103. 2240.
2236(48) 0.000443 2103. 2260.
2297(48) 0.000432 2102. 2283.
2307(48) 0.000432 2102. 2313.
2423(49) 0.000411 2102. 2350.
2316(48) 0.000432 2102. 2398.
2495(50) 0.000400 2102. 2462.
2537(50) 0.000394 2101. 2552.
2655(52) 0.000373 2101. 2693.
2967(55) 0.0003330 2101. 2952.
3119(56) 0.0003166 2101. 3479.
3965(63) 0.0002496 2101. 4533.
5089(72) 0.0001940 2100. 6391.
7351(86) 0.0001346 2100. 9089.
10350(100) 0.0000954 2100. 12040.
12920(110) 0.0000764 2100. 13751.
11660(110) 0.0000843 2100. 12826.
8759(94) 0.0001129 2099. 10073.
6234(80) 0.0001582 2099. 7187.
4576(68) 0.0002163 2099. 5037.
3569(60) 0.0002769 2099. 3747.
2970(55) 0.0003330 2098. 3081.
2652(52) 0.000376 2098. 2756.
2467(50) 0.000405 2098. 2587.
2310(48) 0.000432 2098. 2484.
2341(48) 0.000427 2097. 2413.
2293(48) 0.000436 2097. 2360.
2150(46) 0.000464 2097. 2319.
2098(46) 0.000473 2097. 2287.
2083(46) 0.000475 2096. 2261.
2106(46) 0.000471 2096. 2240.
2125(46) 0.000466 2096. 2222.
2104(46) 0.000473 2096. 2208.
2069(46) 0.000481 2095. 2196.
2057(45) 0.000485 2095. 2185.
2000(45) 0.000500 2095. 2176.
1993(45) 0.000500 2095. 2168.
1989(45) 0.000503 2094. 2162.
2001(45) 0.000496 2094. 2156.
2138(46) 0.000464 2094. 2150.
2044(46) 0.000483 2093. 2146.
2087(46) 0.000477 2093. 2141.
1937(44) 0.000514 2093. 2138.
2048(45) 0.000487 2093. 2134.
2108(46) 0.000473 2092. 2131.
2041(45) 0.000492 2092. 2128.
2128(46) 0.000471 2092. 2126.
2057(45) 0.000485 2091. 2123.
2129(46) 0.000466 2091. 2121.
2101(46) 0.000473 2091. 2119.
2026(45) 0.000489 2090. 2117.
2145(47) 0.000462 2090. 2115.
2157(47) 0.000460 2090. 2114.
2194(47) 0.000455 2089. 2112.
2042(45) 0.000489 2089. 2111.
2097(46) 0.000479 2089. 2109.
2162(47) 0.000462 2088. 2108.
2060(45) 0.000485 2088. 2107.
2061(46) 0.000483 2088. 2105.
2177(47) 0.000457 2087. 2104.
2024(45) 0.000489 2087. 2103.
2138(46) 0.000464 2087. 2102.
2100(46) 0.000475 2086. 2101.
2086(46) 0.000479 2086. 2100.
2151(46) 0.000464 2086. 2099.
2142(46) 0.000469 2085. 2099.
2117(46) 0.000473 2085. 2085.
2060(45) 0.000485 2085. 2085.
2110(46) 0.000471 2084. 2084.
2032(45) 0.000487 2084. 2084.
2154(47) 0.000460 2084. 2084.
2100(46) 0.000473 2083. 2083.
2169(47) 0.000459 2083. 2083.
2111(46) 0.000473 2083. 2083.
2088(46) 0.000479 2082. 2082.
2116(46) 0.000473 2082. 2082.
2096(46) 0.000477 2081. 2081.
2161(47) 0.000460 2081. 2081.
2295(48) 0.000432 2081. 2081.
2381(49) 0.000416 2080. 2080.
2305(48) 0.000429 2080. 2080.
2499(50) 0.000405 2080. 2080.
2362(49) 0.000420 2079. 2079.
2314(48) 0.000430 2079. 2079.
2240(47) 0.000445 2078. 2078.
2115(46) 0.000473 2078. 2078.
2012(45) 0.000496 2078. 2078.
2046(45) 0.000487 2077. 2077.
2072(46) 0.000479 2077. 2077.
2000(45) 0.000496 2077. 2077.
1969(45) 0.000503 2076. 2076.
1941(44) 0.000512 2076. 2076.
1929(44) 0.000514 2075. 2075.
1952(44) 0.000510 2075. 2075.
1938(44) 0.000514 2075. 2075.
1962(44) 0.000510 2074. 2074.
1991(45) 0.000500 2074. 2074.
1954(44) 0.000510 2073. 2073.
2044(45) 0.000485 2073. 2073.
1920(44) 0.000517 2072. 2072.
1913(44) 0.000517 2072. 2072.
1928(44) 0.000514 2072. 2072.
1968(45) 0.000505 2071. 2071.
1865(43) 0.000533 2071. 2071.
1871(43) 0.000533 2070. 2070.
2013(45) 0.000496 2070. 2070.
1942(44) 0.000514 2070. 2070.
1944(44) 0.000512 2069. 2069.
1901(44) 0.000521 2069. 2069.
1897(44) 0.000521 2068. 2068.
1944(44) 0.000510 2068. 2068.
1916(44) 0.000517 2067. 2067.
1847(43) 0.000538 2067. 2067.
1942(44) 0.000514 2067. 2067.
1870(43) 0.000533 2066. 2066.
1853(43) 0.000541 2066. 2066.
1831(43) 0.000546 2065. 2065.
1817(43) 0.000548 2065. 2065.
1792(43) 0.000554 2064. 2064.
1824(43) 0.000543 2064. 2064.
1826(43) 0.000541 2063. 2063.
1873(43) 0.000531 2063. 2063.
1784(42) 0.000556 2063. 2063.
1852(43) 0.000538 2062. 2062.
1894(44) 0.000526 2062. 2062.
1815(43) 0.000551 2061. 2061.
1828(43) 0.000546 2061. 2061.
1888(44) 0.000528 2060. 2060.
1866(43) 0.000531 2060. 2084.
1855(43) 0.000533 2059. 2084.
1894(44) 0.000524 2059. 2085.
1864(43) 0.000531 2059. 2086.
1932(44) 0.000514 2058. 2086.
1907(44) 0.000524 2058. 2087.
1907(44) 0.000524 2057. 2088.
1979(44) 0.000507 2057. 2089.
1953(44) 0.000512 2056. 2090.
1890(44) 0.000528 2056. 2091.
2015(45) 0.000494 2055. 2092.
1839(43) 0.000538 2055. 2094.
1914(44) 0.000517 2054. 2095.
2018(45) 0.000492 2054. 2097.
2024(45) 0.000492 2053. 2099.
2047(45) 0.000487 2053. 2101.
2017(45) 0.000494 2053. 2104.
1991(45) 0.000503 2052. 2106.
1954(44) 0.000512 2052. 2109.
2084(46) 0.000479 2051. 2112.
1956(44) 0.000507 2051. 2116.
1981(45) 0.000500 2050. 2120.
1935(44) 0.000512 2050. 2124.
1927(44) 0.000514 2049. 2129.
1921(44) 0.000517 2049. 2135.
1937(44) 0.000514 2048. 2141.
1918(44) 0.000521 2048. 2148.
1965(44) 0.000510 2047. 2156.
1927(44) 0.000519 2047. 2165.
1954(44) 0.000512 2046. 2176.
1947(44) 0.000510 2046. 2188.
2011(45) 0.000492 2045. 2202.
1984(45) 0.000498 2045. 2219.
1956(44) 0.000507 2044. 2238.
1992(45) 0.000498 2044. 2260.
1984(45) 0.000503 2043. 2288.
2101(46) 0.000475 2043. 2320.
2086(46) 0.000481 2042. 2360.
2231(45) 0.000485 2042. 2409.
2249(48) 0.000443 2041. 2471.
2339(49) 0.000425 2041. 2554.
2420(49) 0.000410 2041. 2673.
2534(51) 0.000391 2040. 2858.
2829(53) 0.0003507 2040. 3170.
3348(58) 0.0002952 2039. 3711.
4012(64) 0.0002480 2039. 4617.
5219(72) 0.0001908 2038. 6023.
7048(84) 0.0001411 2038. 7984.
9475(98) 0.0001043 2037. 10372.
12210(110) 0.0000806 2037. 12761.
13800(120) 0.0000709 2036. 14362.
13320(120) 0.0000732 2036. 14361.
11190(110) 0.0000872 2035. 12758.
9178(97) 0.0001069 2035. 10368.
7331(86) 0.0001346 2034. 7979.
5754(76) 0.0001722 2034. 6018.
4702(69) 0.0002113 2033. 4611.
3824(62) 0.0002610 2033. 3704.
3229(57) 0.0003089 2032. 3163.
2943(54) 0.0003392 2032. 2849.
2802(53) 0.000353 2031. 2663.
2563(51) 0.000386 2031. 2544.
2585(51) 0.000383 2030. 2460.
2356(49) 0.000420 2030. 2397.
2324(48) 0.000427 2029. 2346.
2410(49) 0.000413 2029. 2306.
2482(50) 0.000402 2028. 2272.
2453(50) 0.000408 2028. 2244.
2520(50) 0.000395 2027. 2220.
2426(49) 0.000410 2027. 2200.
2373(49) 0.000418 2026. 2183.
2414(49) 0.000410 2026. 2168.
2392(49) 0.000413 2025. 2155.
2337(49) 0.000423 2025. 2143.
2368(49) 0.000420 2024. 2133.
2269(48) 0.000440 2024. 2124.
2254(48) 0.000441 2023. 2116.
2345(49) 0.000425 2023. 2109.
2346(49) 0.000425 2022. 2102.
2272(48) 0.000440 2022. 2096.
2371(49) 0.000418 2021. 2091.
2333(49) 0.000423 2021. 2086.
2333(49) 0.000423 2020. 2081.
2366(49) 0.000418 2020. 2077.
2311(48) 0.000429 2019. 2073.
2361(49) 0.000422 2019. 2070.
2413(49) 0.000413 2018. 2066.
2390(49) 0.000418 2018. 2063.
2452(50) 0.000406 2017. 2060.
2390(49) 0.000416 2017. 2058.
2475(50) 0.000400 2016. 2055.
2440(50) 0.000406 2016. 2053.
2351(49) 0.000420 2015. 2051.
2289(48) 0.000432 2015. 2048.
2275(48) 0.000438 2014. 2046.
2420(49) 0.000411 2014. 2045.
2278(48) 0.000438 2013. 2043.
2365(49) 0.000423 2013. 2041.
2291(48) 0.000436 2012. 2039.
2295(48) 0.000436 2012. 2038.
2259(48) 0.000440 2011. 2036.
2228(47) 0.000445 2011. 2011.
2229(48) 0.000443 2010. 2010.
2288(48) 0.000434 2010. 2010.
2209(47) 0.000449 2009. 2009.
2197(47) 0.000455 2009. 2009.
2215(47) 0.000451 2008. 2008.
2216(47) 0.000453 2008. 2008.
2141(46) 0.000466 2007. 2007.
2204(47) 0.000453 2007. 2007.
2225(47) 0.000447 2006. 2006.
2207(47) 0.000449 2006. 2006.
2177(47) 0.000455 2005. 2005.
2204(47) 0.000451 2005. 2005.
2177(47) 0.000457 2004. 2005.
2166(47) 0.000460 2004. 2004.
2089(46) 0.000477 2003. 2004.
2063(45) 0.000485 2003. 2003.
2103(46) 0.000475 2002. 2003.
2105(46) 0.000473 2002. 2002.
2083(46) 0.000477 2001. 2002.
2081(46) 0.000477 2001. 2001.
2103(46) 0.000471 2000. 2001.
2101(46) 0.000473 2000. 2000.
2006(45) 0.000494 1999. 2000.
2067(46) 0.000483 1999. 1999.
1941(44) 0.000514 1998. 1999.
1965(44) 0.000510 1998. 1998.
2007(45) 0.000498 1997. 1998.
2003(45) 0.000498 1997. 1997.
1997(45) 0.000498 1996. 1997.
1977(45) 0.000500 1996. 2016.
2000(45) 0.000494 1995. 2016.
1988(45) 0.000498 1995. 2016.
1881(44) 0.000528 1995. 2016.
1945(44) 0.000514 1994. 2016.
1908(44) 0.000524 1994. 2016.
1918(44) 0.000521 1993. 2017.
1907(44) 0.000524 1993. 2017.
1959(44) 0.000510 1992. 2017.
1804(43) 0.000551 1992. 2017.
1879(44) 0.000526 1991. 2018.
1832(43) 0.000541 1991. 2018.
1848(43) 0.000538 1990. 2018.
1874(44) 0.000528 1990. 2019.
1906(44) 0.000524 1989. 2019.
1894(44) 0.000526 1989. 2020.
1837(43) 0.000546 1988. 2020.
1818(43) 0.000548 1988. 2021.
1814(43) 0.000548 1987. 2022.
1771(42) 0.000562 1987. 2022.
1849(43) 0.000536 1986. 2023.
1791(43) 0.000551 1986. 2024.
1851(43) 0.000536 1985. 2025.
1830(43) 0.000543 1985. 2026.
1813(43) 0.000548 1985. 2027.
1761(42) 0.000567 1984. 2028.
1778(42) 0.000562 1984. 2029.
1835(43) 0.000543 1983. 2031.
1814(43) 0.000548 1983. 2032.
1800(43) 0.000551 1982. 2034.
1757(42) 0.000564 1982. 2036.
1834(43) 0.000541 1981. 2038.
1950(44) 0.000510 1981. 2040.
1741(42) 0.000570 1980. 2042.
1817(43) 0.000548 1980. 2045.
1848(43) 0.000541 1979. 2047.
1865(43) 0.000536 1979. 2050.
1853(43) 0.000538 1979. 2053.
1834(43) 0.000543 1978. 2057.
1824(43) 0.000543 1978. 2061.
1837(43) 0.000538 1977. 2065.
1857(43) 0.000531 1977. 2069.
1881(44) 0.000526 1976. 2074.
1914(44) 0.000519 1976. 2080.
1881(43) 0.000531 1975. 2086.
1916(44) 0.000519 1975. 2092.
1967(44) 0.000507 1974. 2099.
2121(46) 0.000471 1974. 2108.
2236(47) 0.000445 1974. 2117.
2211(47) 0.000447 1973. 2127.
2209(47) 0.000447 1973. 2138.
2205(47) 0.000449 1972. 2150.
2127(46) 0.000466 1972. 2165.
2055(46) 0.000483 1971. 2181.
2094(46) 0.000475 1971. 2199.
2080(46) 0.000479 1970. 2220.
1996(45) 0.000500 1970. 2244.
1958(44) 0.000510 1970. 2271.
2144(46) 0.000464 1969. 2304.
2084(46) 0.000477 1969. 2341.
2237(48) 0.000443 1968. 2386.
2304(48) 0.000429 1968. 2439.
2336(49) 0.000425 1967. 2503.
2493(50) 0.000398 1967. 2581.
2723(52) 0.000366 1967. 2678.
2855(54) 0.0003481 1966. 2804.
3132(56) 0.0003189 1966. 2977.
3390(58) 0.0002942 1965. 3232.
4036(64) 0.0002464 1965. 3641.
4777(70) 0.0002064 1964. 4326.
6089(79) 0.0001615 1964. 5471.
7809(89) 0.0001257 1964. 7290.
10090(100) 0.0000973 1963. 9957.
13090(120) 0.0000746 1963. 13470.
17030(130) 0.0000573 1962. 17512.
21750(150) 0.0000447 1962. 21286.
25520(160) 0.0000380 1961. 23502.
24560(160) 0.0000394 1961. 23060.
20080(140) 0.0000486 1961. 20202.
15500(130) 0.0000630 1960. 16223.
11330(110) 0.0000864 1960. 12286.
8446(93) 0.0001161 1959. 9021.
6129(79) 0.0001606 1959. 6630.
4885(70) 0.0002029 1959. 5044.
3932(63) 0.0002528 1958. 4066.
3382(58) 0.0002942 1958. 3483.
2917(54) 0.0003429 1957. 3132.
2720(52) 0.000367 1957. 2907.
2527(50) 0.000395 1957. 2751.
2505(50) 0.000395 1956. 2635.
2382(49) 0.000416 1956. 2543.
2302(48) 0.000430 1955. 2469.
2198(47) 0.000451 1955. 2408.
2275(48) 0.000436 1955. 2357.
2211(47) 0.000451 1954. 2314.
2185(47) 0.000457 1954. 2277.
2139(46) 0.000469 1953. 2246.
2285(48) 0.000438 1953. 2219.
2173(47) 0.000459 1953. 2195.
2146(47) 0.000462 1952. 2174.
2205(47) 0.000449 1952. 2156.
2190(47) 0.000451 1951. 2139.
2272(48) 0.000436 1951. 2125.
2261(48) 0.000440 1951. 2112.
2218(47) 0.000449 1950. 2100.
2321(48) 0.000429 1950. 2090.
2326(48) 0.000430 1949. 2080.
2258(48) 0.000441 1949. 2072.
2229(47) 0.000447 1949. 2064.
2210(47) 0.000449 1948. 2056.
2162(47) 0.000459 1948. 2050.
2159(47) 0.000459 1948. 2044.
2266(48) 0.000438 1947. 2038.
2190(47) 0.000453 1947. 2033.
2121(46) 0.000471 1946. 2028.
2186(47) 0.000457 1946. 2024.
2155(46) 0.000464 1946. 2019.
2207(47) 0.000453 1945. 2015.
2122(46) 0.000471 1945. 2012.
2128(46) 0.000466 1945. 2008.
2141(47) 0.000462 1944. 2005.
2077(45) 0.000485 1944. 2002.
2075(46) 0.000477 1944. 1999.
2152(47) 0.000460 1943. 1996.
2040(45) 0.000489 1943. 1994.
2033(45) 0.000489 1942. 1991.
1992(45) 0.000500 1942. 1989.
2049(45) 0.000487 1942. 1987.
2000(45) 0.000498 1941. 1985.
2003(45) 0.000494 1941. 1983.
1948(44) 0.000507 1941. 1981.
1966(45) 0.000503 1940. 1979.
1951(44) 0.000507 1940. 1977.
1942(44) 0.000510 1940. 1976.
1928(44) 0.000517 1939. 1974.
1951(44) 0.000512 1939. 1973.
1957(44) 0.000512 1939. 1971.
1896(44) 0.000526 1938. 1970.
2006(45) 0.000496 1938. 1968.
1897(44) 0.000524 1938. 1967.
1906(44) 0.000519 1937. 1966.
1951(45) 0.000505 1937. 1965.
1881(44) 0.000526 1937. 1964.
1899(44) 0.000524 1936. 1962.
1820(43) 0.000546 1936. 1961.
1966(44) 0.000507 1936. 1960.
1920(44) 0.000521 1935. 1959.
1887(44) 0.000528 1935. 1958.
1899(44) 0.000524 1935. 1957.
1908(44) 0.000519 1934. 1956.
1918(44) 0.000517 1934. 1955.
1871(44) 0.000528 1934. 1954.
1854(43) 0.000533 1933. 1954.
1910(44) 0.000519 1933. 1953.
1919(44) 0.000519 1933. 1952.
1907(44) 0.000524 1932. 1951.
1863(43) 0.000536 1932. 1950.
1830(43) 0.000546 1932. 1950.
1812(43) 0.000548 1931. 1949.
1855(43) 0.000536 1931. 1948.
1826(43) 0.000541 1931. 1947.
1842(43) 0.000536 1930. 1947.
1901(44) 0.000521 1930. 1946.
1912(44) 0.000519 1930. 1945.
1831(43) 0.000546 1929. 1945.
1849(43) 0.000538 1929. 1944.
1914(44) 0.000521 1929. 1943.
1858(43) 0.000538 1929. 1943.
1911(44) 0.000521 1928. 1942.
1915(44) 0.000517 1928. 1942.
1924(44) 0.000514 1928. 1941.
1980(45) 0.000500 1927. 1940.
2038(45) 0.000487 1927. 1940.
2090(46) 0.000475 1927. 1939.
2161(47) 0.000460 1926. 1939.
2378(49) 0.000420 1926. 1938.
2500(50) 0.000400 1926. 1938.
2596(51) 0.000384 1926. 1937.
2741(53) 0.000363 1925. 1937.
2693(52) 0.000368 1925. 1936.
2653(52) 0.000373 1925. 1936.
2555(51) 0.000386 1924. 1935.
2423(50) 0.000408 1924. 1924.
2304(48) 0.000430 1924. 1924.
2188(47) 0.000455 1924. 1924.
2237(47) 0.000445 1923. 1923.
2172(47) 0.000460 1923. 1923.
2233(47) 0.000447 1923. 1923.
2323(48) 0.000429 1922. 1922.
2328(49) 0.000425 1922. 1922.
2336(49) 0.000423 1922. 1922.
2283(48) 0.000432 1922. 1922.
2243(48) 0.000441 1921. 1921.
2148(47) 0.000462 1921. 1921.
2231(47) 0.000447 1921. 1921.
2155(47) 0.000462 1921. 1921.
2151(46) 0.000464 1920. 1920.
2125(46) 0.000469 1920. 1920.
2112(46) 0.000473 1920. 1920.
2112(46) 0.000471 1919. 1919.
2029(45) 0.000487 1919. 1919.
1977(45) 0.000500 1919. 1919.
2058(46) 0.000483 1919. 1919.
1956(43) 0.000548 1918. 1918.
1949(44) 0.000512 1918. 1918.
2078(46) 0.000481 1918. 1918.
1968(44) 0.000510 1918. 1918.
1927(44) 0.000519 1917. 1917.
2013(45) 0.000496 1917. 1917.
1926(44) 0.000514 1917. 1917.
1918(44) 0.000517 1917. 1917.
1877(44) 0.000528 1916. 1916.
1964(45) 0.000505 1916. 1916.
1846(43) 0.000538 1916. 1916.
1856(43) 0.000536 1916. 1916.
1874(43) 0.000533 1915. 1915.
1799(42) 0.000556 1915. 1915.
1771(42) 0.000562 1915. 1915.
1801(43) 0.000554 1915. 1915.
1720(42) 0.000578 1914. 1914.
1807(43) 0.000546 1914. 1914.
1774(42) 0.000556 1914. 1914.
1772(42) 0.000559 1914. 1914.
1836(43) 0.000541 1913. 1913.
1716(42) 0.000581 1913. 1913.
1824(43) 0.000546 1913. 1913.
1823(43) 0.000548 1913. 1913.
1811(43) 0.000551 1913. 1913.
1757(42) 0.000567 1912. 1912.
1798(43) 0.000551 1912. 1912.
1790(43) 0.000551 1912. 1912.
1822(43) 0.000543 1912. 1912.
1758(42) 0.000564 1911. 1911.
1796(43) 0.000551 1911. 1911.
1806(43) 0.000551 1911. 1911.
1866(43) 0.000533 1911. 1911.
1828(43) 0.000546 1911. 1911.
1831(43) 0.000543 1910. 1910.
1798(43) 0.000554 1910. 1910.
1830(43) 0.000541 1910. 1910.
1798(43) 0.000551 1910. 1910.
1925(44) 0.000512 1909. 1909.
1906(44) 0.000519 1909. 1909.
1840(43) 0.000538 1909. 1909.
1952(44) 0.000510 1909. 1909.
1816(43) 0.000548 1909. 1909.
1938(44) 0.000517 1908. 1908.
1890(44) 0.000528 1908. 1908.
1941(44) 0.000512 1908. 1908.
2018(45) 0.000489 1908. 1908.
1875(44) 0.000526 1908. 1908.
2005(45) 0.000492 1907. 1907.
2089(46) 0.000475 1907. 1907.
2010(45) 0.000494 1907. 1907.
2033(45) 0.000489 1907. 1907.
2014(45) 0.000496 1907. 1907.
1952(44) 0.000512 1906. 1906.
2086(46) 0.000477 1906. 1906.
2027(45) 0.000492 1906. 1906.
2100(46) 0.000473 1906. 1906.
2159(47) 0.000459 1906. 1906.
2197(47) 0.000449 1905. 1905.
2138(47) 0.000462 1905. 1905.
2290(48) 0.000434 1905. 1905.
2279(48) 0.000438 1905. 1905.
2278(48) 0.000438 1905. 1905.
2233(47) 0.000447 1904. 1904.
2165(47) 0.000460 1904. 1904.
2139(46) 0.000466 1904. 1904.
2127(46) 0.000464 1904. 1904.
2044(46) 0.000483 1904. 1904.
2055(46) 0.000481 1903. 1903.
1979(45) 0.000500 1903. 1903.
2027(45) 0.000489 1903. 1903.
1983(45) 0.000503 1903. 1903.
1915(44) 0.000521 1903. 1903.
1966(44) 0.000507 1902. 1902.
1930(44) 0.000517 1902. 1902.
1883(44) 0.000528 1902. 1902.
1834(43) 0.000541 1902. 1902.
1917(44) 0.000517 1902. 1902.
1907(44) 0.000519 1902. 1902.
1808(43) 0.000548 1901. 1901.
1801(43) 0.000551 1901. 1901.
1812(43) 0.000551 1901. 1901.
1824(43) 0.000546 1901. 1901.
1777(42) 0.000564 1901. 1901.
1783(42) 0.000559 1901. 1901.
1788(42) 0.000559 1900. 1900.
1853(43) 0.000536 1900. 1900.
1799(43) 0.000551 1900. 1900.
1831(43) 0.000541 1900. 1900.
1807(43) 0.000548 1900. 1900.
1848(43) 0.000536 1900. 1900.
1893(44) 0.000526 1899. 1899.
1848(43) 0.000541 1899. 1899.
1810(43) 0.000554 1899. 1899.
1825(43) 0.000546 1899. 1913.
1884(44) 0.000528 1899. 1914.
1875(44) 0.000528 1899. 1914.
1858(43) 0.000533 1898. 1914.
1808(43) 0.000546 1898. 1914.
1812(43) 0.000546 1898. 1915.
1869(43) 0.000531 1898. 1915.
1876(43) 0.000531 1898. 1915.
1741(42) 0.000572 1898. 1916.
1719(42) 0.000581 1897. 1916.
1747(42) 0.000572 1897. 1916.
1624(40) 0.000613 1897. 1917.
1632(41) 0.000607 1897. 1917.
1712(42) 0.000578 1897. 1918.
1632(41) 0.000607 1897. 1918.
1666(41) 0.000595 1896. 1919.
1697(41) 0.000586 1896. 1919.
1786(42) 0.000556 1896. 1920.
1785(42) 0.000559 1896. 1921.
1757(42) 0.000570 1896. 1921.
1705(41) 0.000583 1896. 1922.
1747(42) 0.000570 1896. 1923.
1656(41) 0.000598 1895. 1924.
1727(42) 0.000572 1895. 1925.
1661(41) 0.000595 1895. 1926.
1783(43) 0.000554 1895. 1927.
1677(41) 0.000592 1895. 1928.
1768(42) 0.000564 1895. 1929.
1775(42) 0.000562 1895. 1930.
1689(41) 0.000592 1894. 1932.
1705(41) 0.000586 1894. 1933.
1661(41) 0.000601 1894. 1935.
1679(41) 0.000589 1894. 1936.
1757(42) 0.000562 1894. 1938.
1728(42) 0.000572 1894. 1940.
1736(42) 0.000570 1894. 1942.
1762(42) 0.000562 1893. 1944.
1772(42) 0.000562 1893. 1947.
1742(42) 0.000572 1893. 1950.
1787(42) 0.000559 1893. 1952.
1734(42) 0.000575 1893. 1956.
1784(42) 0.000559 1893. 1959.
1787(43) 0.000554 1893. 1963.
1761(42) 0.000562 1892. 1967.
1738(42) 0.000567 1892. 1971.
1751(42) 0.000567 1892. 1976.
1723(42) 0.000575 1892. 1981.
1840(43) 0.000541 1892. 1987.
1748(42) 0.000570 1892. 1994.
1771(42) 0.000564 1892. 2001.
1792(42) 0.000556 1891. 2009.
1766(42) 0.000564 1891. 2018.
1830(43) 0.000541 1891. 2028.
1792(43) 0.000551 1891. 2039.
1883(44) 0.000524 1891. 2052.
1851(43) 0.000536 1891. 2067.
1883(44) 0.000526 1891. 2083.
1795(43) 0.000554 1891. 2103.
1946(44) 0.000512 1890. 2125.
1952(44) 0.000512 1890. 2151.
1941(44) 0.000514 1890. 2181.
1971(45) 0.000505 1890. 2219.
2024(45) 0.000489 1890. 2266.
2112(46) 0.000469 1890. 2327.
2198(47) 0.000449 1890. 2411.
2350(49) 0.000422 1890. 2532.
2423(49) 0.000410 1889. 2708.
2580(51) 0.000386 1889. 2967.
2916(54) 0.0003404 1889. 3342.
3466(59) 0.0002873 1889. 3869.
4096(64) 0.0002426 1889. 4576.
5093(72) 0.0001945 1889. 5473.
6301(80) 0.0001562 1889. 6542.
7864(90) 0.0001248 1889. 7718.
8973(96) 0.0001092 1888. 8880.
9810(100) 0.0001000 1888. 9839.
10020(100) 0.0000978 1888. 10366.
9426(98) 0.0001045 1888. 10301.
8487(93) 0.0001166 1888. 9664.
7437(87) 0.0001333 1888. 8644.
6457(81) 0.0001536 1888. 7465.
5991(78) 0.0001652 1888. 6303.
5478(75) 0.0001802 1887. 5267.
4959(71) 0.0001989 1887. 4409.
4374(67) 0.0002248 1887. 3742.
3840(62) 0.0002568 1887. 3250.
3400(59) 0.0002922 1887. 2901.
3135(56) 0.0003166 1887. 2662.
2896(54) 0.0003442 1887. 2500.
2692(52) 0.000371 1887. 2388.
2592(51) 0.000386 1887. 2309.
2514(50) 0.000397 1886. 2251.
2411(49) 0.000411 1886. 2206.
2597(51) 0.000381 1886. 2170.
2556(51) 0.000386 1886. 2140.
2442(50) 0.000406 1886. 2115.
2455(50) 0.000403 1886. 2093.
2538(51) 0.000392 1886. 2075.
2540(51) 0.000392 1886. 2058.
2592(51) 0.000386 1885. 2044.
2655(52) 0.000376 1885. 2031.
2579(51) 0.000386 1885. 2020.
2627(52) 0.000377 1885. 2010.
2755(53) 0.000359 1885. 2001.
2695(52) 0.000366 1885. 1993.
2664(52) 0.000371 1885. 1985.
2759(53) 0.000360 1885. 1979.
2753(53) 0.000361 1885. 1973.
2809(53) 0.000355 1884. 1967.
2835(53) 0.000352 1884. 1962.
2761(53) 0.000361 1884. 1958.
2797(53) 0.000356 1884. 1953.
2803(53) 0.000360 1884. 1949.
2875(54) 0.0003442 1884. 1946.
2832(54) 0.0003494 1884. 1943.
2779(53) 0.000356 1884. 1939.
2750(53) 0.000360 1884. 1937.
2658(52) 0.000374 1883. 1934.
2632(51) 0.000379 1883. 1931.
2708(52) 0.000368 1883. 1929.
2690(52) 0.000370 1883. 1927.
2631(51) 0.000379 1883. 1925.
2603(51) 0.000380 1883. 1923.
2585(51) 0.000381 1883. 1921.
2448(50) 0.000403 1883. 1920.
2627(52) 0.000376 1883. 1918.
2453(50) 0.000405 1882. 1916.
2480(50) 0.000402 1882. 1915.
2358(49) 0.000422 1882. 1914.
2350(49) 0.000425 1882. 1912.
2367(49) 0.000422 1882. 1911.
2308(48) 0.000430 1882. 1910.
2264(48) 0.000436 1882. 1909.
2291(48) 0.000430 1882. 1908.
2239(48) 0.000441 1882. 1907.
2284(48) 0.000432 1881. 1906.
2249(48) 0.000440 1881. 1905.
2203(47) 0.000451 1881. 1904.
2165(47) 0.000460 1881. 1903.
2101(46) 0.000475 1881. 1902.
2123(46) 0.000469 1881. 1902.
2145(47) 0.000462 1881. 1901.
2164(47) 0.000457 1881. 1949.
2188(47) 0.000451 1881. 1950.
2058(46) 0.000479 1880. 1951.
2103(46) 0.000471 1880. 1951.
2047(45) 0.000485 1880. 1952.
2020(45) 0.000492 1880. 1953.
2051(45) 0.000485 1880. 1954.
2102(46) 0.000475 1880. 1955.
2037(45) 0.000489 1880. 1957.
2141(46) 0.000464 1880. 1958.
1967(45) 0.000503 1880. 1945.
1900(44) 0.000519 1879. 1947.
2117(46) 0.000466 1879. 1949.
2042(45) 0.000485 1879. 1951.
2026(45) 0.000489 1879. 1953.
2029(45) 0.000489 1879. 1955.
2009(45) 0.000496 1879. 1958.
2079(46) 0.000481 1879. 1960.
2038(45) 0.000487 1879. 1963.
2095(46) 0.000475 1879. 1966.
2087(46) 0.000475 1878. 1969.
2137(47) 0.000462 1878. 1972.
2081(46) 0.000475 1878. 1976.
2136(47) 0.000462 1878. 1979.
2058(46) 0.000483 1878. 1983.
2111(46) 0.000471 1878. 1987.
2105(46) 0.000473 1878. 1991.
2143(46) 0.000466 1878. 1996.
2150(47) 0.000462 1878. 2001.
2235(47) 0.000445 1877. 2006.
2256(48) 0.000438 1877. 2011.
2186(47) 0.000451 1877. 2017.
2178(47) 0.000453 1877. 2024.
2244(48) 0.000441 1877. 2030.
2247(48) 0.000440 1877. 2038.
2293(48) 0.000434 1877. 2045.
2153(47) 0.000462 1877. 2054.
2263(48) 0.000441 1877. 2063.
2282(48) 0.000436 1876. 2073.
2293(48) 0.000434 1876. 2083.
2361(49) 0.000420 1876. 2095.
2397(49) 0.000413 1876. 2107.
2345(49) 0.000422 1876. 2121.
2359(49) 0.000420 1876. 2136.
2401(49) 0.000413 1876. 2152.
2348(49) 0.000423 1876. 2170.
2484(50) 0.000402 1876. 2190.
2468(50) 0.000405 1876. 2211.
2562(51) 0.000389 1875. 2235.
2392(49) 0.000416 1875. 2262.
2640(52) 0.000376 1875. 2292.
2643(52) 0.000374 1875. 2325.
2634(52) 0.000376 1875. 2363.
2736(53) 0.000361 1875. 2406.
2657(52) 0.000373 1875. 2454.
2748(53) 0.000361 1875. 2509.
2856(54) 0.0003494 1875. 2572.
2750(53) 0.000363 1874. 2646.
2870(54) 0.0003468 1874. 2731.
2932(54) 0.0003392 1874. 2831.
2988(55) 0.0003318 1874. 2949.
3132(56) 0.0003155 1874. 3091.
3381(59) 0.0002912 1874. 3264.
3656(61) 0.0002705 1874. 3482.
4117(65) 0.0002404 1874. 3769.
4483(67) 0.0002214 1874. 4174.
5231(73) 0.0001897 1873. 4782.
6434(81) 0.0001543 1873. 5743.
7903(89) 0.0001254 1873. 7281.
10300(100) 0.0000956 1873. 9686.
13240(120) 0.0000737 1873. 13261.
16520(130) 0.0000586 1873. 18202.
21060(150) 0.0000457 1873. 24455.
27360(170) 0.0000350 1873. 31537.
36230(200) 0.0000261 1873. 38369.
46600(220) 0.0000201 1872. 43203.
53350(240) 0.0000175 1872. 44215.
51900(240) 0.0000180 1872. 40946.
43400(220) 0.0000217 1872. 34778.
32230(180) 0.0000297 1872. 27633.
23500(150) 0.0000441 1872. 20910.
16120(130) 0.0000602 1872. 15341.
11430(110) 0.0000851 1872. 11155.
8438(93) 0.0001161 1871. 8250.
6560(82) 0.0001502 1871. 6355.
5332(73) 0.0001856 1871. 5163.
4533(68) 0.0002188 1871. 4417.
3841(62) 0.0002593 1871. 3933.
3403(59) 0.0002922 1871. 3599.
3123(56) 0.0003177 1871. 3354.
2864(54) 0.0003442 1871. 3162.
2722(53) 0.000363 1871. 3007.
2535(51) 0.000389 1870. 2878.
2429(50) 0.000406 1870. 2770.
2411(49) 0.000410 1870. 2679.
2122(46) 0.000469 1870. 2600.
2239(47) 0.000445 1870. 2532.
2182(47) 0.000457 1870. 2473.
2171(47) 0.000459 1870. 2422.
2194(47) 0.000453 1870. 2377.
2127(46) 0.000464 1870. 2337.
1973(45) 0.000500 1869. 2301.
1955(45) 0.000505 1869. 2269.
2099(46) 0.000471 1869. 2241.
1946(44) 0.000510 1869. 2216.
2037(45) 0.000489 1869. 2193.
1998(45) 0.000498 1869. 2172.
1974(45) 0.000505 1869. 2153.
1941(44) 0.000512 1869. 2136.
1870(43) 0.000531 1869. 2120.
1917(44) 0.000517 1868. 2106.
1900(44) 0.000519 1868. 2092.
1802(43) 0.000548 1868. 2080.
1847(43) 0.000536 1868. 2069.
1806(43) 0.000548 1868. 2059.
1826(43) 0.000543 1868. 2049.
1822(43) 0.000546 1868. 2040.
1863(43) 0.000536 1868. 2032.
1771(42) 0.000562 1867. 2024.
1871(43) 0.000531 1867. 2017.
1781(42) 0.000556 1867. 2010.
1792(43) 0.000551 1867. 2004.
1745(42) 0.000567 1867. 1998.
1802(43) 0.000548 1867. 1992.
1787(42) 0.000556 1867. 1987.
1800(43) 0.000554 1867. 1982.
1869(43) 0.000533 1867. 1978.
1854(43) 0.000538 1866. 1973.
1764(42) 0.000564 1866. 1969.
1763(42) 0.000564 1866. 1965.
1791(43) 0.000554 1866. 1961.
1864(43) 0.000531 1866. 1958.
1802(43) 0.000548 1866. 1955.
1810(43) 0.000548 1866. 1951.
1860(43) 0.000533 1866. 1948.
1808(43) 0.000551 1865. 1946.
1775(42) 0.000562 1865. 1943.
1806(43) 0.000554 1865. 1967.
1872(43) 0.000531 1865. 1966.
1759(42) 0.000567 1865. 1964.
1789(43) 0.000554 1865. 1962.
1803(43) 0.000548 1865. 1961.
1741(42) 0.000567 1865. 1960.
1734(42) 0.000570 1865. 1959.
1741(42) 0.000570 1864. 1958.
1767(42) 0.000564 1864. 1957.
1754(42) 0.000567 1864. 1956.
1778(42) 0.000562 1864. 1956.
1729(42) 0.000578 1864. 1955.
1772(42) 0.000562 1864. 1955.
1748(42) 0.000567 1864. 1954.
1817(43) 0.000543 1864. 1954.
1710(42) 0.000578 1863. 1906.
1743(42) 0.000570 1863. 1907.
1823(43) 0.000543 1863. 1908.
1838(43) 0.000541 1863. 1910.
1876(43) 0.000531 1863. 1911.
1772(42) 0.000564 1863. 1913.
1846(43) 0.000538 1863. 1915.
1924(44) 0.000517 1863. 1916.
1826(43) 0.000543 1863. 1918.
1816(43) 0.000546 1862. 1920.
1889(44) 0.000524 1862. 1937.
1872(44) 0.000528 1862. 1939.
1813(43) 0.000548 1862. 1943.
1885(44) 0.000528 1862. 1946.
1930(44) 0.000517 1862. 1949.
1922(44) 0.000519 1862. 1953.
1956(44) 0.000510 1862. 1957.
1920(44) 0.000519 1861. 1961.
2028(45) 0.000489 1861. 1966.
1982(45) 0.000498 1861. 1971.
2062(46) 0.000479 1861. 1976.
2073(46) 0.000479 1861. 1981.
2140(47) 0.000462 1861. 1987.
2052(46) 0.000483 1861. 1994.
2050(45) 0.000485 1861. 2001.
2115(46) 0.000473 1861. 2009.
2116(46) 0.000471 1860. 2017.
2108(46) 0.000471 1860. 2026.
2116(46) 0.000469 1860. 2036.
2196(47) 0.000451 1860. 2047.
2090(46) 0.000473 1860. 2059.
2184(47) 0.000453 1860. 2072.
2163(47) 0.000459 1860. 2087.
2180(47) 0.000457 1860. 2103.
2240(48) 0.000443 1860. 2121.
2269(48) 0.000440 1859. 2141.
2097(46) 0.000475 1859. 2163.
2176(47) 0.000457 1859. 2188.
2221(47) 0.000445 1859. 2216.
2265(48) 0.000436 1859. 2248.
2211(47) 0.000447 1859. 2285.
2378(49) 0.000416 1859. 2327.
2304(48) 0.000429 1859. 2375.
2322(48) 0.000427 1858. 2431.
2430(49) 0.000410 1858. 2497.
2462(50) 0.000405 1858. 2575.
2493(50) 0.000398 1858. 2671.
2770(53) 0.000359 1858. 2792.
3018(55) 0.0003270 1858. 2949.
3061(56) 0.0003223 1858. 3165.
3531(60) 0.0002787 1858. 3474.
3903(63) 0.0002528 1858. 3927.
4728(69) 0.0002088 1857. 4602.
5659(76) 0.0001750 1857. 5600.
6974(84) 0.0001417 1857. 7053.
9166(96) 0.0001078 1857. 9098.
11440(110) 0.0000859 1857. 11849.
14580(120) 0.0000671 1857. 15313.
18900(140) 0.0000511 1857. 19287.
24280(160) 0.0000394 1857. 23243.
28770(170) 0.0000331 1857. 26246.
29400(180) 0.0000324 1856. 27188.
25700(160) 0.0000373 1856. 25623.
20950(150) 0.0000463 1856. 22264.
16680(130) 0.0000584 1856. 18231.
13510(120) 0.0000728 1856. 14352.
10710(100) 0.0000917 1856. 11064.
8413(92) 0.0001171 1856. 8503.
6857(84) 0.0001434 1856. 6623.
5535(75) 0.0001778 1856. 5302.
4463(67) 0.0002201 1855. 4398.
3740(62) 0.0002635 1855. 3790.
3366(58) 0.0002942 1855. 3380.
2938(54) 0.0003379 1855. 3099.
2693(52) 0.000368 1855. 2901.
2520(50) 0.000395 1855. 2754.
2368(49) 0.000420 1855. 2641.
2349(49) 0.000423 1855. 2550.
2138(47) 0.000462 1855. 2475.
2125(46) 0.000464 1855. 2411.
2108(46) 0.000469 1854. 2357.
2013(45) 0.000492 1854. 2311.
2111(46) 0.000469 1854. 2270.
2004(45) 0.000496 1854. 2235.
2030(45) 0.000489 1854. 2203.
1886(44) 0.000528 1854. 2176.
1886(44) 0.000528 1854. 2151.
1879(44) 0.000528 1854. 2130.
1856(43) 0.000533 1854. 2115.
1863(43) 0.000531 1853. 2098.
1829(43) 0.000538 1853. 2082.
1824(43) 0.000543 1853. 2068.
1837(43) 0.000541 1853. 2055.
1820(43) 0.000546 1853. 2043.
1813(43) 0.000548 1853. 2032.
1782(42) 0.000562 1853. 2022.
1828(43) 0.000546 1853. 2013.
1813(43) 0.000551 1853. 2005.
1827(43) 0.000543 1853. 1997.
1910(44) 0.000519 1852. 1990.
1835(43) 0.000538 1852. 1984.
1705(42) 0.000581 1852. 1978.
1805(43) 0.000548 1852. 1972.
1737(42) 0.000572 1852. 1967.
1789(42) 0.000556 1852. 1962.
1777(42) 0.000562 1852. 1957.
1729(42) 0.000575 1852. 1953.
1821(43) 0.000546 1852. 1949.
1737(42) 0.000570 1852. 1946.
1783(43) 0.000554 1851. 1942.
1758(42) 0.000562 1851. 1939.
1791(43) 0.000551 1851. 1936.
1747(42) 0.000567 1851. 1933.
1793(42) 0.000556 1851. 1930.
1820(43) 0.000546 1851. 1928.
1848(43) 0.000541 1851. 1926.
1798(43) 0.000554 1851. 1923.
1769(42) 0.000564 1851. 1921.
1793(43) 0.000551 1851. 1933.
1885(44) 0.000524 1851. 1932.
1786(43) 0.000554 1850. 1930.
1805(42) 0.000559 1850. 1929.
1737(42) 0.000570 1850. 1928.
1803(43) 0.000551 1850. 1927.
1802(43) 0.000554 1850. 1926.
1769(42) 0.000564 1850. 1925.
1788(42) 0.000556 1850. 1925.
1881(44) 0.000528 1850. 1924.
1823(43) 0.000543 1850. 1924.
1898(44) 0.000521 1850. 1923.
1820(43) 0.000541 1850. 1923.
1805(43) 0.000548 1850. 1923.
1784(43) 0.000554 1849. 1923.
1830(43) 0.000543 1849. 1923.
1813(43) 0.000548 1849. 1923.
1792(42) 0.000556 1849. 1923.
1820(43) 0.000548 1849. 1923.
1771(42) 0.000562 1849. 1890.
1828(43) 0.000541 1849. 1892.
1820(43) 0.000543 1849. 1893.
1915(44) 0.000514 1849. 1895.
1788(43) 0.000554 1849. 1897.
1802(43) 0.000548 1849. 1898.
1824(43) 0.000543 1849. 1900.
1799(43) 0.000554 1849. 1902.
1821(43) 0.000548 1848. 1904.
1807(43) 0.000551 1848. 1906.
1783(42) 0.000556 1848. 1909.
1811(43) 0.000546 1848. 1911.
1783(43) 0.000554 1848. 1914.
1806(43) 0.000546 1848. 1917.
1874(44) 0.000528 1848. 1920.
1828(43) 0.000543 1848. 1924.
1895(44) 0.000524 1848. 1927.
1760(42) 0.000564 1848. 1931.
1820(43) 0.000548 1848. 1935.
1836(43) 0.000543 1848. 1940.
1808(43) 0.000551 1848. 1944.
1804(43) 0.000548 1848. 1950.
1836(43) 0.000536 1848. 1955.
1818(43) 0.000543 1847. 1962.
1859(43) 0.000531 1847. 1968.
1791(43) 0.000551 1847. 1976.
1829(43) 0.000543 1847. 1984.
1797(43) 0.000554 1847. 1993.
1831(43) 0.000546 1847. 2003.
1833(43) 0.000543 1847. 2013.
1851(43) 0.000536 1847. 2026.
1934(44) 0.000512 1847. 2039.
1911(44) 0.000517 1847. 2054.
1915(44) 0.000514 1847. 2071.
1878(44) 0.000526 1847. 2089.
1998(45) 0.000496 1847. 2111.
2024(45) 0.000492 1847. 2135.
2002(45) 0.000496 1847. 2164.
2090(46) 0.000477 1847. 2197.
2154(47) 0.000462 1847. 2237.
2159(47) 0.000460 1847. 2284.
2258(48) 0.000438 1847. 2342.
2377(49) 0.000415 1846. 2415.
2400(49) 0.000411 1846. 2508.
2492(50) 0.000397 1846. 2626.
2700(52) 0.000366 1846. 2779.
2890(54) 0.0003429 1846. 2980.
3135(56) 0.0003166 1846. 3251.
3722(61) 0.0002679 1846. 3626.
4420(67) 0.0002241 1846. 4164.
5185(72) 0.0001913 1846. 4957.
6483(81) 0.0001520 1846. 6121.
8114(91) 0.0001210 1846. 7775.
9850(100) 0.0000992 1846. 9978.
12350(110) 0.0000790 1846. 12655.
15380(130) 0.0000633 1846. 15514.
19020(140) 0.0000511 1846. 17970.
22070(150) 0.0000439 1846. 19198.
21230(150) 0.0000458 1846. 18634.
18070(140) 0.0000540 1846. 16552.
13850(120) 0.0000707 1846. 13762.
10800(110) 0.0000905 1846. 10965.
8377(93) 0.0001169 1846. 8560.
6901(84) 0.0001424 1846. 6696.
5914(78) 0.0001665 1846. 5355.
5198(73) 0.0001897 1846. 4434.
4813(70) 0.0002058 1846. 3809.
4234(65) 0.0002345 1846. 3380.
3922(63) 0.0002544 1846. 3074.
3567(60) 0.0002787 1846. 2849.
3290(58) 0.0003014 1846. 2679.
3188(57) 0.0003100 1846. 2549.
2974(55) 0.0003318 1846. 2447.
2904(54) 0.0003392 1845. 2368.
2875(54) 0.0003442 1845. 2304.
2785(53) 0.000356 1845. 2253.
2683(52) 0.000370 1845. 2210.
2630(52) 0.000377 1845. 2175.
2539(50) 0.000394 1845. 2145.
2623(51) 0.000380 1845. 2119.
2566(51) 0.000388 1845. 2096.
2439(50) 0.000405 1845. 2078.
2458(50) 0.000402 1845. 2061.
2444(50) 0.000403 1845. 2045.
2409(49) 0.000410 1845. 2031.
2470(50) 0.000400 1845. 2019.
2470(50) 0.000402 1845. 2007.
2345(49) 0.000425 1845. 1997.
2479(50) 0.000402 1845. 1988.
2348(49) 0.000423 1845. 1979.
2418(49) 0.000411 1845. 1972.
2391(49) 0.000413 1845. 1965.
2408(49) 0.000410 1845. 1958.
2509(51) 0.000392 1845. 1952.
2565(51) 0.000384 1845. 1947.
2564(51) 0.000386 1845. 1942.
2571(51) 0.000386 1845. 1937.
2547(51) 0.000391 1845. 1933.
2449(50) 0.000406 1845. 1929.
2469(50) 0.000403 1845. 1925.
2430(50) 0.000408 1845. 1922.
2378(49) 0.000415 1845. 1919.
2349(49) 0.000420 1845. 1916.
2218(47) 0.000445 1845. 1913.
2299(48) 0.000430 1846. 1910.
2226(48) 0.000443 1846. 1908.
2153(47) 0.000460 1846. 1906.
2120(46) 0.000469 1846. 1904.
2166(47) 0.000460 1846. 1902.
2046(45) 0.000485 1846. 1900.
2128(46) 0.000466 1846. 1898.
2063(46) 0.000479 1846. 1939.
2016(45) 0.000489 1846. 1939.
2040(46) 0.000483 1846. 1938.
2033(45) 0.000485 1846. 1938.
2101(46) 0.000471 1846. 1938.
1947(44) 0.000510 1846. 1938.
1946(44) 0.000510 1846. 1939.
1931(44) 0.000517 1846. 1939.
1959(44) 0.000507 1846. 1940.
1920(44) 0.000517 1846. 1940.
1930(44) 0.000512 1846. 1941.
1930(44) 0.000512 1846. 1942.
1902(44) 0.000519 1846. 1943.
1887(44) 0.000524 1846. 1944.
1875(44) 0.000526 1846. 1946.
1800(43) 0.000551 1846. 1947.
1914(44) 0.000519 1846. 1949.
1875(43) 0.000531 1846. 1951.
1830(43) 0.000543 1846. 1953.
1839(43) 0.000541 1846. 1955.
1866(43) 0.000531 1846. 1957.
1815(43) 0.000543 1846. 1960.
1881(44) 0.000524 1847. 1962.
1850(43) 0.000533 1847. 1965.
1814(43) 0.000546 1847. 1968.
1840(43) 0.000541 1847. 1972.
1770(42) 0.000562 1847. 1976.
1894(44) 0.000526 1847. 1979.
1829(43) 0.000546 1847. 1984.
1953(44) 0.000510 1847. 1988.
1926(44) 0.000512 1847. 1993.
1927(44) 0.000512 1847. 1998.
1881(44) 0.000524 1847. 2004.
1957(45) 0.000505 1847. 2010.
1922(44) 0.000514 1847. 2017.
1871(43) 0.000531 1847. 2024.
1948(44) 0.000512 1847. 2031.
1912(44) 0.000521 1847. 2040.
1898(44) 0.000524 1848. 2049.
1843(43) 0.000538 1848. 2058.
1916(44) 0.000517 1848. 2069.
1939(44) 0.000510 1848. 2080.
1923(44) 0.000512 1848. 2093.
1943(44) 0.000510 1848. 2107.
1908(44) 0.000519 1848. 2122.
1980(45) 0.000500 1848. 2138.
1958(44) 0.000507 1848. 2156.
2016(45) 0.000496 1848. 2176.
2032(45) 0.000492 1848. 2198.
2011(45) 0.000496 1848. 2223.
2003(45) 0.000494 1849. 2250.
2110(46) 0.000469 1849. 2281.
2117(46) 0.000466 1849. 2303.
2160(47) 0.000457 1849. 2342.
2122(46) 0.000466 1849. 2386.
2184(47) 0.000455 1849. 2436.
2282(48) 0.000436 1849. 2494.
2343(49) 0.000425 1849. 2560.
2393(49) 0.000415 1849. 2638.
2386(49) 0.000416 1849. 2729.
2522(51) 0.000392 1850. 2838.
2689(52) 0.000367 1850. 2970.
2814(54) 0.0003494 1850. 3135.
3004(55) 0.0003282 1850. 3348.
3401(59) 0.0002912 1850. 3635.
3715(61) 0.0002670 1850. 4044.
4338(66) 0.0002282 1850. 4647.
5206(72) 0.0001908 1850. 5556.
6274(80) 0.0001578 1850. 6920.
8233(91) 0.0001197 1850. 8910.
10590(100) 0.0000923 1851. 11678.
14380(120) 0.0000675 1851. 15302.
19170(140) 0.0000502 1851. 19702.
25110(160) 0.0000382 1851. 24572.
31610(180) 0.0000301 1851. 29289.
36440(200) 0.0000260 1851. 32885.
36930(200) 0.0000257 1851. 34279.
33360(190) 0.0000287 1851. 32952.
28500(170) 0.0000336 1852. 29400.
23920(160) 0.0000403 1852. 24698.
19700(140) 0.0000490 1852. 19823.
15990(130) 0.0000606 1852. 15406.
12440(110) 0.0000785 1852. 11761.
9532(95) 0.0001113 1852. 8972.
7576(88) 0.0001297 1852. 6964.
6157(79) 0.0001602 1852. 5587.
5164(72) 0.0001913 1853. 4668.
4440(67) 0.0002241 1853. 4059.
3843(62) 0.0002585 1853. 3647.
3520(60) 0.0002815 1853. 3357.
3078(56) 0.0003212 1853. 3143.
2944(55) 0.0003342 1853. 2977.
2746(53) 0.000359 1853. 2845.
2644(52) 0.000373 1854. 2736.
2522(51) 0.000392 1854. 2644.
2362(49) 0.000420 1854. 2567.
2394(49) 0.000415 1854. 2500.
2276(48) 0.000438 1854. 2443.
2261(48) 0.000440 1854. 2393.
2196(47) 0.000453 1855. 2349.
2148(47) 0.000460 1855. 2310.
2084(46) 0.000473 1855. 2275.
2154(47) 0.000457 1855. 2245.
2095(46) 0.000473 1855. 2217.
2037(45) 0.000485 1855. 2193.
1995(45) 0.000498 1855. 2171.
2056(46) 0.000483 1856. 2151.
2041(45) 0.000487 1856. 2132.
2028(45) 0.000489 1856. 2116.
1987(45) 0.000500 1856. 2101.
2001(45) 0.000494 1856. 2087.
1916(44) 0.000514 1856. 2074.
1916(44) 0.000514 1857. 2063.
1991(45) 0.000496 1857. 2052.
2016(45) 0.000489 1857. 2042.
2005(45) 0.000494 1857. 2033.
1952(44) 0.000510 1857. 2025.
1885(44) 0.000528 1858. 2017.
1963(44) 0.000507 1858. 2010.
1998(45) 0.000496 1858. 2003.
1966(45) 0.000503 1858. 1997.
1987(45) 0.000496 1858. 1991.
1946(45) 0.000505 1858. 1986.
2011(45) 0.000492 1859. 1981.
1858(43) 0.000533 1859. 1976.
1970(45) 0.000505 1859. 1971.
1940(44) 0.000512 1859. 1967.
1945(44) 0.000512 1859. 1963.
1980(45) 0.000503 1860. 1959.
1870(43) 0.000531 1860. 1956.
1916(44) 0.000517 1860. 1953.
1822(43) 0.000543 1860. 1950.
1878(44) 0.000526 1860. 1947.
1944(44) 0.000507 1861. 1944.
1870(44) 0.000528 1861. 1941.
1868(43) 0.000531 1861. 1939.
1935(44) 0.000514 1861. 1936.
1864(43) 0.000536 1861. 1934.
1860(43) 0.000536 1862. 1932.
1891(44) 0.000526 1862. 1930.
1873(44) 0.000528 1862. 1928.
1841(43) 0.000536 1862. 1927.
1908(44) 0.000517 1862. 1925.
1898(44) 0.000521 1863. 1923.
1906(44) 0.000519 1863. 1922.
1934(44) 0.000514 1863. 1920.
1852(43) 0.000536 1863. 1919.
1860(43) 0.000536 1863. 1918.
1923(44) 0.000519 1864. 1916.
1925(44) 0.000517 1864. 1915.
1920(44) 0.000514 1864. 1914.
1967(45) 0.000503 1864. 1913.
1901(44) 0.000519 1864. 1912.
1916(44) 0.000517 1865. 1911.
1971(45) 0.000503 1865. 1910.
1960(44) 0.000507 1865. 1909.
2018(45) 0.000494 1865. 1908.
1804(43) 0.000554 1866. 1908.
1905(44) 0.000521 1866. 1907.
1979(45) 0.000503 1866. 1906.
1852(43) 0.000533 1866. 1906.
1955(45) 0.000505 1866. 1905.
1946(44) 0.000507 1867. 1904.
1946(44) 0.000507 1867. 1904.
2003(45) 0.000494 1867. 1903.
1944(44) 0.000512 1867. 1903.
1913(44) 0.000519 1868. 1903.
2000(45) 0.000498 1868. 1902.
1941(44) 0.000514 1868. 1902.
2004(45) 0.000496 1868. 1901.
2016(45) 0.000492 1869. 1901.
2111(46) 0.000471 1869. 1901.
2064(45) 0.000485 1869. 1901.
2041(45) 0.000485 1869. 1900.
2043(45) 0.000485 1870. 1900.
2064(46) 0.000481 1870. 1900.
2065(46) 0.000481 1870. 1900.
2082(46) 0.000479 1870. 1900.
2017(45) 0.000494 1871. 1900.
2034(45) 0.000487 1871. 1900.
2007(45) 0.000492 1871. 1900.
2000(45) 0.000494 1871. 1900.
2054(46) 0.000479 1872. 1876.
2095(46) 0.000471 1872. 1877.
2165(47) 0.000457 1872. 1877.
1986(45) 0.000500 1872. 1878.
2056(46) 0.000483 1873. 1879.
2012(45) 0.000496 1873. 1881.
2103(46) 0.000473 1873. 1882.
2057(46) 0.000483 1873. 1885.
2061(46) 0.000479 1874. 1887.
2081(46) 0.000475 1874. 1891.
1987(45) 0.000496 1874. 1896.
2041(46) 0.000483 1874. 1902.
2031(45) 0.000487 1875. 1910.
2013(45) 0.000492 1875. 1920.
2054(46) 0.000483 1875. 1931.
1954(44) 0.000510 1875. 1944.
2068(46) 0.000481 1876. 1958.
2074(46) 0.000479 1876. 1973.
1995(45) 0.000494 1876. 1986.
2045(46) 0.000481 1876. 1997.
2031(45) 0.000485 1877. 2003.
2037(45) 0.000485 1877. 2004.
2075(46) 0.000477 1877. 1999.
2048(45) 0.000485 1878. 1990.
1954(44) 0.000507 1878. 1978.
2015(45) 0.000494 1878. 1964.
1962(44) 0.000507 1878. 1950.
2001(45) 0.000496 1879. 1938.
1974(45) 0.000500 1879. 1926.
1985(45) 0.000496 1879. 1917.
1961(45) 0.000503 1879. 1909.
1878(44) 0.000526 1880. 1903.
1966(45) 0.000503 1880. 1898.
1953(44) 0.000507 1880. 1895.
1956(44) 0.000507 1881. 1892.
2032(45) 0.000492 1881. 1891.
1995(45) 0.000498 1881. 1889.
2006(45) 0.000494 1881. 1888.
2022(45) 0.000489 1882. 1888.
2002(45) 0.000492 1882. 1888.
1994(45) 0.000494 1882. 1887.
1913(44) 0.000517 1883. 1887.
2054(46) 0.000481 1883. 1887.
1956(44) 0.000507 1883. 1887.
1952(44) 0.000510 1883. 1887.
1873(43) 0.000531 1884. 1887.
1964(44) 0.000507 1884. 1887.
1906(44) 0.000521 1884. 1887.
1971(45) 0.000500 1885. 1887.
1939(44) 0.000507 1885. 1887.
1919(44) 0.000514 1885. 1887.
1874(44) 0.000526 1885. 1888.
1975(45) 0.000500 1886. 1888.
1948(44) 0.000510 1886. 1888.
1895(44) 0.000524 1886. 1888.
1953(44) 0.000510 1887. 1888.
1940(44) 0.000512 1887. 1888.
1870(43) 0.000531 1887. 1889.
1894(44) 0.000521 1887. 1889.
1863(44) 0.000528 1888. 1889.
1942(44) 0.000507 1888. 1889.
1917(44) 0.000514 1888. 1890.
1933(44) 0.000512 1889. 1890.
1976(45) 0.000503 1889. 1890.
1930(44) 0.000514 1889. 1890.
1912(44) 0.000521 1889. 1891.
1970(44) 0.000507 1890. 1891.
1934(44) 0.000514 1890. 1891.
1965(45) 0.000503 1890. 1896.
1883(44) 0.000524 1891. 1896.
1895(44) 0.000521 1891. 1897.
1884(44) 0.000524 1891. 1897.
1952(44) 0.000507 1892. 1898.
1903(44) 0.000521 1892. 1898.
1913(44) 0.000521 1892. 1898.
1961(44) 0.000510 1892. 1899.
1936(44) 0.000514 1893. 1899.
1875(43) 0.000531 1893. 1900.
1848(43) 0.000536 1893. 1900.
1887(44) 0.000524 1894. 1901.
1864(44) 0.000528 1894. 1901.
1777(42) 0.000556 1894. 1902.
1812(43) 0.000546 1895. 1902.
1776(42) 0.000559 1895. 1903.
1796(43) 0.000554 1895. 1903.
1749(42) 0.000570 1895. 1904.
1771(42) 0.000562 1896. 1904.
1821(43) 0.000546 1896. 1905.
1891(44) 0.000524 1896. 1905.
1852(43) 0.000533 1897. 1906.
1747(42) 0.000564 1897. 1907.
1768(42) 0.000559 1897. 1907.
1734(42) 0.000570 1898. 1908.
1759(42) 0.000564 1898. 1909.
1762(42) 0.000564 1898. 1909.
1772(42) 0.000562 1898. 1910.
1816(43) 0.000546 1899. 1911.
1871(43) 0.000531 1899. 1912.
1857(43) 0.000531 1899. 1912.
1903(44) 0.000519 1900. 1913.
1904(44) 0.000517 1900. 1914.
1798(43) 0.000548 1900. 1915.
1951(44) 0.000507 1901. 1916.
1861(43) 0.000533 1901. 1917.
1935(44) 0.000514 1901. 1918.
1984(45) 0.000503 1902. 1919.
1949(44) 0.000510 1902. 1921.
1923(44) 0.000517 1902. 1922.
1909(44) 0.000517 1902. 1923.
1929(44) 0.000510 1903. 1925.
1997(45) 0.000494 1903. 1926.
1960(45) 0.000503 1903. 1928.
1916(44) 0.000517 1904. 1930.
1939(44) 0.000512 1904. 1932.
1957(44) 0.000507 1904. 1934.
1989(45) 0.000500 1905. 1936.
1942(44) 0.000512 1905. 1938.
2029(45) 0.000489 1905. 1941.
1925(44) 0.000512 1905. 1944.
1920(44) 0.000512 1906. 1947.
1943(45) 0.000505 1906. 1951.
1945(44) 0.000507 1906. 1955.
1908(44) 0.000519 1907. 1960.
1919(44) 0.000517 1907. 1965.
1906(44) 0.000521 1907. 1971.
1943(44) 0.000512 1908. 1978.
1900(44) 0.000524 1908. 1985.
1827(43) 0.000543 1908. 1994.
1948(44) 0.000507 1908. 2005.
1933(44) 0.000510 1909. 2018.
1964(45) 0.000500 1909. 2033.
1888(44) 0.000521 1909. 2054.
1947(44) 0.000507 1910. 2082.
2108(46) 0.000471 1910. 2122.
2120(46) 0.000469 1910. 2181.
2246(48) 0.000443 1910. 2270.
2317(48) 0.000429 1911. 2401.
2435(50) 0.000406 1911. 2591.
2631(52) 0.000376 1911. 2850.
3053(56) 0.0003223 1912. 3184.
3351(58) 0.0002932 1912. 3587.
3824(62) 0.0002568 1912. 4032.
4258(66) 0.0002317 1913. 4469.
4917(71) 0.0002012 1913. 4819.
5382(74) 0.0001836 1913. 4989.
5575(75) 0.0001778 1913. 4923.
5154(72) 0.0001918 1914. 4644.
4639(69) 0.0002131 1914. 4236.
4012(64) 0.0002457 1914. 3787.
3494(60) 0.0002815 1915. 3361.
3117(56) 0.0003166 1915. 2995.
2778(53) 0.000355 1915. 2702.
2532(51) 0.000391 1915. 2483.
2323(48) 0.000427 1916. 2328.
2263(48) 0.000440 1916. 2222.
2236(47) 0.000445 1916. 2152.
2144(47) 0.000462 1917. 2105.
2240(48) 0.000443 1917. 2073.
2058(46) 0.000481 1917. 2050.
2259(48) 0.000436 1917. 2058.
2155(47) 0.000457 1918. 2045.
2213(47) 0.000445 1918. 2034.
2129(46) 0.000464 1918. 2026.
2061(46) 0.000481 1919. 2019.
2158(47) 0.000460 1919. 2013.
2155(47) 0.000462 1919. 2007.
2191(47) 0.000455 1919. 2003.
2215(47) 0.000449 1920. 1999.
2178(47) 0.000453 1920. 1996.
2167(47) 0.000455 1920. 1994.
2277(48) 0.000432 1920. 1991.
2179(47) 0.000453 1921. 1989.
2193(47) 0.000451 1921. 1988.
2200(47) 0.000451 1921. 1986.
2107(46) 0.000473 1921. 1985.
2209(47) 0.000451 1922. 1984.
2259(48) 0.000440 1922. 1984.
2219(47) 0.000447 1922. 1983.
2228(48) 0.000443 1923. 1983.
2158(47) 0.000457 1923. 1983.
2224(48) 0.000443 1923. 1983.
2149(47) 0.000459 1923. 1983.
2208(47) 0.000449 1924. 1983.
2157(47) 0.000460 1924. 1983.
2195(47) 0.000451 1924. 1984.
2211(47) 0.000451 1924. 1984.
2172(47) 0.000459 1925. 1985.
2161(47) 0.000460 1925. 1985.
2191(47) 0.000451 1925. 1986.
2134(47) 0.000462 1925. 1987.
2060(46) 0.000479 1926. 1988.
2124(46) 0.000464 1926. 1989.
2073(46) 0.000477 1926. 1990.
2166(47) 0.000459 1926. 1991.
2047(45) 0.000485 1927. 1993.
2024(45) 0.000492 1927. 1994.
1976(45) 0.000503 1927. 1996.
2072(46) 0.000479 1927. 1997.
1921(44) 0.000514 1928. 1999.
1931(44) 0.000510 1928. 2001.
1986(45) 0.000496 1928. 2003.
1885(44) 0.000524 1928. 2005.
1987(45) 0.000498 1929. 2007.
1976(45) 0.000503 1929. 2009.
1986(45) 0.000498 1929. 2011.
1929(44) 0.000517 1929. 2014.
1872(43) 0.000531 1929. 2016.
1896(44) 0.000524 1930. 2019.
1938(44) 0.000510 1930. 2022.
1950(45) 0.000505 1930. 2025.
1919(44) 0.000514 1930. 2028.
1957(45) 0.000505 1931. 2032.
1910(44) 0.000517 1931. 2035.
1803(41) 0.000589 1931. 2039.
1913(44) 0.000519 1931. 2043.
1934(44) 0.000514 1931. 2047.
1935(44) 0.000512 1932. 2052.
1941(44) 0.000512 1932. 2057.
1963(45) 0.000503 1932. 2062.
1906(44) 0.000517 1932. 2067.
1903(44) 0.000517 1933. 2069.
1988(45) 0.000496 1933. 2075.
1963(45) 0.000503 1933. 2082.
1922(44) 0.000517 1933. 2089.
1978(45) 0.000500 1933. 2097.
2050(45) 0.000485 1934. 2105.
2052(45) 0.000485 1934. 2114.
2007(45) 0.000494 1934. 2123.
2054(46) 0.000479 1934. 2134.
2021(45) 0.000487 1934. 2145.
2111(46) 0.000466 1934. 2157.
2100(46) 0.000469 1935. 2170.
2088(46) 0.000473 1935. 2184.
2219(47) 0.000447 1935. 2200.
2154(47) 0.000460 1935. 2217.
2113(46) 0.000471 1935. 2235.
2170(47) 0.000457 1936. 2256.
2156(47) 0.000460 1936. 2278.
2225(48) 0.000443 1936. 2303.
2327(49) 0.000423 1936. 2330.
2362(49) 0.000416 1936. 2361.
2377(49) 0.000415 1936. 2395.
2294(48) 0.000430 1937. 2434.
2441(50) 0.000406 1937. 2478.
2533(51) 0.000392 1937. 2527.
2475(50) 0.000402 1937. 2584.
2567(51) 0.000388 1937. 2651.
2710(52) 0.000366 1937. 2730.
2782(53) 0.000353 1938. 2826.
2894(54) 0.0003404 1938. 2947.
3044(56) 0.0003223 1938. 3105.
3134(56) 0.0003144 1938. 3315.
3505(60) 0.0002815 1938. 3604.
3824(62) 0.0002585 1938. 4002.
4404(67) 0.0002248 1939. 4552.
5042(71) 0.0001967 1939. 5300.
6046(78) 0.0001635 1939. 6293.
7476(87) 0.0001318 1939. 7573.
9493(99) 0.0001031 1939. 9163.
12250(110) 0.0000794 1939. 11056.
15340(130) 0.0000630 1939. 13206.
18160(140) 0.0000532 1939. 15508.
19900(140) 0.0000485 1940. 17793.
21380(150) 0.0000452 1940. 19809.
21680(150) 0.0000446 1940. 21247.
20960(150) 0.0000463 1940. 21820.
18570(140) 0.0000524 1940. 21395.
16340(130) 0.0000596 1940. 20071.
14270(120) 0.0000681 1940. 18123.
12280(110) 0.0000793 1940. 15861.
10950(110) 0.0000890 1941. 13548.
9770(100) 0.0001000 1941. 11368.
8845(95) 0.0001106 1941. 9432.
7805(89) 0.0001262 1941. 7795.
6608(82) 0.0001494 1941. 6470.
5558(75) 0.0001783 1941. 5436.
4772(69) 0.0002076 1941. 4654.
4181(65) 0.0002367 1941. 4078.
3752(62) 0.0002627 1941. 3676.
3401(59) 0.0002892 1941. 3374.
3131(57) 0.0003133 1942. 3154.
2859(54) 0.0003442 1942. 2990.
2787(53) 0.000355 1942. 2865.
2739(53) 0.000361 1942. 2766.
2691(52) 0.000368 1942. 2685.
2611(51) 0.000381 1942. 2618.
2516(50) 0.000403 1942. 2560.
2527(51) 0.000392 1942. 2510.
2447(50) 0.000403 1942. 2467.
2396(49) 0.000411 1942. 2428.
2425(50) 0.000406 1942. 2394.
2357(49) 0.000418 1942. 2363.
2296(48) 0.000430 1942. 2336.
2513(50) 0.000394 1942. 2311.
2382(49) 0.000416 1943. 2289.
2419(49) 0.000411 1943. 2269.
2544(51) 0.000391 1943. 2251.
2549(51) 0.000389 1943. 2235.
2610(51) 0.000379 1943. 2220.
2647(52) 0.000371 1943. 2207.
2667(52) 0.000368 1943. 2194.
2697(52) 0.000366 1943. 2183.
2683(52) 0.000367 1943. 2173.
2590(51) 0.000383 1943. 2163.
2510(50) 0.000395 1943. 2154.
2442(50) 0.000406 1943. 2146.
2363(49) 0.000420 1943. 2139.
2444(50) 0.000405 1943. 2132.
2352(49) 0.000420 1943. 2126.
2328(49) 0.000422 1943. 2120.
2357(49) 0.000416 1943. 2115.
2321(49) 0.000425 1943. 2110.
2354(49) 0.000418 1943. 2106.
2313(48) 0.000429 1943. 2102.
2344(49) 0.000423 1943. 2098.
2327(48) 0.000427 1943. 2095.
2240(48) 0.000443 1943. 2092.
2288(48) 0.000432 1943. 2089.
2145(47) 0.000460 1943. 2086.
2267(48) 0.000434 1943. 2084.
2225(48) 0.000441 1943. 2082.
2229(48) 0.000441 1943. 2080.
2186(47) 0.000453 1943. 2079.
2071(46) 0.000479 1943. 2077.
2049(46) 0.000483 1943. 2076.
2127(46) 0.000466 1943. 2076.
2173(47) 0.000457 1943. 2075.
2088(46) 0.000475 1943. 2075.
2092(46) 0.000471 1943. 2074.
2132(47) 0.000460 1943. 2074.
2037(46) 0.000483 1943. 2075.
2105(46) 0.000469 1943. 2075.
2078(46) 0.000475 1943. 2076.
2039(45) 0.000485 1943. 2077.
2052(46) 0.000483 1943. 2078.
2034(45) 0.000489 1942. 2080.
1978(45) 0.000500 1942. 2081.
1999(45) 0.000496 1942. 2083.
2002(45) 0.000492 1942. 2086.
2031(45) 0.000485 1942. 2088.
2042(46) 0.000481 1942. 2091.
2025(45) 0.000487 1942. 2094.
2030(45) 0.000487 1942. 2098.
1988(45) 0.000498 1942. 2102.
2050(46) 0.000483 1942. 2107.
2027(45) 0.000492 1942. 2112.
2038(45) 0.000487 1942. 2117.
1972(45) 0.000503 1942. 2123.
2028(45) 0.000485 1941. 2130.
2091(46) 0.000471 1941. 2138.
1994(45) 0.000494 1941. 2146.
2001(45) 0.000494 1941. 2155.
2024(45) 0.000487 1941. 2165.
2065(46) 0.000479 1941. 2176.
2074(46) 0.000479 1941. 2188.
2104(46) 0.000473 1941. 2202.
2173(47) 0.000457 1941. 2218.
2227(47) 0.000445 1940. 2235.
2233(48) 0.000441 1940. 2254.
2236(48) 0.000440 1940. 2275.
2261(48) 0.000434 1940. 2300.
2307(48) 0.000427 1940. 2327.
2322(49) 0.000425 1940. 2359.
2316(48) 0.000429 1940. 2395.
2356(49) 0.000420 1939. 2437.
2353(49) 0.000423 1939. 2487.
2467(50) 0.000403 1939. 2547.
2476(50) 0.000400 1939. 2622.
2519(51) 0.000392 1939. 2719.
2778(53) 0.000355 1939. 2848.
2822(54) 0.0003481 1939. 3024.
3117(56) 0.0003166 1938. 3243.
3440(59) 0.0002863 1938. 3582.
3871(63) 0.0002552 1938. 4047.
4436(67) 0.0002234 1938. 4672.
5396(74) 0.0001836 1938. 5489.
6539(81) 0.0001509 1937. 6518.
7649(88) 0.0001288 1937. 7764.
9370(98) 0.0001043 1937. 9204.
11210(110) 0.0000870 1937. 10778.
12920(120) 0.0000751 1937. 12381.
14560(120) 0.0000666 1937. 13855.
15330(130) 0.0000634 1936. 14989.
15640(130) 0.0000623 1936. 15570.
14160(120) 0.0000690 1936. 15463.
12440(110) 0.0000789 1936. 14696.
10730(110) 0.0000914 1935. 13435.
9830(100) 0.0001000 1935. 11901.
8776(95) 0.0001115 1935. 10292.
7906(90) 0.0001235 1935. 8750.
7097(85) 0.0001378 1935. 7364.
6186(79) 0.0001586 1934. 6181.
5316(74) 0.0001851 1934. 5217.
4295(66) 0.0002303 1934. 4461.
3926(63) 0.0002520 1934. 3887.
3528(60) 0.0002815 1933. 3463.
3206(57) 0.0003089 1933. 3156.
2909(54) 0.0003404 1933. 2934.
2824(54) 0.0003481 1933. 2773.
2624(52) 0.000376 1932. 2654.
2567(51) 0.000383 1932. 2564.
2412(50) 0.000408 1932. 2493.
2321(49) 0.000425 1932. 2435.
2315(48) 0.000429 1931. 2387.
2252(48) 0.000440 1931. 2345.
2297(48) 0.000432 1931. 2310.
2228(47) 0.000445 1930. 2279.
2199(47) 0.000451 1930. 2251.
2180(47) 0.000453 1930. 2226.
2225(48) 0.000441 1930. 2204.
2189(47) 0.000449 1929. 2185.
2029(45) 0.000485 1929. 2167.
2109(46) 0.000469 1929. 2151.
2015(45) 0.000492 1928. 2137.
2080(46) 0.000477 1928. 2123.
1992(45) 0.000498 1928. 2111.
2073(46) 0.000479 1927. 2100.
2092(46) 0.000473 1927. 2090.
2084(46) 0.000473 1927. 2081.
2017(45) 0.000487 1926. 2072.
2064(46) 0.000475 1926. 2064.
2017(45) 0.000487 1926. 2057.
2069(46) 0.000477 1925. 2050.
2068(46) 0.000479 1925. 2059.
2001(45) 0.000496 1925. 2054.
2015(45) 0.000494 1924. 2048.
1999(45) 0.000496 1924. 2044.
1981(45) 0.000500 1924. 2039.
1961(45) 0.000503 1923. 2035.
1996(45) 0.000492 1923. 2031.
2013(45) 0.000487 1923. 2028.
1908(44) 0.000517 1922. 2024.
1955(45) 0.000505 1922. 2021.
1914(44) 0.000517 1922. 2018.
1934(44) 0.000512 1921. 2016.
1908(44) 0.000521 1921. 2013.
1983(45) 0.000500 1920. 2011.
1981(45) 0.000500 1920. 2009.
1984(45) 0.000496 1920. 2007.
1863(44) 0.000528 1919. 2005.
1945(45) 0.000505 1919. 2003.
1876(44) 0.000524 1918. 2002.
1983(45) 0.000498 1918. 2001.
1923(44) 0.000517 1918. 1999.
1916(44) 0.000517 1917. 1998.
1945(44) 0.000512 1917. 1997.
1870(43) 0.000531 1916. 1996.
1862(43) 0.000533 1916. 1996.
1908(44) 0.000517 1916. 1995.
1973(45) 0.000498 1915. 1995.
1848(43) 0.000531 1915. 1995.
1930(44) 0.000510 1914. 1995.
1898(44) 0.000519 1914. 1995.
1821(43) 0.000543 1913. 1995.
1902(44) 0.000521 1913. 1995.
1890(44) 0.000526 1913. 1996.
1834(43) 0.000541 1912. 1996.
1923(44) 0.000517 1912. 1997.
1873(44) 0.000528 1911. 1998.
1988(45) 0.000496 1911. 2000.
1954(45) 0.000503 1910. 2001.
1832(43) 0.000538 1910. 2003.
1963(45) 0.000503 1909. 2005.
2007(45) 0.000494 1909. 2008.
1999(45) 0.000496 1908. 2010.
1960(44) 0.000507 1908. 2013.
1914(44) 0.000519 1907. 2017.
1962(45) 0.000505 1907. 2021.
1993(45) 0.000496 1906. 2025.
2015(45) 0.000489 1906. 2030.
1916(44) 0.000514 1905. 2036.
2083(46) 0.000475 1905. 2042.
2025(45) 0.000487 1904. 2051.
2056(46) 0.000481 1904. 2059.
2017(45) 0.000492 1903. 2068.
2018(45) 0.000494 1903. 2079.
1984(45) 0.000500 1902. 2091.
2119(46) 0.000469 1902. 2105.
2019(45) 0.000487 1901. 2121.
2032(45) 0.000485 1901. 2139.
2172(47) 0.000453 1900. 2160.
2190(47) 0.000449 1900. 2185.
2197(47) 0.000449 1899. 2215.
2304(48) 0.000430 1899. 2250.
2152(47) 0.000460 1898. 2291.
2331(48) 0.000427 1898. 2341.
2417(49) 0.000410 1897. 2403.
2580(51) 0.000384 1897. 2482.
2562(51) 0.000384 1896. 2586.
2690(52) 0.000366 1895. 2718.
2899(54) 0.0003392 1895. 2948.
3111(56) 0.0003166 1894. 3327.
3503(60) 0.0002806 1894. 3962.
4059(64) 0.0002434 1893. 4995.
5106(72) 0.0001934 1893. 6574.
6622(82) 0.0001494 1892. 8783.
9552(99) 0.0001029 1891. 11558.
14170(120) 0.0000688 1891. 14590.
19640(140) 0.0000491 1890. 17241.
22440(150) 0.0000427 1890. 18607.
19700(140) 0.0000486 1889. 18046.
15380(130) 0.0000629 1888. 15837.
11510(110) 0.0000848 1888. 12871.
8730(94) 0.0001125 1887. 9927.
6723(83) 0.0001462 1887. 7450.
5305(73) 0.0001866 1886. 5600.
4482(67) 0.0002208 1885. 4345.
3925(63) 0.0002520 1885. 3555.
3489(59) 0.0002834 1884. 3079.
3277(56) 0.0003200 1884. 2793.
2991(55) 0.0003282 1883. 2614.
2816(54) 0.0003494 1882. 2492.
2779(53) 0.000353 1882. 2403.
2618(52) 0.000377 1881. 2333.
2617(51) 0.000379 1880. 2276.
2582(51) 0.000384 1880. 2230.
2541(51) 0.000389 1879. 2191.
2509(50) 0.000394 1879. 2158.
2545(51) 0.000388 1878. 2129.
2504(51) 0.000392 1877. 2105.
2463(50) 0.000398 1877. 2084.
2585(51) 0.000380 1876. 2065.
2515(51) 0.000392 1875. 2049.
2523(51) 0.000392 1875. 2034.
2463(50) 0.000402 1874. 2022.
2484(50) 0.000400 1873. 2010.
2350(49) 0.000422 1873. 2000.
2489(50) 0.000398 1872. 1991.
2469(50) 0.000398 1871. 1982.
2425(50) 0.000405 1871. 1974.
2416(50) 0.000406 1870. 1967.
2384(49) 0.000413 1869. 1961.
2425(50) 0.000406 1869. 1955.
2418(50) 0.000408 1868. 1949.
2381(49) 0.000416 1867. 1944.
2419(49) 0.000410 1866. 1940.
2384(49) 0.000415 1866. 1935.
2313(48) 0.000427 1865. 1938.
2460(50) 0.000400 1864. 1934.
2347(49) 0.000418 1864. 1930.
2299(48) 0.000427 1863. 1927.
2334(49) 0.000422 1862. 1924.
2357(49) 0.000418 1862. 1921.
2371(49) 0.000418 1861. 1919.
2278(48) 0.000434 1860. 1916.
2316(48) 0.000429 1859. 1914.
2306(48) 0.000430 1859. 1912.
2227(47) 0.000445 1858. 1910.
2280(48) 0.000432 1857. 1908.
2229(48) 0.000441 1856. 1906.
2239(48) 0.000440 1856. 1904.
2165(47) 0.000457 1855. 1902.
2104(46) 0.000469 1854. 1901.
2081(46) 0.000477 1853. 1899.
2004(45) 0.000496 1853. 1898.
2089(46) 0.000477 1852. 1897.
2062(46) 0.000481 1851. 1895.
2041(45) 0.000485 1850. 1894.
2024(45) 0.000487 1850. 1893.
2009(45) 0.000489 1849. 1892.
2000(45) 0.000492 1848. 1891.
2025(45) 0.000487 1847. 1890.
1928(44) 0.000512 1847. 1890.
1961(45) 0.000505 1846. 1889.
1932(44) 0.000514 1845. 1888.
1940(44) 0.000512 1844. 1888.
1934(44) 0.000514 1844. 1887.
1904(44) 0.000521 1843. 1887.
1992(45) 0.000494 1842. 1887.
1865(44) 0.000526 1841. 1887.
1899(44) 0.000519 1840. 1887.
1802(43) 0.000548 1840. 1887.
1926(44) 0.000512 1839. 1887.
1867(43) 0.000531 1838. 1887.
1930(44) 0.000514 1837. 1887.
1892(44) 0.000526 1836. 1872.
1880(44) 0.000528 1836. 1873.
1754(42) 0.000567 1835. 1874.
1769(42) 0.000559 1834. 1876.
1765(42) 0.000559 1833. 1878.
1823(43) 0.000538 1832. 1879.
1837(43) 0.000538 1832. 1882.
1756(42) 0.000570 1831. 1884.
1766(42) 0.000564 1830. 1887.
1756(42) 0.000564 1829. 1890.
1757(42) 0.000567 1828. 1893.
1829(43) 0.000543 1828. 1897.
1840(43) 0.000538 1827. 1901.
1762(42) 0.000559 1826. 1907.
1763(42) 0.000559 1825. 1912.
1828(43) 0.000538 1824. 1919.
1820(43) 0.000543 1823. 1927.
1875(44) 0.000526 1823. 1936.
1922(44) 0.000514 1822. 1947.
1844(43) 0.000538 1821. 1961.
1961(44) 0.000507 1820. 1977.
1908(44) 0.000519 1819. 1996.
1888(44) 0.000524 1818. 2020.
1955(45) 0.000505 1817. 2050.
2042(46) 0.000481 1817. 2088.
2228(48) 0.000441 1816. 2136.
2227(48) 0.000443 1815. 2199.
2282(48) 0.000432 1814. 2286.
2449(50) 0.000403 1813. 2406.
2678(52) 0.000370 1812. 2580.
2895(54) 0.0003429 1811. 2831.
3334(58) 0.0002973 1811. 3187.
3577(60) 0.0002759 1810. 3673.
4011(64) 0.0002449 1809. 4301.
4668(69) 0.0002100 1808. 5052.
5403(74) 0.0001811 1807. 5868.
6302(80) 0.0001555 1806. 6636.
7083(85) 0.0001381 1805. 7184.
6865(84) 0.0001431 1805. 7337.
6533(82) 0.0001506 1804. 7035.
5630(76) 0.0001754 1803. 6390.
4565(68) 0.0002163 1802. 5588.
3908(63) 0.0002528 1801. 4782.
3339(58) 0.0002942 1800. 4066.
2989(55) 0.0003282 1799. 3484.
2672(52) 0.000367 1798. 3042.
2434(50) 0.000403 1797. 2722.
2337(49) 0.000422 1797. 2499.
2113(46) 0.000469 1796. 2343.
2122(46) 0.000466 1795. 2234.
1938(44) 0.000512 1794. 2155.
1925(44) 0.000514 1793. 2095.
1930(44) 0.000512 1792. 2049.
1990(45) 0.000494 1791. 2013.
1868(44) 0.000526 1790. 1983.
1739(42) 0.000564 1789. 1959.
1814(43) 0.000543 1788. 1939.
1822(43) 0.000541 1788. 1923.
1792(43) 0.000554 1787. 1909.
1813(43) 0.000546 1786. 1896.
1859(43) 0.000533 1785. 1886.
1770(42) 0.000559 1784. 1877.
1801(43) 0.000548 1783. 1868.
1847(43) 0.000533 1782. 1861.
1809(43) 0.000543 1781. 1854.
1755(42) 0.000559 1780. 1848.
1834(43) 0.000536 1779. 1843.
1812(43) 0.000543 1778. 1838.
1860(43) 0.000531 1778. 1833.
1847(43) 0.000536 1777. 1829.
1776(42) 0.000559 1776. 1825.
1850(43) 0.000536 1775. 1821.
1781(42) 0.000556 1774. 1818.
1865(44) 0.000528 1773. 1814.
1808(43) 0.000543 1772. 1811.
1793(43) 0.000548 1771. 1808.
1824(43) 0.000538 1770. 1806.
1763(42) 0.000559 1769. 1803.
1816(43) 0.000546 1768. 1800.
1732(42) 0.000572 1767. 1798.
1778(42) 0.000559 1766. 1796.
1852(43) 0.000536 1765. 1793.
1879(44) 0.000528 1765. 1791.
1827(43) 0.000541 1764. 1789.
1851(43) 0.000531 1763. 1787.
1815(43) 0.000541 1762. 1785.
1840(43) 0.000536 1761. 1783.
1790(43) 0.000551 1760. 1782.
1824(43) 0.000543 1759. 1780.
1817(43) 0.000546 1758. 1778.
1838(43) 0.000541 1757. 1777.
1732(42) 0.000575 1756. 1775.
1753(42) 0.000564 1755. 1773.
1756(42) 0.000562 1754. 1772.
1822(43) 0.000541 1753. 1770.
1718(42) 0.000572 1752. 1769.
1724(42) 0.000572 1751. 1767.
1857(43) 0.000531 1750. 1766.
1863(43) 0.000531 1749. 1765.
1820(43) 0.000546 1749. 1763.
1898(44) 0.000524 1748. 1762.
1896(44) 0.000521 1747. 1761.
1810(43) 0.000548 1746. 1759.
1890(44) 0.000521 1745. 1758.
1958(45) 0.000503 1744. 1757.
1938(45) 0.000505 1743. 1755.
1998(45) 0.000494 1742. 1754.
1963(45) 0.000503 1741. 1753.
2116(46) 0.000469 1740. 1752.
2052(46) 0.000483 1739. 1751.
2081(46) 0.000477 1738. 1749.
2117(46) 0.000469 1737. 1748.
2085(46) 0.000475 1736. 1747.
2038(46) 0.000483 1735. 1746.
2087(46) 0.000471 1734. 1745.
2037(46) 0.000481 1733. 1744.
2018(45) 0.000487 1732. 1743.
2077(46) 0.000475 1731. 1742.
1952(44) 0.000507 1730. 1749.
2002(45) 0.000494 1730. 1748.
1931(44) 0.000514 1729. 1747.
1990(45) 0.000498 1728. 1747.
1913(44) 0.000517 1727. 1746.
2037(46) 0.000483 1726. 1745.
1938(44) 0.000507 1725. 1744.
1926(44) 0.000510 1724. 1743.
1921(44) 0.000512 1723. 1743.
1934(44) 0.000510 1722. 1742.
1961(45) 0.000505 1721. 1742.
1947(44) 0.000507 1720. 1741.
1949(44) 0.000510 1719. 1741.
1944(44) 0.000510 1718. 1740.
1893(44) 0.000524 1717. 1740.
1939(44) 0.000507 1716. 1740.
2019(45) 0.000487 1715. 1740.
1894(44) 0.000519 1714. 1741.
1890(44) 0.000521 1713. 1742.
1950(45) 0.000505 1712. 1744.
1840(43) 0.000538 1711. 1747.
1833(43) 0.000541 1710. 1752.
1927(44) 0.000514 1709. 1759.
1973(45) 0.000500 1709. 1768.
1922(44) 0.000514 1708. 1780.
1988(45) 0.000496 1707. 1794.
1919(44) 0.000512 1706. 1812.
1995(45) 0.000492 1705. 1830.
2013(45) 0.000489 1704. 1850.
2094(46) 0.000471 1703. 1867.
2076(46) 0.000477 1702. 1881.
2111(46) 0.000469 1701. 1887.
2085(46) 0.000477 1700. 1885.
2169(47) 0.000457 1699. 1874.
2078(46) 0.000477 1698. 1858.
2016(45) 0.000487 1697. 1845.
1895(44) 0.000519 1696. 1824.
1848(43) 0.000531 1695. 1804.
1794(43) 0.000548 1694. 1787.
1814(43) 0.000543 1693. 1771.
1789(43) 0.000551 1692. 1759.
1700(41) 0.000583 1691. 1750.
1699(41) 0.000583 1691. 1742.
1648(41) 0.000601 1690. 1737.
1669(41) 0.000592 1689. 1733.
1707(42) 0.000578 1688. 1730.
1672(41) 0.000589 1687. 1727.
1690(42) 0.000581 1686. 1725.
1622(41) 0.000607 1685. 1724.
1695(41) 0.000583 1684. 1723.
1592(40) 0.000622 1683. 1722.
1615(40) 0.000613 1682. 1721.
1677(41) 0.000592 1681. 1720.
1686(41) 0.000589 1680. 1719.
1625(41) 0.000610 1679. 1719.
1572(40) 0.000625 1678. 1718.
1653(41) 0.000595 1677. 1718.
1670(41) 0.000589 1677. 1717.
1570(40) 0.000628 1676. 1717.
1587(40) 0.000622 1675. 1717.
1658(41) 0.000598 1674. 1716.
1549(40) 0.000641 1673. 1714.
1578(40) 0.000628 1672. 1714.
1562(40) 0.000634 1671. 1714.
1602(40) 0.000619 1670. 1714.
1552(40) 0.000634 1669. 1718.
1530(39) 0.000644 1668. 1718.
1688(42) 0.000581 1667. 1718.
1631(41) 0.000604 1666. 1718.
1596(40) 0.000619 1665. 1719.
1578(40) 0.000628 1665. 1719.
1574(40) 0.000628 1664. 1720.
1621(40) 0.000613 1663. 1720.
1602(40) 0.000619 1662. 1721.
1511(39) 0.000654 1661. 1722.
1528(39) 0.000644 1660. 1723.
1576(40) 0.000625 1659. 1724.
1535(40) 0.000641 1658. 1725.
1514(39) 0.000651 1657. 1726.
1592(40) 0.000619 1656. 1727.
1523(39) 0.000651 1655. 1728.
1556(40) 0.000638 1655. 1730.
1499(39) 0.000664 1654. 1732.
1559(40) 0.000634 1653. 1733.
1578(40) 0.000625 1652. 1735.
1549(40) 0.000634 1651. 1737.
1625(41) 0.000604 1650. 1739.
1636(41) 0.000598 1649. 1742.
1645(41) 0.000598 1648. 1744.
1567(40) 0.000628 1647. 1747.
1614(40) 0.000613 1647. 1750.
1596(40) 0.000619 1646. 1753.
1604(40) 0.000619 1645. 1757.
1572(40) 0.000631 1644. 1760.
1585(40) 0.000625 1643. 1764.
1529(39) 0.000644 1642. 1769.
1584(40) 0.000622 1641. 1773.
1594(40) 0.000616 1640. 1778.
1606(40) 0.000613 1640. 1784.
1614(41) 0.000610 1639. 1790.
1562(40) 0.000634 1638. 1796.
1642(41) 0.000604 1637. 1803.
1601(40) 0.000619 1636. 1811.
1596(40) 0.000619 1635. 1819.
1641(41) 0.000604 1634. 1828.
1604(40) 0.000613 1634. 1837.
1615(41) 0.000607 1633. 1848.
1645(41) 0.000595 1632. 1860.
1624(41) 0.000607 1631. 1872.
1718(42) 0.000575 1630. 1886.
1709(42) 0.000578 1629. 1902.
1732(42) 0.000572 1628. 1918.
1752(41) 0.000607 1628. 1937.
1749(42) 0.000567 1627. 1958.
1770(42) 0.000559 1626. 1981.
1778(43) 0.000554 1625. 2007.
1845(43) 0.000531 1624. 2036.
1883(44) 0.000521 1623. 2068.
2003(45) 0.000489 1623. 2106.
1994(45) 0.000494 1622. 2149.
2045(46) 0.000483 1621. 2200.
2152(47) 0.000459 1620. 2260.
2235(48) 0.000443 1619. 2333.
2369(49) 0.000416 1619. 2424.
2530(51) 0.000391 1618. 2537.
2670(52) 0.000367 1617. 2681.
2823(54) 0.0003468 1616. 2868.
3146(57) 0.0003111 1615. 3110.
3435(59) 0.0002853 1615. 3427.
3890(63) 0.0002520 1614. 3842.
4469(67) 0.0002201 1613. 4385.
5350(74) 0.0001841 1612. 5088.
6541(81) 0.0001509 1611. 5985.
8095(91) 0.0001213 1611. 7107.
9940(100) 0.0000984 1610. 8470.
12150(110) 0.0000797 1609. 10068.
14360(120) 0.0000672 1608. 11859.
16390(130) 0.0000587 1607. 13751.
18390(140) 0.0000523 1607. 15593.
20060(150) 0.0000479 1606. 17168.
20940(150) 0.0000460 1605. 18211.
20220(150) 0.0000477 1604. 18493.
18670(140) 0.0000520 1604. 17944.
16420(130) 0.0000591 1603. 16698.
14270(120) 0.0000682 1602. 15007.
12620(110) 0.0000769 1601. 13126.
10960(110) 0.0000885 1601. 11252.
9720(100) 0.0000998 1600. 9516.
8551(94) 0.0001139 1599. 7990.
7465(87) 0.0001309 1598. 6704.
6619(82) 0.0001484 1598. 5657.
5916(78) 0.0001661 1597. 4825.
5184(72) 0.0001908 1596. 4176.
4538(68) 0.0002175 1595. 3677.
4115(65) 0.0002396 1595. 3295.
3585(61) 0.0002732 1594. 3003.
3111(56) 0.0003155 1593. 2780.
2896(54) 0.0003379 1592. 2607.
2667(52) 0.000368 1592. 2472.
2442(50) 0.000403 1591. 2365.
2267(48) 0.000436 1590. 2280.
2291(48) 0.000432 1590. 2210.
2138(46) 0.000464 1589. 2151.
2005(45) 0.000494 1588. 2102.
1938(44) 0.000512 1587. 2059.
1898(44) 0.000519 1587. 2022.
1872(44) 0.000526 1586. 1989.
1836(43) 0.000533 1585. 1959.
1914(44) 0.000514 1585. 1933.
1816(43) 0.000543 1584. 1909.
1779(42) 0.000556 1583. 1888.
1690(41) 0.000586 1583. 1868.
1730(42) 0.000575 1582. 1851.
1650(41) 0.000601 1581. 1834.
1720(42) 0.000575 1581. 1819.
1652(41) 0.000598 1580. 1805.
1658(41) 0.000592 1579. 1793.
1629(41) 0.000604 1579. 1781.
1691(41) 0.000583 1578. 1770.
1671(41) 0.000589 1577. 1760.
1588(40) 0.000622 1577. 1750.
1615(40) 0.000616 1576. 1742.
1637(41) 0.000607 1575. 1733.
1615(40) 0.000613 1575. 1726.
1719(42) 0.000575 1574. 1719.
1599(40) 0.000616 1573. 1712.
1561(40) 0.000628 1573. 1706.
1552(40) 0.000631 1572. 1700.
1584(40) 0.000622 1572. 1694.
1611(40) 0.000613 1571. 1689.
1657(41) 0.000598 1570. 1684.
1583(40) 0.000625 1570. 1679.
1594(40) 0.000625 1569. 1674.
1540(39) 0.000644 1569. 1670.
1610(40) 0.000616 1568. 1666.
1624(41) 0.000607 1567. 1662.
1627(41) 0.000604 1567. 1659.
1582(40) 0.000619 1566. 1655.
1577(40) 0.000625 1566. 1652.
1560(40) 0.000631 1565. 1649.
1570(40) 0.000628 1564. 1646.
1550(40) 0.000641 1564. 1643.
1541(39) 0.000644 1563. 1640.
1550(40) 0.000638 1563. 1638.
1536(39) 0.000644 1562. 1635.
1575(40) 0.000638 1562. 1633.
1630(41) 0.000604 1561. 1631.
1603(40) 0.000613 1560. 1628.
1524(39) 0.000644 1560. 1626.
1552(40) 0.000634 1559. 1625.
1561(40) 0.000634 1559. 1623.
1548(40) 0.000641 1558. 1621.
1629(41) 0.000610 1558. 1619.
1574(40) 0.000628 1557. 1618.
1567(40) 0.000631 1557. 1617.
1607(40) 0.000613 1556. 1615.
1524(39) 0.000644 1556. 1614.
1579(40) 0.000622 1555. 1613.
1644(41) 0.000598 1555. 1612.
1625(41) 0.000607 1554. 1611.
1545(40) 0.000638 1554. 1611.
1513(39) 0.000654 1553. 1610.
1569(40) 0.000631 1553. 1610.
1678(41) 0.000589 1552. 1610.
1569(40) 0.000628 1552. 1610.
1570(40) 0.000628 1551. 1610.
1575(40) 0.000625 1551. 1610.
1590(40) 0.000616 1550. 1611.
1614(41) 0.000610 1550. 1612.
1524(39) 0.000647 1549. 1614.
1538(39) 0.000644 1549. 1616.
1506(39) 0.000657 1548. 1618.
1590(40) 0.000625 1548. 1621.
1603(40) 0.000616 1547. 1626.
1648(41) 0.000601 1547. 1632.
1627(41) 0.000604 1546. 1641.
1577(40) 0.000622 1546. 1654.
1547(40) 0.000634 1546. 1673.
1634(41) 0.000601 1545. 1701.
1699(42) 0.000578 1545. 1739.
1711(42) 0.000575 1544. 1792.
1746(42) 0.000567 1544. 1862.
1837(43) 0.000538 1543. 1949.
1892(44) 0.000524 1543. 2055.
1952(45) 0.000505 1543. 2174.
2080(46) 0.000473 1542. 2300.
2147(47) 0.000457 1542. 2420.
2248(48) 0.000436 1541. 2492.
2151(47) 0.000457 1541. 2546.
2095(46) 0.000471 1541. 2547.
2097(46) 0.000471 1540. 2488.
2046(46) 0.000483 1540. 2389.
1885(44) 0.000526 1539. 2267.
1780(42) 0.000556 1539. 2140.
1686(41) 0.000586 1539. 2020.
1712(42) 0.000575 1538. 1915.
1680(41) 0.000583 1538. 1827.
1659(41) 0.000592 1538. 1757.
1620(41) 0.000607 1537. 1704.
1511(39) 0.000651 1537. 1666.
1589(40) 0.000622 1537. 1638.
1522(39) 0.000651 1536. 1618.
1512(39) 0.000657 1536. 1604.
1536(39) 0.000644 1536. 1594.
1569(40) 0.000631 1535. 1587.
1513(39) 0.000651 1535. 1581.
1555(40) 0.000631 1535. 1576.
1561(40) 0.000628 1534. 1572.
1566(40) 0.000628 1534. 1569.
1546(40) 0.000638 1534. 1566.
1587(40) 0.000622 1533. 1563.
1519(39) 0.000651 1533. 1561.
1499(39) 0.000661 1533. 1559.
1508(39) 0.000657 1532. 1558.
1476(39) 0.000671 1532. 1556.
1476(39) 0.000668 1532. 1555.
1552(40) 0.000631 1532. 1553.
1532(40) 0.000641 1531. 1552.
1511(39) 0.000651 1531. 1551.
1507(39) 0.000654 1531. 1550.
1516(39) 0.000654 1531. 1549.
1528(39) 0.000647 1530. 1549.
1542(39) 0.000644 1530. 1548.
1554(40) 0.000638 1530. 1547.
1539(39) 0.000644 1530. 1547.
1533(39) 0.000644 1529. 1546.
1576(40) 0.000625 1529. 1546.
1553(40) 0.000631 1529. 1545.
1594(40) 0.000619 1529. 1545.
1535(40) 0.000641 1528. 1545.
1537(39) 0.000644 1528. 1544.
1600(40) 0.000619 1528. 1544.
1482(39) 0.000671 1528. 1544.
1514(39) 0.000654 1528. 1544.
1584(40) 0.000625 1527. 1544.
1521(39) 0.000647 1527. 1544.
1558(40) 0.000631 1527. 1543.
1552(40) 0.000631 1527. 1543.
1529(39) 0.000644 1527. 1543.
1526(39) 0.000644 1526. 1544.
1520(39) 0.000651 1526. 1544.
1619(41) 0.000610 1526. 1544.
1544(39) 0.000644 1526. 1544.
1637(41) 0.000604 1526. 1544.
1611(40) 0.000613 1526. 1544.
1620(41) 0.000607 1525. 1545.
1582(40) 0.000622 1525. 1545.
1637(41) 0.000598 1525. 1545.
1563(40) 0.000628 1525. 1546.
1603(40) 0.000616 1525. 1546.
1618(41) 0.000610 1525. 1547.
1543(40) 0.000641 1525. 1548.
1672(41) 0.000595 1524. 1548.
1667(41) 0.000595 1524. 1549.
1638(41) 0.000604 1524. 1550.
1602(40) 0.000613 1524. 1551.
1588(40) 0.000619 1524. 1552.
1712(42) 0.000572 1524. 1553.
1617(41) 0.000607 1524. 1554.
1653(41) 0.000595 1524. 1556.
1590(40) 0.000622 1524. 1557.
1625(41) 0.000610 1524. 1559.
1607(40) 0.000616 1523. 1561.
1723(42) 0.000572 1523. 1563.
1770(42) 0.000559 1523. 1565.
1737(42) 0.000567 1523. 1568.
1661(41) 0.000589 1523. 1571.
1741(42) 0.000562 1523. 1574.
1792(43) 0.000548 1523. 1577.
1715(42) 0.000575 1523. 1581.
1725(42) 0.000572 1523. 1585.
1742(42) 0.000567 1523. 1590.
1708(42) 0.000581 1523. 1596.
1742(42) 0.000567 1523. 1603.
1728(42) 0.000572 1523. 1611.
1788(43) 0.000548 1523. 1620.
1751(42) 0.000559 1523. 1632.
1848(43) 0.000531 1523. 1648.
1808(43) 0.000543 1523. 1668.
1797(43) 0.000546 1523. 1694.
1878(44) 0.000526 1523. 1728.
1925(44) 0.000514 1523. 1773.
1929(44) 0.000514 1523. 1830.
1986(45) 0.000498 1523. 1903.
2087(46) 0.000473 1523. 1993.
2053(46) 0.000479 1523. 2102.
2131(47) 0.000460 1523. 2232.
2358(49) 0.000415 1523. 2380.
2418(50) 0.000406 1523. 2545.
2524(51) 0.000391 1523. 2721.
2618(52) 0.000377 1523. 2900.
2707(52) 0.000364 1523. 3070.
2743(53) 0.000361 1523. 3217.
2740(53) 0.000360 1523. 3324.
2760(53) 0.000357 1523. 3374.
2698(52) 0.000364 1523. 3362.
2541(51) 0.000386 1523. 3288.
2488(50) 0.000394 1523. 3165.
2423(50) 0.000405 1523. 3007.
2300(48) 0.000427 1523. 2832.
2296(48) 0.000430 1523. 2654.
2223(47) 0.000445 1524. 2481.
2209(47) 0.000449 1524. 2322.
2140(47) 0.000462 1524. 2181.
2070(46) 0.000477 1524. 2059.
1948(45) 0.000505 1524. 1957.
1959(45) 0.000500 1524. 1873.
1858(44) 0.000528 1524. 1807.
1921(44) 0.000512 1524. 1755.
1847(43) 0.000533 1524. 1714.
1872(44) 0.000528 1524. 1684.
1869(44) 0.000528 1525. 1660.
1824(43) 0.000543 1525. 1642.
1852(43) 0.000536 1525. 1628.
1801(43) 0.000551 1525. 1617.
1796(43) 0.000548 1525. 1608.
1807(43) 0.000543 1525. 1601.
1749(42) 0.000562 1525. 1594.
1897(44) 0.000519 1526. 1589.
1793(43) 0.000548 1526. 1584.
1793(43) 0.000551 1526. 1580.
1740(42) 0.000570 1526. 1577.
1755(42) 0.000564 1526. 1573.
1661(41) 0.000595 1526. 1571.
1760(42) 0.000562 1526. 1568.
1763(42) 0.000559 1527. 1566.
1796(43) 0.000546 1527. 1563.
1782(43) 0.000548 1527. 1562.
1724(42) 0.000570 1527. 1560.
1846(43) 0.000533 1527. 1558.
1741(42) 0.000567 1528. 1557.
1767(42) 0.000559 1528. 1555.
1747(42) 0.000567 1528. 1554.
1720(42) 0.000575 1528. 1553.
1707(42) 0.000578 1528. 1552.
1674(41) 0.000586 1529. 1551.
1652(41) 0.000592 1529. 1550.
1613(41) 0.000607 1529. 1550.
1665(41) 0.000589 1529. 1549.
1667(41) 0.000589 1530. 1548.
1651(41) 0.000598 1530. 1548.
1691(41) 0.000583 1530. 1547.
1664(41) 0.000595 1530. 1547.
1655(41) 0.000595 1530. 1546.
1606(40) 0.000613 1531. 1546.
1648(41) 0.000595 1531. 1546.
1717(42) 0.000570 1531. 1545.
1579(40) 0.000619 1531. 1545.
1706(42) 0.000575 1532. 1545.
1732(42) 0.000570 1532. 1545.
1612(40) 0.000613 1532. 1544.
1670(41) 0.000592 1533. 1544.
1623(40) 0.000619 1533. 1544.
1594(39) 0.000657 1533. 1544.
1621(41) 0.000610 1533. 1544.
1612(41) 0.000610 1534. 1544.
1594(40) 0.000616 1534. 1544.
1542(40) 0.000634 1534. 1544.
1566(40) 0.000628 1534. 1544.
1595(40) 0.000616 1535. 1544.
1548(40) 0.000638 1535. 1544.
1566(40) 0.000631 1535. 1544.
1559(40) 0.000634 1536. 1544.
1565(40) 0.000631 1536. 1544.
1490(39) 0.000661 1536. 1544.
1571(40) 0.000625 1537. 1544.
1572(40) 0.000625 1537. 1544.
1509(39) 0.000647 1537. 1545.
1575(40) 0.000625 1538. 1545.
1496(39) 0.000657 1538. 1545.
1514(39) 0.000654 1538. 1545.
1486(39) 0.000664 1539. 1545.
1511(39) 0.000657 1539. 1545.
1564(40) 0.000631 1539. 1545.
1557(40) 0.000634 1540. 1546.
1633(41) 0.000601 1540. 1546.
1532(40) 0.000641 1540. 1546.
1588(40) 0.000616 1541. 1546.
1496(39) 0.000654 1541. 1547.
1579(40) 0.000622 1541. 1547.
1565(40) 0.000631 1542. 1547.
1496(39) 0.000661 1542. 1547.
1559(40) 0.000634 1543. 1547.
1577(40) 0.000625 1543. 1548.
1559(40) 0.000634 1543. 1548.
1548(40) 0.000634 1544. 1548.
1524(39) 0.000644 1544. 1549.
1510(39) 0.000647 1544. 1549.
1468(39) 0.000671 1545. 1549.
1522(39) 0.000647 1545. 1549.
1540(40) 0.000641 1546. 1550.
1431(38) 0.000689 1546. 1550.
1530(39) 0.000647 1546. 1550.
1599(40) 0.000619 1547. 1551.
1546(40) 0.000641 1547. 1551.
1539(40) 0.000638 1548. 1556.
1525(39) 0.000644 1548. 1557.
1524(39) 0.000644 1548. 1557.
1533(40) 0.000641 1549. 1558.
1481(39) 0.000664 1549. 1558.
1493(39) 0.000661 1550. 1555.
1539(39) 0.000644 1550. 1556.
1576(40) 0.000628 1551. 1556.
1556(40) 0.000634 1551. 1557.
1603(40) 0.000616 1551. 1557.
1587(40) 0.000619 1552. 1558.
1488(39) 0.000661 1552. 1559.
1563(40) 0.000628 1553. 1559.
1574(40) 0.000625 1553. 1560.
1629(41) 0.000604 1554. 1560.
1555(40) 0.000638 1554. 1561.
1526(39) 0.000647 1554. 1561.
1606(40) 0.000619 1555. 1562.
1633(41) 0.000607 1555. 1563.
1575(40) 0.000628 1556. 1563.
1596(40) 0.000616 1556. 1564.
1594(40) 0.000616 1557. 1565.
1583(40) 0.000619 1557. 1565.
1567(40) 0.000628 1558. 1566.
1577(40) 0.000625 1558. 1567.
1633(41) 0.000604 1559. 1567.
1567(40) 0.000631 1559. 1568.
1586(40) 0.000625 1560. 1569.
1563(40) 0.000631 1560. 1569.
1587(40) 0.000622 1561. 1570.
1503(39) 0.000654 1561. 1571.
1565(40) 0.000628 1561. 1572.
1554(40) 0.000631 1562. 1572.
1530(39) 0.000644 1562. 1573.
1583(40) 0.000622 1563. 1574.
1559(40) 0.000634 1563. 1575.
1510(39) 0.000654 1564. 1576.
1556(40) 0.000638 1564. 1576.
1613(40) 0.000613 1565. 1577.
1555(40) 0.000638 1565. 1578.
1643(41) 0.000598 1566. 1579.
1475(39) 0.000664 1566. 1580.
1510(39) 0.000651 1567. 1581.
1658(41) 0.000592 1567. 1582.
1522(39) 0.000647 1568. 1583.
1553(40) 0.000634 1568. 1584.
1572(40) 0.000628 1569. 1585.
1537(39) 0.000644 1570. 1586.
1584(40) 0.000625 1570. 1587.
1580(40) 0.000625 1571. 1588.
1535(40) 0.000641 1571. 1589.
1598(40) 0.000613 1572. 1590.
1584(40) 0.000619 1572. 1591.
1541(40) 0.000638 1573. 1593.
1506(39) 0.000654 1573. 1594.
1575(40) 0.000628 1574. 1595.
1537(39) 0.000644 1574. 1597.
1554(40) 0.000638 1575. 1598.
1470(39) 0.000671 1575. 1600.
1537(39) 0.000644 1576. 1601.
1542(40) 0.000638 1576. 1603.
1525(39) 0.000644 1577. 1605.
1529(40) 0.000641 1577. 1606.
1515(39) 0.000647 1578. 1608.
1550(40) 0.000634 1579. 1610.
1613(40) 0.000613 1579. 1612.
1459(38) 0.000678 1580. 1616.
1592(40) 0.000622 1580. 1618.
1563(40) 0.000631 1581. 1621.
1612(40) 0.000613 1581. 1623.
1524(39) 0.000644 1582. 1626.
1628(41) 0.000604 1582. 1629.
1646(41) 0.000595 1583. 1632.
1597(40) 0.000613 1583. 1636.
1530(40) 0.000641 1584. 1640.
1687(41) 0.000583 1585. 1644.
1622(41) 0.000610 1585. 1648.
1577(40) 0.000628 1586. 1653.
1560(40) 0.000634 1586. 1658.
1639(41) 0.000601 1587. 1663.
1715(42) 0.000572 1587. 1669.
1733(42) 0.000564 1588. 1676.
1647(41) 0.000595 1589. 1684.
1725(42) 0.000570 1589. 1692.
1745(42) 0.000562 1590. 1702.
1680(41) 0.000586 1590. 1713.
1732(42) 0.000570 1591. 1725.
1741(42) 0.000570 1591. 1739.
1826(43) 0.000541 1592. 1756.
1882(44) 0.000524 1593. 1776.
1866(44) 0.000526 1593. 1802.
1981(45) 0.000494 1594. 1834.
1924(44) 0.000510 1594. 1878.
2026(45) 0.000485 1595. 1938.
2049(46) 0.000481 1595. 2021.
2250(48) 0.000438 1596. 2136.
2353(49) 0.000420 1597. 2292.
2578(51) 0.000384 1597. 2501.
2852(54) 0.0003468 1598. 2770.
3056(56) 0.0003223 1598. 3106.
3485(60) 0.0002806 1599. 3508.
3751(62) 0.0002610 1599. 3965.
4248(66) 0.0002296 1600. 4455.
4779(70) 0.0002047 1601. 4941.
5580(76) 0.0001750 1601. 5368.
6220(80) 0.0001578 1602. 5672.
6872(84) 0.0001427 1602. 5789.
6801(83) 0.0001448 1603. 5693.
6607(82) 0.0001487 1603. 5406.
5873(77) 0.0001669 1604. 4988.
5172(73) 0.0001892 1605. 4506.
4593(69) 0.0002131 1605. 4016.
4070(65) 0.0002396 1606. 3556.
3391(59) 0.0002892 1606. 3150.
2942(55) 0.0003342 1607. 2809.
2749(53) 0.000359 1608. 2535.
2507(50) 0.000394 1608. 2322.
2334(49) 0.000425 1609. 2163.
2153(47) 0.000459 1609. 2046.
2016(45) 0.000489 1610. 1962.
1945(45) 0.000505 1611. 1901.
1864(44) 0.000526 1611. 1857.
1829(43) 0.000536 1612. 1825.
1783(43) 0.000551 1612. 1800.
1770(42) 0.000556 1613. 1780.
1747(42) 0.000567 1613. 1765.
1715(42) 0.000578 1614. 1751.
1694(41) 0.000586 1615. 1740.
1764(42) 0.000562 1615. 1731.
1730(42) 0.000570 1616. 1723.
1649(41) 0.000595 1616. 1715.
1747(42) 0.000562 1617. 1709.
1685(42) 0.000581 1618. 1703.
1632(41) 0.000601 1618. 1698.
1658(41) 0.000592 1619. 1694.
1639(41) 0.000604 1619. 1690.
1637(41) 0.000604 1620. 1687.
1640(41) 0.000604 1620. 1684.
1639(41) 0.000604 1621. 1681.
1608(40) 0.000613 1622. 1679.
1661(41) 0.000592 1622. 1677.
1683(41) 0.000583 1623. 1675.
1641(41) 0.000598 1623. 1673.
1640(41) 0.000598 1624. 1672.
1687(41) 0.000583 1625. 1670.
1752(42) 0.000564 1625. 1669.
1679(41) 0.000589 1626. 1668.
1647(41) 0.000601 1626. 1667.
1726(42) 0.000572 1627. 1667.
1615(40) 0.000613 1627. 1666.
1605(40) 0.000613 1628. 1666.
1620(41) 0.000607 1629. 1665.
1581(40) 0.000619 1629. 1665.
1619(41) 0.000607 1630. 1665.
1623(41) 0.000607 1630. 1665.
1625(41) 0.000607 1631. 1664.
1664(41) 0.000592 1631. 1665.
1711(42) 0.000581 1632. 1665.
1629(41) 0.000607 1633. 1665.
1591(40) 0.000622 1633. 1665.
1713(42) 0.000572 1634. 1665.
1618(41) 0.000604 1634. 1666.
1643(41) 0.000595 1635. 1666.
1711(42) 0.000572 1635. 1667.
1651(41) 0.000595 1636. 1667.
1701(42) 0.000581 1637. 1668.
1708(42) 0.000578 1637. 1670.
1677(41) 0.000589 1638. 1671.
1701(42) 0.000581 1638. 1672.
1668(41) 0.000592 1639. 1673.
1639(41) 0.000598 1639. 1674.
1685(42) 0.000581 1640. 1676.
1608(41) 0.000610 1641. 1677.
1643(41) 0.000598 1641. 1678.
1730(42) 0.000567 1642. 1680.
1724(42) 0.000572 1642. 1681.
1647(41) 0.000598 1643. 1683.
1670(41) 0.000592 1643. 1685.
1702(42) 0.000581 1644. 1687.
1713(42) 0.000575 1644. 1690.
1706(42) 0.000575 1645. 1693.
1759(42) 0.000556 1646. 1696.
1744(42) 0.000562 1646. 1699.
1655(41) 0.000592 1647. 1703.
1651(41) 0.000595 1647. 1708.
1726(42) 0.000572 1648. 1714.
1757(42) 0.000562 1648. 1721.
1752(42) 0.000564 1649. 1729.
1697(42) 0.000581 1649. 1740.
1780(43) 0.000554 1650. 1753.
1721(42) 0.000570 1650. 1769.
1794(43) 0.000546 1651. 1788.
1818(43) 0.000538 1651. 1811.
1749(42) 0.000562 1652. 1839.
1850(43) 0.000531 1653. 1872.
1923(44) 0.000514 1653. 1911.
2009(45) 0.000492 1654. 1955.
2074(46) 0.000477 1654. 2005.
2182(47) 0.000453 1655. 2061.
2300(48) 0.000429 1655. 2121.
2439(50) 0.000402 1656. 2184.
2296(48) 0.000427 1656. 2254.
2402(50) 0.000408 1657. 2319.
2428(50) 0.000405 1657. 2380.
2422(50) 0.000405 1658. 2435.
2462(50) 0.000402 1658. 2478.
2349(49) 0.000420 1659. 2507.
2336(49) 0.000423 1659. 2519.
2287(48) 0.000430 1660. 2512.
2266(48) 0.000436 1660. 2487.
2191(47) 0.000447 1661. 2447.
2118(47) 0.000462 1661. 2396.
2116(47) 0.000462 1662. 2331.
2060(46) 0.000477 1662. 2268.
2069(46) 0.000475 1663. 2204.
2130(47) 0.000462 1663. 2141.
2164(47) 0.000457 1664. 2081.
2098(46) 0.000473 1664. 2026.
2081(46) 0.000475 1665. 1976.
2057(46) 0.000481 1665. 1932.
1969(45) 0.000498 1666. 1893.
2007(45) 0.000489 1666. 1860.
2016(45) 0.000485 1667. 1832.
1938(44) 0.000507 1667. 1809.
1991(45) 0.000494 1668. 1790.
1974(45) 0.000500 1668. 1775.
1932(44) 0.000512 1669. 1763.
1893(44) 0.000524 1669. 1753.
1911(44) 0.000517 1669. 1745.
2016(45) 0.000489 1670. 1739.
1836(43) 0.000536 1670. 1734.
1801(43) 0.000543 1671. 1731.
1846(43) 0.000531 1671. 1728.
1812(43) 0.000543 1672. 1725.
1813(43) 0.000543 1672. 1723.
1761(42) 0.000559 1673. 1721.
1837(43) 0.000538 1673. 1720.
1832(43) 0.000541 1674. 1719.
1861(43) 0.000531 1674. 1718.
1822(43) 0.000541 1674. 1718.
1876(44) 0.000521 1675. 1717.
1854(44) 0.000528 1675. 1717.
1796(43) 0.000543 1676. 1716.
1831(43) 0.000536 1676. 1716.
1773(43) 0.000554 1677. 1716.
1757(42) 0.000562 1677. 1716.
1853(43) 0.000533 1677. 1717.
1824(43) 0.000541 1678. 1717.
1813(43) 0.000543 1678. 1717.
1766(42) 0.000559 1679. 1718.
1818(43) 0.000541 1679. 1718.
1724(42) 0.000567 1679. 1719.
1774(43) 0.000551 1680. 1720.
1759(41) 0.000598 1680. 1721.
1763(42) 0.000562 1681. 1722.
1798(43) 0.000548 1681. 1723.
1775(42) 0.000556 1681. 1724.
1715(42) 0.000578 1682. 1725.
1781(43) 0.000554 1682. 1726.
1731(42) 0.000570 1683. 1727.
1731(42) 0.000567 1683. 1729.
1757(42) 0.000556 1683. 1731.
1828(43) 0.000536 1684. 1732.
1760(42) 0.000556 1684. 1734.
1680(41) 0.000583 1685. 1739.
1803(43) 0.000546 1685. 1741.
1756(42) 0.000562 1685. 1743.
1754(42) 0.000564 1686. 1745.
1821(43) 0.000541 1686. 1748.
1762(42) 0.000559 1686. 1751.
1794(43) 0.000546 1687. 1754.
1773(43) 0.000551 1687. 1757.
1673(41) 0.000583 1687. 1761.
1752(42) 0.000559 1688. 1765.
1817(43) 0.000541 1688. 1769.
1639(41) 0.000601 1688. 1774.
1754(42) 0.000562 1689. 1779.
1764(42) 0.000562 1689. 1784.
1751(42) 0.000564 1689. 1790.
1763(42) 0.000559 1690. 1797.
1821(43) 0.000538 1690. 1804.
1772(43) 0.000551 1690. 1813.
1778(43) 0.000548 1691. 1822.
1786(43) 0.000548 1691. 1833.
1825(43) 0.000538 1691. 1846.
1797(43) 0.000548 1692. 1860.
1809(43) 0.000546 1692. 1878.
1872(44) 0.000528 1692. 1899.
1887(44) 0.000524 1693. 1925.
1969(45) 0.000500 1693. 1958.
2042(46) 0.000481 1693. 1998.
2054(46) 0.000477 1693. 2050.
2170(47) 0.000451 1694. 2116.
2228(48) 0.000440 1694. 2199.
2350(49) 0.000416 1694. 2304.
2559(51) 0.000384 1694. 2436.
2757(53) 0.000357 1695. 2599.
3129(56) 0.0003155 1695. 2797.
3429(59) 0.0002873 1695. 3031.
3822(62) 0.0002568 1696. 3303.
4323(67) 0.0002261 1696. 3608.
4665(69) 0.0002094 1696. 3940.
5033(72) 0.0001934 1696. 4287.
5507(75) 0.0001768 1697. 4628.
6084(79) 0.0001602 1697. 4937.
6308(80) 0.0001555 1697. 5183.
6541(82) 0.0001502 1697. 5331.
6167(79) 0.0001598 1698. 5357.
5783(77) 0.0001700 1698. 5257.
5129(72) 0.0001918 1698. 5048.
4755(70) 0.0002058 1698. 4761.
4491(68) 0.0002175 1698. 4429.
4093(65) 0.0002381 1699. 4083.
3819(63) 0.0002560 1699. 3744.
3563(60) 0.0002750 1699. 3427.
3411(59) 0.0002883 1699. 3142.
3194(57) 0.0003089 1699. 2893.
2945(55) 0.0003367 1700. 2681.
2743(53) 0.000360 1700. 2505.
2679(52) 0.000368 1700. 2361.
2489(50) 0.000394 1700. 2246.
2354(49) 0.000416 1700. 2155.
2376(49) 0.000411 1701. 2083.
2201(47) 0.000445 1701. 2027.
2126(47) 0.000462 1701. 1983.
2156(47) 0.000457 1701. 1948.
2088(46) 0.000473 1701. 1920.
2092(46) 0.000473 1702. 1898.
2156(47) 0.000459 1702. 1879.
2076(46) 0.000475 1702. 1865.
2209(47) 0.000445 1702. 1852.
2175(47) 0.000451 1702. 1841.
2095(46) 0.000466 1702. 1831.
2146(47) 0.000457 1702. 1823.
2182(47) 0.000451 1703. 1816.
2142(47) 0.000460 1703. 1810.
2110(46) 0.000469 1703. 1804.
2187(47) 0.000453 1703. 1799.
2103(46) 0.000469 1703. 1795.
2095(46) 0.000471 1703. 1790.
2093(46) 0.000469 1703. 1787.
2108(46) 0.000464 1703. 1783.
2071(46) 0.000473 1704. 1780.
2114(46) 0.000464 1704. 1778.
2054(46) 0.000479 1704. 1775.
2034(45) 0.000485 1704. 1773.
2010(45) 0.000492 1704. 1771.
2059(46) 0.000481 1704. 1769.
2113(46) 0.000466 1704. 1766.
1959(45) 0.000503 1704. 1765.
1965(45) 0.000498 1704. 1763.
1911(44) 0.000512 1704. 1762.
1865(44) 0.000524 1704. 1761.
1900(44) 0.000517 1705. 1760.
1966(45) 0.000500 1705. 1760.
1928(44) 0.000512 1705. 1759.
1937(44) 0.000510 1705. 1759.
1864(43) 0.000531 1705. 1758.
1893(44) 0.000521 1705. 1758.
1807(43) 0.000546 1705. 1758.
1837(43) 0.000533 1705. 1758.
1816(43) 0.000538 1705. 1758.
1854(44) 0.000528 1705. 1759.
1766(43) 0.000554 1705. 1759.
1798(43) 0.000546 1705. 1760.
1742(42) 0.000564 1705. 1760.
1833(43) 0.000538 1705. 1761.
1808(43) 0.000548 1705. 1762.
1735(42) 0.000570 1705. 1763.
1829(43) 0.000538 1705. 1765.
1753(42) 0.000559 1705. 1766.
1730(42) 0.000564 1705. 1768.
1748(42) 0.000559 1705. 1770.
1780(43) 0.000551 1705. 1772.
1806(43) 0.000543 1705. 1774.
1744(42) 0.000564 1705. 1777.
1760(42) 0.000559 1705. 1780.
1759(42) 0.000562 1705. 1784.
1762(42) 0.000559 1705. 1788.
1653(41) 0.000595 1705. 1793.
1723(42) 0.000570 1705. 1798.
1727(42) 0.000567 1705. 1805.
1738(42) 0.000562 1705. 1813.
1833(43) 0.000533 1705. 1822.
1798(43) 0.000546 1705. 1834.
1857(43) 0.000531 1705. 1849.
1817(43) 0.000541 1705. 1867.
1816(43) 0.000543 1705. 1890.
1746(42) 0.000564 1705. 1918.
1888(44) 0.000521 1705. 1953.
1935(44) 0.000507 1705. 1997.
1970(45) 0.000498 1704. 2050.
1985(45) 0.000494 1704. 2113.
2078(46) 0.000473 1704. 2189.
2293(48) 0.000429 1704. 2279.
2408(50) 0.000408 1704. 2382.
2701(52) 0.000364 1704. 2501.
2797(53) 0.000353 1704. 2632.
3088(56) 0.0003189 1704. 2776.
3233(57) 0.0003046 1704. 2929.
3412(59) 0.0002863 1704. 3086.
3434(59) 0.0002844 1704. 3240.
3543(60) 0.0002759 1703. 3381.
3742(62) 0.0002618 1703. 3495.
3747(62) 0.0002610 1703. 3569.
3690(61) 0.0002661 1703. 3593.
3503(60) 0.0002806 1703. 3561.
3305(58) 0.0002993 1703. 3480.
3084(56) 0.0003200 1703. 3361.
2850(54) 0.0003455 1703. 3217.
2704(53) 0.000363 1702. 3062.
2575(51) 0.000380 1702. 2904.
2580(51) 0.000379 1702. 2751.
2422(50) 0.000405 1702. 2609.
2387(49) 0.000411 1702. 2478.
2347(49) 0.000420 1702. 2362.
2340(49) 0.000422 1702. 2260.
2226(47) 0.000445 1701. 2172.
2144(47) 0.000460 1701. 2098.
2031(45) 0.000485 1701. 2035.
1972(45) 0.000498 1701. 1983.
1978(45) 0.000494 1701. 1940.
1856(44) 0.000528 1701. 1905.
1877(44) 0.000524 1700. 1877.
1875(44) 0.000524 1700. 1854.
1682(41) 0.000586 1700. 1836.
1818(43) 0.000543 1700. 1821.
1699(41) 0.000583 1700. 1809.
1720(42) 0.000575 1699. 1799.
1716(42) 0.000575 1699. 1791.
1692(42) 0.000581 1699. 1784.
1677(41) 0.000583 1699. 1778.
1702(42) 0.000575 1698. 1772.
1544(40) 0.000638 1698. 1767.
1602(40) 0.000613 1698. 1763.
1704(42) 0.000578 1698. 1759.
1592(40) 0.000619 1698. 1756.
1684(41) 0.000586 1697. 1753.
1624(41) 0.000610 1697. 1750.
1597(40) 0.000619 1697. 1747.
1663(41) 0.000589 1697. 1744.
1562(40) 0.000628 1696. 1742.
1607(41) 0.000610 1696. 1740.
1671(41) 0.000589 1696. 1738.
1606(40) 0.000613 1696. 1736.
1653(41) 0.000595 1695. 1734.
1590(40) 0.000619 1695. 1732.
1640(41) 0.000604 1695. 1731.
1613(40) 0.000613 1695. 1725.
1535(40) 0.000641 1694. 1724.
1585(40) 0.000619 1694. 1723.
1612(41) 0.000607 1694. 1722.
1601(41) 0.000610 1693. 1720.
1650(41) 0.000595 1693. 1719.
1622(41) 0.000607 1693. 1718.
1571(40) 0.000628 1693. 1718.
1672(41) 0.000589 1692. 1717.
1547(40) 0.000638 1692. 1717.
1551(40) 0.000638 1692. 1716.
1596(40) 0.000619 1691. 1715.
1638(41) 0.000598 1691. 1715.
1538(40) 0.000634 1691. 1714.
1587(40) 0.000616 1690. 1713.
1607(41) 0.000610 1690. 1713.
1641(41) 0.000598 1690. 1712.
1632(41) 0.000604 1689. 1712.
1581(40) 0.000625 1689. 1712.
1627(41) 0.000607 1689. 1711.
1635(41) 0.000604 1688. 1711.
1589(40) 0.000619 1688. 1711.
1630(41) 0.000601 1688. 1711.
1650(41) 0.000592 1687. 1711.
1597(41) 0.000610 1687. 1711.
1692(42) 0.000578 1687. 1711.
1622(41) 0.000604 1686. 1711.
1632(41) 0.000604 1686. 1711.
1593(40) 0.000619 1686. 1712.
1647(41) 0.000601 1685. 1712.
1538(40) 0.000641 1685. 1713.
1608(40) 0.000613 1685. 1714.
1566(40) 0.000625 1684. 1715.
1586(40) 0.000616 1684. 1716.
1627(41) 0.000601 1683. 1717.
1601(40) 0.000613 1683. 1719.
1650(41) 0.000595 1683. 1721.
1591(40) 0.000619 1682. 1724.
1582(40) 0.000622 1682. 1728.
1600(40) 0.000619 1682. 1733.
1624(41) 0.000607 1681. 1739.
1569(40) 0.000628 1681. 1749.
1654(41) 0.000592 1680. 1762.
1704(42) 0.000575 1680. 1782.
1626(41) 0.000601 1680. 1810.
1600(40) 0.000613 1679. 1850.
1622(41) 0.000604 1679. 1903.
1604(40) 0.000613 1678. 1973.
1697(42) 0.000581 1678. 2059.
1661(41) 0.000595 1678. 2159.
1650(41) 0.000598 1677. 2268.
1699(42) 0.000581 1677. 2378.
1713(42) 0.000572 1676. 2473.
1765(43) 0.000554 1676. 2538.
1773(43) 0.000551 1675. 2555.
1754(42) 0.000559 1675. 2521.
1730(42) 0.000567 1675. 2444.
1724(42) 0.000572 1674. 2341.
1664(41) 0.000592 1674. 2230.
1704(42) 0.000581 1673. 2121.
1575(40) 0.000625 1673. 2024.
1602(40) 0.000616 1672. 1942.
1590(40) 0.000616 1672. 1877.
1542(40) 0.000634 1671. 1827.
1573(40) 0.000622 1671. 1790.
1564(40) 0.000625 1670. 1764.
1531(40) 0.000641 1670. 1745.
1547(40) 0.000638 1670. 1732.
1537(39) 0.000644 1669. 1723.
1557(40) 0.000638 1669. 1716.
1561(40) 0.000631 1668. 1710.
1508(39) 0.000654 1668. 1706.
1559(40) 0.000631 1667. 1702.
1544(40) 0.000634 1667. 1699.
1601(41) 0.000610 1666. 1696.
1520(39) 0.000644 1666. 1694.
1596(40) 0.000616 1665. 1692.
1517(39) 0.000651 1665. 1690.
1571(40) 0.000628 1664. 1688.
1533(39) 0.000644 1664. 1686.
1506(39) 0.000654 1663. 1685.
1538(40) 0.000641 1663. 1683.
1619(41) 0.000607 1662. 1682.
1639(41) 0.000598 1662. 1681.
1681(42) 0.000581 1661. 1680.
1538(40) 0.000638 1661. 1679.
1572(40) 0.000622 1660. 1678.
1635(41) 0.000601 1660. 1677.
1582(40) 0.000622 1659. 1676.
1594(40) 0.000619 1659. 1675.
1573(40) 0.000625 1658. 1674.
1649(41) 0.000595 1658. 1673.
1616(41) 0.000607 1657. 1673.
1588(40) 0.000616 1657. 1672.
1683(42) 0.000581 1656. 1671.
1623(41) 0.000604 1656. 1671.
1655(41) 0.000592 1655. 1670.
1704(42) 0.000578 1655. 1669.
1578(40) 0.000625 1654. 1666.
1650(41) 0.000598 1654. 1666.
1476(39) 0.000668 1653. 1665.
1569(40) 0.000628 1653. 1665.
1504(39) 0.000651 1652. 1665.
1590(40) 0.000616 1652. 1666.
1608(39) 0.000654 1651. 1666.
1652(41) 0.000592 1650. 1665.
1569(40) 0.000625 1650. 1665.
1569(40) 0.000628 1649. 1665.
1563(40) 0.000631 1649. 1665.
1622(41) 0.000610 1648. 1665.
1557(40) 0.000634 1648. 1665.
1593(40) 0.000619 1647. 1665.
1605(41) 0.000610 1647. 1665.
1636(41) 0.000598 1646. 1665.
1603(41) 0.000610 1646. 1665.
1595(40) 0.000613 1645. 1665.
1593(40) 0.000616 1645. 1665.
1594(40) 0.000616 1644. 1666.
1651(41) 0.000598 1643. 1666.
1636(41) 0.000604 1643. 1667.
1580(40) 0.000625 1642. 1667.
1694(42) 0.000581 1642. 1668.
1673(41) 0.000586 1641. 1669.
1735(42) 0.000564 1641. 1670.
1653(41) 0.000592 1640. 1671.
1692(42) 0.000578 1639. 1673.
1650(41) 0.000595 1639. 1675.
1743(42) 0.000564 1638. 1678.
1633(41) 0.000604 1638. 1681.
1777(42) 0.000556 1637. 1685.
1681(41) 0.000586 1637. 1690.
1659(41) 0.000595 1636. 1697.
1760(42) 0.000556 1636. 1705.
1843(43) 0.000531 1635. 1716.
1842(43) 0.000531 1634. 1730.
1769(43) 0.000554 1634. 1747.
1838(43) 0.000533 1633. 1768.
1874(44) 0.000524 1633. 1793.
1961(45) 0.000503 1632. 1826.
2028(45) 0.000487 1631. 1862.
2053(46) 0.000479 1631. 1903.
2203(47) 0.000445 1630. 1948.
2260(48) 0.000432 1630. 1999.
2502(51) 0.000391 1629. 2052.
2364(49) 0.000413 1629. 2107.
2517(51) 0.000389 1628. 2160.
2511(51) 0.000391 1627. 2211.
2532(51) 0.000389 1627. 2253.
2459(50) 0.000400 1626. 2284.
2462(50) 0.000402 1626. 2301.
2550(51) 0.000388 1625. 2300.
2380(49) 0.000413 1625. 2283.
2333(49) 0.000420 1624. 2251.
2297(49) 0.000425 1623. 2207.
2243(48) 0.000436 1623. 2157.
2049(46) 0.000479 1622. 2102.
2156(47) 0.000455 1622. 2046.
2083(46) 0.000473 1621. 1992.
2012(45) 0.000489 1620. 1941.
1913(44) 0.000517 1620. 1894.
1833(43) 0.000538 1619. 1851.
1888(44) 0.000521 1619. 1815.
1875(44) 0.000524 1618. 1784.
1878(44) 0.000521 1617. 1757.
1878(44) 0.000519 1617. 1735.
1848(43) 0.000531 1616. 1717.
1810(43) 0.000541 1616. 1703.
1825(43) 0.000541 1615. 1691.
1775(42) 0.000556 1614. 1682.
1787(43) 0.000554 1614. 1674.
1837(43) 0.000538 1613. 1668.
1789(43) 0.000551 1613. 1664.
1637(41) 0.000598 1612. 1659.
1768(43) 0.000554 1612. 1656.
1778(43) 0.000551 1611. 1653.
1766(42) 0.000556 1610. 1651.
1738(42) 0.000564 1610. 1649.
1757(42) 0.000562 1609. 1647.
1717(42) 0.000575 1609. 1645.
1715(42) 0.000575 1608. 1643.
1779(43) 0.000554 1607. 1642.
1781(43) 0.000554 1607. 1641.
1688(42) 0.000581 1606. 1640.
1789(43) 0.000548 1606. 1639.
1755(42) 0.000556 1605. 1638.
1793(43) 0.000546 1604. 1637.
1831(43) 0.000536 1604. 1636.
1805(43) 0.000546 1603. 1636.
1714(42) 0.000575 1603. 1635.
1761(42) 0.000562 1602. 1635.
1721(42) 0.000575 1601. 1634.
1729(42) 0.000570 1601. 1634.
1737(42) 0.000564 1600. 1634.
1786(43) 0.000548 1600. 1634.
1797(43) 0.000543 1599. 1634.
1773(43) 0.000554 1598. 1634.
1747(42) 0.000562 1598. 1634.
1747(42) 0.000564 1597. 1634.
1779(43) 0.000554 1597. 1634.
1746(42) 0.000567 1596. 1635.
1742(42) 0.000567 1596. 1635.
1788(43) 0.000551 1595. 1636.
1773(43) 0.000551 1594. 1637.
1759(42) 0.000556 1594. 1637.
1779(43) 0.000548 1593. 1639.
1774(43) 0.000551 1593. 1640.
1806(43) 0.000543 1592. 1641.
1767(42) 0.000556 1591. 1642.
1762(42) 0.000559 1591. 1644.
1733(42) 0.000570 1590. 1646.
1752(42) 0.000562 1590. 1648.
1704(42) 0.000578 1589. 1651.
1704(42) 0.000575 1589. 1653.
1772(43) 0.000551 1588. 1656.
1760(43) 0.000554 1587. 1660.
1676(41) 0.000583 1587. 1663.
1721(42) 0.000570 1586. 1668.
1711(42) 0.000575 1586. 1673.
1702(42) 0.000578 1585. 1678.
1692(41) 0.000583 1584. 1684.
1710(42) 0.000575 1584. 1692.
1734(42) 0.000567 1583. 1700.
1753(42) 0.000559 1583. 1711.
1733(42) 0.000564 1582. 1723.
1726(42) 0.000564 1582. 1738.
1791(43) 0.000546 1581. 1757.
1797(43) 0.000546 1580. 1781.
1883(44) 0.000521 1580. 1811.
1766(42) 0.000556 1579. 1850.
1869(44) 0.000528 1579. 1899.
1883(44) 0.000521 1578. 1963.
2067(46) 0.000475 1578. 2044.
2104(46) 0.000464 1577. 2152.
2201(48) 0.000443 1577. 2277.
2370(49) 0.000411 1576. 2428.
2406(50) 0.000406 1575. 2607.
2707(53) 0.000361 1575. 2814.
2768(53) 0.000355 1574. 3046.
3011(55) 0.0003270 1574. 3298.
3171(57) 0.0003111 1573. 3561.
3298(58) 0.0002983 1573. 3820.
3533(60) 0.0002778 1572. 4059.
3646(61) 0.0002679 1572. 4253.
3738(62) 0.0002610 1571. 4381.
3581(61) 0.0002714 1570. 4422.
3499(60) 0.0002787 1570. 4371.
3286(58) 0.0002983 1569. 4236.
2978(55) 0.0003294 1569. 4035.
2883(54) 0.0003404 1568. 3793.
2731(53) 0.000361 1568. 3532.
2511(51) 0.000392 1567. 3269.
2421(50) 0.000406 1567. 3018.
2335(49) 0.000418 1566. 2787.
2103(46) 0.000464 1566. 2582.
1934(45) 0.000505 1565. 2405.
1967(45) 0.000498 1564. 2256.
1907(44) 0.000514 1564. 2133.
1828(43) 0.000538 1563. 2033.
1733(42) 0.000570 1563. 1953.
1760(42) 0.000562 1562. 1890.
1690(41) 0.000583 1562. 1841.
1715(42) 0.000575 1561. 1802.
1625(41) 0.000604 1561. 1772.
1676(41) 0.000583 1560. 1748.
1632(41) 0.000598 1560. 1728.
1641(41) 0.000598 1559. 1713.
1662(41) 0.000592 1559. 1700.
1564(40) 0.000631 1558. 1689.
1607(40) 0.000613 1558. 1680.
1625(41) 0.000610 1557. 1672.
1633(41) 0.000604 1557. 1665.
1623(41) 0.000607 1556. 1659.
1588(40) 0.000616 1556. 1654.
1540(40) 0.000634 1555. 1649.
1665(41) 0.000589 1555. 1644.
1633(41) 0.000601 1554. 1640.
1591(40) 0.000616 1554. 1637.
1603(40) 0.000616 1553. 1634.
1672(41) 0.000589 1553. 1631.
1658(41) 0.000595 1552. 1628.
1605(40) 0.000616 1552. 1626.
1602(40) 0.000616 1551. 1624.
1631(41) 0.000601 1551. 1622.
1688(42) 0.000581 1550. 1621.
1679(42) 0.000581 1550. 1619.
1635(41) 0.000598 1549. 1618.
1662(41) 0.000592 1549. 1617.
1662(41) 0.000592 1548. 1616.
1688(41) 0.000583 1548. 1616.
1614(40) 0.000613 1547. 1615.
1681(41) 0.000586 1547. 1614.
1649(41) 0.000598 1546. 1614.
1666(41) 0.000589 1546. 1614.
1851(44) 0.000528 1546. 1614.
1731(42) 0.000564 1545. 1615.
1707(42) 0.000572 1545. 1616.
1759(42) 0.000559 1544. 1616.
1817(43) 0.000543 1544. 1618.
1731(42) 0.000570 1543. 1619.
1685(41) 0.000586 1543. 1620.
1681(41) 0.000586 1542. 1622.
1785(43) 0.000551 1542. 1624.
1782(43) 0.000548 1542. 1627.
1772(43) 0.000551 1541. 1630.
1811(43) 0.000538 1541. 1633.
1776(43) 0.000551 1540. 1636.
1787(43) 0.000548 1540. 1640.
1826(43) 0.000538 1539. 1645.
1767(42) 0.000556 1539. 1650.
1806(43) 0.000546 1538. 1655.
1849(43) 0.000533 1538. 1662.
1818(43) 0.000541 1538. 1669.
1758(42) 0.000556 1537. 1677.
1824(43) 0.000536 1537. 1687.
1830(43) 0.000533 1536. 1697.
1786(43) 0.000548 1536. 1709.
1919(44) 0.000510 1536. 1723.
1983(45) 0.000496 1535. 1739.
1930(44) 0.000510 1535. 1758.
1980(45) 0.000498 1534. 1781.
2060(46) 0.000477 1534. 1809.
2060(46) 0.000477 1534. 1844.
2123(47) 0.000460 1533. 1891.
2194(47) 0.000445 1533. 1954.
2198(48) 0.000443 1532. 2046.
2384(49) 0.000410 1532. 2165.
2635(52) 0.000371 1532. 2329.
2881(54) 0.0003404 1531. 2550.
3189(57) 0.0003078 1531. 2842.
3514(60) 0.0002796 1530. 3216.
3953(63) 0.0002488 1530. 3677.
4377(67) 0.0002234 1530. 4224.
4911(71) 0.0001984 1529. 4844.
5727(77) 0.0001695 1529. 5507.
6293(81) 0.0001539 1529. 6169.
7287(87) 0.0001330 1528. 6763.
8516(94) 0.0001139 1528. 7204.
9261(98) 0.0001050 1528. 7413.
9477(99) 0.0001029 1527. 7344.
9152(97) 0.0001067 1527. 7012.
8173(92) 0.0001192 1526. 6484.
7118(85) 0.0001371 1526. 5847.
5981(78) 0.0001627 1526. 5176.
5099(72) 0.0001908 1525. 4529.
4293(67) 0.0002261 1525. 3942.
3772(62) 0.0002585 1525. 3435.
3114(56) 0.0003144 1524. 3016.
2855(54) 0.0003442 1524. 2683.
2589(51) 0.000380 1524. 2427.
2368(49) 0.000416 1523. 2235.
2308(48) 0.000427 1523. 2094.
2131(47) 0.000460 1523. 1991.
2086(46) 0.000469 1522. 1916.
1931(45) 0.000505 1522. 1861.
1957(45) 0.000498 1522. 1820.
1911(44) 0.000512 1522. 1787.
1794(43) 0.000546 1521. 1761.
1844(43) 0.000533 1521. 1740.
1857(43) 0.000531 1521. 1722.
1837(43) 0.000538 1520. 1706.
1745(42) 0.000564 1520. 1692.
1792(43) 0.000548 1520. 1680.
1819(43) 0.000538 1519. 1670.
1720(42) 0.000570 1519. 1660.
1681(42) 0.000581 1519. 1652.
1819(43) 0.000538 1519. 1644.
1701(42) 0.000575 1518. 1638.
1691(41) 0.000583 1518. 1631.
1665(41) 0.000592 1518. 1626.
1678(41) 0.000589 1517. 1621.
1673(41) 0.000589 1517. 1616.
1586(40) 0.000622 1517. 1612.
1672(41) 0.000586 1517. 1609.
1672(41) 0.000583 1516. 1605.
1679(42) 0.000581 1516. 1603.
1654(41) 0.000592 1516. 1600.
1572(40) 0.000622 1516. 1597.
1657(41) 0.000592 1515. 1595.
1676(41) 0.000586 1515. 1593.
1668(41) 0.000592 1515. 1592.
1609(40) 0.000613 1515. 1597.
1664(41) 0.000592 1514. 1596.
1696(42) 0.000578 1514. 1595.
1702(42) 0.000575 1514. 1594.
1694(42) 0.000575 1514. 1594.
1663(41) 0.000589 1513. 1590.
1643(41) 0.000595 1513. 1590.
1582(40) 0.000622 1513. 1590.
1634(41) 0.000601 1513. 1590.
1705(42) 0.000578 1513. 1591.
1705(42) 0.000578 1512. 1591.
1635(41) 0.000601 1512. 1592.
1622(39) 0.000647 1512. 1594.
1649(41) 0.000592 1512. 1595.
1627(41) 0.000601 1512. 1597.
1650(41) 0.000592 1511. 1599.
1711(42) 0.000572 1511. 1601.
1673(41) 0.000586 1511. 1603.
1676(41) 0.000586 1511. 1606.
1655(41) 0.000598 1511. 1610.
1617(41) 0.000610 1510. 1613.
1727(42) 0.000570 1510. 1618.
1654(41) 0.000592 1510. 1623.
1696(42) 0.000575 1510. 1628.
1688(42) 0.000578 1510. 1634.
1717(42) 0.000570 1509. 1641.
1726(42) 0.000567 1509. 1649.
1680(41) 0.000586 1509. 1658.
1701(42) 0.000578 1509. 1669.
1698(42) 0.000581 1509. 1681.
1647(41) 0.000598 1509. 1696.
1794(43) 0.000548 1508. 1715.
1731(42) 0.000564 1508. 1737.
1761(43) 0.000554 1508. 1767.
1746(42) 0.000559 1508. 1806.
1870(44) 0.000524 1508. 1858.
1926(44) 0.000507 1508. 1928.
1970(45) 0.000498 1508. 2021.
2076(46) 0.000473 1507. 2145.
2207(47) 0.000447 1507. 2306.
2292(48) 0.000429 1507. 2511.
2490(50) 0.000394 1507. 2763.
2705(53) 0.000361 1507. 3064.
2944(55) 0.0003306 1507. 3410.
3135(57) 0.0003100 1507. 3794.
3635(61) 0.0002679 1506. 4197.
3848(63) 0.0002536 1506. 4594.
4442(67) 0.0002208 1506. 4950.
4806(70) 0.0002041 1506. 5222.
4996(71) 0.0001967 1506. 5368.
4859(70) 0.0002018 1506. 5360.
4677(69) 0.0002094 1506. 5201.
4341(67) 0.0002241 1506. 4918.
3995(64) 0.0002434 1506. 4556.
3620(61) 0.0002687 1505. 4157.
3323(58) 0.0002932 1505. 3754.
3017(56) 0.0003235 1505. 3374.
2732(53) 0.000359 1505. 3032.
2512(51) 0.000391 1505. 2736.
2378(49) 0.000415 1505. 2489.
2170(47) 0.000453 1505. 2289.
2085(46) 0.000471 1505. 2132.
1995(45) 0.000489 1505. 2011.
1885(44) 0.000519 1505. 1913.
1908(44) 0.000512 1505. 1845.
1801(43) 0.000543 1505. 1795.
1762(42) 0.000556 1504. 1757.
1788(43) 0.000548 1504. 1729.
1799(43) 0.000546 1504. 1706.
1718(42) 0.000575 1504. 1689.
1684(41) 0.000583 1504. 1674.
1751(42) 0.000562 1504. 1662.
1777(43) 0.000548 1504. 1652.
1756(42) 0.000556 1504. 1643.
1703(42) 0.000572 1504. 1636.
1676(41) 0.000583 1504. 1629.
1617(41) 0.000607 1504. 1623.
1667(41) 0.000589 1504. 1618.
1725(42) 0.000572 1504. 1614.
1708(42) 0.000578 1504. 1610.
1658(41) 0.000595 1504. 1606.
1744(42) 0.000564 1504. 1603.
1655(41) 0.000592 1504. 1601.
1689(42) 0.000581 1504. 1599.
1599(41) 0.000610 1504. 1597.
1696(42) 0.000578 1504. 1595.
1717(42) 0.000572 1504. 1594.
1647(41) 0.000598 1503. 1593.
1663(41) 0.000592 1503. 1592.
1575(40) 0.000628 1503. 1592.
1647(41) 0.000601 1503. 1594.
1681(41) 0.000586 1503. 1594.
1629(41) 0.000601 1503. 1594.
1655(41) 0.000592 1503. 1595.
1582(40) 0.000616 1503. 1596.
1652(41) 0.000592 1503. 1597.
1668(41) 0.000586 1503. 1598.
1641(41) 0.000601 1503. 1600.
1637(41) 0.000601 1503. 1602.
1603(40) 0.000616 1503. 1604.
1661(41) 0.000592 1503. 1606.
1642(41) 0.000601 1503. 1609.
1736(42) 0.000564 1503. 1612.
1632(41) 0.000601 1503. 1616.
1622(41) 0.000601 1503. 1620.
1592(40) 0.000616 1503. 1624.
1689(42) 0.000581 1503. 1629.
1671(41) 0.000589 1503. 1634.
1628(41) 0.000604 1503. 1640.
1665(41) 0.000592 1503. 1646.
1709(42) 0.000578 1503. 1653.
1618(41) 0.000610 1504. 1661.
1697(42) 0.000575 1504. 1670.
1703(42) 0.000575 1504. 1680.
1729(42) 0.000564 1504. 1691.
1768(43) 0.000554 1504. 1703.
1735(42) 0.000564 1504. 1717.
1750(42) 0.000562 1504. 1734.
1818(43) 0.000541 1504. 1754.
1852(43) 0.000533 1504. 1778.
1871(44) 0.000526 1504. 1807.
1844(43) 0.000533 1504. 1843.
1992(45) 0.000492 1504. 1889.
1994(45) 0.000489 1504. 1946.
2103(47) 0.000462 1504. 2019.
2184(47) 0.000447 1504. 2111.
2270(48) 0.000430 1504. 2228.
2471(50) 0.000397 1504. 2372.
2691(52) 0.000364 1504. 2550.
2939(55) 0.0003354 1504. 2764.
3285(58) 0.0002993 1504. 3018.
3666(61) 0.0002670 1504. 3313.
4128(65) 0.0002360 1504. 3647.
4544(68) 0.0002137 1504. 4017.
5186(73) 0.0001871 1504. 4414.
5780(77) 0.0001682 1505. 4826.
6397(81) 0.0001520 1505. 5236.
6812(84) 0.0001431 1505. 5622.
7103(85) 0.0001374 1505. 5955.
7192(86) 0.0001362 1505. 6206.
6996(85) 0.0001394 1505. 6345.
6802(84) 0.0001434 1505. 6357.
6151(80) 0.0001578 1505. 6238.
5754(77) 0.0001687 1505. 6005.
5224(73) 0.0001856 1505. 5684.
4903(71) 0.0001984 1505. 5305.
4629(69) 0.0002107 1505. 4898.
4369(67) 0.0002241 1505. 4484.
4070(65) 0.0002404 1505. 4084.
3867(63) 0.0002544 1505. 3709.
3546(60) 0.0002769 1506. 3368.
3452(59) 0.0002834 1506. 3066.
3092(56) 0.0003155 1506. 2805.
2824(54) 0.0003442 1506. 2584.
2616(52) 0.000373 1506. 2400.
2391(50) 0.000408 1506. 2244.
2241(48) 0.000436 1506. 2124.
2126(47) 0.000462 1506. 2028.
1933(44) 0.000507 1506. 1952.
1926(44) 0.000512 1506. 1892.
1881(44) 0.000521 1506. 1844.
1817(43) 0.000541 1506. 1807.
1685(42) 0.000581 1507. 1777.
1711(42) 0.000570 1507. 1752.
1696(42) 0.000575 1507. 1732.
1652(41) 0.000592 1507. 1715.
1636(41) 0.000598 1507. 1700.
1601(40) 0.000616 1507. 1687.
1536(40) 0.000641 1507. 1676.
1644(41) 0.000601 1507. 1666.
1551(40) 0.000634 1507. 1657.
1533(40) 0.000641 1507. 1649.
1519(39) 0.000644 1508. 1641.
1583(40) 0.000616 1508. 1635.
1559(40) 0.000628 1508. 1629.
1566(40) 0.000625 1508. 1623.
1583(40) 0.000619 1508. 1618.
1519(39) 0.000647 1508. 1614.
1576(40) 0.000625 1508. 1610.
1508(39) 0.000654 1508. 1606.
1557(40) 0.000631 1508. 1603.
1455(39) 0.000675 1508. 1600.
1525(40) 0.000641 1508. 1597.
1559(40) 0.000628 1509. 1595.
1557(40) 0.000628 1509. 1592.
1521(39) 0.000644 1509. 1590.
1516(39) 0.000647 1509. 1589.
1536(40) 0.000641 1509. 1587.
1613(41) 0.000610 1509. 1586.
1477(39) 0.000668 1509. 1585.
1585(40) 0.000622 1509. 1584.
1553(40) 0.000634 1509. 1583.
1517(39) 0.000644 1510. 1582.
1547(40) 0.000631 1510. 1582.
1585(40) 0.000616 1510. 1582.
1538(40) 0.000638 1510. 1582.
1549(40) 0.000631 1510. 1582.
1517(39) 0.000647 1510. 1583.
1487(39) 0.000661 1510. 1583.
1562(40) 0.000631 1510. 1584.
1500(39) 0.000654 1510. 1585.
1563(40) 0.000631 1510. 1587.
1628(41) 0.000601 1511. 1588.
1583(40) 0.000616 1511. 1591.
1625(41) 0.000601 1511. 1593.
1536(40) 0.000638 1511. 1596.
1541(40) 0.000638 1511. 1600.
1612(41) 0.000610 1511. 1604.
1621(41) 0.000607 1511. 1609.
1676(41) 0.000589 1511. 1615.
1580(40) 0.000625 1511. 1623.
1711(42) 0.000575 1511. 1632.
1587(40) 0.000616 1512. 1645.
1713(42) 0.000570 1512. 1660.
1666(41) 0.000586 1512. 1681.
1711(42) 0.000572 1512. 1706.
1740(42) 0.000562 1512. 1739.
1759(42) 0.000559 1512. 1781.
1864(44) 0.000528 1512. 1833.
1940(44) 0.000510 1512. 1896.
2045(46) 0.000481 1512. 1973.
2346(49) 0.000418 1512. 2062.
2419(50) 0.000403 1513. 2166.
2755(53) 0.000353 1513. 2281.
2948(55) 0.0003294 1513. 2407.
3094(56) 0.0003155 1513. 2539.
3337(59) 0.0002922 1513. 2672.
3482(60) 0.0002815 1513. 2799.
3469(60) 0.0002825 1513. 2911.
3515(60) 0.0002796 1513. 2997.
3499(60) 0.0002806 1513. 3047.
3284(58) 0.0002983 1513. 3056.
3164(57) 0.0003078 1513. 3021.
2930(55) 0.0003330 1514. 2948.
2815(54) 0.0003455 1514. 2845.
2727(53) 0.000357 1514. 2722.
2658(52) 0.000367 1514. 2590.
2395(49) 0.000410 1514. 2457.
2401(50) 0.000408 1514. 2327.
2348(49) 0.000420 1514. 2207.
2213(48) 0.000443 1514. 2098.
2180(47) 0.000451 1514. 2003.
2001(45) 0.000487 1514. 1920.
2014(46) 0.000483 1514. 1851.
1880(44) 0.000517 1514. 1795.
1776(43) 0.000548 1515. 1748.
1649(41) 0.000595 1515. 1712.
1733(42) 0.000567 1515. 1682.
1687(41) 0.000583 1515. 1660.
1696(42) 0.000581 1515. 1642.
1632(41) 0.000604 1515. 1627.
1608(41) 0.000610 1515. 1616.
1631(41) 0.000598 1515. 1607.
1569(40) 0.000622 1515. 1599.
1548(40) 0.000631 1515. 1593.
1641(41) 0.000595 1515. 1588.
1617(41) 0.000604 1515. 1583.
1580(40) 0.000622 1515. 1579.
1621(41) 0.000607 1515. 1576.
1630(41) 0.000604 1516. 1573.
1586(40) 0.000619 1516. 1570.
1605(40) 0.000613 1516. 1567.
1558(40) 0.000628 1516. 1565.
1571(40) 0.000622 1516. 1563.
1555(40) 0.000625 1516. 1561.
1559(40) 0.000628 1516. 1559.
1537(40) 0.000638 1516. 1557.
1549(40) 0.000634 1516. 1556.
1502(39) 0.000654 1516. 1554.
1517(39) 0.000651 1516. 1553.
1540(40) 0.000638 1516. 1552.
1470(39) 0.000668 1516. 1551.
1506(39) 0.000647 1516. 1550.
1537(40) 0.000634 1516. 1549.
1513(39) 0.000644 1516. 1548.
1487(39) 0.000657 1516. 1548.
1481(39) 0.000661 1516. 1547.
1546(40) 0.000634 1516. 1546.
1531(39) 0.000644 1516. 1546.
1469(39) 0.000671 1516. 1545.
1483(39) 0.000664 1516. 1545.
1456(39) 0.000675 1516. 1538.
1488(39) 0.000657 1516. 1538.
1484(39) 0.000657 1516. 1538.
1554(40) 0.000628 1516. 1538.
1474(39) 0.000664 1517. 1537.
1529(40) 0.000641 1517. 1537.
1525(39) 0.000644 1517. 1538.
1551(40) 0.000634 1517. 1538.
1442(38) 0.000685 1517. 1538.
1428(38) 0.000689 1517. 1538.
1411(38) 0.000696 1517. 1538.
1462(39) 0.000668 1517. 1539.
1421(38) 0.000689 1517. 1539.
1533(40) 0.000634 1517. 1540.
1443(38) 0.000678 1517. 1541.
1469(39) 0.000664 1517. 1542.
1444(38) 0.000682 1517. 1543.
1468(39) 0.000671 1517. 1544.
1456(38) 0.000678 1517. 1546.
1498(39) 0.000654 1517. 1548.
1478(39) 0.000664 1516. 1551.
1512(39) 0.000644 1516. 1555.
1424(38) 0.000682 1516. 1560.
1447(39) 0.000671 1516. 1566.
1498(39) 0.000651 1516. 1573.
1487(39) 0.000657 1516. 1583.
1495(39) 0.000654 1516. 1595.
1487(39) 0.000661 1516. 1610.
1542(40) 0.000638 1516. 1628.
1468(39) 0.000668 1516. 1650.
1459(39) 0.000671 1516. 1675.
1561(40) 0.000625 1516. 1702.
1468(39) 0.000664 1516. 1733.
1551(40) 0.000628 1516. 1765.
1551(39) 0.000675 1516. 1798.
1561(40) 0.000625 1516. 1829.
1519(39) 0.000647 1516. 1858.
1567(40) 0.000628 1516. 1880.
1622(41) 0.000607 1516. 1893.
1668(41) 0.000589 1516. 1897.
1585(40) 0.000619 1516. 1890.
1626(41) 0.000601 1516. 1873.
1548(40) 0.000631 1515. 1848.
1604(41) 0.000607 1515. 1818.
1558(40) 0.000625 1515. 1786.
1525(40) 0.000641 1515. 1753.
1573(40) 0.000625 1515. 1721.
1525(39) 0.000644 1515. 1691.
1519(39) 0.000651 1515. 1664.
1604(40) 0.000613 1515. 1640.
1645(41) 0.000598 1515. 1620.
1565(40) 0.000625 1515. 1604.
1603(41) 0.000610 1515. 1590.
1579(40) 0.000616 1515. 1578.
1567(40) 0.000625 1514. 1569.
1524(40) 0.000641 1514. 1562.
1555(40) 0.000631 1514. 1556.
1533(40) 0.000641 1514. 1552.
1594(40) 0.000619 1514. 1548.
1567(40) 0.000625 1514. 1546.
1613(41) 0.000610 1514. 1543.
1525(40) 0.000641 1514. 1542.
1575(40) 0.000619 1513. 1540.
1599(41) 0.000610 1513. 1539.
1674(41) 0.000583 1513. 1538.
1517(39) 0.000644 1513. 1537.
1691(42) 0.000581 1513. 1536.
1535(40) 0.000641 1513. 1535.
1513(39) 0.000651 1513. 1535.
1583(40) 0.000622 1513. 1534.
1604(40) 0.000613 1512. 1534.
1599(41) 0.000610 1512. 1534.
1619(41) 0.000601 1512. 1533.
1664(41) 0.000586 1512. 1533.
1560(40) 0.000625 1512. 1533.
1628(41) 0.000601 1512. 1533.
1571(40) 0.000625 1511. 1533.
1517(39) 0.000647 1511. 1532.
1530(39) 0.000644 1511. 1533.
1561(40) 0.000628 1511. 1533.
1566(40) 0.000625 1511. 1533.
1594(40) 0.000613 1510. 1533.
1579(40) 0.000619 1510. 1533.
1603(41) 0.000607 1510. 1533.
1600(41) 0.000610 1510. 1534.
1563(40) 0.000625 1510. 1534.
1595(40) 0.000616 1510. 1534.
1582(40) 0.000622 1509. 1535.
1483(39) 0.000664 1509. 1536.
1591(40) 0.000619 1509. 1536.
1521(39) 0.000644 1509. 1537.
1531(40) 0.000638 1508. 1538.
1660(41) 0.000586 1508. 1539.
1538(40) 0.000634 1508. 1540.
1590(40) 0.000616 1508. 1541.
1566(40) 0.000625 1508. 1543.
1580(40) 0.000622 1507. 1544.
1615(41) 0.000610 1507. 1546.
1602(40) 0.000616 1507. 1548.
1574(40) 0.000625 1507. 1550.
1554(40) 0.000631 1506. 1553.
1633(41) 0.000598 1506. 1556.
1573(40) 0.000622 1506. 1559.
1613(41) 0.000604 1506. 1563.
1595(40) 0.000613 1505. 1568.
1589(40) 0.000616 1505. 1574.
1552(40) 0.000634 1505. 1581.
1643(41) 0.000598 1505. 1589.
1692(41) 0.000583 1504. 1599.
1670(41) 0.000589 1504. 1611.
1678(41) 0.000586 1504. 1626.
1637(41) 0.000598 1503. 1644.
1717(42) 0.000567 1503. 1666.
1771(43) 0.000551 1503. 1694.
1837(43) 0.000533 1503. 1729.
1895(44) 0.000517 1502. 1774.
2054(46) 0.000479 1502. 1831.
2088(46) 0.000471 1502. 1902.
2318(49) 0.000425 1501. 1993.
2399(49) 0.000410 1501. 2104.
2617(52) 0.000376 1501. 2239.
2728(53) 0.000359 1500. 2397.
2930(55) 0.0003330 1500. 2573.
3140(57) 0.0003100 1500. 2760.
3419(59) 0.0002853 1499. 2944.
3913(63) 0.0002496 1499. 3105.
4278(66) 0.0002289 1499. 3217.
4144(65) 0.0002367 1498. 3259.
4039(64) 0.0002434 1498. 3221.
3823(62) 0.0002568 1498. 3110.
3414(59) 0.0002873 1497. 2950.
3091(56) 0.0003155 1497. 2765.
2779(53) 0.0003507 1497. 2577.
2555(51) 0.000381 1496. 2400.
2440(50) 0.000400 1496. 2240.
2266(48) 0.000432 1496. 2104.
2200(47) 0.000447 1495. 1990.
2090(46) 0.000471 1495. 1898.
1932(44) 0.000510 1494. 1825.
1919(44) 0.000512 1494. 1767.
1962(45) 0.000500 1494. 1721.
1879(44) 0.000519 1493. 1685.
1784(43) 0.000546 1493. 1656.
1801(43) 0.000541 1493. 1633.
1654(41) 0.000589 1492. 1614.
1665(41) 0.000586 1492. 1599.
1634(41) 0.000601 1491. 1586.
1677(41) 0.000586 1491. 1575.
1613(41) 0.000610 1491. 1566.
1560(40) 0.000628 1490. 1559.
1586(40) 0.000619 1490. 1552.
1484(39) 0.000657 1489. 1547.
1446(39) 0.000675 1489. 1542.
1549(40) 0.000628 1488. 1538.
1499(39) 0.000651 1488. 1534.
1522(40) 0.000641 1488. 1531.
1541(40) 0.000638 1487. 1528.
1502(39) 0.000654 1487. 1525.
1452(38) 0.000678 1486. 1523.
1467(39) 0.000671 1486. 1520.
1493(39) 0.000657 1485. 1519.
1456(39) 0.000671 1485. 1517.
1399(38) 0.000696 1484. 1516.
1444(39) 0.000675 1484. 1514.
1439(38) 0.000678 1484. 1512.
1465(39) 0.000668 1483. 1511.
1483(39) 0.000661 1483. 1510.
1489(39) 0.000661 1482. 1508.
1520(39) 0.000647 1482. 1507.
1457(39) 0.000675 1481. 1506.
1437(38) 0.000682 1481. 1505.
1482(39) 0.000657 1480. 1504.
1449(39) 0.000671 1480. 1503.
1470(39) 0.000661 1479. 1502.
1523(40) 0.000641 1479. 1502.
1470(39) 0.000664 1478. 1501.
1468(39) 0.000668 1478. 1500.
1446(38) 0.000678 1477. 1499.
1495(39) 0.000661 1477. 1499.
1511(39) 0.000651 1476. 1498.
1479(39) 0.000664 1476. 1497.
1523(40) 0.000641 1475. 1497.
1474(39) 0.000661 1475. 1497.
1401(38) 0.000696 1474. 1496.
1508(39) 0.000647 1474. 1496.
1508(39) 0.000647 1473. 1496.
1489(39) 0.000657 1473. 1496.
1475(39) 0.000664 1472. 1496.
1451(38) 0.000678 1471. 1497.
1497(39) 0.000657 1471. 1497.
1569(40) 0.000625 1470. 1497.
1514(39) 0.000644 1470. 1498.
1399(38) 0.000696 1469. 1499.
1425(38) 0.000682 1469. 1500.
1503(39) 0.000651 1468. 1501.
1508(39) 0.000647 1468. 1505.
1461(39) 0.000671 1467. 1507.
1566(40) 0.000628 1467. 1510.
1443(38) 0.000682 1466. 1514.
1540(40) 0.000638 1465. 1518.
1467(39) 0.000671 1465. 1525.
1520(39) 0.000644 1464. 1534.
1544(40) 0.000631 1464. 1547.
1569(40) 0.000622 1463. 1566.
1571(40) 0.000622 1462. 1593.
1619(41) 0.000604 1462. 1629.
1615(41) 0.000610 1461. 1679.
1667(41) 0.000589 1461. 1742.
1716(42) 0.000575 1460. 1820.
1810(43) 0.000543 1459. 1912.
1871(44) 0.000524 1459. 2013.
1948(45) 0.000500 1458. 2117.
2046(46) 0.000477 1458. 2212.
2226(48) 0.000438 1457. 2285.
2352(49) 0.000415 1456. 2322.
2274(48) 0.000430 1456. 2312.
2235(48) 0.000440 1455. 2259.
2094(46) 0.000469 1455. 2174.
1967(45) 0.000500 1454. 2073.
1799(43) 0.000546 1453. 1968.
1720(42) 0.000570 1453. 1868.
1671(41) 0.000583 1452. 1781.
1647(41) 0.000592 1451. 1707.
1555(40) 0.000625 1451. 1648.
1572(40) 0.000622 1450. 1603.
1563(40) 0.000625 1449. 1569.
1456(39) 0.000675 1449. 1545.
1441(38) 0.000682 1448. 1527.
1451(38) 0.000682 1448. 1515.
1451(38) 0.000678 1447. 1506.
1438(38) 0.000682 1446. 1499.
1435(38) 0.000682 1446. 1493.
1475(39) 0.000661 1445. 1489.
1431(38) 0.000682 1444. 1486.
1464(39) 0.000668 1444. 1483.
1437(38) 0.000678 1443. 1480.
1424(38) 0.000689 1442. 1478.
1455(39) 0.000675 1442. 1475.
1483(39) 0.000664 1441. 1474.
1466(39) 0.000671 1440. 1472.
1473(39) 0.000664 1440. 1470.
1423(38) 0.000685 1439. 1469.
1453(39) 0.000671 1438. 1468.
1493(39) 0.000651 1437. 1467.
1436(38) 0.000678 1437. 1466.
1414(38) 0.000693 1436. 1465.
1505(39) 0.000654 1435. 1464.
1411(38) 0.000696 1435. 1463.
1431(38) 0.000689 1434. 1462.
1440(38) 0.000682 1433. 1462.
1424(38) 0.000689 1433. 1461.
1395(38) 0.000700 1432. 1461.
1462(39) 0.000668 1431. 1461.
1443(39) 0.000675 1430. 1460.
1430(38) 0.000682 1430. 1460.
1431(38) 0.000682 1429. 1460.
1383(38) 0.000711 1428. 1460.
1336(37) 0.000734 1428. 1460.
1359(37) 0.000727 1427. 1460.
1406(38) 0.000700 1426. 1460.
1425(38) 0.000685 1425. 1461.
1468(39) 0.000664 1425. 1461.
1432(38) 0.000682 1424. 1462.
1467(39) 0.000664 1423. 1462.
1417(38) 0.000689 1423. 1463.
1486(39) 0.000657 1422. 1464.
1437(38) 0.000682 1421. 1465.
1428(38) 0.000685 1420. 1467.
1412(38) 0.000696 1420. 1468.
1475(39) 0.000668 1419. 1470.
1354(37) 0.000723 1418. 1472.
1351(37) 0.000723 1417. 1474.
1444(39) 0.000675 1417. 1477.
1432(38) 0.000678 1416. 1480.
1374(38) 0.000711 1415. 1484.
1460(39) 0.000668 1414. 1488.
1428(38) 0.000685 1414. 1492.
1421(38) 0.000689 1413. 1498.
1480(39) 0.000664 1412. 1504.
1476(39) 0.000664 1411. 1512.
1453(39) 0.000675 1411. 1521.
1452(39) 0.000671 1410. 1532.
1516(39) 0.000644 1409. 1546.
1495(39) 0.000651 1408. 1563.
1528(40) 0.000638 1408. 1584.
1612(41) 0.000607 1407. 1612.
1632(41) 0.000601 1406. 1649.
1609(41) 0.000610 1405. 1696.
1669(41) 0.000589 1405. 1757.
1767(42) 0.000556 1404. 1837.
1900(44) 0.000517 1403. 1939.
1924(44) 0.000507 1402. 2068.
2099(46) 0.000464 1402. 2227.
2323(49) 0.000418 1401. 2418.
2402(50) 0.000406 1400. 2640.
2561(51) 0.000381 1399. 2887.
2762(53) 0.000355 1399. 3151.
3148(57) 0.0003111 1398. 3417.
3569(60) 0.0002750 1397. 3663.
3663(61) 0.0002670 1396. 3861.
3840(63) 0.0002552 1395. 3981.
3661(61) 0.0002661 1395. 4002.
3530(60) 0.0002759 1394. 3920.
3205(58) 0.0003025 1393. 3749.
3063(56) 0.0003177 1392. 3517.
2790(54) 0.0003494 1392. 3255.
2611(52) 0.000376 1391. 2987.
2437(50) 0.000402 1390. 2729.
2306(48) 0.000427 1389. 2493.
2041(46) 0.000481 1388. 2288.
1915(44) 0.000512 1388. 2114.
1814(43) 0.000538 1387. 1972.
1727(42) 0.000564 1386. 1857.
1693(42) 0.000575 1385. 1767.
1722(42) 0.000567 1385. 1697.
1596(40) 0.000613 1384. 1642.
1542(40) 0.000638 1383. 1600.
1614(41) 0.000610 1382. 1568.
1465(39) 0.000671 1381. 1542.
1475(39) 0.000664 1381. 1521.
1506(39) 0.000651 1380. 1504.
1425(38) 0.000685 1379. 1490.
1475(39) 0.000661 1378. 1479.
1456(39) 0.000668 1378. 1469.
1448(39) 0.000671 1377. 1460.
1389(38) 0.000704 1376. 1453.
1418(38) 0.000689 1375. 1446.
1381(38) 0.000707 1374. 1440.
1442(38) 0.000682 1374. 1435.
1451(38) 0.000678 1373. 1430.
1321(37) 0.000742 1372. 1428.
1362(37) 0.000715 1371. 1424.
1448(39) 0.000675 1371. 1420.
1387(36) 0.000755 1370. 1417.
1336(37) 0.000730 1369. 1413.
1361(37) 0.000719 1368. 1410.
1440(38) 0.000682 1367. 1407.
1383(38) 0.000711 1367. 1405.
1399(38) 0.000704 1366. 1402.
1287(36) 0.000763 1365. 1400.
1364(37) 0.000719 1364. 1397.
1403(38) 0.000696 1364. 1395.
1373(38) 0.000711 1363. 1393.
1412(38) 0.000689 1362. 1391.
1378(38) 0.000707 1361. 1389.
1415(38) 0.000689 1360. 1387.
1304(37) 0.000751 1360. 1386.
1368(37) 0.000719 1359. 1384.
1346(37) 0.000730 1358. 1382.
1390(38) 0.000707 1357. 1381.
1392(38) 0.000704 1357. 1379.
1298(37) 0.000751 1356. 1378.
1416(38) 0.000689 1355. 1376.
1350(37) 0.000723 1354. 1375.
1330(37) 0.000734 1353. 1374.
1376(38) 0.000707 1353. 1372.
1333(37) 0.000734 1352. 1371.
1367(37) 0.000719 1351. 1370.
1395(38) 0.000704 1350. 1369.
1363(37) 0.000719 1350. 1367.
1341(37) 0.000730 1349. 1366.
1383(38) 0.000704 1348. 1365.
1346(37) 0.000723 1347. 1364.
1304(37) 0.000747 1347. 1363.
1281(36) 0.000763 1346. 1362.
1317(37) 0.000742 1345. 1361.
1339(37) 0.000730 1344. 1360.
1292(36) 0.000759 1344. 1359.
1396(38) 0.000707 1343. 1358.
1402(38) 0.000700 1342. 1357.
1419(38) 0.000689 1341. 1356.
1357(37) 0.000719 1341. 1355.
1317(37) 0.000738 1340. 1354.
1345(37) 0.000723 1339. 1354.
1370(38) 0.000711 1338. 1353.
1377(38) 0.000707 1338. 1352.
1316(37) 0.000747 1337. 1351.
1342(37) 0.000730 1336. 1350.
1347(37) 0.000730 1335. 1349.
1378(38) 0.000711 1335. 1348.
1321(37) 0.000742 1334. 1348.
1316(37) 0.000742 1333. 1347.
1315(37) 0.000742 1332. 1346.
1366(38) 0.000711 1332. 1345.
1367(38) 0.000711 1331. 1345.
1350(37) 0.000723 1330. 1344.
1360(37) 0.000723 1330. 1343.
1327(37) 0.000738 1329. 1342.
1348(37) 0.000730 1328. 1342.
1286(36) 0.000763 1327. 1341.
1342(37) 0.000730 1327. 1340.
1274(36) 0.000767 1326. 1340.
1331(37) 0.000730 1325. 1339.
1333(37) 0.000730 1325. 1338.
1375(38) 0.000711 1324. 1338.
1353(37) 0.000723 1323. 1337.
1363(37) 0.000719 1322. 1337.
1265(36) 0.000776 1322. 1336.
1339(37) 0.000734 1321. 1336.
1339(37) 0.000734 1320. 1335.
1296(36) 0.000759 1320. 1334.
1381(38) 0.000707 1319. 1334.
1348(37) 0.000723 1318. 1333.
1362(37) 0.000715 1318. 1333.
1278(36) 0.000763 1317. 1333.
1301(37) 0.000751 1316. 1332.
1345(37) 0.000730 1315. 1332.
1318(37) 0.000747 1315. 1331.
1340(37) 0.000734 1314. 1331.
1380(37) 0.000715 1313. 1331.
1297(36) 0.000759 1313. 1330.
1335(37) 0.000730 1312. 1330.
1279(36) 0.000763 1311. 1330.
1349(37) 0.000723 1311. 1329.
1330(37) 0.000734 1310. 1329.
1305(37) 0.000751 1309. 1329.
1344(37) 0.000730 1309. 1329.
1355(37) 0.000727 1308. 1329.
1349(37) 0.000730 1307. 1329.
1365(37) 0.000719 1307. 1329.
1364(37) 0.000719 1306. 1329.
1326(37) 0.000738 1306. 1329.
1423(38) 0.000685 1305. 1329.
1338(37) 0.000727 1304. 1329.
1296(36) 0.000755 1304. 1329.
1339(37) 0.000730 1303. 1329.
1330(37) 0.000738 1302. 1330.
1338(37) 0.000734 1302. 1330.
1312(37) 0.000751 1301. 1330.
1428(38) 0.000689 1300. 1331.
1352(37) 0.000727 1300. 1332.
1377(38) 0.000707 1299. 1332.
1372(38) 0.000711 1299. 1333.
1349(37) 0.000723 1298. 1334.
1329(37) 0.000734 1297. 1335.
1421(38) 0.000689 1297. 1337.
1352(37) 0.000727 1296. 1338.
1390(38) 0.000707 1296. 1339.
1369(37) 0.000719 1295. 1341.
1424(38) 0.000689 1294. 1343.
1352(37) 0.000727 1294. 1346.
1438(38) 0.000678 1293. 1348.
1394(38) 0.000700 1293. 1349.
1384(38) 0.000704 1292. 1352.
1436(38) 0.000678 1292. 1356.
1406(38) 0.000696 1291. 1361.
1409(38) 0.000696 1290. 1366.
1366(37) 0.000719 1290. 1373.
1398(38) 0.000704 1289. 1381.
1411(38) 0.000696 1289. 1396.
1409(38) 0.000696 1288. 1408.
1402(38) 0.000696 1288. 1423.
1449(39) 0.000671 1287. 1442.
1413(38) 0.000689 1287. 1464.
1443(39) 0.000675 1286. 1492.
1609(41) 0.000607 1285. 1526.
1601(41) 0.000610 1285. 1567.
1651(41) 0.000595 1284. 1616.
1680(41) 0.000586 1284. 1674.
1743(42) 0.000562 1283. 1743.
1793(43) 0.000546 1283. 1822.
2011(46) 0.000483 1282. 1912.
2050(46) 0.000475 1282. 2012.
2227(48) 0.000436 1281. 2123.
2351(49) 0.000415 1281. 2241.
2343(49) 0.000416 1280. 2365.
2614(52) 0.000374 1280. 2489.
2700(53) 0.000363 1279. 2608.
2734(53) 0.000359 1279. 2714.
2924(55) 0.0003342 1278. 2799.
2991(55) 0.0003270 1278. 2854.
2974(55) 0.0003270 1277. 2874.
2927(55) 0.0003318 1277. 2854.
2635(52) 0.000368 1276. 2798.
2525(51) 0.000386 1276. 2713.
2437(50) 0.000400 1275. 2606.
2284(48) 0.000427 1275. 2486.
2167(47) 0.000453 1275. 2362.
2043(46) 0.000481 1274. 2238.
1852(44) 0.000528 1274. 2119.
1925(44) 0.000507 1273. 2008.
1858(44) 0.000524 1273. 1906.
1697(42) 0.000575 1272. 1816.
1664(41) 0.000583 1272. 1736.
1612(41) 0.000604 1271. 1667.
1508(39) 0.000647 1271. 1609.
1546(40) 0.000634 1271. 1559.
1610(41) 0.000610 1270. 1517.
1503(39) 0.000654 1270. 1483.
1428(38) 0.000689 1269. 1455.
1394(38) 0.000704 1269. 1432.
1434(38) 0.000678 1269. 1413.
1367(38) 0.000711 1268. 1397.
1347(37) 0.000723 1268. 1384.
1327(37) 0.000734 1267. 1374.
1361(37) 0.000719 1267. 1366.
1350(37) 0.000727 1267. 1358.
1375(37) 0.000715 1266. 1354.
1421(38) 0.000693 1266. 1349.
1422(38) 0.000689 1266. 1344.
1364(37) 0.000719 1265. 1341.
1323(37) 0.000738 1265. 1337.
1396(38) 0.000700 1264. 1334.
1306(37) 0.000747 1264. 1332.
1453(39) 0.000671 1264. 1330.
1283(36) 0.000763 1263. 1328.
1329(37) 0.000738 1263. 1326.
1314(37) 0.000747 1263. 1325.
1299(36) 0.000759 1262. 1324.
1285(36) 0.000767 1262. 1323.
1307(37) 0.000751 1262. 1322.
1351(37) 0.000723 1261. 1321.
1357(37) 0.000719 1261. 1321.
1334(37) 0.000730 1261. 1321.
1321(37) 0.000738 1261. 1321.
1390(38) 0.000704 1260. 1321.
1401(38) 0.000700 1260. 1321.
1363(37) 0.000723 1260. 1322.
1327(37) 0.000742 1259. 1323.
1375(37) 0.000715 1259. 1324.
1365(37) 0.000719 1259. 1325.
1360(37) 0.000719 1258. 1326.
1402(38) 0.000696 1258. 1328.
1337(37) 0.000730 1258. 1330.
1338(37) 0.000730 1258. 1332.
1381(38) 0.000707 1257. 1335.
1489(39) 0.000661 1257. 1338.
1388(38) 0.000707 1257. 1342.
1421(38) 0.000693 1257. 1346.
1446(38) 0.000682 1256. 1350.
1388(38) 0.000707 1256. 1356.
1320(37) 0.000738 1256. 1362.
1429(38) 0.000682 1256. 1370.
1448(39) 0.000675 1256. 1378.
1375(38) 0.000711 1255. 1388.
1463(39) 0.000668 1255. 1401.
1434(38) 0.000685 1255. 1416.
1505(39) 0.000651 1255. 1436.
1478(39) 0.000668 1254. 1462.
1505(39) 0.000651 1254. 1495.
1689(42) 0.000581 1254. 1539.
1674(41) 0.000583 1254. 1595.
1764(43) 0.000551 1254. 1668.
1845(44) 0.000526 1254. 1760.
1908(44) 0.000512 1253. 1875.
2178(47) 0.000449 1253. 2015.
2371(49) 0.000413 1253. 2181.
2752(53) 0.000355 1253. 2373.
2937(55) 0.0003342 1253. 2588.
3332(58) 0.0002932 1252. 2822.
3724(62) 0.0002627 1252. 3064.
3997(64) 0.0002426 1252. 3303.
4281(66) 0.0002268 1252. 3522.
4406(67) 0.0002201 1252. 3700.
4509(68) 0.0002156 1252. 3816.
4260(66) 0.0002282 1252. 3854.
4051(64) 0.0002411 1252. 3808.
3802(62) 0.0002568 1251. 3684.
3683(61) 0.0002661 1251. 3501.
3399(59) 0.0002873 1251. 3279.
3277(58) 0.0002983 1251. 3039.
3012(56) 0.0003223 1251. 2796.
2753(53) 0.000352 1251. 2564.
2641(52) 0.000367 1251. 2350.
2473(50) 0.000394 1251. 2160.
2286(48) 0.000427 1251. 1997.
2138(47) 0.000459 1250. 1859.
1989(45) 0.000492 1250. 1746.
1841(43) 0.000533 1250. 1655.
1723(42) 0.000570 1250. 1584.
1688(42) 0.000581 1250. 1528.
1573(40) 0.000619 1250. 1485.
1534(40) 0.000634 1250. 1452.
1492(39) 0.000651 1250. 1427.
1544(40) 0.000631 1250. 1407.
1477(39) 0.000661 1250. 1391.
1479(39) 0.000661 1250. 1379.
1434(38) 0.000685 1250. 1368.
1436(38) 0.000685 1250. 1359.
1466(39) 0.000668 1250. 1352.
1383(38) 0.000707 1250. 1345.
1348(37) 0.000723 1250. 1340.
1414(38) 0.000689 1250. 1335.
1423(38) 0.000682 1250. 1330.
1438(38) 0.000678 1250. 1326.
1421(38) 0.000685 1250. 1322.
1356(37) 0.000723 1250. 1319.
1322(37) 0.000742 1250. 1316.
1321(37) 0.000742 1250. 1314.
1314(37) 0.000747 1250. 1311.
1369(37) 0.000715 1250. 1309.
1264(36) 0.000772 1250. 1307.
1399(38) 0.000693 1250. 1306.
1288(36) 0.000755 1250. 1304.
1316(37) 0.000738 1250. 1303.
1316(37) 0.000742 1250. 1302.
1333(37) 0.000734 1250. 1301.
1364(37) 0.000719 1250. 1300.
1290(36) 0.000763 1250. 1300.
1317(37) 0.000747 1250. 1299.
1286(36) 0.000763 1250. 1299.
1355(37) 0.000719 1250. 1299.
1345(37) 0.000723 1250. 1299.
1320(37) 0.000734 1250. 1299.
1356(37) 0.000719 1250. 1300.
1313(37) 0.000742 1250. 1300.
1280(36) 0.000767 1250. 1301.
1357(37) 0.000723 1250. 1302.
1295(36) 0.000759 1250. 1303.
1295(36) 0.000759 1250. 1304.
1298(36) 0.000755 1250. 1306.
1317(37) 0.000738 1250. 1308.
1357(37) 0.000715 1251. 1308.
1351(37) 0.000719 1251. 1311.
1277(36) 0.000763 1251. 1314.
1333(37) 0.000730 1251. 1319.
1326(37) 0.000738 1251. 1324.
1316(37) 0.000747 1251. 1330.
1370(37) 0.000719 1251. 1339.
1325(37) 0.000738 1251. 1349.
1378(38) 0.000711 1251. 1361.
1341(37) 0.000727 1251. 1377.
1362(37) 0.000715 1252. 1397.
1426(38) 0.000682 1252. 1420.
1553(40) 0.000628 1252. 1449.
1593(40) 0.000613 1252. 1484.
1596(40) 0.000613 1252. 1525.
1632(41) 0.000601 1252. 1573.
1768(42) 0.000556 1252. 1628.
1764(42) 0.000564 1252. 1690.
1899(43) 0.000546 1253. 1759.
1941(45) 0.000500 1253. 1833.
2121(47) 0.000459 1253. 1910.
1979(45) 0.000492 1253. 1988.
2212(48) 0.000440 1253. 2063.
2271(48) 0.000429 1253. 2131.
2059(46) 0.000475 1253. 2186.
2179(47) 0.000451 1254. 2223.
2198(47) 0.000447 1254. 2238.
2175(47) 0.000451 1254. 2230.
2073(46) 0.000473 1254. 2198.
2030(46) 0.000479 1254. 2147.
1944(45) 0.000500 1254. 2082.
1811(43) 0.000536 1255. 2009.
1877(44) 0.000519 1255. 1931.
1780(43) 0.000548 1255. 1853.
1707(42) 0.000575 1255. 1778.
1655(41) 0.000592 1255. 1708.
1528(39) 0.000644 1255. 1644.
1586(40) 0.000619 1256. 1587.
1558(40) 0.000628 1256. 1536.
1495(39) 0.000651 1256. 1493.
1474(39) 0.000661 1256. 1457.
1413(38) 0.000689 1256. 1427.
1359(37) 0.000719 1257. 1402.
1407(38) 0.000693 1257. 1381.
1357(37) 0.000723 1257. 1364.
1371(37) 0.000715 1257. 1351.
1334(37) 0.000738 1257. 1340.
1278(36) 0.000767 1258. 1331.
1326(37) 0.000738 1258. 1324.
1247(36) 0.000780 1258. 1313.
1301(37) 0.000747 1258. 1308.
1299(37) 0.000747 1258. 1305.
1241(36) 0.000785 1259. 1301.
1336(37) 0.000730 1259. 1298.
1301(36) 0.000755 1259. 1296.
1292(36) 0.000759 1259. 1294.
1278(36) 0.000767 1260. 1292.
1280(36) 0.000767 1260. 1290.
1272(36) 0.000772 1260. 1289.
1284(36) 0.000759 1260. 1288.
1298(37) 0.000751 1260. 1286.
1267(36) 0.000767 1261. 1285.
1269(36) 0.000767 1261. 1284.
1276(36) 0.000763 1261. 1284.
1289(36) 0.000759 1261. 1283.
1273(36) 0.000772 1262. 1282.
1213(35) 0.000812 1262. 1281.
1210(35) 0.000807 1262. 1281.
1238(36) 0.000789 1262. 1280.
1239(36) 0.000785 1263. 1280.
1291(36) 0.000755 1263. 1280.
1232(36) 0.000789 1263. 1279.
1286(36) 0.000759 1263. 1279.
1352(37) 0.000723 1264. 1279.
1330(37) 0.000738 1264. 1278.
1259(36) 0.000776 1264. 1278.
1333(37) 0.000738 1264. 1278.
1380(38) 0.000711 1264. 1278.
1296(36) 0.000755 1265. 1278.
1293(36) 0.000755 1265. 1278.
1280(36) 0.000759 1265. 1278.
1288(36) 0.000755 1265. 1278.
1303(37) 0.000747 1266. 1278.
1282(36) 0.000763 1266. 1278.
1339(37) 0.000730 1266. 1278.
1357(37) 0.000723 1267. 1278.
1394(38) 0.000707 1267. 1278.
1287(36) 0.000763 1267. 1278.
1302(37) 0.000751 1267. 1278.
1394(38) 0.000700 1268. 1279.
1333(37) 0.000730 1268. 1279.
1422(38) 0.000685 1268. 1279.
1324(37) 0.000734 1268. 1280.
1270(36) 0.000772 1269. 1280.
1328(37) 0.000738 1269. 1281.
1381(38) 0.000711 1269. 1281.
1343(37) 0.000734 1269. 1282.
1397(38) 0.000704 1270. 1282.
1358(37) 0.000723 1270. 1283.
1400(38) 0.000696 1270. 1284.
1374(38) 0.000707 1270. 1285.
1453(39) 0.000668 1271. 1286.
1396(38) 0.000700 1271. 1286.
1405(38) 0.000696 1271. 1287.
1453(39) 0.000675 1271. 1288.
1469(39) 0.000668 1272. 1289.
1420(38) 0.000693 1272. 1290.
1497(39) 0.000654 1272. 1291.
1507(39) 0.000651 1272. 1292.
1461(39) 0.000668 1273. 1292.
1469(39) 0.000664 1273. 1292.
1497(39) 0.000651 1273. 1292.
1444(38) 0.000678 1273. 1291.
1452(39) 0.000675 1274. 1291.
1434(38) 0.000685 1274. 1290.
1363(37) 0.000719 1274. 1290.
1365(37) 0.000723 1274. 1289.
1334(37) 0.000738 1275. 1289.
1323(37) 0.000742 1275. 1289.
1395(38) 0.000700 1275. 1288.
1337(37) 0.000730 1275. 1288.
1390(38) 0.000700 1276. 1288.
1275(36) 0.000767 1276. 1288.
1279(36) 0.000763 1276. 1288.
1283(36) 0.000763 1276. 1288.
1224(35) 0.000803 1277. 1288.
1225(35) 0.000803 1277. 1288.
1340(37) 0.000730 1277. 1289.
1276(36) 0.000767 1277. 1289.
1289(36) 0.000755 1278. 1289.
1218(35) 0.000798 1278. 1290.
1303(37) 0.000747 1278. 1290.
1269(36) 0.000767 1278. 1290.
1245(36) 0.000785 1279. 1291.
1253(36) 0.000780 1279. 1291.
1316(37) 0.000747 1279. 1292.
1248(36) 0.000789 1279. 1292.
1244(36) 0.000789 1280. 1293.
1238(36) 0.000789 1280. 1293.
1184(35) 0.000821 1280.1 1293.8
1216(35) 0.000798 1280. 1294.
1229(36) 0.000789 1281. 1295.
1216(35) 0.000803 1281. 1296.
1267(36) 0.000767 1281. 1296.
1216(35) 0.000807 1281. 1297.
1262(36) 0.000776 1281. 1298.
1265(36) 0.000776 1282. 1298.
1217(35) 0.000803 1282. 1299.
1212(35) 0.000807 1282. 1300.
1245(36) 0.000780 1282. 1301.
1207(35) 0.000803 1283. 1302.
1188(35) 0.000816 1282.7 1302.7
1275(36) 0.000763 1283. 1304.
1172(35) 0.000831 1283.2 1304.9
1223(35) 0.000803 1283. 1306.
1178(35) 0.000831 1283.6 1307.3
1208(35) 0.000812 1284. 1309.
1196(35) 0.000821 1284.0 1310.2
1265(36) 0.000772 1284. 1312.
1226(36) 0.000793 1284. 1314.
1241(36) 0.000785 1285. 1316.
1238(36) 0.000785 1285. 1318.
1219(35) 0.000798 1285. 1321.
1258(36) 0.000776 1285. 1324.
1269(36) 0.000772 1285. 1327.
1240(36) 0.000789 1286. 1331.
1216(35) 0.000807 1286. 1336.
1288(36) 0.000759 1286. 1340.
1301(37) 0.000751 1286. 1347.
1326(37) 0.000734 1286. 1355.
1270(36) 0.000763 1286. 1364.
1274(36) 0.000763 1287. 1374.
1312(37) 0.000742 1287. 1387.
1402(38) 0.000696 1287. 1401.
1368(37) 0.000715 1287. 1418.
1416(38) 0.000693 1287. 1437.
1441(38) 0.000682 1287. 1459.
1441(38) 0.000678 1288. 1483.
1501(39) 0.000651 1288. 1511.
1622(41) 0.000598 1288. 1542.
1678(42) 0.000578 1288. 1576.
1705(42) 0.000570 1288. 1614.
1698(42) 0.000572 1288. 1654.
1877(44) 0.000519 1288. 1696.
1831(43) 0.000533 1289. 1739.
1879(44) 0.000521 1289. 1781.
1902(44) 0.000517 1289. 1822.
1882(44) 0.000521 1289. 1859.
1986(45) 0.000492 1289. 1889.
1991(45) 0.000489 1289. 1910.
2020(46) 0.000481 1289. 1921.
1989(45) 0.000489 1289. 1918.
1998(45) 0.000487 1290. 1904.
1950(45) 0.000500 1290. 1880.
1899(44) 0.000517 1290. 1847.
1826(43) 0.000536 1290. 1809.
1740(42) 0.000564 1290. 1768.
1678(41) 0.000586 1290. 1725.
1601(40) 0.000613 1290. 1682.
1605(41) 0.000607 1290. 1641.
1582(40) 0.000616 1290. 1603.
1594(41) 0.000610 1290. 1567.
1478(39) 0.000661 1290. 1534.
1453(39) 0.000671 1291. 1505.
1463(39) 0.000671 1291. 1479.
1452(39) 0.000675 1291. 1455.
1429(38) 0.000689 1291. 1435.
1341(37) 0.000730 1291. 1417.
1410(38) 0.000696 1291. 1402.
1404(38) 0.000696 1291. 1389.
1372(38) 0.000711 1291. 1378.
1370(38) 0.000707 1291. 1369.
1410(38) 0.000693 1291. 1361.
1304(37) 0.000751 1291. 1354.
1336(37) 0.000734 1291. 1348.
1317(37) 0.000742 1291. 1343.
1259(36) 0.000780 1291. 1339.
1309(37) 0.000751 1291. 1336.
1272(36) 0.000772 1291. 1333.
1283(36) 0.000759 1291. 1330.
1260(36) 0.000772 1291. 1328.
1238(36) 0.000785 1291. 1327.
1275(36) 0.000763 1291. 1325.
1299(37) 0.000751 1291. 1324.
1298(36) 0.000755 1291. 1323.
1335(37) 0.000734 1291. 1322.
1348(37) 0.000730 1291. 1321.
1299(36) 0.000755 1291. 1320.
1266(36) 0.000772 1291. 1320.
1264(36) 0.000772 1291. 1319.
1282(36) 0.000759 1291. 1319.
1286(36) 0.000755 1291. 1319.
1312(37) 0.000742 1291. 1319.
1295(36) 0.000755 1291. 1319.
1271(36) 0.000767 1291. 1319.
1331(37) 0.000734 1291. 1319.
1239(36) 0.000793 1291. 1319.
1355(37) 0.000723 1291. 1319.
1291(36) 0.000759 1291. 1319.
1225(36) 0.000793 1291. 1320.
1238(36) 0.000785 1291. 1321.
1249(36) 0.000776 1291. 1321.
1273(36) 0.000767 1291. 1322.
1261(36) 0.000772 1291. 1324.
1298(36) 0.000755 1291. 1325.
1258(36) 0.000780 1291. 1327.
1220(35) 0.000807 1291. 1329.
1322(37) 0.000738 1290. 1332.
1301(37) 0.000751 1290. 1335.
1303(37) 0.000747 1290. 1339.
1296(37) 0.000751 1290. 1344.
1324(37) 0.000734 1290. 1350.
1328(37) 0.000734 1290. 1357.
1304(37) 0.000747 1290. 1365.
1366(37) 0.000715 1290. 1374.
1359(37) 0.000719 1290. 1385.
1347(37) 0.000727 1290. 1398.
1374(37) 0.000715 1289. 1412.
1415(38) 0.000693 1289. 1429.
1477(39) 0.000657 1289. 1448.
1473(39) 0.000657 1289. 1470.
1467(39) 0.000661 1289. 1493.
1543(40) 0.000631 1289. 1519.
1567(40) 0.000622 1289. 1547.
1600(41) 0.000610 1288. 1576.
1632(41) 0.000601 1288. 1606.
1579(40) 0.000622 1288. 1635.
1570(40) 0.000622 1288. 1663.
1708(42) 0.000572 1288. 1688.
1619(41) 0.000601 1288. 1709.
1599(41) 0.000607 1288. 1724.
1688(42) 0.000575 1287. 1730.
1641(41) 0.000592 1287. 1729.
1566(40) 0.000622 1287. 1719.
1570(40) 0.000622 1287. 1702.
1541(40) 0.000634 1287. 1680.
1465(39) 0.000671 1286. 1653.
1494(39) 0.000657 1286. 1624.
1432(38) 0.000685 1286. 1594.
1367(38) 0.000711 1286. 1564.
1353(37) 0.000719 1286. 1535.
1336(37) 0.000727 1285. 1507.
1353(37) 0.000719 1285. 1482.
1339(37) 0.000727 1285. 1458.
1281(36) 0.000763 1285. 1437.
1245(36) 0.000785 1284. 1419.
1317(37) 0.000747 1284. 1402.
1242(36) 0.000789 1284. 1388.
1308(37) 0.000747 1284. 1375.
1323(37) 0.000738 1284. 1364.
1307(37) 0.000742 1283. 1355.
1292(37) 0.000751 1283. 1347.
1304(37) 0.000747 1283. 1340.
1258(36) 0.000776 1283. 1335.
1246(36) 0.000785 1282. 1330.
1250(36) 0.000785 1282. 1326.
1293(36) 0.000759 1282. 1322.
1253(36) 0.000780 1281. 1319.
1284(36) 0.000759 1281. 1317.
1265(36) 0.000767 1281. 1314.
1245(36) 0.000780 1281. 1313.
1289(37) 0.000751 1280. 1311.
1240(36) 0.000785 1280. 1310.
1300(37) 0.000747 1280. 1308.
1313(37) 0.000742 1279. 1307.
1287(36) 0.000759 1279. 1306.
1226(35) 0.000798 1279. 1306.
1268(36) 0.000772 1278. 1305.
1269(36) 0.000772 1278. 1304.
1321(37) 0.000734 1278. 1304.
1270(36) 0.000763 1278. 1303.
1300(37) 0.000747 1277. 1303.
1257(36) 0.000776 1277. 1302.
1251(36) 0.000785 1277. 1302.
1236(34) 0.000845 1276.2 1301.9
1270(36) 0.000772 1276. 1302.
1238(36) 0.000793 1276. 1302.
1292(36) 0.000759 1275. 1302.
1256(36) 0.000780 1275. 1302.
1169(35) 0.000831 1274.5 1302.1
1260(36) 0.000772 1274. 1302.
1250(36) 0.000776 1274. 1303.
1223(35) 0.000798 1273. 1303.
1248(36) 0.000780 1273. 1304.
1280(36) 0.000763 1273. 1305.
1262(36) 0.000776 1272. 1306.
1250(36) 0.000785 1272. 1308.
1279(36) 0.000767 1272. 1309.
1277(36) 0.000763 1271. 1311.
1359(37) 0.000715 1271. 1314.
1257(36) 0.000772 1270. 1317.
1317(37) 0.000738 1270. 1321.
1297(37) 0.000751 1270. 1326.
1266(36) 0.000772 1269. 1332.
1303(37) 0.000751 1269. 1340.
1333(37) 0.000734 1269. 1350.
1299(36) 0.000755 1268. 1362.
1357(37) 0.000723 1268. 1377.
1346(37) 0.000727 1267. 1395.
1347(37) 0.000723 1267. 1417.
1500(39) 0.000647 1266. 1442.
1581(40) 0.000613 1266. 1471.
1489(39) 0.000654 1266. 1503.
1614(41) 0.000601 1265. 1539.
1634(41) 0.000598 1265. 1578.
1661(41) 0.000589 1264. 1619.
1728(42) 0.000567 1264. 1660.
1801(43) 0.000543 1264. 1700.
1839(43) 0.000531 1263. 1738.
1839(44) 0.000528 1263. 1770.
1796(43) 0.000541 1262. 1794.
1886(44) 0.000512 1262. 1808.
1740(42) 0.000559 1261. 1811.
1834(43) 0.000531 1261. 1801.
1682(42) 0.000581 1260. 1780.
1664(41) 0.000586 1260. 1750.
1710(42) 0.000572 1260. 1714.
1588(40) 0.000616 1259. 1674.
1556(40) 0.000628 1259. 1632.
1424(38) 0.000682 1258. 1590.
1512(40) 0.000641 1258. 1550.
1506(39) 0.000644 1257. 1512.
1516(40) 0.000641 1257. 1478.
1473(39) 0.000661 1256. 1447.
1390(38) 0.000704 1256. 1419.
1346(37) 0.000727 1255. 1396.
1384(38) 0.000707 1255. 1376.
1419(38) 0.000689 1255. 1359.
1352(37) 0.000723 1254. 1345.
1340(37) 0.000727 1254. 1334.
1297(37) 0.000751 1253. 1325.
1317(37) 0.000734 1253. 1316.
1258(36) 0.000776 1252. 1310.
1350(37) 0.000723 1252. 1306.
1245(36) 0.000785 1251. 1302.
1319(37) 0.000742 1251. 1299.
1320(37) 0.000742 1250. 1296.
1288(36) 0.000759 1250. 1294.
1260(36) 0.000776 1249. 1292.
1269(36) 0.000763 1249. 1291.
1291(37) 0.000751 1248. 1289.
1261(36) 0.000767 1248. 1288.
1240(36) 0.000785 1247. 1287.
1313(37) 0.000742 1247. 1287.
1300(37) 0.000751 1246. 1286.
1248(36) 0.000785 1246. 1286.
1286(36) 0.000763 1245. 1285.
1252(36) 0.000780 1245. 1285.
1261(36) 0.000776 1244. 1285.
1230(36) 0.000789 1244. 1285.
1300(37) 0.000747 1243. 1285.
1306(37) 0.000742 1243. 1285.
1247(36) 0.000780 1242. 1286.
1243(36) 0.000785 1242. 1286.
1268(36) 0.000772 1241. 1287.
1382(38) 0.000711 1241. 1288.
1256(36) 0.000780 1240. 1289.
1349(37) 0.000727 1240. 1291.
1336(37) 0.000734 1239. 1292.
1252(36) 0.000780 1239. 1294.
1273(36) 0.000763 1238. 1296.
1267(36) 0.000767 1238. 1299.
1307(37) 0.000747 1237. 1302.
1281(36) 0.000759 1237. 1305.
1294(36) 0.000755 1236. 1309.
1346(37) 0.000727 1236. 1315.
1344(37) 0.000730 1235. 1321.
1297(36) 0.000755 1235. 1328.
1366(37) 0.000715 1234. 1337.
1406(38) 0.000693 1234. 1347.
1380(38) 0.000704 1233. 1359.
1381(38) 0.000704 1233. 1374.
1391(38) 0.000700 1232. 1391.
1373(38) 0.000711 1232. 1412.
1414(38) 0.000693 1231. 1435.
1475(39) 0.000664 1231. 1463.
1573(40) 0.000625 1230. 1496.
1545(40) 0.000634 1230. 1534.
1672(41) 0.000586 1229. 1579.
1753(43) 0.000554 1229. 1632.
1861(44) 0.000521 1228. 1693.
1952(45) 0.000498 1228. 1766.
2039(46) 0.000477 1228. 1852.
2191(48) 0.000443 1227. 1951.
2362(49) 0.000413 1227. 2064.
2384(49) 0.000411 1226. 2192.
2416(50) 0.000406 1226. 2329.
2592(52) 0.000377 1225. 2471.
2644(52) 0.000370 1225. 2611.
3049(56) 0.0003189 1224. 2734.
3094(57) 0.0003133 1224. 2828.
3208(58) 0.0003014 1223. 2878.
3129(57) 0.0003100 1223. 2873.
2844(54) 0.0003429 1222. 2815.
2662(52) 0.000367 1222. 2715.
2358(49) 0.000413 1221. 2587.
2199(47) 0.000445 1221. 2446.
2111(46) 0.000464 1220. 2303.
2031(46) 0.000481 1220. 2166.
1874(44) 0.000519 1219. 2040.
1779(43) 0.000546 1219. 1928.
1842(44) 0.000526 1218. 1830.
1733(42) 0.000562 1218. 1745.
1720(42) 0.000567 1217. 1674.
1742(42) 0.000562 1217. 1612.
1638(41) 0.000598 1217. 1560.
1624(41) 0.000604 1216. 1516.
1556(40) 0.000628 1216. 1478.
1492(39) 0.000654 1215. 1445.
1429(38) 0.000682 1215. 1417.
1506(39) 0.000644 1214. 1393.
1387(38) 0.000700 1214. 1372.
1435(38) 0.000678 1213. 1354.
1410(38) 0.000693 1213. 1339.
1443(38) 0.000678 1213. 1326.
1385(38) 0.000707 1212. 1316.
1359(37) 0.000723 1212. 1307.
1361(37) 0.000719 1211. 1299.
1403(38) 0.000696 1211. 1292.
1311(37) 0.000742 1210. 1287.
1280(36) 0.000759 1210. 1282.
1342(37) 0.000723 1210. 1278.
1265(36) 0.000767 1209. 1274.
1352(37) 0.000719 1209. 1271.
1303(37) 0.000751 1208. 1268.
1341(37) 0.000730 1208. 1266.
1240(36) 0.000789 1208. 1264.
1320(37) 0.000738 1207. 1262.
1290(36) 0.000755 1207. 1260.
1279(36) 0.000759 1206. 1259.
1184(35) 0.000821 1205.9 1257.6
1283(36) 0.000755 1206. 1257.
1248(36) 0.000780 1205. 1256.
1216(35) 0.000803 1205. 1255.
1326(37) 0.000738 1204. 1255.
1260(36) 0.000776 1204. 1254.
1266(36) 0.000776 1204. 1254.
1219(35) 0.000803 1203. 1254.
1315(37) 0.000742 1203. 1255.
1246(36) 0.000780 1203. 1255.
1208(35) 0.000803 1202. 1256.
1254(36) 0.000776 1202. 1257.
1284(36) 0.000759 1201. 1258.
1255(36) 0.000776 1201. 1260.
1313(37) 0.000742 1201. 1262.
1368(37) 0.000715 1200. 1265.
1295(36) 0.000759 1200. 1269.
1275(36) 0.000767 1200. 1273.
1304(37) 0.000751 1199. 1278.
1252(36) 0.000776 1199. 1285.
1253(36) 0.000776 1199. 1292.
1321(37) 0.000734 1198. 1302.
1274(36) 0.000763 1198. 1313.
1298(37) 0.000751 1198. 1326.
1303(37) 0.000751 1198. 1343.
1346(37) 0.000727 1197. 1363.
1373(37) 0.000715 1197. 1388.
1319(37) 0.000742 1197. 1418.
1346(37) 0.000727 1196. 1455.
1487(39) 0.000654 1196. 1500.
1435(38) 0.000678 1196. 1555.
1521(40) 0.000638 1196. 1620.
1600(41) 0.000610 1195. 1696.
1631(41) 0.000598 1195. 1784.
1807(43) 0.000541 1195. 1882.
1856(44) 0.000528 1194. 1988.
1960(45) 0.000500 1194. 2098.
2066(46) 0.000473 1194. 2205.
2159(47) 0.000453 1194. 2300.
2296(49) 0.000423 1193. 2372.
2248(48) 0.000432 1193. 2412.
2209(48) 0.000438 1193. 2412.
2158(47) 0.000451 1193. 2372.
2067(46) 0.000471 1193. 2298.
1960(45) 0.000498 1192. 2203.
1942(45) 0.000503 1192. 2095.
1829(43) 0.000536 1192. 1984.
1717(42) 0.000570 1192. 1877.
1679(42) 0.000581 1191. 1778.
1696(42) 0.000572 1191. 1689.
1602(41) 0.000607 1191. 1612.
1622(41) 0.000598 1191. 1546.
1553(40) 0.000625 1191. 1491.
1462(39) 0.000664 1191. 1445.
1451(39) 0.000675 1190. 1407.
1401(38) 0.000700 1190. 1375.
1318(37) 0.000742 1190. 1350.
1406(38) 0.000696 1190. 1329.
1379(38) 0.000707 1190. 1311.
1303(37) 0.000747 1190. 1296.
1364(38) 0.000711 1189. 1284.
1281(36) 0.000755 1189. 1273.
1302(37) 0.000747 1189. 1265.
1238(36) 0.000785 1189. 1257.
1238(36) 0.000789 1189. 1251.
1311(37) 0.000747 1189. 1245.
1286(36) 0.000763 1189. 1241.
1270(36) 0.000772 1189. 1237.
1203(35) 0.000812 1188. 1233.
1264(36) 0.000767 1188. 1230.
1257(36) 0.000772 1188. 1228.
1256(36) 0.000772 1188. 1225.
1189(35) 0.000816 1188.0 1223.0
1252(36) 0.000776 1188. 1221.
1317(37) 0.000742 1188. 1219.
1267(36) 0.000772 1188. 1218.
1230(35) 0.000798 1188. 1216.
1251(36) 0.000780 1188. 1215.
1255(36) 0.000776 1188. 1214.
1322(37) 0.000734 1188. 1212.
1229(36) 0.000789 1188. 1211.
1265(36) 0.000763 1187. 1210.
1235(36) 0.000785 1187. 1210.
1248(36) 0.000780 1187. 1209.
1237(36) 0.000789 1187. 1208.
1246(36) 0.000785 1187. 1207.
1237(36) 0.000793 1187. 1206.
1270(36) 0.000772 1187. 1206.
1238(36) 0.000789 1187. 1205.
1268(36) 0.000763 1187. 1205.
1273(36) 0.000763 1187. 1204.
1323(37) 0.000734 1187. 1206.
1252(36) 0.000776 1187. 1205.
1305(37) 0.000742 1187. 1205.
1253(36) 0.000780 1187. 1205.
1263(36) 0.000776 1187. 1204.
1278(36) 0.000767 1187. 1204.
1235(36) 0.000789 1187. 1204.
1238(36) 0.000789 1188. 1204.
1318(37) 0.000738 1188. 1203.
1270(36) 0.000763 1188. 1203.
1253(36) 0.000772 1188. 1203.
1259(36) 0.000772 1188. 1203.
1248(36) 0.000780 1188. 1203.
1270(36) 0.000767 1188. 1203.
1234(36) 0.000793 1188. 1202.
1193(35) 0.000821 1188.0 1202.4
1262(36) 0.000776 1188. 1202.
1284(36) 0.000759 1188. 1202.
1264(36) 0.000767 1188. 1202.
1171(35) 0.000831 1188.4 1202.3
1265(36) 0.000767 1188. 1202.
1233(36) 0.000789 1189. 1202.
1244(36) 0.000780 1189. 1202.
1279(36) 0.000763 1189. 1202.
1264(36) 0.000776 1189. 1202.
1311(37) 0.000747 1189. 1203.
1287(36) 0.000759 1189. 1203.
1261(36) 0.000776 1189. 1203.
1254(36) 0.000776 1189. 1203.
1223(36) 0.000793 1190. 1203.
1252(36) 0.000776 1190. 1203.
1259(36) 0.000772 1190. 1203.
1248(36) 0.000780 1190. 1204.
1292(36) 0.000755 1190. 1204.
1221(35) 0.000803 1190. 1204.
1251(36) 0.000785 1191. 1204.
1269(36) 0.000772 1191. 1205.
1233(36) 0.000793 1191. 1205.
1309(37) 0.000742 1191. 1205.
1221(36) 0.000793 1191. 1205.
1277(36) 0.000755 1192. 1206.
1293(37) 0.000751 1192. 1206.
1255(36) 0.000772 1192. 1206.
1269(36) 0.000767 1192. 1207.
1251(36) 0.000780 1192. 1207.
1336(37) 0.000734 1193. 1208.
1237(36) 0.000789 1193. 1208.
1207(35) 0.000812 1193. 1209.
1351(37) 0.000719 1193. 1209.
1250(36) 0.000776 1193. 1210.
1274(36) 0.000759 1194. 1210.
1259(36) 0.000772 1194. 1209.
1264(36) 0.000772 1194. 1210.
1275(36) 0.000767 1194. 1210.
1317(37) 0.000742 1195. 1211.
1290(36) 0.000759 1195. 1212.
1247(36) 0.000785 1195. 1213.
1271(36) 0.000767 1195. 1213.
1291(37) 0.000751 1196. 1214.
1194(35) 0.000812 1196. 1215.
1330(37) 0.000730 1196. 1216.
1284(36) 0.000759 1196. 1217.
1320(37) 0.000738 1197. 1218.
1273(36) 0.000767 1197. 1219.
1250(36) 0.000785 1197. 1220.
1231(35) 0.000798 1197. 1221.
1375(38) 0.000711 1198. 1223.
1300(37) 0.000751 1198. 1224.
1309(35) 0.000798 1198. 1225.
1264(36) 0.000767 1199. 1227.
1309(37) 0.000738 1199. 1228.
1263(36) 0.000767 1199. 1230.
1317(37) 0.000738 1200. 1232.
1320(37) 0.000738 1200. 1234.
1269(36) 0.000772 1200. 1236.
1268(36) 0.000772 1200. 1239.
1289(36) 0.000759 1201. 1241.
1273(36) 0.000767 1201. 1246.
1311(37) 0.000742 1201. 1249.
1302(37) 0.000742 1202. 1252.
1311(37) 0.000738 1202. 1256.
1260(36) 0.000772 1202. 1260.
1352(37) 0.000719 1203. 1265.
1393(38) 0.000700 1203. 1270.
1402(38) 0.000696 1203. 1276.
1315(37) 0.000747 1204. 1284.
1309(37) 0.000747 1204. 1293.
1406(38) 0.000693 1204. 1304.
1453(39) 0.000668 1205. 1317.
1420(38) 0.000682 1205. 1335.
1398(38) 0.000693 1205. 1357.
1465(39) 0.000664 1206. 1386.
1495(39) 0.000651 1206. 1423.
1551(40) 0.000628 1206. 1470.
1621(41) 0.000601 1207. 1530.
1703(42) 0.000575 1207. 1605.
1698(42) 0.000575 1207. 1696.
1894(44) 0.000514 1208. 1804.
1967(45) 0.000494 1208. 1929.
2194(48) 0.000441 1208. 2069.
2379(50) 0.000406 1209. 2222.
2697(53) 0.000360 1209. 2380.
2815(54) 0.0003442 1209. 2536.
3017(56) 0.0003223 1210. 2677.
3355(59) 0.0002912 1210. 2792.
3553(60) 0.0002750 1210. 2864.
3611(61) 0.0002696 1211. 2883.
3500(60) 0.0002778 1211. 2847.
3288(58) 0.0002952 1211. 2761.
2953(55) 0.0003282 1212. 2638.
2765(54) 0.0003494 1212. 2491.
2506(51) 0.000388 1213. 2334.
2325(49) 0.000418 1213. 2178.
2138(47) 0.000457 1213. 2030.
2014(45) 0.000485 1214. 1895.
1918(44) 0.000510 1214. 1776.
1683(42) 0.000581 1214. 1674.
1654(41) 0.000589 1215. 1590.
1521(40) 0.000638 1215. 1521.
1541(40) 0.000628 1215. 1468.
1575(40) 0.000616 1216. 1425.
1473(39) 0.000661 1216. 1391.
1514(39) 0.000644 1216. 1366.
1440(38) 0.000678 1217. 1346.
1477(39) 0.000664 1217. 1331.
1414(38) 0.000693 1217. 1320.
1363(37) 0.000719 1218. 1311.
1378(38) 0.000707 1218. 1303.
1316(37) 0.000738 1218. 1297.
1363(38) 0.000711 1219. 1292.
1304(37) 0.000742 1219. 1287.
1340(37) 0.000727 1219. 1284.
1312(37) 0.000742 1220. 1281.
1322(37) 0.000738 1220. 1279.
1229(36) 0.000793 1220. 1277.
1327(37) 0.000738 1221. 1275.
1250(36) 0.000785 1221. 1273.
1322(37) 0.000738 1221. 1272.
1286(36) 0.000755 1222. 1271.
1352(37) 0.000719 1222. 1270.
1363(38) 0.000711 1222. 1269.
1306(37) 0.000747 1223. 1269.
1306(37) 0.000747 1223. 1269.
1252(36) 0.000780 1223. 1269.
1300(36) 0.000755 1224. 1269.
1350(37) 0.000727 1224. 1269.
1323(37) 0.000738 1224. 1269.
1255(36) 0.000780 1225. 1270.
1269(36) 0.000767 1225. 1270.
1347(37) 0.000723 1225. 1271.
1303(37) 0.000742 1226. 1272.
1325(37) 0.000734 1226. 1273.
1310(37) 0.000747 1226. 1275.
1334(37) 0.000734 1226. 1277.
1283(36) 0.000763 1227. 1279.
1224(35) 0.000803 1227. 1281.
1311(37) 0.000747 1227. 1284.
1294(36) 0.000755 1228. 1287.
1283(36) 0.000759 1228. 1290.
1371(38) 0.000707 1228. 1295.
1288(36) 0.000755 1228. 1300.
1289(36) 0.000755 1229. 1305.
1300(37) 0.000747 1229. 1312.
1302(37) 0.000751 1229. 1321.
1248(36) 0.000785 1229. 1331.
1304(37) 0.000751 1230. 1344.
1337(37) 0.000730 1230. 1359.
1373(38) 0.000711 1230. 1378.
1353(37) 0.000719 1230. 1402.
1332(37) 0.000730 1231. 1430.
1406(38) 0.000689 1231. 1466.
1350(37) 0.000719 1231. 1509.
1388(38) 0.000700 1231. 1561.
1406(38) 0.000696 1232. 1622.
1458(39) 0.000671 1232. 1693.
1537(40) 0.000638 1232. 1774.
1600(41) 0.000610 1232. 1864.
1591(40) 0.000613 1232. 1961.
1656(41) 0.000586 1233. 2060.
1700(42) 0.000570 1233. 2159.
1824(43) 0.000531 1233. 2249.
1805(43) 0.000538 1233. 2324.
1772(43) 0.000548 1233. 2376.
1811(43) 0.000538 1233. 2397.
1742(42) 0.000562 1234. 2385.
1715(42) 0.000572 1234. 2341.
1604(41) 0.000610 1234. 2272.
1617(41) 0.000604 1234. 2185.
1520(40) 0.000638 1234. 2088.
1477(39) 0.000657 1234. 1989.
1411(38) 0.000685 1235. 1891.
1409(38) 0.000689 1235. 1800.
1375(38) 0.000707 1235. 1717.
1357(37) 0.000719 1235. 1643.
1417(38) 0.000689 1235. 1579.
1383(38) 0.000707 1235. 1525.
1319(37) 0.000738 1235. 1480.
1298(37) 0.000751 1235. 1443.
1314(37) 0.000738 1235. 1413.
1278(36) 0.000755 1236. 1389.
1272(36) 0.000763 1236. 1369.
1270(36) 0.000763 1236. 1353.
1281(36) 0.000759 1236. 1340.
1251(36) 0.000780 1236. 1329.
1248(36) 0.000785 1236. 1321.
1324(37) 0.000738 1236. 1313.
1233(36) 0.000793 1236. 1307.
1214(35) 0.000803 1236. 1302.
1314(37) 0.000738 1236. 1298.
1235(36) 0.000785 1236. 1295.
1255(36) 0.000772 1236. 1292.
1222(36) 0.000793 1236. 1289.
1196(35) 0.000812 1236. 1287.
1211(35) 0.000807 1236. 1285.
1304(37) 0.000747 1236. 1284.
1205(35) 0.000812 1236. 1282.
1299(36) 0.000755 1236. 1281.
1294(36) 0.000755 1236. 1280.
1194(35) 0.000812 1236. 1280.
1190(35) 0.000816 1236.3 1279.0
1181(35) 0.000821 1236.3 1278.5
1202(35) 0.000807 1236. 1278.
1183(35) 0.000821 1236.2 1278.1
1190(35) 0.000821 1236.2 1278.1
1220(35) 0.000803 1236. 1278.
1269(36) 0.000772 1236. 1278.
1240(36) 0.000789 1236. 1279.
1281(36) 0.000763 1236. 1279.
1242(36) 0.000785 1236. 1280.
1285(36) 0.000755 1236. 1281.
1205(35) 0.000803 1236. 1282.
1249(36) 0.000780 1236. 1284.
1197(35) 0.000812 1236. 1285.
1216(35) 0.000803 1236. 1287.
1256(36) 0.000780 1235. 1290.
1274(36) 0.000772 1235. 1293.
1311(37) 0.000747 1235. 1296.
1279(36) 0.000763 1235. 1301.
1338(37) 0.000727 1235. 1306.
1310(37) 0.000742 1235. 1313.
1284(36) 0.000755 1235. 1321.
1269(36) 0.000767 1235. 1332.
1347(37) 0.000723 1234. 1345.
1347(37) 0.000727 1234. 1362.
1390(38) 0.000704 1234. 1382.
1384(38) 0.000707 1234. 1406.
1439(38) 0.000678 1234. 1436.
1495(39) 0.000654 1234. 1468.
1551(40) 0.000628 1233. 1509.
1550(40) 0.000625 1233. 1555.
1610(41) 0.000601 1233. 1606.
1548(40) 0.000628 1233. 1663.
1717(42) 0.000567 1233. 1725.
1830(43) 0.000533 1232. 1789.
1883(44) 0.000519 1232. 1855.
1896(44) 0.000517 1232. 1919.
2058(46) 0.000475 1232. 1979.
2030(46) 0.000481 1232. 2031.
2151(47) 0.000451 1231. 2071.
2188(48) 0.000441 1231. 2096.
2205(48) 0.000440 1231. 2102.
2118(47) 0.000459 1231. 2090.
2027(46) 0.000479 1230. 2060.
1956(45) 0.000498 1230. 2016.
1875(44) 0.000521 1230. 1960.
1931(44) 0.000507 1230. 1898.
1798(43) 0.000543 1229. 1832.
1663(41) 0.000586 1229. 1766.
1694(42) 0.000572 1229. 1702.
1695(42) 0.000572 1228. 1641.
1614(41) 0.000598 1228. 1584.
1509(39) 0.000644 1228. 1534.
1525(40) 0.000638 1228. 1489.
1429(38) 0.000682 1227. 1449.
1458(39) 0.000671 1227. 1416.
1455(39) 0.000675 1227. 1387.
1355(37) 0.000723 1226. 1363.
1338(37) 0.000727 1226. 1343.
1296(37) 0.000751 1226. 1327.
1334(37) 0.000727 1225. 1314.
1281(36) 0.000755 1225. 1303.
1249(36) 0.000776 1225. 1294.
1314(37) 0.000738 1224. 1287.
1326(37) 0.000734 1224. 1281.
1326(37) 0.000734 1224. 1276.
1249(36) 0.000785 1223. 1272.
1273(36) 0.000763 1223. 1268.
1217(35) 0.000798 1223. 1265.
1334(37) 0.000727 1222. 1262.
1256(36) 0.000772 1222. 1259.
1239(36) 0.000780 1222. 1257.
1283(36) 0.000755 1221. 1255.
1229(36) 0.000793 1221. 1253.
1261(36) 0.000772 1221. 1251.
1236(36) 0.000789 1220. 1250.
1276(36) 0.000767 1220. 1248.
1228(36) 0.000793 1220. 1247.
1206(35) 0.000807 1219. 1246.
1197(35) 0.000807 1219. 1245.
1243(36) 0.000776 1219. 1243.
1256(36) 0.000767 1218. 1242.
1255(36) 0.000772 1218. 1241.
1328(37) 0.000730 1217. 1241.
1240(36) 0.000785 1217. 1240.
1219(35) 0.000803 1217. 1239.
1188(35) 0.000826 1216.3 1238.4
1262(36) 0.000772 1216. 1238.
1266(36) 0.000772 1216. 1237.
1237(36) 0.000785 1215. 1237.
1216(35) 0.000798 1215. 1237.
1273(36) 0.000759 1214. 1237.
1233(36) 0.000785 1214. 1237.
1203(35) 0.000812 1214. 1237.
1157(34) 0.000845 1213.3 1237.1
1265(36) 0.000772 1213. 1238.
1189(35) 0.000826 1212.5 1238.8
1219(35) 0.000803 1212. 1240.
1233(36) 0.000789 1212. 1242.
1178(35) 0.000826 1211.4 1244.0
1198(35) 0.000807 1211. 1247.
1245(36) 0.000780 1211. 1250.
1187(35) 0.000816 1210.3 1253.9
1238(36) 0.000785 1210. 1258.
1214(35) 0.000803 1210. 1264.
1254(36) 0.000780 1209. 1270.
1243(36) 0.000789 1209. 1276.
1255(36) 0.000780 1208. 1283.
1329(37) 0.000734 1208. 1291.
1279(36) 0.000759 1208. 1299.
1284(36) 0.000755 1207. 1307.
1293(37) 0.000751 1207. 1315.
1295(37) 0.000751 1207. 1323.
1317(37) 0.000738 1206. 1330.
1283(36) 0.000759 1206. 1336.
1287(36) 0.000755 1206. 1341.
1304(37) 0.000751 1205. 1343.
1291(36) 0.000755 1205. 1344.
1272(36) 0.000767 1205. 1343.
1232(36) 0.000785 1204. 1339.
1340(37) 0.000723 1204. 1334.
1273(36) 0.000759 1204. 1327.
1317(37) 0.000734 1203. 1319.
1308(37) 0.000742 1203. 1311.
1316(37) 0.000742 1203. 1302.
1315(37) 0.000742 1202. 1293.
1314(37) 0.000747 1202. 1284.
1244(36) 0.000785 1202. 1275.
1338(37) 0.000730 1202. 1267.
1345(37) 0.000723 1201. 1260.
1308(37) 0.000742 1201. 1253.
1312(37) 0.000738 1201. 1247.
1340(37) 0.000727 1200. 1241.
1280(36) 0.000759 1200. 1236.
1324(37) 0.000738 1200. 1232.
1295(36) 0.000755 1200. 1229.
1311(37) 0.000747 1199. 1225.
1336(37) 0.000734 1199. 1223.
1359(37) 0.000719 1199. 1221.
1315(37) 0.000738 1199. 1219.
1262(36) 0.000767 1198. 1217.
1269(36) 0.000763 1198. 1216.
1268(36) 0.000767 1198. 1215.
1275(36) 0.000763 1198. 1214.
1295(36) 0.000755 1198. 1213.
1312(37) 0.000747 1197. 1211.
1247(36) 0.000785 1197. 1211.
1361(37) 0.000719 1197. 1210.
1292(36) 0.000755 1197. 1210.
1302(37) 0.000747 1197. 1209.
1299(37) 0.000747 1197. 1209.
1272(36) 0.000759 1197. 1209.
1270(36) 0.000763 1196. 1209.
1241(36) 0.000785 1196. 1209.
1276(36) 0.000763 1196. 1209.
1268(36) 0.000772 1196. 1209.
1319(37) 0.000742 1196. 1209.
1244(36) 0.000785 1196. 1209.
1262(36) 0.000772 1196. 1209.
1223(36) 0.000793 1196. 1209.
1232(36) 0.000785 1196. 1209.
1280(36) 0.000755 1196. 1210.
1301(37) 0.000747 1195. 1211.
1279(36) 0.000759 1195. 1211.
1244(36) 0.000785 1195. 1212.
1196(35) 0.000816 1195.4 1212.4
1284(36) 0.000763 1195. 1213.
1232(36) 0.000793 1195. 1214.
1243(36) 0.000785 1195. 1215.
1268(36) 0.000767 1195. 1216.
1258(36) 0.000767 1195. 1218.
1253(36) 0.000772 1195. 1220.
1208(35) 0.000803 1196. 1222.
1252(36) 0.000776 1196. 1225.
1338(37) 0.000727 1196. 1228.
1294(36) 0.000755 1196. 1232.
1248(36) 0.000785 1196. 1238.
1319(37) 0.000738 1196. 1244.
1326(37) 0.000734 1196. 1253.
1386(38) 0.000700 1196. 1263.
1365(38) 0.000707 1196. 1276.
1436(39) 0.000675 1196. 1292.
1429(38) 0.000678 1197. 1310.
1458(39) 0.000664 1197. 1332.
1516(39) 0.000644 1197. 1357.
1507(39) 0.000647 1197. 1385.
1560(40) 0.000628 1197. 1415.
1590(40) 0.000613 1197. 1447.
1650(41) 0.000592 1198. 1478.
1767(43) 0.000551 1198. 1509.
1762(43) 0.000551 1198. 1535.
1835(44) 0.000526 1198. 1556.
1759(43) 0.000551 1199. 1568.
1832(43) 0.000531 1199. 1570.
1868(44) 0.000521 1199. 1562.
1742(42) 0.000559 1199. 1545.
1688(42) 0.000581 1200. 1521.
1653(41) 0.000592 1200. 1492.
1681(42) 0.000581 1200. 1461.
1660(41) 0.000583 1201. 1430.
1443(39) 0.000671 1201. 1399.
1395(38) 0.000693 1201. 1371.
1474(39) 0.000657 1202. 1346.
1251(36) 0.000776 1202. 1324.
1358(37) 0.000719 1202. 1304.
1317(37) 0.000742 1203. 1288.
1274(36) 0.000767 1203. 1275.
1275(36) 0.000767 1204. 1264.
1303(37) 0.000751 1204. 1255.
1336(37) 0.000727 1204. 1248.
1266(36) 0.000767 1205. 1243.
1230(36) 0.000789 1205. 1239.
1267(36) 0.000767 1206. 1236.
1257(36) 0.000776 1206. 1233.
1228(36) 0.000793 1207. 1231.
1219(35) 0.000803 1207. 1230.
1210(35) 0.000812 1208. 1228.
1264(36) 0.000776 1208. 1227.
1192(35) 0.000821 1208.7 1226.8
1185(35) 0.000821 1209.3 1226.2
1205(35) 0.000803 1210. 1226.
1230(36) 0.000789 1210. 1225.
1195(35) 0.000812 1211. 1224.
1195(35) 0.000812 1211. 1224.
1224(35) 0.000798 1212. 1224.
1260(36) 0.000776 1213. 1224.
1243(36) 0.000789 1213. 1224.
1278(36) 0.000763 1214. 1225.
1265(36) 0.000772 1214. 1225.
1198(35) 0.000812 1215. 1225.
1225(36) 0.000793 1215. 1225.
1273(36) 0.000759 1216. 1226.
1241(36) 0.000785 1217. 1226.
1234(36) 0.000789 1217. 1226.
1280(36) 0.000763 1218. 1227.
1271(36) 0.000767 1219. 1227.
1273(36) 0.000772 1219. 1228.
1220(35) 0.000803 1220. 1228.
1243(36) 0.000785 1221. 1229.
1226(36) 0.000789 1221. 1229.
1226(36) 0.000789 1222. 1230.
1286(36) 0.000755 1223. 1230.
1292(37) 0.000751 1223. 1231.
1300(37) 0.000747 1224. 1231.
1239(36) 0.000789 1225. 1232.
1242(36) 0.000789 1225. 1233.
1265(36) 0.000776 1226. 1233.
1233(36) 0.000789 1227. 1234.
1260(36) 0.000776 1227. 1234.
1153(34) 0.000845 1227.9 1235.1
1280(36) 0.000755 1229. 1236.
1317(37) 0.000734 1229. 1236.
1227(36) 0.000789 1230. 1237.
1237(36) 0.000785 1231. 1238.
1210(35) 0.000807 1231. 1238.
1242(36) 0.000785 1232. 1239.
1334(37) 0.000734 1233. 1240.
1270(36) 0.000767 1233. 1241.
1257(36) 0.000776 1234. 1241.
1264(36) 0.000767 1235. 1242.
1176(35) 0.000821 1235.5 1242.8
1238(36) 0.000780 1236. 1244.
1292(37) 0.000751 1237. 1244.
1236(36) 0.000785 1238. 1245.
1234(36) 0.000789 1238. 1246.
1229(36) 0.000793 1239. 1246.
1252(36) 0.000780 1240. 1247.
1257(36) 0.000776 1240. 1248.
1234(36) 0.000789 1241. 1249.
1217(35) 0.000798 1241. 1250.
1259(36) 0.000767 1242. 1250.
1272(36) 0.000759 1243. 1251.
1230(36) 0.000789 1243. 1252.
1250(36) 0.000776 1244. 1253.
1230(36) 0.000793 1245. 1253.
1233(36) 0.000789 1245. 1254.
1275(36) 0.000767 1246. 1256.
1275(36) 0.000767 1246. 1257.
1229(36) 0.000793 1247. 1258.
1257(36) 0.000772 1248. 1259.
1176(35) 0.000821 1248.1 1259.4
1248(36) 0.000776 1249. 1260.
1248(36) 0.000776 1249. 1261.
1208(35) 0.000803 1250. 1262.
1247(36) 0.000780 1250. 1263.
1204(35) 0.000812 1251. 1263.
1241(36) 0.000789 1251. 1264.
1195(35) 0.000816 1251.7 1265.1
1187(35) 0.000821 1252.1 1265.9
1282(36) 0.000755 1253. 1267.
1189(35) 0.000816 1253.0 1267.6
1195(35) 0.000807 1253. 1268.
1206(35) 0.000803 1254. 1269.
1215(35) 0.000798 1254. 1270.
1207(35) 0.000807 1255. 1271.
1223(36) 0.000793 1255. 1272.
1214(35) 0.000807 1255. 1273.
1199(35) 0.000816 1255.5 1273.9
1202(35) 0.000812 1256. 1275.
1199(35) 0.000807 1256. 1276.
1221(36) 0.000793 1256. 1277.
1178(35) 0.000821 1256.6 1277.8
1206(35) 0.000807 1257. 1279.
1241(36) 0.000785 1257. 1280.
1201(35) 0.000812 1257. 1281.
1212(35) 0.000807 1257. 1283.
1169(35) 0.000840 1257.4 1283.9
1237(36) 0.000789 1258. 1285.
1223(35) 0.000798 1258. 1287.
1208(35) 0.000803 1258. 1288.
1257(36) 0.000772 1258. 1290.
1217(35) 0.000798 1258. 1292.
1243(36) 0.000780 1258. 1294.
1261(36) 0.000772 1258. 1297.
1267(36) 0.000772 1258. 1299.
1240(36) 0.000789 1257. 1303.
1262(36) 0.000776 1257. 1306.
1239(36) 0.000789 1257. 1310.
1330(37) 0.000734 1257. 1315.
1306(37) 0.000742 1257. 1321.
1293(37) 0.000751 1257. 1328.
1306(37) 0.000742 1256. 1336.
1238(36) 0.000785 1256. 1346.
1291(37) 0.000751 1256. 1358.
1314(37) 0.000742 1255. 1372.
1345(37) 0.000727 1255. 1389.
1354(37) 0.000723 1255. 1409.
1297(37) 0.000751 1254. 1434.
1382(38) 0.000704 1254. 1462.
1345(37) 0.000723 1253. 1495.
1433(38) 0.000678 1253. 1532.
1511(40) 0.000641 1252. 1575.
1561(40) 0.000622 1252. 1622.
1616(41) 0.000601 1251. 1674.
1715(42) 0.000570 1251. 1730.
1614(41) 0.000604 1250. 1789.
1727(42) 0.000567 1249. 1849.
1729(42) 0.000564 1248. 1909.
1826(43) 0.000533 1248. 1966.
2001(45) 0.000485 1247. 2017.
1998(46) 0.000483 1246. 2059.
2091(47) 0.000462 1245. 2089.
1924(45) 0.000505 1245. 2104.
1978(45) 0.000492 1244. 2102.
1881(44) 0.000517 1243. 2084.
1888(44) 0.000517 1242. 2051.
1778(43) 0.000551 1241. 2006.
1749(42) 0.000556 1240. 1952.
1695(42) 0.000575 1239. 1893.
1784(43) 0.000543 1238. 1832.
1631(41) 0.000592 1237. 1770.
1646(41) 0.000586 1236. 1710.
1548(40) 0.000625 1235. 1653.
1526(40) 0.000634 1233. 1601.
1520(40) 0.000641 1232. 1552.
1520(40) 0.000641 1231. 1509.
1473(39) 0.000664 1230. 1470.
1412(38) 0.000693 1229. 1437.
1453(39) 0.000671 1227. 1408.
1340(37) 0.000723 1226. 1383.
1381(38) 0.000700 1225. 1361.
1281(36) 0.000755 1224. 1343.
1261(36) 0.000767 1222. 1328.
1291(37) 0.000751 1221. 1315.
1281(36) 0.000759 1220. 1304.
1262(36) 0.000772 1218. 1295.
1287(36) 0.000759 1217. 1287.
1338(37) 0.000727 1216. 1280.
1292(36) 0.000755 1214. 1274.
1218(36) 0.000793 1213. 1269.
1222(36) 0.000789 1212. 1265.
1187(35) 0.000812 1210. 1261.
1308(37) 0.000738 1209. 1257.
1246(36) 0.000780 1207. 1254.
1250(36) 0.000780 1206. 1251.
1233(36) 0.000789 1205. 1249.
1277(36) 0.000763 1203. 1246.
1281(36) 0.000759 1202. 1244.
1216(35) 0.000798 1201. 1242.
1248(36) 0.000776 1199. 1240.
1220(36) 0.000793 1198. 1239.
1287(37) 0.000751 1197. 1237.
1231(36) 0.000789 1196. 1236.
1254(36) 0.000772 1194. 1235.
1294(37) 0.000751 1193. 1234.
1282(36) 0.000763 1192. 1234.
1271(36) 0.000767 1191. 1233.
1252(36) 0.000780 1190. 1233.
1174(35) 0.000831 1188.8 1233.3
1320(37) 0.000734 1188. 1234.
1248(36) 0.000776 1187. 1235.
1240(36) 0.000780 1186. 1236.
1269(36) 0.000763 1185. 1237.
1243(36) 0.000780 1184. 1240.
1312(37) 0.000742 1184. 1243.
1312(37) 0.000742 1183. 1247.
1354(37) 0.000723 1182. 1252.
1313(37) 0.000742 1182. 1260.
1291(36) 0.000755 1181. 1269.
1360(38) 0.000711 1181. 1281.
1401(38) 0.000693 1181. 1296.
1403(38) 0.000689 1181. 1314.
1456(39) 0.000664 1181. 1338.
1431(38) 0.000678 1181. 1366.
1491(39) 0.000654 1181. 1401.
1577(40) 0.000619 1181. 1441.
1709(42) 0.000572 1182. 1488.
1691(42) 0.000578 1182. 1541.
1739(42) 0.000559 1183. 1600.
1801(43) 0.000538 1184. 1664.
1718(42) 0.000562 1185. 1732.
1813(43) 0.000531 1186. 1801.
1982(45) 0.000487 1187. 1868.
2077(46) 0.000466 1188. 1931.
2159(47) 0.000451 1190. 1985.
2203(48) 0.000441 1192. 2025.
2332(49) 0.000418 1194. 2049.
2455(50) 0.000397 1196. 2052.
2620(52) 0.000371 1199. 2036.
2553(51) 0.000379 1201. 2002.
2547(51) 0.000380 1204. 1954.
2422(50) 0.000398 1207. 1897.
2148(47) 0.000451 1211. 1834.
2083(46) 0.000466 1214. 1769.
1916(44) 0.000507 1218. 1706.
1854(44) 0.000526 1222. 1646.
1727(42) 0.000567 1227. 1591.
1620(41) 0.000601 1231. 1541.
1568(40) 0.000622 1236. 1499.
1496(39) 0.000647 1242. 1462.
1459(39) 0.000664 1247. 1433.
1446(39) 0.000668 1253. 1409.
1485(39) 0.000651 1259. 1391.
1330(37) 0.000730 1266. 1377.
1320(37) 0.000738 1273. 1368.
1333(37) 0.000730 1281. 1363.
1337(37) 0.000730 1288. 1360.
1333(37) 0.000730 1297. 1360.
1297(37) 0.000751 1305. 1362.
1312(37) 0.000738 1314. 1365.
1317(37) 0.000734 1324. 1370.
1292(37) 0.000751 1334. 1377.
1268(36) 0.000767 1344. 1384.
1279(36) 0.000759 1355. 1392.
1271(36) 0.000767 1367. 1401.
1214(35) 0.000803 1379. 1411.
1235(36) 0.000793 1391. 1422.
1195(35) 0.000816 1404.4 1433.0
1252(36) 0.000780 1418. 1445.
1213(35) 0.000798 1432. 1458.
1250(36) 0.000776 1447. 1471.
1191(35) . . .
1219(36) . . .
1263(38) . . .
1241(37) . . .
1237(37) . . .
1296(38) . . .
1268(38) . . .
1265(38) . . .
1282(38) . . .
1288(38) . . .
1248(38) . . .
1296(38) . . .
1272(38) . . .
1343(39) . . .
1222(37) . . .
1248(38) . . .
1246(38) . . .
1340(39) . . .
1267(38) . . .
1282(38) . . .
1284(38) . . .
1316(39) . . .
1329(39) . . .
1405(40) . . .
1391(40) . . .
1423(40) . . .
1447(41) . . .
1349(39) . . .
1451(41) . . .
1384(40) . . .
1561(42) . . .
1534(42) . . .
1592(43) . . .
1630(43) . . .
1644(43) . . .
1585(42) . . .
1657(43) . . .
1565(42) . . .
1665(44) . . .
1557(42) . . .
1541(42) . . .
1607(43) . . .
1508(41) . . .
1504(41) . . .
1466(41) . . .
1460(41) . . .
1338(39) . . .
1364(39) . . .
1407(40) . . .
1367(40) . . .
1383(40) . . .
1285(38) . . .
1340(39) . . .
1309(39) . . .
1257(38) . . .
1314(39) . . .
1331(39) . . .
1300(38) . . .
1266(38) . . .
1268(38) . . .
1263(38) . . .
1259(38) . . .
1307(39) . . .
1286(38) . . .
1215(37) . . .
1218(37) . . .
1289(38) . . .
1303(38) . . .
1241(38) . . .
1281(38) . . .
1256(38) . . .
1236(37) . . .
1265(38) . . .
1275(38) . . .
1259(38) . . .
1216(37) . . .
1261(38) . . .
1227(37) . . .
1251(38) . . .
1222(37) . . .
1137(36) . . .
1252(38) . . .
1250(38) . . .
1208(37) . . .
1153(36) . . .
1255(38) . . .
1238(37) . . .
1204(37) . . .
1249(38) . . .
1299(39) . . .
1216(37) . . .
1261(38) . . .
1225(37) . . .
1284(38) . . .
1267(38) . . .
1253(38) . . .
1263(38) . . .
1177(37) . . .
1337(39) . . .
1328(39) . . .
1248(38) . . .
1352(39) . . .
1243(38) . . .
1293(38) . . .
1320(39) . . .
1348(39) . . .
1299(38) . . .
1346(39) . . .
1285(38) . . .
1348(39) . . .
1375(40) . . .
1393(40) . . .
1398(40) . . .
1394(40) . . .
1365(39) . . .
1351(39) . . .
1387(40) . . .
1277(38) . . .
1319(39) . . .
1381(40) . . .
1301(39) . . .
1351(39) . . .
1353(39) . . .
1246(38) . . .
1335(39) . . .
1306(38) . . .
1227(37) . . .
1236(37) . . .
1306(39) . . .
1373(40) . . .
1280(38) . . .
1382(40) . . .
1323(39) . . .
1286(38) . . .
1351(39) . . .
1315(39) . . .
1379(40) . . .
1308(39) . . .
1295(38) . . .
1277(38) . . .
1348(39) . . .
1331(39) . . .
1342(39) . . .
1337(39) . . .
1369(39) . . .
1354(39) . . .
1303(38) . . .
1305(39) . . .
1350(39) . . .
1308(39) . . .
1388(40) . . .
1303(39) . . .
1327(39) . . .
1275(38) . . .
1305(38) . . .
1255(38) . . .
1235(37) . . .
1262(38) . . .
1285(38) . . .
1357(39) . . .
1379(40) . . .
1315(39) . . .
1347(39) . . .
1331(39) . . .
1323(39) . . .
1384(40) . . .
1366(39) . . .
1387(40) . . .
1340(39) . . .
1419(40) . . .
1463(41) . . .
1537(42) . . .
1626(43) . . .
1659(43) . . .
1722(44) . . .
1761(45) . . .
1834(46) . . .
1837(46) . . .
1940(47) . . .
1970(47) . . .
1981(48) . . .
2171(50) . . .
2162(50) . . .
2302(51) . . .
2308(51) . . .
2317(51) . . .
2355(52) . . .
2151(49) . . .
2121(49) . . .
2013(48) . . .
1962(47) . . .
1831(46) . . .
1812(45) . . .
1769(45) . . .
1673(44) . . .
1699(44) . . .
1621(43) . . .
1656(43) . . .
1564(42) . . .
1584(43) . . .
1565(42) . . .
1556(42) . . .
1506(41) . . .
1457(41) . . .
1537(42) . . .
1374(39) . . .
1333(39) . . .
1400(40) . . .
1342(39) . . .
1415(40) . . .
1327(39) . . .
1355(39) . . .
1418(40) . . .
1295(38) . . .
1261(38) . . .
1355(39) . . .
1198(37) . . .
1281(38) . . .
1359(39) . . .
1346(39) . . .
1347(39) . . .
1285(38) . . .
1352(39) . . .
1285(38) . . .
1338(39) . . .
1329(39) . . .
1281(38) . . .
1274(38) . . .
1327(39) . . .
1259(38) . . .
1292(38) . . .
1249(38) . . .
1316(39) . . .
1326(39) . . .
1386(40) . . .
1261(38) . . .
1270(38) . . .
1246(38) . . .
1242(38) . . .
1281(38) . . .
1264(38) . . .
1231(37) . . .
1323(39) . . .
1365(39) . . .
1306(38) . . .
1342(39) . . .
1295(38) . . .
1367(39) . . .
1358(39) . . .
1273(38) . . .
1289(38) . . .
1350(39) . . .
1434(40) . . .
1407(40) . . .
1477(41) . . .
1470(41) . . .
1531(42) . . .
1526(42) . . .
1509(42) . . .
1490(41) . . .
1366(40) . . .
1450(41) . . .
1387(40) . . .
1397(40) . . .
1377(40) . . .
1372(39) . . .
1400(40) . . .
1320(39) . . .
1354(39) . . .
1316(39) . . .
1350(39) . . .
1331(39) . . .
1307(39) . . .
1319(39) . . .
1313(39) . . .
1280(38) . . .
1234(37) . . .
1328(39) . . .
1265(38) . . .
1352(39) . . .
1330(39) . . .
1317(39) . . .
1387(40) . . .
1314(39) . . .
1261(38) . . .
1287(38) . . .
1311(39) . . .
1321(39) . . .
1337(39) . . .
1363(39) . . .
1291(38) . . .
1307(39) . . .
1225(37) . . .
1306(39) . . .
1288(38) . . .
1270(38) . . .
1236(37) . . .
1227(37) . . .
1236(38) . . .
1254(38) . . .
1315(39) . . .
1293(38) . . .
1229(37) . . .
1299(38) . . .
1239(38) . . .
1330(39) . . .
1298(38) . . .
1333(39) . . .
1300(39) . . .
1306(39) . . .
1259(38) . . .
1354(39) . . .
1309(39) . . .
1320(38) . . .
1357(41) . . .
1390(41) . . .
1376(41) . . .
1332(41) . . .
1436(42) . . .
1466(43) . . .
1507(43) . . .
1525(44) . . .
1461(43) . . .
1507(43) . . .
1431(42) . . .
1454(42) . . .
1478(43) . . .
1483(43) . . .
1473(43) . . .
1486(43) . . .
1424(42) . . .
1434(42) . . .
1470(43) . . .
1353(41) . . .
1397(42) . . .
1400(42) . . .
1374(41) . . .
1283(40) . . .
1296(40) . . .
1306(40) . . .
1331(41) . . .
1374(41) . . .
1362(41) . . .
1295(40) . . .
1387(41) . . .
1305(40) . . .
1307(40) . . .
1358(41) . . .
1353(41) . . .
1234(39) . . .
1271(40) . . .
1370(41) . . .
1284(40) . . .
1270(40) . . .
1327(40) . . .
1299(40) . . .
1342(41) . . .
1267(40) . . .
1338(41) . . .
1338(41) . . .
1350(41) . . .
1378(41) . . .
1368(41) . . .
1346(41) . . .
1343(41) . . .
1349(41) . . .
1358(41) . . .
1329(41) . . .
1345(41) . . .
1401(42) . . .
1372(41) . . .
1448(42) . . .
1431(42) . . .
1317(40) . . .
1406(42) . . .
1387(41) . . .
1473(43) . . .
1428(42) . . .
1529(44) . . .
1559(44) . . .
1568(44) . . .
1587(44) . . .
1575(44) . . .
1678(45) . . .
1730(46) . . .
1768(47) . . .
1909(49) . . .
2050(50) . . .
2106(51) . . .
2337(54) . . .
2482(56) . . .
2653(57) . . .
2757(58) . . .
2903(60) . . .
3039(61) . . .
3301(64) . . .
3532(66) . . .
3674(68) . . .
3803(69) . . .
3878(70) . . .
3923(70) . . .
3761(68) . . .
3454(65) . . .
3367(65) . . .
3171(63) . . .
3004(61) . . .
2889(60) . . .
2790(59) . . .
2530(56) . . .
2528(56) . . .
2482(56) . . .
2232(53) . . .
2145(52) . . .
2122(51) . . .
1967(49) . . .
1888(48) . . .
1844(48) . . .
1737(47) . . .
1650(45) . . .
1620(45) . . .
1658(46) . . .
1549(44) . . .
1490(43) . . .
1459(42) . . .
1403(42) . . .
1346(41) . . .
1405(42) . . .
1366(41) . . .
1352(41) . . .
1341(41) . . .
1348(41) . . .
1382(41) . . .
1330(41) . . .
1315(40) . . .
1307(40) . . .
1337(41) . . .
1296(40) . . .
1256(40) . . .
1306(40) . . .
1321(41) . . .
1349(41) . . .
1218(39) . . .
1262(40) . . .
1230(39) . . .
1330(41) . . .
1294(40) . . .
1322(40) . . .
1339(41) . . .
1300(40) . . .
1250(40) . . .
1281(40) . . .
1304(40) . . .
1301(40) . . .
1235(39) . . .
1352(41) . . .
1257(39) . . .
1325(41) . . .
1323(41) . . .
1353(41) . . .
1264(40) . . .
1284(40) . . .
1350(41) . . .
1349(41) . . .
1360(41) . . .
1272(40) . . .
1362(41) . . .
1309(40) . . .
1371(41) . . .
1329(41) . . .
1353(41) . . .
1315(40) . . .
1374(41) . . .
1367(41) . . .
1356(41) . . .
1407(42) . . .
1367(41) . . .
1253(39) . . .
1353(41) . . .
1288(40) . . .
1344(41) . . .
1319(41) . . .
1308(40) . . .
1301(40) . . .
1304(40) . . .
1207(39) . . .
1243(39) . . .
1332(41) . . .
1313(40) . . .
1247(39) . . .
1314(41) . . .
1314(40) . . .
1315(40) . . .
1280(40) . . .
1374(41) . . .
1191(38) . . .
1349(41) . . .
1272(40) . . .
1259(40) . . .
1342(41) . . .
1274(40) . . .
1296(40) . . .
1216(39) . . .
1277(40) . . .
1193(38) . . .
1277(40) . . .
1363(41) . . .
1273(40) . . .
1289(40) . . .
1296(40) . . .
1265(40) . . .
1328(41) . . .
1308(40) . . .
1317(40) . . .
1320(40) . . .
1308(40) . . .
1237(39) . . .
1322(41) . . .
1254(40) . . .
1336(41) . . .
1310(40) . . .
1407(42) . . .
1377(41) . . .
1323(41) . . .
1390(41) . . .
1405(42) . . .
1444(42) . . .
1404(42) . . .
1493(43) . . .
1489(43) . . .
1615(45) . . .
1529(44) . . .
1657(45) . . .
1776(47) . . .
1756(47) . . .
1838(48) . . .
1924(49) . . .
1962(49) . . .
2185(52) . . .
2207(52) . . .
2284(53) . . .
2414(55) . . .
2588(57) . . .
2705(58) . . .
2727(58) . . .
2705(58) . . .
2598(57) . . .
2542(56) . . .
2266(53) . . .
2112(51) . . .
2023(50) . . .
1954(49) . . .
1863(48) . . .
1696(46) . . .
1656(45) . . .
1604(45) . . .
1544(44) . . .
1550(44) . . .
1511(43) . . .
1473(43) . . .
1477(43) . . .
1445(42) . . .
1428(42) . . .
1439(42) . . .
1388(41) . . .
1405(42) . . .
1347(41) . . .
1416(42) . . .
1311(40) . . .
1290(40) . . .
1329(41) . . .
1371(41) . . .
1382(41) . . .
1274(40) . . .
1312(40) . . .
1371(41) . . .
1311(40) . . .
1336(41) . . .
1270(40) . . .
1341(41) . . .
1400(42) . . .
1282(40) . . .
1359(41) . . .
1347(41) . . .
1365(41) . . .
1349(41) . . .
1284(40) . . .
1288(40) . . .
1282(40) . . .
1357(41) . . .
1424(42) . . .
1289(40) . . .
1409(42) . . .
1362(41) . . .
1394(42) . . .
1361(41) . . .
1390(41) . . .
1456(42) . . .
1455(43) . . .
1464(43) . . .
1559(44) . . .
1578(44) . . .
1541(44) . . .
1617(45) . . .
1628(45) . . .
1754(47) . . .
1695(46) . . .
1766(47) . . .
1814(47) . . .
1830(46) . . .
1928(51) . . .
1961(52) . . .
1966(52) . . .
2049(53) . . .
2016(52) . . .
1982(52) . . .
1904(51) . . .
1904(51) . . .
1703(48) . . .
1764(49) . . .
1614(47) . . .
1662(48) . . .
1513(46) . . .
1536(46) . . .
1533(46) . . .
1493(45) . . .
1421(44) . . .
1445(44) . . .
1429(44) . . .
1420(44) . . .
1396(44) . . .
1380(44) . . .
1342(43) . . .
1358(43) . . .
1345(43) . . .
1316(42) . . .
1365(43) . . .
1358(43) . . .
1319(42) . . .
1324(43) . . .
1352(43) . . .
1327(43) . . .
1273(42) . . .
1237(41) . . .
1315(42) . . .
1304(42) . . .
1338(43) . . .
1273(42) . . .
1311(42) . . .
1309(42) . . .
1271(42) . . .
1294(42) . . .
1268(42) . . .
1308(42) . . .
1358(43) . . .
1254(41) . . .
1304(42) . . .
1297(42) . . .
1405(44) . . .
1287(42) . . .
1262(42) . . .
1268(42) . . .
1237(41) . . .
1369(43) . . .
1253(41) . . .
1361(43) . . .
1247(41) . . .
1245(41) . . .
1272(42) . . .
1316(42) . . .
1299(42) . . .
1361(43) . . .
1294(42) . . .
1351(43) . . .
1285(42) . . .
1330(43) . . .
1311(42) . . .
1289(42) . . .
1275(42) . . .
1328(43) . . .
1333(43) . . .
1317(42) . . .
1365(43) . . .
1334(43) . . .
1350(43) . . .
1327(43) . . .
1277(42) . . .
1376(43) . . .
1311(42) . . .
1297(42) . . .
1266(42) . . .
1344(43) . . .
1279(42) . . .
1330(43) . . .
1326(43) . . .
1292(42) . . .
1318(42) . . .
1423(44) . . .
1347(43) . . .
1317(42) . . .
1331(43) . . .
1285(42) . . .
1318(43) . . .
1290(42) . . .
1381(43) . . .
1386(43) . . .
1364(43) . . .
1316(42) . . .
1316(42) . . .
1275(42) . . .
1367(43) . . .
1436(44) . . .
1383(43) . . .
1333(43) . . .
1381(43) . . .
1352(43) . . .
1349(43) . . .
1308(42) . . .
1321(43) . . .
1348(43) . . .
1280(42) . . .
1319(43) . . .
1391(44) . . .
1354(43) . . .
1283(42) . . .
1360(43) . . .
1268(42) . . .
1331(43) . . .
1324(43) . . .
1329(43) . . .
1399(44) . . .
1306(42) . . .
1272(42) . . .
1290(42) . . .
1354(43) . . .
1489(45) . . .
1365(43) . . .
1396(44) . . .
1389(44) . . .
1467(45) . . .
1422(44) . . .
1453(45) . . .
1569(46) . . .
1568(46) . . .
1523(45) . . .
1646(47) . . .
1582(46) . . .
1680(48) . . .
1622(47) . . .
1843(50) . . .
1863(51) . . .
1821(50) . . .
1816(50) . . .
1833(50) . . .
1828(50) . . .
1772(49) . . .
1830(50) . . .
1657(48) . . .
1685(48) . . .
1667(48) . . .
1605(47) . . .
1569(46) . . .
1628(47) . . .
1577(46) . . .
1556(46) . . .
1507(45) . . .
1520(46) . . .
1487(45) . . .
1479(45) . . .
1414(44) . . .
1397(44) . . .
1349(43) . . .
1333(43) . . .
1305(42) . . .
1359(43) . . .
1338(43) . . .
1266(41) . . .
1384(43) . . .
1345(43) . . .
1335(43) . . .
1297(42) . . .
1347(43) . . .
1367(43) . . .
1304(42) . . .
1349(43) . . .
1346(43) . . .
1303(42) . . .
1325(42) . . .
1328(43) . . .
1250(41) . . .
1266(42) . . .
1381(44) . . .
1266(42) . . .
1333(43) . . .
1346(43) . . .
1280(42) . . .
1208(41) . . .
1266(42) . . .
1281(42) . . .
1316(42) . . .
1391(44) . . .
1292(42) . . .
1348(43) . . .
1332(43) . . .
1313(42) . . .
1381(43) . . .
1356(43) . . .
1361(43) . . .
1355(43) . . .
1404(44) . . .
1467(45) . . .
1413(44) . . .
1474(45) . . .
1432(44) . . .
1514(46) . . .
1439(44) . . .
1419(44) . . .
1337(43) . . .
1323(43) . . .
1515(46) . . .
1374(43) . . .
1441(45) . . .
1404(44) . . .
1407(44) . . .
1424(44) . . .
1325(43) . . .
1301(42) . . .
1333(43) . . .
1301(42) . . .
1297(42) . . .
1355(43) . . .
1328(43) . . .
1359(43) . . .
1223(41) . . .
1250(41) . . .
1301(42) . . .
1385(43) . . .
1284(42) . . .
1238(41) . . .
1260(42) . . .
1316(42) . . .
1345(43) . . .
1349(43) . . .
1260(41) . . .
1269(42) . . .
1295(42) . . .
1252(41) . . .
1234(41) . . .
1239(41) . . .
1236(41) . . .
1287(42) . . .
1274(42) . . .
1232(41) . . .
1273(42) . . .
1216(41) . . .
1303(42) . . .
1263(41) . . .
1323(42) . . .
1293(42) . . .
1288(42) . . .
1253(41) . . .
1390(44) . . .
1256(42) . . .
1271(42) . . .
1233(41) . . .
1305(42) . . .
1347(43) . . .
1341(43) . . .
1218(41) . . .
1288(42) . . .
1235(41) . . .
1378(43) . . .
1317(42) . . .
1362(43) . . .
1300(42) . . .
1345(43) . . .
1368(43) . . .
1414(44) . . .
1433(44) . . .
1454(45) . . .
1342(43) . . .
1482(45) . . .
1426(44) . . .
1491(45) . . .
1436(44) . . .
1446(44) . . .
1506(45) . . .
1616(47) . . .
1616(47) . . .
1576(46) . . .
1588(47) . . .
1560(46) . . .
1674(48) . . .
1581(46) . . .
1541(46) . . .
1589(47) . . .
1538(46) . . .
1515(45) . . .
1488(45) . . .
1384(44) . . .
1414(44) . . .
1305(42) . . .
1328(43) . . .
1307(42) . . .
1337(43) . . .
1325(42) . . .
1236(41) . . .
1382(46) . . .
1166(42) . . .
1352(45) . . .
1204(43) . . .
1204(43) . . .
1137(41) . . .
1219(43) . . .
1178(42) . . .
1280(44) . . .
1210(43) . . .
1242(43) . . .
1221(43) . . .
1295(44) . . .
1225(43) . . .
1280(44) . . .
1231(43) . . .
1267(44) . . .
1254(43) . . .
1289(44) . . .
1254(43) . . .
1217(43) . . .
1172(42) . . .
1335(45) . . .
1159(42) . . .
1229(43) . . .
1117(41) . . .
1188(42) . . .
1199(43) . . .
1221(43) . . .
1161(42) . . .
1236(43) . . .
1198(43) . . .
1206(43) . . .
1182(42) . . .
1252(44) . . .
1276(44) . . .
1205(43) . . .
1203(43) . . .
1177(42) . . .
1223(43) . . .
1216(43) . . .
1150(42) . . .
1273(44) . . .
1220(43) . . .
1191(43) . . .
1202(43) . . .
1195(42) . . .
1190(42) . . .
1224(43) . . .
1222(43) . . .
1241(43) . . .
1271(44) . . .
1272(44) . . .
1131(41) . . .
1185(42) . . .
1192(43) . . .
1215(43) . . .
1223(43) . . .
1224(43) . . .
1203(43) . . .
1210(43) . . .
1336(45) . . .
1288(44) . . .
1247(44) . . .
1266(44) . . .
1234(43) . . .
1262(44) . . .
1230(43) . . .
1315(44) . . .
1253(43) . . .
1249(43) . . .
1228(43) . . .
1258(44) . . .
1271(44) . . .
1238(43) . . .
1181(42) . . .
1234(43) . . .
1268(44) . . .
1234(43) . . .
1256(44) . . .
1280(44) . . .
1280(44) . . .
1248(44) . . .
1287(44) . . .
1228(43) . . .
1277(44) . . .
1277(44) . . .
1255(44) . . .
1205(43) . . .
1217(43) . . .
1176(42) . . .
1227(43) . . .
1277(44) . . .
1278(44) . . .
1223(43) . . .
1318(45) . . .
1271(44) . . .
1232(43) . . .
1258(44) . . .
1304(44) . . .
1314(45) . . .
1294(44) . . .
1255(44) . . .
1336(45) . . .
1322(45) . . .
1399(46) . . .
1471(47) . . .
1452(47) . . .
1505(48) . . .
1479(47) . . .
1608(49) . . .
1553(49) . . .
1695(51) . . .
1698(51) . . .
1739(51) . . .
1868(53) . . .
1858(53) . . .
1875(53) . . .
1856(53) . . .
1954(54) . . .
1989(55) . . .
1881(53) . . .
1948(54) . . .
1901(54) . . .
1679(51) . . .
1738(51) . . .
1740(51) . . .
1562(49) . . .
1589(49) . . .
1588(49) . . .
1546(48) . . .
1479(47) . . .
1519(48) . . .
1510(48) . . .
1368(46) . . .
1350(45) . . .
1332(45) . . .
1340(45) . . .
1330(45) . . .
1335(45) . . .
1326(45) . . .
1264(44) . . .
1249(44) . . .
1244(44) . . .
1207(43) . . .
1211(43) . . .
1242(43) . . .
1179(42) . . .
1184(42) . . .
1217(43) . . .
1198(42) . . .
1168(42) . . .
1320(45) . . .
1143(42) . . .
1270(44) . . .
1198(43) . . .
1204(43) . . .
1113(41) . . .
1154(42) . . .
1166(42) . . .
1205(43) . . .
1287(44) . . .
1235(43) . . .
1214(43) . . .
1351(45) . . .
1263(44) . . .
1170(42) . . .
1288(44) . . .
1276(44) . . .
1230(43) . . .
1305(44) . . .
1329(45) . . .
1348(45) . . .
1284(44) . . .
1383(46) . . .
1404(46) . . .
1381(46) . . .
1458(47) . . .
1428(46) . . .
1493(47) . . .
1573(49) . . .
1451(47) . . .
1547(48) . . .
1481(48) . . .
1564(49) . . .
1579(49) . . .
1551(48) . . .
1590(49) . . .
1478(47) . . .
1420(46) . . .
1504(48) . . .
1414(46) . . .
1369(46) . . .
1378(46) . . .
1491(48) . . .
1405(46) . . .
1439(47) . . .
1342(45) . . .
1306(44) . . .
1334(45) . . .
1305(44) . . .
1271(44) . . .
1277(44) . . .
1289(44) . . .
1320(45) . . .
1303(44) . . .
1237(43) . . .
1288(44) . . .
1354(45) . . .
1247(43) . . .
1362(45) . . .
1219(43) . . .
1301(45) . . .
1220(43) . . .
1267(44) . . .
1163(42) . . .
1228(43) . . .
1229(43) . . .
1196(42) . . .
1206(43) . . .
1205(43) . . .
1193(42) . . .
1189(43) . . .
1246(44) . . .
1173(42) . . .
1206(43) . . .
1218(43) . . .
1190(42) . . .
1239(43) . . .
1294(44) . . .
1202(43) . . .
1230(43) . . .
1211(43) . . .
1248(44) . . .
1179(42) . . .
1257(44) . . .
1164(42) . . .
1219(43) . . .
1240(43) . . .
1260(44) . . .
1288(44) . . .
1279(44) . . .
1251(44) . . .
1241(44) . . .
1311(45) . . .
1234(43) . . .
1303(44) . . .
1293(44) . . .
1366(45) . . .
1334(45) . . .
1369(45) . . .
1359(45) . . .
1391(46) . . .
1415(46) . . .
1433(47) . . .
1451(47) . . .
1325(45) . . .
1343(45) . . .
1293(44) . . .
1303(44) . . .
1366(45) . . .
1211(43) . . .
1207(43) . . .
1323(45) . . .
1266(44) . . .
1250(43) . . .
1268(44) . . .
1252(43) . . .
1136(41) . . .
1258(43) . . .
1184(42) . . .
1220(43) . . .
1283(44) . . .
1261(44) . . .
1195(43) . . .
1140(42) . . .
1115(41) . . .
1233(43) . . .
1124(41) . . .
1202(43) . . .
1170(42) . . .
1220(43) . . .
1143(42) . . .
1163(42) . . .
1257(44) . . .
1203(43) . . .
1259(44) . . .
1216(43) . . .
1114(41) . . .
1174(42) . . .
1137(41) . . .
1143(42) . . .
1161(42) . . .
1250(44) . . .
1180(42) . . .
1273(44) . . .
1218(43) . . .
1205(43) . . .
1214(43) . . .
1241(41) . . .
1284(47) . . .
1177(45) . . .
1250(46) . . .
1208(46) . . .
1221(46) . . .
1259(46) . . .
1221(46) . . .
1237(46) . . .
1218(45) . . .
1262(46) . . .
1201(45) . . .
1175(45) . . .
1244(46) . . .
1241(46) . . .
1239(46) . . .
1283(47) . . .
1243(46) . . .
1243(46) . . .
1243(46) . . .
1370(48) . . .
1278(47) . . .
1199(45) . . .
1216(46) . . .
1294(47) . . .
1228(46) . . .
1344(48) . . .
1284(47) . . .
1284(47) . . .
1216(45) . . .
1282(46) . . .
1283(47) . . .
1185(45) . . .
1235(46) . . .
1170(45) . . .
1194(45) . . .
1299(47) . . .
1163(45) . . .
1213(45) . . .
1131(44) . . .
1107(43) . . .
1248(46) . . .
1246(46) . . .
1256(46) . . .
1273(47) . . .
1195(45) . . .
1174(45) . . .
1197(45) . . .
1278(47) . . .
1249(46) . . .
1227(45) . . .
1230(46) . . .
1257(46) . . .
1312(47) . . .
1262(46) . . .
1257(46) . . .
1177(45) . . .
1160(44) . . .
1225(45) . . .
1206(45) . . .
1177(45) . . .
1142(44) . . .
1215(45) . . .
1360(48) . . .
1246(46) . . .
1211(46) . . .
1191(45) . . .
1227(46) . . .
1304(47) . . .
1239(46) . . .
1278(46) . . .
1229(46) . . .
1259(46) . . .
1256(46) . . .
1174(45) . . .
1296(47) . . .
1154(45) . . .
1211(45) . . .
1177(45) . . .
1302(47) . . .
1255(46) . . .
1383(48) . . .
1287(47) . . .
1342(48) . . .
1383(49) . . .
1395(49) . . .
1552(51) . . .
1535(51) . . .
1515(51) . . .
1486(50) . . .
1534(51) . . .
1486(50) . . .
1538(51) . . .
1477(50) . . .
1459(50) . . .
1394(49) . . .
1418(49) . . .
1394(49) . . .
1403(49) . . .
1270(46) . . .
1359(48) . . .
1239(46) . . .
1220(45) . . .
1214(46) . . .
1256(47) . . .
1224(46) . . .
1210(46) . . .
1261(46) . . .
1198(45) . . .
1225(46) . . .
1219(45) . . .
1224(46) . . .
1213(46) . . .
1182(45) . . .
1161(45) . . .
1122(44) . . .
1176(45) . . .
1202(45) . . .
1256(46) . . .
1092(43) . . .
1163(44) . . .
1216(45) . . .
1172(45) . . .
1290(47) . . .
1169(45) . . .
1136(44) . . .
1233(46) . . .
1196(45) . . .
1204(45) . . .
1141(44) . . .
1207(45) . . .
1286(47) . . .
1210(45) . . .
1242(46) . . .
1211(46) . . .
1261(47) . . .
1211(46) . . .
1183(45) . . .
1177(45) . . .
1192(45) . . .
1152(44) . . .
1231(46) . . .
1262(46) . . .
1152(44) . . .
1213(46) . . .
1156(45) . . .
1227(46) . . .
1138(44) . . .
1201(45) . . .
1201(45) . . .
1181(45) . . .
1152(44) . . .
1091(43) . . .
1221(46) . . .
1119(44) . . .
1218(46) . . .
1233(46) . . .
1204(45) . . .
1221(45) . . .
1228(45) . . .
1177(45) . . .
1199(45) . . .
1172(45) . . .
1234(46) . . .
1226(46) . . .
1191(45) . . .
1196(45) . . .
1146(44) . . .
1159(44) . . .
1146(44) . . .
1181(45) . . .
1179(45) . . .
1173(45) . . .
1193(45) . . .
1167(45) . . .
1145(44) . . .
1195(45) . . .
1082(43) . . .
1189(45) . . .
1119(43) . . .
1091(43) . . .
1161(44) . . .
1118(44) . . .
1222(46) . . .
1192(45) . . .
1191(45) . . .
1184(45) . . .
1202(45) . . .
1141(44) . . .
1091(43) . . .
1176(45) . . .
1157(44) . . .
1155(44) . . .
1204(45) . . .
1185(45) . . .
1207(46) . . .
1213(46) . . .
1176(45) . . .
1209(45) . . .
1169(44) . . .
1226(46) . . .
1203(45) . . .
1280(47) . . .
1199(45) . . .
1304(47) . . .
1295(47) . . .
1355(48) . . .
1234(46) . . .
1372(48) . . .
1388(48) . . .
1391(48) . . .
1469(50) . . .
1469(50) . . .
1525(51) . . .
1431(50) . . .
1545(52) . . .
1573(52) . . .
1632(53) . . .
1498(50) . . .
1438(49) . . .
1430(49) . . .
1501(50) . . .
1519(51) . . .
1484(50) . . .
1430(50) . . .
1350(48) . . .
1417(49) . . .
1315(47) . . .
1359(48) . . .
1290(47) . . .
1314(47) . . .
1314(47) . . .
1300(47) . . .
1329(48) . . .
1317(47) . . .
1262(47) . . .
1194(45) . . .
1223(46) . . .
1227(45) . . .
1217(45) . . .
1315(47) . . .
1132(44) . . .
1294(47) . . .
1153(44) . . .
1202(46) . . .
1108(44) . . .
1149(44) . . .
1151(44) . . .
1253(46) . . .
1093(43) . . .
1136(44) . . .
1182(45) . . .
1215(46) . . .
1064(43) . . .
1131(44) . . .
1152(44) . . .
1095(43) . . .
1208(45) . . .
1128(44) . . .
1174(44) . . .
1201(45) . . .
1151(44) . . .
1159(44) . . .
1074(43) . . .
1159(45) . . .
1192(45) . . .
1140(44) . . .
1128(44) . . .
1125(44) . . .
1184(45) . . .
1134(44) . . .
1181(45) . . .
1079(43) . . .
1130(44) . . .
1237(46) . . .
1148(44) . . .
1230(46) . . .
1236(46) . . .
1227(45) . . .
1281(46) . . .
1422(49) . . .
1370(48) . . .
1400(49) . . .
1416(49) . . .
1396(49) . . .
1504(51) . . .
1475(50) . . .
1559(51) . . .
1598(52) . . .
1450(50) . . .
1450(49) . . .
1286(47) . . .
1413(49) . . .
1385(49) . . .
1320(48) . . .
1296(47) . . .
1331(46) . . .
1335(51) . . .
1206(48) . . .
1269(50) . . .
1242(49) . . .
1188(48) . . .
1178(48) . . .
1196(48) . . .
1156(48) . . .
1046(45) . . .
1220(49) . . .
1080(46) . . .
1116(47) . . .
1157(47) . . .
1170(47) . . .
1226(49) . . .
1125(47) . . .
1101(47) . . .
1114(47) . . .
1220(49) . . .
1119(47) . . .
1083(46) . . .
1041(45) . . .
1052(45) . . .
1042(45) . . .
1058(45) . . .
1187(48) . . .
1150(48) . . .
1115(47) . . .
1103(47) . . .
1131(47) . . .
1071(46) . . .
1102(46) . . .
1194(48) . . .
1179(48) . . .
1081(46) . . .
1167(48) . . .
1147(48) . . .
1124(47) . . .
1175(48) . . .
1079(46) . . .
1129(47) . . .
1265(49) . . .
1156(47) . . .
1186(48) . . .
1223(49) . . .
1247(49) . . .
1224(49) . . .
1250(50) . . .
1202(49) . . .
1255(49) . . .
1284(50) . . .
1234(49) . . .
1266(49) . . .
1295(50) . . .
1146(47) . . .
1256(50) . . .
1234(49) . . .
1315(51) . . .
1318(51) . . .
1216(49) . . .
1253(49) . . .
1157(47) . . .
1250(49) . . .
1136(47) . . .
1257(49) . . .
1204(48) . . .
1212(49) . . .
1165(48) . . .
1200(49) . . .
1120(47) . . .
1183(48) . . .
1200(48) . . .
1179(48) . . .
1143(47) . . .
1174(48) . . .
1107(47) . . .
1198(49) . . .
1160(48) . . .
1138(47) . . .
1137(47) . . .
1044(45) . . .
1205(48) . . .
1172(48) . . .
1149(47) . . .
1168(48) . . .
1135(47) . . .
1213(49) . . .
1128(47) . . .
1091(46) . . .
1149(47) . . .
1183(48) . . .
1091(46) . . .
1032(45) . . .
1094(46) . . .
1134(47) . . .
1120(47) . . .
1021(45) . . .
1171(48) . . .
1111(47) . . .
1208(49) . . .
1241(49) . . .
1075(46) . . .
1126(47) . . .
1140(47) . . .
1153(47) . . .
1181(48) . . .
1181(48) . . .
1202(49) . . .
1292(51) . . .
1227(49) . . .
1337(51) . . .
1276(50) . . .
1335(51) . . .
1294(50) . . .
1286(50) . . .
1418(53) . . .
1422(53) . . .
1360(52) . . .
1347(51) . . .
1301(51) . . .
1379(52) . . .
1337(51) . . .
1372(51) . . .
1366(52) . . .
1244(49) . . .
1299(50) . . .
1236(49) . . .
1290(51) . . .
1280(50) . . .
1237(49) . . .
1181(48) . . .
1183(48) . . .
1288(50) . . .
1177(48) . . .
1292(50) . . .
1226(49) . . .
1210(49) . . .
1335(51) . . .
1212(49) . . .
1168(48) . . .
1130(47) . . .
1135(47) . . .
1141(47) . . .
1194(48) . . .
1102(46) . . .
1099(46) . . .
1184(48) . . .
1176(48) . . .
1079(46) . . .
1043(45) . . .
1092(46) . . .
1142(47) . . .
1092(46) . . .
1092(46) . . .
1163(48) . . .
1118(47) . . .
1040(45) . . .
1186(48) . . .
1089(46) . . .
1070(46) . . .
1033(45) . . .
1150(47) . . .
1159(47) . . .
1136(47) . . .
1093(46) . . .
1173(48) . . .
1049(45) . . .
1138(48) . . .
1075(46) . . .
1118(47) . . .
1088(46) . . .
1120(47) . . .
1064(45) . . .
1144(47) . . .
1152(47) . . .
1201(49) . . .
1133(47) . . .
1140(47) . . .
1149(48) . . .
1167(48) . . .
1227(49) . . .
1237(49) . . .
1199(48) . . .
1161(48) . . .
1115(47) . . .
1178(48) . . .
1281(50) . . .
1233(49) . . .
1229(49) . . .
1257(50) . . .
1273(50) . . .
1119(47) . . .
1056(45) . . .
1131(47) . . .
1143(47) . . .
1160(48) . . .
1210(49) . . .
1173(48) . . .
1124(47) . . .
1046(45) . . .
1138(47) . . .
1112(46) . . .
1095(46) . . .
1099(46) . . .
1126(47) . . .
1127(47) . . .
1099(47) . . .
1026(45) . . .
1127(47) . . .
1073(46) . . .
1131(47) . . .
1124(47) . . .
1030(45) . . .
1045(45) . . .
1088(46) . . .
1026(45) . . .
1040(45) . . .
1056(46) . . .
1071(46) . . .
1050(46) . . .
1115(47) . . .
999(44) . . .
1093(46) . . .
990(44) . . .
1061(46) . . .
1057(45) . . .
1011(45) . . .
1079(46) . . .
1003(45) . . .
1095(46) . . .
1045(45) . . .
1017(45) . . .
1059(45) . . .
1037(45) . . .
1095(46) . . .
1125(47) . . .
1014(45) . . .
1040(45) . . .
1038(45) . . .
1026(45) . . .
1097(46) . . .
1014(44) . . .
1063(45) . . .
1104(46) . . .
1062(46) . . .
1062(45) . . .
1032(45) . . .
1056(46) . . .
1068(46) . . .
1069(46) . . .
1061(45) . . .
1098(46) . . .
994(44) . . .
1111(46) . . .
1121(47) . . .
1076(46) . . .
1134(47) . . .
997(44) . . .
1120(47) . . .
1111(47) . . .
1103(46) . . .
1048(45) . . .
1145(47) . . .
1154(47) . . .
1011(44) . . .
1109(46) . . .
1036(45) . . .
1098(47) . . .
1083(46) . . .
1110(47) . . .
1059(45) . . .
1048(45) . . .
1083(46) . . .
1120(46) . . .
1038(45) . . .
1055(46) . . .
1086(46) . . .
1022(45) . . .
1114(47) . . .
1039(45) . . .
1064(46) . . .
1056(45) . . .
1072(45) . . .
1112(47) . . .
1074(46) . . .
1032(45) . . .
1016(45) . . .
1001(45) . . .
1007(45) . . .
1098(46) . . .
1110(46) . . .
1088(46) . . .
1080(46) . . .
1077(46) . . .
1081(46) . . .
1116(47) . . .
1169(48) . . .
1057(45) . . .
1086(45) . . .
1096(50) . . .
1076(50) . . .
1121(50) . . .
1100(50) . . .
1162(52) . . .
1160(52) . . .
1114(51) . . .
1242(54) . . .
1154(52) . . .
1143(52) . . .
1264(54) . . .
1231(53) . . .
1206(53) . . .
1316(55) . . .
1214(52) . . .
1240(53) . . .
1184(52) . . .
1202(53) . . .
1218(53) . . .
1190(52) . . .
1216(53) . . .
1359(56) . . .
1101(50) . . .
1162(51) . . .
1308(55) . . .
1235(53) . . .
1285(54) . . .
1112(51) . . .
1109(51) . . .
1163(52) . . .
1295(54) . . .
1152(51) . . .
1124(51) . . .
1159(52) . . .
1091(50) . . .
1128(51) . . .
1007(48) . . .
1147(52) . . .
1031(49) . . .
1101(50) . . .
1131(51) . . .
1095(50) . . .
1074(49) . . .
1033(48) . . .
1175(52) . . .
1093(50) . . .
1078(50) . . .
939(47) . . .
1099(51) . . .
1105(51) . . .
1062(49) . . .
1076(50) . . .
1048(49) . . .
1128(51) . . .
1059(49) . . .
1051(49) . . .
1058(49) . . .
1089(50) . . .
1076(50) . . .
1032(49) . . .
1082(50) . . .
1037(49) . . .
1107(50) . . .
1161(51) . . .
1081(50) . . .
1098(50) . . .
1086(50) . . .
1050(49) . . .
1077(50) . . .
1152(52) . . .
1083(50) . . .
1066(49) . . .
1070(50) . . .
1087(50) . . .
1105(50) . . .
1130(51) . . .
1098(50) . . .
1136(51) . . .
1022(48) . . .
1115(51) . . .
1120(51) . . .
1071(50) . . .
1167(51) . . .
1093(50) . . .
1075(50) . . .
1068(50) . . .
1124(51) . . .
927(46) . . .
1159(52) . . .
1157(52) . . .
1028(49) . . .
1070(49) . . .
1084(50) . . .
1048(49) . . .
1144(51) . . .
1108(50) . . .
1093(50) . . .
1110(51) . . .
1055(49) . . .
1167(52) . . .
1052(49) . . .
1032(49) . . .
1089(50) . . .
1074(49) . . .
1090(50) . . .
1194(53) . . .
1017(48) . . .
1076(50) . . .
1103(51) . . .
1006(48) . . .
1140(51) . . .
1051(49) . . .
1041(49) . . .
1079(50) . . .
1034(48) . . .
1056(49) . . .
1076(50) . . .
1057(50) . . .
1139(51) . . .
1104(51) . . .
1009(48) . . .
1072(50) . . .
1142(51) . . .
1021(48) . . .
1125(51) . . .
1020(49) . . .
1034(49) . . .
1138(51) . . .
1109(51) . . .
1055(50) . . .
1168(52) . . .
1142(51) . . .
1091(50) . . .
1119(51) . . .
1088(50) . . .
1050(49) . . .
1148(52) . . .
1152(52) . . .
1142(51) . . .
1136(51) . . .
1202(53) . . .
1166(52) . . .
1171(52) . . .
1196(52) . . .
1199(53) . . .
1144(51) . . .
1188(52) . . .
1103(50) . . .
1198(53) . . .
1211(53) . . .
1065(49) . . .
1037(49) . . .
988(48) . . .
1136(51) . . .
1058(49) . . .
1067(49) . . .
1083(50) . . .
1125(51) . . .
1044(49) . . .
1073(50) . . .
970(47) . . .
1106(50) . . .
1160(51) . . .
1043(49) . . .
1106(50) . . .
1091(50) . . .
1070(50) . . .
1049(49) . . .
1089(50) . . .
973(48) . . .
1070(50) . . .
1129(51) . . .
1063(49) . . .
990(48) . . .
1045(49) . . .
977(47) . . .
1040(49) . . .
1073(50) . . .
1090(50) . . .
1042(49) . . .
995(48) . . .
1088(50) . . .
990(47) . . .
1073(49) . . .
1009(48) . . .
1057(49) . . .
1107(50) . . .
1113(51) . . .
1029(49) . . .
1091(50) . . .
1025(49) . . .
1050(49) . . .
1055(49) . . .
992(48) . . .
1000(48) . . .
941(47) . . .
1084(50) . . .
997(48) . . .
1000(48) . . .
1097(50) . . .
1086(50) . . .
994(48) . . .
1076(49) . . .
1035(49) . . .
1103(50) . . .
982(48) . . .
1099(50) . . .
1046(49) . . .
1107(51) . . .
1078(50) . . .
1071(50) . . .
1011(48) . . .
1085(50) . . .
996(48) . . .
1005(48) . . .
1038(49) . . .
1076(50) . . .
1012(49) . . .
1076(50) . . .
1020(49) . . .
1073(50) . . .
1039(49) . . .
1046(49) . . .
977(47) . . .
1055(49) . . .
1055(49) . . .
1050(49) . . .
1074(50) . . .
1039(49) . . .
1148(52) . . .
1048(49) . . .
1107(50) . . .
932(46) . . .
1036(49) . . .
1066(49) . . .
1106(50) . . .
1057(50) . . .
1047(49) . . .
1009(48) . . .
1061(49) . . .
1112(51) . . .
997(48) . . .
977(47) . . .
1033(48) . . .
983(47) . . .
1021(49) . . .
1084(50) . . .
1061(49) . . .
1011(49) . . .
982(48) . . .
1049(49) . . .
1084(50) . . .
1052(49) . . .
1087(50) . . .
1009(48) . . .
976(47) . . .
1082(50) . . .
1094(50) . . .
1119(51) . . .
1081(50) . . .
976(48) . . .
1033(49) . . .
1011(48) . . .
1092(50) . . .
1000(48) . . .
1052(49) . . .
1153(51) . . .
981(48) . . .
1053(50) . . .
1060(50) . . .
1096(50) . . .
1090(50) . . .
1066(49) . . .
1063(49) . . .
1055(49) . . .
1166(52) . . .
1046(49) . . .
1012(49) . . .
1150(51) . . .
1098(50) . . .
1087(50) . . .
1109(51) . . .
1076(49) . . .
1078(49) . . .
917(46) . . .
1086(50) . . .
1082(50) . . .
1009(46) . . .
999(53) . . .
1055(54) . . .
993(52) . . .
1060(54) . . .
965(52) . . .
1043(54) . . .
950(51) . . .
983(52) . . .
992(53) . . .
1025(54) . . .
1056(54) . . .
1056(54) . . .
1137(56) . . .
1047(54) . . .
1096(55) . . .
985(52) . . .
956(52) . . .
987(52) . . .
1035(53) . . .
1040(54) . . .
1025(54) . . .
1089(55) . . .
1115(56) . . .
1174(57) . . .
1020(53) . . .
976(52) . . .
1009(53) . . .
1063(54) . . .
1033(54) . . .
975(52) . . .
1077(55) . . .
1082(55) . . .
992(53) . . .
1002(53) . . .
1058(54) . . .
980(52) . . .
1015(53) . . .
1074(55) . . .
1016(53) . . .
1048(54) . . .
1045(54) . . .
1105(56) . . .
1051(54) . . .
1051(54) . . .
995(53) . . .
1066(54) . . .
1147(56) . . .
1124(56) . . .
1107(56) . . .
1206(58) . . .
1003(53) . . .
1053(54) . . .
1038(54) . . .
1022(53) . . .
1047(54) . . .
912(50) . . .
1133(56) . . .
1064(54) . . .
1068(54) . . .
933(51) . . .
1126(56) . . .
1147(57) . . .
1106(55) . . .
909(50) . . .
1095(55) . . .
1082(55) . . .
1037(53) . . .
995(52) . . .
1045(54) . . .
1112(56) . . .
1087(55) . . .
1018(53) . . .
1041(54) . . .
1062(54) . . .
1081(54) . . .
1052(54) . . .
1136(56) . . .
1047(54) . . .
993(52) . . .
1066(54) . . .
1068(55) . . .
1129(56) . . .
1258(59) . . .
1111(55) . . .
1040(54) . . .
1062(54) . . .
1040(53) . . .
1151(56) . . .
1132(56) . . .
1180(57) . . .
1163(57) . . .
1079(55) . . .
1097(55) . . .
1126(56) . . .
1242(58) . . .
1160(56) . . .
1272(59) . . .
1116(56) . . .
1306(60) . . .
1370(62) . . .
1309(61) . . .
1233(59) . . .
1282(60) . . .
1332(61) . . .
1413(63) . . .
1339(61) . . .
1289(59) . . .
1427(63) . . .
1448(64) . . .
1425(63) . . .
1315(60) . . .
1330(61) . . .
1341(61) . . .
1277(60) . . .
1305(60) . . .
1191(57) . . .
1232(59) . . .
1232(59) . . .
1144(56) . . .
1149(57) . . .
1273(60) . . .
1263(60) . . .
1151(57) . . .
1111(55) . . .
1176(57) . . .
1199(58) . . .
1311(60) . . .
1143(56) . . .
1196(58) . . .
1136(56) . . .
1152(57) . . .
1109(56) . . .
1098(56) . . .
964(52) . . .
1209(58) . . .
1061(54) . . .
1103(55) . . .
1042(54) . . .
997(53) . . .
1134(56) . . .
1112(56) . . .
1064(55) . . .
1031(54) . . .
1127(56) . . .
1054(54) . . .
1118(56) . . .
1064(54) . . .
982(52) . . .
1073(55) . . .
1025(54) . . .
1071(55) . . .
1065(55) . . .
1027(54) . . .
1093(55) . . .
1081(54) . . .
1040(53) . . .
1028(53) . . .
908(50) . . .
1029(53) . . .
1035(54) . . .
1046(54) . . .
1134(56) . . .
1020(53) . . .
1098(55) . . .
1176(57) . . .
1071(54) . . .
1127(56) . . .
1064(54) . . .
1149(57) . . .
1066(55) . . .
1085(55) . . .
1094(55) . . .
1106(56) . . .
1104(56) . . .
1046(54) . . .
1158(56) . . .
1082(55) . . .
1081(55) . . .
1123(56) . . .
1110(56) . . .
1138(57) . . .
1110(56) . . .
1042(54) . . .
988(52) . . .
1189(57) . . .
948(51) . . .
1064(54) . . .
989(52) . . .
1102(55) . . .
1019(53) . . .
1076(55) . . .
946(51) . . .
1023(54) . . .
1004(53) . . .
1055(54) . . .
954(51) . . .
1022(53) . . .
964(52) . . .
1062(54) . . .
1059(54) . . .
1117(56) . . .
1033(54) . . .
1087(55) . . .
1115(56) . . .
1057(54) . . .
1030(53) . . .
1131(56) . . .
1047(54) . . .
990(53) . . .
1113(56) . . .
1039(54) . . .
894(50) . . .
1060(55) . . .
1040(54) . . .
1072(54) . . .
1028(53) . . .
1084(55) . . .
1067(55) . . .
1039(54) . . .
981(52) . . .
1127(56) . . .
1221(59) . . .
1128(56) . . .
1067(54) . . .
1123(56) . . .
1104(55) . . .
1073(54) . . .
1142(56) . . .
1176(57) . . .
1216(58) . . .
1257(59) . . .
1162(57) . . .
1119(56) . . .
1148(57) . . .
1178(57) . . .
1175(57) . . .
1178(57) . . .
1100(55) . . .
1104(55) . . .
1062(54) . . .
1125(56) . . .
1106(56) . . .
1126(56) . . .
1138(56) . . .
1123(56) . . .
1147(56) . . .
1112(55) . . .
980(52) . . .
1168(57) . . .
1149(57) . . .
1190(58) . . .
1066(54) . . .
998(53) . . .
1001(53) . . .
891(49) . . .
1035(53) . . .
1174(57) . . .
1123(56) . . .
1106(55) . . .
1006(53) . . .
971(52) . . .
1176(57) . . .
1092(55) . . .
1034(53) . . .
1024(53) . . .
1010(53) . . .
1006(52) . . .
1053(54) . . .
1067(55) . . .
1015(53) . . .
1110(56) . . .
1075(55) . . .
1046(54) . . .
1083(55) . . .
1129(56) . . .
1006(53) . . .
1018(53) . . .
1003(53) . . .
1088(55) . . .
1044(54) . . .
1167(57) . . .
1132(56) . . .
1018(53) . . .
1102(55) . . .
959(52) . . .
1113(55) . . .
1042(54) . . .
1023(53) . . .
1067(55) . . .
1023(53) . . .
1049(54) . . .
1162(57) . . .
1129(56) . . .
1094(55) . . .
1116(55) . . .
1110(55) . . .
1054(54) . . .
1142(56) . . .
1111(55) . . .
1150(57) . . .
1025(54) . . .
999(52) . . .
1111(55) . . .
1048(60) . . .
1060(61) . . .
1072(61) . . .
1207(64) . . .
1077(61) . . .
1093(62) . . .
967(58) . . .
1154(63) . . .
1040(60) . . .
1026(60) . . .
1113(62) . . .
1056(60) . . .
1057(60) . . .
1084(62) . . .
1074(61) . . .
1044(60) . . .
1041(60) . . .
984(59) . . .
1050(61) . . .
1122(62) . . .
1020(59) . . .
1097(62) . . .
1146(63) . . .
971(58) . . .
984(59) . . .
1063(61) . . .
1008(60) . . .
1041(60) . . .
1008(59) . . .
1119(63) . . .
1132(63) . . .
1147(63) . . .
969(58) . . .
1067(61) . . .
1006(59) . . .
1003(59) . . .
1036(60) . . .
1139(63) . . .
1093(62) . . .
1108(62) . . .
1031(60) . . .
1128(63) . . .
1144(63) . . .
1251(66) . . .
1083(61) . . .
1040(61) . . .
1154(64) . . .
1106(62) . . .
1202(65) . . .
1129(63) . . .
1276(67) . . .
1217(65) . . .
1219(65) . . .
1228(66) . . .
1309(68) . . .
1287(67) . . .
1249(66) . . .
1233(66) . . .
1143(63) . . .
1233(65) . . .
1195(64) . . .
1253(66) . . .
1165(64) . . .
1093(61) . . .
1218(65) . . .
1102(62) . . .
1019(60) . . .
1092(62) . . .
1020(60) . . .
1161(64) . . .
1104(62) . . .
1154(63) . . .
1085(61) . . .
1014(60) . . .
1103(62) . . .
1035(60) . . .
1068(61) . . .
1098(62) . . .
1068(61) . . .
982(58) . . .
1076(61) . . .
1028(60) . . .
1104(62) . . .
1132(62) . . .
1087(61) . . .
1076(62) . . .
1036(60) . . .
1111(62) . . .
1050(60) . . .
1057(61) . . .
1084(61) . . .
1121(62) . . .
1131(62) . . .
1087(62) . . .
1071(61) . . .
1169(64) . . .
1142(63) . . .
1164(64) . . .
1177(64) . . .
1172(64) . . .
1187(64) . . .
1271(66) . . .
1197(64) . . .
1215(65) . . .
1296(67) . . .
1240(66) . . .
1329(68) . . .
1372(69) . . .
1296(67) . . .
1360(69) . . .
1413(70) . . .
1262(66) . . .
1365(69) . . .
1426(71) . . .
1363(69) . . .
1388(69) . . .
1530(73) . . .
1471(72) . . .
1488(72) . . .
1421(70) . . .
1391(69) . . .
1370(69) . . .
1345(68) . . .
1358(68) . . .
1304(67) . . .
1498(73) . . .
1368(69) . . .
1233(65) . . .
1324(68) . . .
1188(65) . . .
1161(64) . . .
1140(63) . . .
1233(65) . . .
1237(66) . . .
1169(64) . . .
1171(64) . . .
1167(64) . . .
1126(63) . . .
1222(65) . . .
1131(63) . . .
1012(59) . . .
1075(61) . . .
1086(61) . . .
1115(62) . . .
1218(65) . . .
1063(61) . . .
1057(61) . . .
1014(59) . . .
1143(63) . . .
1011(60) . . .
1049(60) . . .
1012(59) . . .
1037(60) . . .
1040(60) . . .
1016(60) . . .
1124(62) . . .
1061(61) . . .
1038(61) . . .
1075(61) . . .
1051(60) . . .
1139(63) . . .
1021(60) . . .
1063(61) . . .
1022(59) . . .
1099(62) . . .
1095(62) . . .
1098(62) . . .
1060(61) . . .
1051(61) . . .
1170(64) . . .
1043(60) . . .
1197(64) . . .
1132(62) . . .
1260(66) . . .
1139(63) . . .
1144(63) . . .
1132(63) . . .
1088(62) . . .
1315(68) . . .
1159(63) . . .
1315(67) . . .
1085(61) . . .
1149(63) . . .
1220(65) . . .
1338(68) . . .
1049(61) . . .
1101(62) . . .
1223(65) . . .
1135(63) . . .
1102(62) . . .
1137(63) . . .
1255(66) . . .
1080(61) . . .
1115(63) . . .
1132(63) . . .
1045(60) . . .
1151(64) . . .
940(58) . . .
962(58) . . .
1082(61) . . .
1070(61) . . .
1165(64) . . .
1101(62) . . .
1032(60) . . .
1110(62) . . .
1064(61) . . .
1071(61) . . .
1148(63) . . .
1059(61) . . .
1086(62) . . .
997(59) . . .
1026(59) . . .
1081(61) . . .
1074(61) . . .
979(59) . . .
940(57) . . .
1063(61) . . .
890(56) . . .
1154(64) . . .
1079(61) . . .
1155(63) . . .
1045(60) . . .
985(58) . . .
1062(61) . . .
1011(59) . . .
1108(63) . . .
1092(62) . . .
1167(64) . . .
1116(62) . . .
1098(62) . . .
1169(64) . . .
1202(64) . . .
1060(61) . . .
1192(65) . . .
1100(62) . . .
1150(63) . . .
1018(60) . . .
1106(62) . . .
1224(66) . . .
1223(65) . . .
1222(65) . . .
1193(65) . . .
1286(67) . . .
1256(66) . . .
1142(63) . . .
1193(65) . . .
1232(66) . . .
1158(63) . . .
1181(64) . . .
1213(65) . . .
1078(61) . . .
1179(64) . . .
1082(61) . . .
1020(60) . . .
1224(65) . . .
1125(62) . . .
1123(63) . . .
983(59) . . .
1080(61) . . .
1036(60) . . .
1078(61) . . .
1107(62) . . .
1118(62) . . .
1074(61) . . .
1105(62) . . .
1065(61) . . .
1067(61) . . .
1049(60) . . .
1004(59) . . .
1052(61) . . .
883(55) . . .
987(58) . . .
979(58) . . .
995(59) . . .
995(59) . . .
1003(59) . . .
1105(62) . . .
999(59) . . .
1073(61) . . .
1063(61) . . .
977(58) . . .
1065(61) . . .
1013(59) . . .
973(58) . . .
1133(63) . . .
990(59) . . .
1022(60) . . .
1115(62) . . .
1103(62) . . .
1059(61) . . .
1050(60) . . .
1189(64) . . .
1101(62) . . .
1173(64) . . .
1109(62) . . .
1268(66) . . .
1282(67) . . .
1210(64) . . .
1188(65) . . .
1230(76) . . .
1136(73) . . .
1217(76) . . .
1205(75) . . .
1242(76) . . .
1167(74) . . .
1092(72) . . .
1227(76) . . .
1171(74) . . .
1155(74) . . .
1322(79) . . .
1160(74) . . .
1135(72) . . .
1116(72) . . .
1067(71) . . .
1015(70) . . .
1112(72) . . .
1080(71) . . .
1214(76) . . .
1070(71) . . .
1103(72) . . .
1014(69) . . .
1098(72) . . .
1106(72) . . .
1068(71) . . .
1124(73) . . .
971(68) . . .
1027(70) . . .
906(65) . . .
1132(73) . . .
1087(72) . . .
1036(70) . . .
1066(70) . . .
1025(69) . . .
1036(70) . . .
1034(70) . . .
974(68) . . .
1144(73) . . .
921(66) . . .
1112(73) . . .
1057(70) . . .
930(66) . . .
940(66) . . .
1073(71) . . .
1078(71) . . .
948(67) . . .
1028(70) . . .
995(69) . . .
1040(70) . . .
1079(71) . . .
1121(73) . . .
1063(71) . . .
948(66) . . .
985(68) . . .
979(68) . . .
1094(72) . . .
945(67) . . .
1134(73) . . .
1123(73) . . .
1021(69) . . .
941(66) . . .
987(68) . . .
1080(71) . . .
944(67) . . .
1102(72) . . .
930(66) . . .
1057(71) . . .
952(67) . . .
1178(74) . . .
1057(70) . . .
1067(71) . . .
1044(70) . . .
1076(70) . . .
1016(69) . . .
1046(70) . . .
952(67) . . .
1028(69) . . .
1028(69) . . .
1104(72) . . .
1199(75) . . .
1014(69) . . .
1095(71) . . .
1069(71) . . .
1161(74) . . .
1084(71) . . .
1070(71) . . .
993(69) . . .
1054(71) . . .
1063(70) . . .
1056(70) . . .
1011(69) . . .
891(65) . . .
1003(68) . . .
1123(72) . . .
1148(74) . . .
965(68) . . .
1235(76) . . .
1089(71) . . .
963(67) . . .
1035(70) . . .
1021(69) . . .
974(67) . . .
1057(70) . . .
1122(73) . . .
981(68) . . .
1134(73) . . .
1156(74) . . .
982(68) . . .
1017(69) . . .
1126(73) . . .
895(65) . . .
975(68) . . .
1039(69) . . .
1091(71) . . .
1113(73) . . .
1035(70) . . .
1046(70) . . .
1093(72) . . .
1040(70) . . .
1083(72) . . .
954(67) . . .
1060(70) . . .
1005(69) . . .
1047(70) . . .
1141(73) . . .
1060(71) . . .
966(68) . . .
1179(75) . . .
1107(72) . . .
1032(69) . . .
984(68) . . .
966(67) . . .
1071(70) . . .
1040(70) . . .
991(69) . . .
1079(72) . . .
1044(70) . . .
998(68) . . .
902(65) . . .
1038(70) . . .
1016(69) . . .
1120(72) . . .
1035(70) . . .
1048(70) . . .
883(64) . . .
1087(72) . . .
936(67) . . .
1075(71) . . .
1007(68) . . .
1028(69) . . .
1047(70) . . .
1132(73) . . .
1038(69) . . .
1000(68) . . .
973(68) . . .
1049(71) . . .
980(68) . . .
1031(70) . . .
1052(70) . . .
988(68) . . .
1072(71) . . .
1090(71) . . .
1109(72) . . .
1035(70) . . .
1155(74) . . .
1013(69) . . .
1012(69) . . .
921(66) . . .
1098(72) . . .
1031(70) . . .
989(68) . . .
1023(69) . . .
927(66) . . .
1016(69) . . .
1126(73) . . .
1027(70) . . .
1002(69) . . .
1127(73) . . .
966(68) . . .
916(66) . . .
1002(68) . . .
969(67) . . .
940(67) . . .
1096(72) . . .
1068(71) . . .
1132(73) . . .
937(67) . . .
1135(73) . . .
1112(72) . . .
993(68) . . .
1038(70) . . .
868(64) . . .
1041(69) . . .
1042(70) . . .
1141(74) . . .
1097(73) . . .
1080(71) . . .
965(67) . . .
1049(70) . . .
1029(70) . . .
1069(71) . . .
1015(69) . . .
1043(70) . . .
1036(70) . . .
1017(69) . . .
1075(71) . . .
991(69) . . .
1050(71) . . .
988(68) . . .
940(67) . . .
1094(72) . . .
1079(71) . . .
1073(71) . . .
1021(69) . . .
1029(70) . . .
1106(73) . . .
1010(69) . . .
910(65) . . .
1069(71) . . .
973(68) . . .
1076(71) . . .
1039(70) . . .
989(68) . . .
992(68) . . .
1022(69) . . .
996(69) . . .
1044(71) . . .
982(68) . . .
1068(71) . . .
1070(71) . . .
959(67) . . .
934(66) . . .
1021(69) . . .
1050(70) . . .
922(66) . . .
1137(74) . . .
1075(71) . . .
957(67) . . .
1027(70) . . .
912(66) . . .
1124(72) . . .
973(67) . . .
1158(74) . . .
989(68) . . .
1138(73) . . .
1088(72) . . .
1085(72) . . .
979(68) . . .
1088(71) . . .
1072(71) . . .
1038(70) . . .
1013(69) . . .
1153(73) . . .
1100(72) . . .
1050(71) . . .
1207(76) . . .
949(67) . . .
872(64) . . .
943(67) . . .
1006(69) . . .
1000(68) . . .
995(68) . . .
1018(69) . . .
1040(70) . . .
975(67) . . .
1136(73) . . .
845(63) . . .
977(68) . . .
986(68) . . .
1003(68) . . .
905(65) . . .
1068(71) . . .
964(67) . . .
911(65) . . .
995(69) . . .
982(68) . . .
940(66) . . .
909(65) . . .
919(66) . . .
986(68) . . .
981(68) . . .
979(68) . . .
1079(71) . . .
895(65) . . .
892(65) . . .
1021(70) . . .
951(67) . . .
923(66) . . .
948(66) . . .
918(66) . . .
953(67) . . .
1009(69) . . .
1013(68) . . .
1009(69) . . .
1032(70) . . .
945(58) . . .
1154(90) . . .
1035(85) . . .
1078(87) . . .
828(77) . . .
912(80) . . .
902(80) . . .
827(76) . . .
1002(84) . . .
1070(86) . . .
1011(84) . . .
1068(87) . . .
855(78) . . .
1044(85) . . .
901(80) . . .
918(81) . . .
1026(86) . . .
979(82) . . .
882(78) . . .
968(83) . . .
895(80) . . .
927(80) . . .
815(76) . . .
1036(85) . . .
1001(85) . . .
990(84) . . .
1138(89) . . .
804(75) . . .
971(83) . . .
950(81) . . .
1044(86) . . .
990(84) . . .
1043(86) . . .
979(82) . . .
942(81) . . .
955(82) . . .
1036(86) . . .
979(82) . . .
966(82) . . .
1022(85) . . .
953(82) . . .
859(78) . . .
992(83) . . .
997(84) . . .
929(81) . . .
974(83) . . .
827(76) . . .
893(79) . . .
883(79) . . .
988(83) . . .
986(83) . . .
892(79) . . .
988(84) . . .
881(78) . . .
970(83) . . .
940(82) . . .
1168(91) . . .
1022(84) . . .
845(77) . . .
935(81) . . .
1037(86) . . .
971(82) . . .
915(80) . . .
1125(89) . . .
962(83) . . .
903(80) . . .
976(83) . . .
922(80) . . .
936(81) . . .
993(83) . . .
978(83) . . .
943(82) . . .
932(81) . . .
1086(87) . . .
1082(87) . . .
1078(88) . . .
1084(88) . . .
1050(85) . . .
975(82) . . .
982(83) . . .
802(76) . . .
982(83) . . .
1103(88) . . .
920(80) . . .
950(82) . . .
948(82) . . .
944(81) . . .
1026(85) . . .
896(79) . . .
975(82) . . .
963(82) . . .
1096(88) . . .
1010(85) . . .
1042(85) . . .
1019(84) . . .
944(82) . . .
852(78) . . .
916(80) . . .
927(80) . . .
1060(86) . . .
971(83) . . .
923(80) . . .
959(82) . . .
882(79) . . .
1101(89) . . .
1122(89) . . .
1001(84) . . .
796(75) . . .
862(78) . . .
1015(84) . . .
984(83) . . .
914(80) . . .
929(81) . . .
944(81) . . .
1085(87) . . .
1017(85) . . .
953(82) . . .
943(81) . . .
1075(86) . . .
1159(90) . . .
943(82) . . .
920(80) . . .
1184(91) . . .
1087(87) . . .
1062(87) . . .
1079(87) . . .
1004(84) . . .
1150(90) . . .
1199(92) . . .
1154(90) . . .
1107(88) . . .
1197(92) . . .
1118(89) . . .
1074(87) . . .
1053(86) . . .
1052(87) . . .
1123(90) . . .
1176(90) . . .
1174(90) . . .
1134(90) . . .
1005(85) . . .
1118(89) . . .
1001(84) . . .
1206(92) . . .
1033(86) . . .
1076(87) . . .
1121(89) . . .
1060(86) . . .
947(82) . . .
959(82) . . .
1059(86) . . .
978(83) . . .
1004(84) . . .
1070(86) . . .
977(83) . . .
946(82) . . .
924(81) . . .
922(80) . . .
835(76) . . .
1004(84) . . .
904(81) . . .
934(81) . . .
897(79) . . .
801(75) . . .
1001(85) . . .
886(79) . . .
890(79) . . .
989(83) . . .
1043(86) . . .
1074(87) . . .
1011(84) . . .
978(83) . . .
797(75) . . .
934(81) . . .
889(79) . . .
1019(85) . . .
855(78) . . .
976(82) . . .
1033(85) . . .
936(81) . . .
1063(87) . . .
1026(85) . . .
952(82) . . .
853(77) . . .
970(83) . . .
933(81) . . .
1091(87) . . .
973(83) . . .
975(83) . . .
1033(85) . . .
1074(87) . . .
1144(90) . . .
936(82) . . .
1030(85) . . .
1166(91) . . .
863(78) . . .
1055(87) . . .
874(78) . . .
1165(90) . . .
891(79) . . .
926(81) . . .
916(80) . . .
1072(87) . . .
807(75) . . .
804(76) . . .
979(83) . . .
989(83) . . .
834(77) . . .
976(83) . . .
1034(85) . . .
1045(86) . . .
1031(85) . . .
976(83) . . .
876(78) . . .
996(84) . . .
923(81) . . .
994(84) . . .
1118(88) . . .
926(80) . . .
905(80) . . .
884(80) . . .
916(80) . . .
827(76) . . .
1009(84) . . .
789(75) . . .
1048(86) . . .
971(83) . . .
869(78) . . .
844(77) . . .
942(81) . . .
797(75) . . .
824(76) . . .
872(79) . . .
932(81) . . .
998(84) . . .
942(82) . . .
812(76) . . .
888(79) . . .
931(80) . . .
1005(84) . . .
886(80) . . .
1053(86) . . .
808(75) . . .
1013(85) . . .
966(83) . . .
1079(87) . . .
933(81) . . .
1017(85) . . .
902(80) . . .
945(81) . . .
918(80) . . .
917(81) . . .
981(83) . . .
924(80) . . .
966(82) . . .
988(84) . . .
1012(85) . . .
996(83) . . .
1029(85) . . .
860(78) . . .
896(80) . . .
900(79) . . .
930(81) . . .
935(81) . . .
1087(88) . . .
984(83) . . .
904(79) . . .
1006(84) . . .
956(82) . . .
864(78) . . .
939(81) . . .
887(79) . . .
994(84) . . .
1022(84) . . .
915(80) . . .
1196(92) . . .
945(82) . . .
834(76) . . .
1024(84) . . .
946(82) . . .
839(77) . . .
1023(85) . . .
1036(85) . . .
831(77) . . .
957(83) . . .
888(79) . . .
920(80) . . .
965(82) . . .
925(81) . . .
948(81) . . .
857(78) . . .
1007(84) . . .
940(82) . . .
969(82) . . .
884(79) . . .
1032(86) . . .
1090(78) . . .
867(87) . . .
1200(130) . . .
870(110) . . .
830(110) . . .
880(110) . . .
880(110) . . .
960(120) . . .
950(120) . . .
960(110) . . .
687(96) . . .
880(110) . . .
900(110) . . .
910(110) . . .
990(120) . . .
910(110) . . .
850(110) . . .
1040(120) . . .
890(110) . . .
703(98) . . .
950(110) . . .
960(110) . . .
990(120) . . .
790(100) . . .
800(110) . . .
920(110) . . .
1110(120) . . .
920(110) . . .
880(110) . . .
1020(120) . . .
930(110) . . .
830(110) . . .
663(95) . . .
1060(120) . . .
970(120) . . .
900(110) . . .
730(100) . . .
800(110) . . .
810(110) . . .
840(110) . . .
780(100) . . .
840(110) . . .
950(110) . . .
1020(120) . . .
800(110) . . .
900(110) . . .
860(110) . . .
890(110) . . .
692(99) . . .
920(110) . . .
970(110) . . .
1000(120) . . .
860(110) . . .
646(94) . . .
770(100) . . .
830(110) . . .
800(110) . . .
980(120) . . .
980(120) . . .
740(100) . . .
870(110) . . .
780(100) . . .
800(100) . . .
770(100) . . .
850(110) . . .
840(110) . . .
840(110) . . .
830(110) . . .
830(110) . . .
970(120) . . .
780(100) . . .
780(100) . . .
760(100) . . .
970(120) . . .
840(110) . . .
780(100) . . .
689(99) . . .
990(120) . . .
750(100) . . .
730(100) . . .
780(100) . . .
696(97) . . .
1020(120) . . .
716(99) . . .
830(110) . . .
740(100) . . .
880(110) . . .
740(100) . . .
690(98) . . .
880(110) . . .
732(99) . . .
920(110) . . .
870(110) . . .
740(100) . . .
980(120) . . .
970(120) . . .
960(120) . . .
900(110) . . .
960(120) . . .
770(100) . . .
1000(120) . . .
920(110) . . .
760(100) . . .
900(110) . . .
760(100) . . .
890(110) . . .
910(110) . . .
980(120) . . .
686(98) . . .
780(100) . . .
950(110) . . .
930(110) . . .
530(85) . . .
730(100) . . .
750(100) . . .
627(94) . . .
620(94) . . .
780(100) . . .
719(99) . . .
810(110) . . .
810(110) . . .
750(100) . . .
1000(120) . . .
870(110) . . .
730(100) . . .
666(97) . . .
940(110) . . .
740(100) . . .
930(110) . . .
890(110) . . .
830(110) . . .
980(120) . . .
940(110) . . .
1170(130) . . .
890(110) . . .
870(110) . . .
810(110) . . .
890(110) . . .
920(110) . . .
1000(120) . . .
890(110) . . .
850(110) . . .
721(98) . . .
900(110) . . .
840(110) . . .
750(100) . . .
880(110) . . .
770(100) . . .
780(100) . . .
870(110) . . .
688(96) . . .
750(100) . . .
721(99) . . .
1090(120) . . .
880(110) . . .
940(120) . . .
513(86) . . .
770(100) . . .
709(99) . . .
870(110) . . .
1010(120) . . .
1100(120) . . .
950(110) . . .
664(95) . . .
890(110) . . .
960(120) . . .
1000(120) . . .
910(110) . . .
870(110) . . .
970(120) . . .
645(93) . . .
1000(120) . . .
900(110) . . .
920(110) . . .
880(110) . . .
790(110) . . .
960(120) . . .
980(120) . . .
860(110) . . .
1150(130) . . .
1080(120) . . .
950(110) . . .
1030(120) . . .
920(110) . . .
1020(120) . . .
990(120) . . .
1130(130) . . .
1240(130) . . .
840(110) . . .
970(120) . . .
950(110) . . .
950(110) . . .
850(110) . . .
990(120) . . .
970(120) . . .
1040(120) . . .
1030(120) . . .
1060(120) . . .
1040(120) . . .
920(110) . . .
920(110) . . .
734(99) . . .
1010(120) . . .
780(100) . . .
850(110) . . .
940(120) . . .
820(110) . . .
1000(120) . . .
920(110) . . .
830(110) . . .
1020(120) . . .
900(110) . . .
740(100) . . .
960(120) . . .
750(100) . . .
1000(120) . . .
820(110) . . .
820(110) . . .
920(110) . . .
820(110) . . .
700(98) . . .
701(97) . . .
870(110) . . .
760(100) . . .
638(95) . . .
690(99) . . .
730(100) . . .
671(97) . . .
840(110) . . .
880(110) . . .
800(100) . . .
830(110) . . .
830(110) . . .
662(95) . . .
672(97) . . .
760(100) . . .
700(100) . . .
1090(120) . . .
890(110) . . .
880(110) . . .
730(100) . . .
870(110) . . .
950(110) . . .
760(100) . . .
800(110) . . .
890(110) . . .
940(110) . . .
930(110) . . .
644(95) . . .
750(100) . . .
714(98) . . .
790(100) . . .
840(110) . . .
860(110) . . .
970(120) . . .
790(110) . . .
820(110) . . .
730(100) . . .
850(110) . . .
635(94) . . .
820(110) . . .
1000(120) . . .
667(95) . . .
634(94) . . .
870(110) . . .
840(110) . . .
720(100) . . .
830(110) . . .
644(95) . . .
740(100) . . .
800(100) . . .
920(110) . . .
820(110) . . .
900(110) . . .
679(97) . . .
910(110) . . .
780(110) . . .
840(110) . . .
720(100) . . .
697(98) . . .
910(110) . . .
830(110) . . .
900(110) . . .
880(110) . . .
980(120) . . .
780(110) . . .
870(110) . . .
940(120) . . .
880(110) . . .
880(110) . . .
910(110) . . .
730(99) . . .
670(96) . . .
910(110) . . .
950(120) . . .
770(100) . . .
695(99) . . .
683(98) . . .
940(110) . . .
800(110) . . .
1040(120) . . .
760(100) . . .
880(110) . . .
770(100) . . .
760(100) . . .
790(110) . . .
820(110) . . .
661(96) . . .
700(99) . . .
920(110) . . .
664(95) . . .
800(100) . . .
960(110) . . .
870(110) . . .
720(100) . . .
920(110) . . .
loop_
_refln_index_h
_refln_index_k
_refln_index_l
_refln_observed_status
_refln_F_squared_meas
_refln_F_squared_calc
_refln_phase_calc
_refln_d_spacing
_gsas_i100_meas
1 1 0 o 139.203 84.305 -180.00 6.50328 1.51
2 0 0 o -46.366 85.856 180.00 4.59852 0.00
2 1 1 o 13339.106 13043.620 28.90 3.75467 100.00
2 2 0 o 2142.987 2084.960 0.00 3.25164 6.31
3 1 0 o 1789.855 1869.176 180.00 2.90836 8.16
2 2 2 o 22015.232 22185.178 -159.54 2.65495 27.90
3 2 1 o 1365.241 1444.652 1.79 2.45801 9.29
4 0 0 o 9378.493 8510.882 0.00 2.29926 6.85
4 1 1 o 9266.219 9086.255 -86.52 2.16776 23.51
3 3 0 o 9779.071 9610.696 0.00 2.16776 12.32
4 2 0 o 189.481 105.576 -180.00 2.05652 0.42
3 3 2 o 946.330 1054.896 44.25 1.96081 1.98
4 2 2 o 1467.859 1595.736 -51.36 1.87734 2.87
5 1 0 o 94.066 35.356 -180.00 1.80369 0.16
4 3 1 o 1555.965 1579.792 170.55 1.80369 5.48
5 2 1 o 1102.290 973.654 34.53 1.67914 3.36
4 4 0 o 18081.939 16795.488 0.00 1.62582 13.16
5 3 0 o 3973.999 4186.657 -180.00 1.57728 5.48
4 3 3 o 1427.707 1456.632 -134.18 1.57728 1.95
6 0 0 o 5430.748 4626.604 0.00 1.53284 1.73
4 4 2 o 3314.568 2939.424 57.66 1.53284 4.25
6 1 1 o 473.837 477.136 45.72 1.49196 0.64
5 3 2 o 3911.231 3938.303 -11.23 1.49196 9.75
6 2 0 o 188.098 47.635 180.00 1.45418 0.21
5 4 1 o 490.555 466.792 145.90 1.41913 1.08
6 2 2 o 7658.426 7800.228 175.60 1.38650 8.18
6 3 1 o 2567.337 2775.788 -42.65 1.35603 5.28
4 4 4 o 14763.498 13590.020 -27.77 1.32748 4.83
7 1 0 o 367.010 366.448 180.00 1.30066 0.35
5 4 3 o 688.626 739.113 141.90 1.30066 1.31
5 5 0 o 202.197 215.404 0.00 1.30066 0.11
6 4 0 o 201.395 74.844 0.00 1.27540 0.18
7 2 1 o 2345.415 2227.767 24.34 1.25156 4.12
6 3 3 o 3147.585 2985.962 7.98 1.25156 2.78
5 5 2 o 1073.038 1010.695 -81.44 1.25156 0.91
6 4 2 o 130.715 236.642 176.71 1.22901 0.22
7 3 0 o 1357.572 1181.938 -180.00 1.20763 1.08
6 5 1 o 1169.512 1057.216 26.67 1.16802 1.81
7 3 2 o 61.095 55.785 20.02 1.16802 0.10
8 0 0 o 3219.034 2877.658 0.00 1.14963 0.60
8 1 1 o 1185.448 874.226 -157.41 1.13208 0.85
7 4 1 o 1104.883 834.751 -121.97 1.13208 1.59
5 5 4 o 59.993 45.947 -121.15 1.13208 0.05
8 2 0 o 1223.679 1408.554 0.00 1.11530 0.88
6 4 4 o 110.183 119.641 37.46 1.11530 0.09
6 5 3 o -17.264 240.373 6.24 1.09926 0.00
8 2 2 o 821.624 591.228 -133.13 1.08388 0.53
6 6 0 o 20.270 12.937 0.00 1.08388 0.01
8 3 1 o 449.730 548.705 103.24 1.06913 0.60
7 5 0 o 917.750 1155.144 180.00 1.06913 0.62
7 4 3 o 4.617 6.033 -24.03 1.06913 0.01
6 6 2 o 5004.187 3885.375 162.83 1.05497 3.18
7 5 2 o 1253.288 1411.025 -10.05 1.04136 1.61
8 4 0 o 5035.404 4551.867 0.00 1.02826 3.06
9 1 0 o 34.070 29.090 180.00 1.01564 0.02
8 3 3 o 1659.122 1396.672 -171.25 1.01564 0.98
8 4 2 o 30.223 176.484 -2.25 1.00348 0.05
9 2 1 o 278.976 197.138 -36.28 0.99174 0.32
7 6 1 o 300.937 210.746 -2.51 0.99174 0.34
6 5 5 o 855.426 597.545 12.58 0.99174 0.48
6 6 4 o 449.993 604.955 -98.79 0.98041 0.26
8 5 1 o 265.184 350.645 -172.99 0.96945 0.30
9 3 0 o 115.290 155.290 180.00 0.96945 0.07
7 5 4 o 544.423 699.182 153.29 0.96945 0.61
9 3 2 o 810.297 798.286 16.56 0.94860 0.85
7 6 3 o 144.341 142.975 -13.83 0.94860 0.15
8 4 4 o 3285.013 2588.674 4.22 0.93867 1.68
9 4 1 o 448.257 415.257 170.59 0.92904 0.45
7 7 0 o 627.812 596.202 0.00 0.92904 0.16
8 5 3 o 30.178 28.607 174.71 0.92904 0.03
10 0 0 o 149.736 22.656 -180.00 0.91970 0.02
8 6 0 o 66.395 6.746 -180.00 0.91970 0.03
10 1 1 o 644.637 744.275 7.99 0.91064 0.32
7 7 2 o 179.817 185.909 67.24 0.91064 0.09
10 2 0 o 254.729 485.254 -180.00 0.90184 0.13
8 6 2 o 45.524 78.322 -87.15 0.90184 0.05
9 4 3 o 293.766 323.402 -143.38 0.89329 0.28
9 5 0 o 53.961 59.426 -180.00 0.89329 0.03
10 2 2 o 1490.472 1326.078 -177.83 0.88498 0.69
6 6 6 o 2494.515 2281.844 173.01 0.88498 0.38
10 3 1 o 270.592 257.684 -19.99 0.87690 0.25
9 5 2 o 134.324 133.666 53.33 0.87690 0.12
7 6 5 o 325.480 344.058 4.50 0.87690 0.30
8 7 1 o 430.714 305.122 157.50 0.86138 0.37
7 7 4 o 627.948 451.789 -129.37 0.86138 0.27
8 5 5 o 1241.427 890.294 -142.37 0.86138 0.53
10 4 0 o 254.184 503.483 0.00 0.85392 0.12
8 6 4 o 230.187 511.313 43.30 0.85392 0.22
10 3 3 o 121.189 123.207 41.58 0.84666 0.06
9 6 1 o 579.213 585.804 -32.73 0.84666 0.49
10 4 2 o 138.440 112.928 167.37 0.83957 0.12
11 1 0 o 75.477 39.089 180.00 0.83266 0.03
9 5 4 o 70.397 38.323 159.90 0.83266 0.06
8 7 3 o 353.698 191.224 171.68 0.83266 0.29
10 5 1 o 245.103 345.954 19.17 0.81934 0.21
11 2 1 o 62.689 91.672 8.83 0.81934 0.05
9 6 3 o 200.005 277.288 -0.90 0.81934 0.17
8 8 0 o 3331.713 2573.463 0.00 0.81291 0.66
