#------------------------------------------------------------------------------
#$Date: 2016-03-24 14:28:49 +0200 (Thu, 24 Mar 2016) $
#$Revision: 179665 $
#$URL: svn://www.crystallography.net/cod/cif/4/51/18/4511815.cif $
#------------------------------------------------------------------------------
#
# This file is available in the Crystallography Open Database (COD),
# http://www.crystallography.net/
#
# All data on this site have been placed in the public domain by the
# contributors.
#
data_4511815
loop_
_publ_author_name
'Sonoda, Yoriko'
'Goto, Midori'
'Norikane, Yasuo'
'Azumi, Reiko'
_publ_section_title
;
 Crystal Structures and Fluorescence Spectroscopic Properties of
 Cyano-Substituted Diphenylhexatrienes
;
_journal_issue                   9
_journal_name_full               'Crystal Growth &amp; Design'
_journal_page_first              4781
_journal_paper_doi               10.1021/cg5009363
_journal_volume                  14
_journal_year                    2014
_chemical_formula_sum            'C20 H14 N2'
_chemical_formula_weight         282.33
_chemical_name_systematic
;
 ?
;
_space_group_crystal_system      triclinic
_space_group_IT_number           2
_space_group_name_Hall           '-P 1'
_space_group_name_H-M_alt        'P -1'
_symmetry_space_group_name_Hall  '-P 1'
_symmetry_space_group_name_H-M   'P -1'
_atom_sites_solution_hydrogens   geom
_atom_sites_solution_primary     direct
_audit_creation_method           SHELXL-2014
_cell_angle_alpha                71.769(3)
_cell_angle_beta                 79.633(3)
_cell_angle_gamma                78.979(3)
_cell_formula_units_Z            2
_cell_length_a                   5.4806(16)
_cell_length_b                   12.043(3)
_cell_length_c                   12.301(4)
_cell_measurement_reflns_used    4538
_cell_measurement_temperature    183(2)
_cell_measurement_theta_max      28.45
_cell_measurement_theta_min      2.86
_cell_volume                     750.6(4)
_computing_cell_refinement       'Bruker SAINT'
_computing_data_collection       'Bruker APRX II'
_computing_data_reduction        'Bruker SAINT'
_computing_publication_material  'SHELXL-2014 (Sheldrick, 2014)'
_computing_structure_refinement  'SHELXL-2014 (Sheldrick, 2014)'
_computing_structure_solution    'SHELXS-97 (Sheldric, 2008)'
_diffrn_ambient_temperature      183(2)
_diffrn_detector_area_resol_mean 8.333
_diffrn_measured_fraction_theta_full 0.989
_diffrn_measured_fraction_theta_max 0.986
_diffrn_measurement_device_type  'Bruker APEX-II CCD'
_diffrn_measurement_method       '\f and \w scans'
_diffrn_radiation_type           MoK\a
_diffrn_radiation_wavelength     0.71073
_diffrn_reflns_av_R_equivalents  0.0107
_diffrn_reflns_av_unetI/netI     0.0129
_diffrn_reflns_Laue_measured_fraction_full 0.989
_diffrn_reflns_Laue_measured_fraction_max 0.986
_diffrn_reflns_limit_h_max       6
_diffrn_reflns_limit_h_min       -6
_diffrn_reflns_limit_k_max       14
_diffrn_reflns_limit_k_min       -14
_diffrn_reflns_limit_l_max       15
_diffrn_reflns_limit_l_min       -14
_diffrn_reflns_number            5819
_diffrn_reflns_point_group_measured_fraction_full 0.989
_diffrn_reflns_point_group_measured_fraction_max 0.986
_diffrn_reflns_theta_full        25.242
_diffrn_reflns_theta_max         25.997
_diffrn_reflns_theta_min         1.758
_diffrn_source                   'rotating unit'
_exptl_absorpt_coefficient_mu    0.074
_exptl_absorpt_correction_T_max  0.9963
_exptl_absorpt_correction_T_min  0.9674
_exptl_absorpt_correction_type   multi-scan
_exptl_absorpt_process_details   sadabs
_exptl_crystal_colour            colourless
_exptl_crystal_density_diffrn    1.249
_exptl_crystal_description       rectangular
_exptl_crystal_F_000             296
_exptl_crystal_size_max          0.450
_exptl_crystal_size_mid          0.100
_exptl_crystal_size_min          0.050
_refine_diff_density_max         0.151
_refine_diff_density_min         -0.185
_refine_diff_density_rms         0.038
_refine_ls_extinction_method     none
_refine_ls_goodness_of_fit_ref   0.950
_refine_ls_hydrogen_treatment    constr
_refine_ls_matrix_type           full
_refine_ls_number_parameters     199
_refine_ls_number_reflns         2911
_refine_ls_number_restraints     0
_refine_ls_restrained_S_all      0.950
_refine_ls_R_factor_all          0.0362
_refine_ls_R_factor_gt           0.0331
_refine_ls_shift/su_max          0.000
_refine_ls_shift/su_mean         0.000
_refine_ls_structure_factor_coef Fsqd
_refine_ls_weighting_details
'w=1/[\s^2^(Fo^2^)+(0.0619P)^2^+0.1416P] where P=(Fo^2^+2Fc^2^)/3'
_refine_ls_weighting_scheme      calc
_refine_ls_wR_factor_gt          0.0935
_refine_ls_wR_factor_ref         0.0965
_reflns_Friedel_coverage         0.000
_reflns_number_gt                2643
_reflns_number_total             2911
_reflns_threshold_expression     'I > 2\s(I)'
_cod_data_source_file            cg5009363_si_003.cif
_cod_data_source_block           shelx_sonoCNmeta
_cod_depositor_comments
'Adding full bibliography for 4511813--4511815.cif.'
_cod_database_code               4511815
#BEGIN Tags that were not found in dictionaries:
_shelx_space_group_comment
;
The symmetry employed for this shelxl refinement is uniquely defined
by the following loop, which should always be used as a source of
symmetry information in preference to the above space-group names.
They are only intended as comments.
;
_shelx_estimated_absorpt_t_min   0.967
_shelx_estimated_absorpt_t_max   0.996
_shelxl_version_number           2014-3
_shelx_res_file
;
TITL SonomCN in P-1
CELL 0.71073 5.4806 12.0435 12.3007 71.769 79.633 78.979
ZERR 2.00 0.0016 0.0034 0.0035 0.003 0.003 0.003
LATT 1
SFAC C  H  N
UNIT 40  28  4
OMIT 0 52
L.S. 4
ACTA
BOND $H
FMAP 2
PLAN -2
size     0.45  0.10   0.05
conf
TEMP -90
WGHT    0.061900    0.141600
FVAR       0.28136
C1A   1    0.816986    0.222990    0.643496    11.00000    0.03216    0.02454 =
         0.03105   -0.00750   -0.00562   -0.00414
C2A   1    0.815258    0.243409    0.749374    11.00000    0.04223    0.03399 =
         0.02917   -0.00933    0.00081   -0.01168
AFIX  43
H2A   2    0.699198    0.210159    0.813216    11.00000   -1.20000
AFIX   0
C3A   1    0.978637    0.310932    0.763444    11.00000    0.04949    0.04157 =
         0.03159   -0.01641   -0.00325   -0.01331
AFIX  43
H3A   2    0.974973    0.322409    0.836728    11.00000   -1.20000
AFIX   0
C4A   1    1.147283    0.361854    0.671574    11.00000    0.03802    0.03438 =
         0.03834   -0.01440   -0.00620   -0.01050
AFIX  43
H4A   2    1.260973    0.407571    0.681056    11.00000   -1.20000
AFIX   0
C5A   1    1.146487    0.344484    0.564583    11.00000    0.02991    0.02836 =
         0.03230   -0.00774   -0.00427   -0.00596
C6A   1    0.983487    0.276360    0.550315    11.00000    0.03380    0.03021 =
         0.02777   -0.00951   -0.00488   -0.00699
AFIX  43
H6A   2    0.985373    0.266043    0.476681    11.00000   -1.20000
AFIX   0
C7A   1    0.650095    0.146200    0.633869    11.00000    0.03407    0.02815 =
         0.03238   -0.00605   -0.00309   -0.00920
AFIX  43
H7A   2    0.521362    0.125769    0.696393    11.00000   -1.20000
AFIX   0
C8A   1    0.660457    0.101725    0.545694    11.00000    0.03570    0.02921 =
         0.03433   -0.00705   -0.00495   -0.00960
AFIX  43
H8A   2    0.784974    0.122638    0.481327    11.00000   -1.20000
AFIX   0
C9A   1    0.493462    0.024069    0.543121    11.00000    0.03783    0.03045 =
         0.03549   -0.00739   -0.00476   -0.01128
AFIX  43
H9A   2    0.365609    0.005593    0.606482    11.00000   -1.20000
AFIX   0
C10A  1    1.321296    0.394474    0.466569    11.00000    0.03700    0.03688 =
         0.03631   -0.01179   -0.00613   -0.01223
C1B   1    0.901191    0.184031    0.153305    11.00000    0.03320    0.03488 =
         0.02799   -0.00864    0.00056   -0.00354
C2B   1    1.097800    0.160869    0.219404    11.00000    0.03691    0.03912 =
         0.03313   -0.00808   -0.00454    0.00359
AFIX  43
H2B   2    1.180845    0.082243    0.244712    11.00000   -1.20000
AFIX   0
C3B   1    1.174567    0.249652    0.248925    11.00000    0.03465    0.05310 =
         0.03241   -0.01319   -0.00874   -0.00021
AFIX  43
H3B   2    1.309516    0.231269    0.293396    11.00000   -1.20000
AFIX   0
C4B   1    1.056433    0.364400    0.214192    11.00000    0.03723    0.04525 =
         0.03115   -0.01493   -0.00506   -0.00629
AFIX  43
H4B   2    1.108602    0.425558    0.234077    11.00000   -1.20000
AFIX   0
C5B   1    0.858021    0.388769    0.149012    11.00000    0.03391    0.03485 =
         0.02628   -0.00985   -0.00239   -0.00460
C6B   1    0.781519    0.300511    0.118231    11.00000    0.03218    0.03505 =
         0.02787   -0.00904   -0.00442   -0.00405
AFIX  43
H6B   2    0.647440    0.319323    0.073196    11.00000   -1.20000
AFIX   0
C7B   1    0.830589    0.087405    0.122804    11.00000    0.03943    0.02930 =
         0.03498   -0.00783    0.00042   -0.00207
AFIX  43
H7B   2    0.923641    0.011364    0.150194    11.00000   -1.20000
AFIX   0
C8B   1    0.648133    0.095096    0.060190    11.00000    0.03955    0.02863 =
         0.03065   -0.00882    0.00357   -0.00516
AFIX  43
H8B   2    0.550602    0.170025    0.033136    11.00000   -1.20000
AFIX   0
C9B   1    0.591256   -0.003588    0.031516    11.00000    0.04081    0.02792 =
         0.03281   -0.00904    0.00493   -0.00635
AFIX  43
H9B   2    0.688751   -0.078470    0.058829    11.00000   -1.20000
AFIX   0
C10B  1    0.731561    0.508330    0.111872    11.00000    0.04105    0.03767 =
         0.02972   -0.01261   -0.00859   -0.00754
N1A   3    1.459918    0.430946    0.387395    11.00000    0.04921    0.05803 =
         0.04073   -0.01354    0.00323   -0.02529
N1B   3    0.634599    0.603589    0.082079    11.00000    0.06066    0.03706 =
         0.04295   -0.01252   -0.01917   -0.00171
HKLF 4 1 1 0 0 0 1 0 0 0 1

REM  SonomCN in P-1
REM R1 =  0.0331 for    2643 Fo > 4sig(Fo)  and  0.0362 for all    2911 data
REM    199 parameters refined using      0 restraints

END

WGHT      0.0509      0.1162

REM Highest difference peak  0.151,  deepest hole -0.185,  1-sigma level  0.038
Q1    1   0.7679  0.3413  0.1607  11.00000  0.05    0.15
Q2    1   0.8726  0.3576  0.0994  11.00000  0.05    0.13
;
_shelx_res_checksum              2099
_shelx_hkl_file
;
  -1   0   0   39.62    0.50
  -1   0   0   39.71    0.52
  -1   0   0   38.80    0.50
  -2   0   0    4.97    0.07
  -2   0   0    4.99    0.07
   2   0   0    4.81    0.07
  -3   0   0    4.42    0.07
  -3   0   0    4.52    0.07
   3   0   0    4.47    0.07
  -4   0   0   10.71    0.16
  -4   0   0   10.80    0.16
   4   0   0   10.77    0.15
  -5   0   0    0.34    0.03
   5   0   0    0.36    0.02
  -6   0   0    7.88    0.13
   6   0   0    7.83    0.13
   7   0   0    0.05    0.02
   6  -1   0    1.70    0.05
  -6   1   0    1.61    0.05
   5  -1   0    0.09    0.02
  -5   1   0    0.09    0.02
   4  -1   0    0.89    0.03
  -4   1   0    0.93    0.03
  -4   1   0    0.90    0.03
   3  -1   0    2.78    0.05
  -3   1   0    2.64    0.05
  -3   1   0    2.78    0.05
   2  -1   0    1.00    0.02
  -2   1   0    1.02    0.03
   1  -1   0  119.11    1.79
  -1   1   0  123.74    1.51
  -1   1   0  123.58    1.55
   0  -1   0    2.32    0.03
   0  -1   0    2.17    0.03
  -1  -1   0    1.46    0.02
  -1  -1   0    1.44    0.02
  -2  -1   0    2.04    0.04
  -2  -1   0    2.02    0.04
  -2  -1   0    2.00    0.04
  -3  -1   0    2.27    0.05
  -3  -1   0    2.29    0.04
  -3  -1   0    2.32    0.04
  -4  -1   0    4.40    0.08
  -4  -1   0    4.37    0.08
   4   1   0    4.32    0.07
  -5  -1   0    0.00    0.01
  -5  -1   0   -0.02    0.01
   5   1   0   -0.02    0.01
  -6  -1   0    3.47    0.08
   6   1   0    3.45    0.08
   7   1   0    0.62    0.04
   6  -2   0    0.86    0.04
  -6   2   0    0.92    0.04
   5  -2   0    0.36    0.03
  -5   2   0    0.33    0.03
   4  -2   0    0.61    0.02
  -4   2   0    0.59    0.03
   3  -2   0    0.88    0.02
  -3   2   0    0.84    0.03
  -3   2   0    0.88    0.03
   2  -2   0   40.41    0.51
  -2   2   0   41.35    0.53
  -2   2   0   40.12    0.52
  -1   2   0  818.01   10.74
   0  -2   0   30.89    0.40
   0  -2   0   30.69    0.39
   0   2   0   30.90    0.40
  -1  -2   0   10.06    0.13
  -1  -2   0    9.94    0.13
   1   2   0    9.98    0.12
  -2  -2   0   11.76    0.15
  -2  -2   0   11.73    0.16
  -2  -2   0   11.84    0.15
  -3  -2   0   23.01    0.30
  -3  -2   0   23.13    0.29
  -3  -2   0   23.35    0.30
  -4  -2   0    1.45    0.04
  -4  -2   0    1.35    0.04
  -4  -2   0    1.44    0.04
  -5  -2   0   24.55    0.32
  -5  -2   0   24.19    0.33
   5   2   0   24.64    0.32
   6   2   0    0.72    0.04
   6  -3   0    1.38    0.05
  -6   3   0    1.39    0.05
   5  -3   0   12.33    0.19
  -5   3   0   12.38    0.19
   4  -3   0    0.58    0.03
   4  -3   0    0.60    0.02
  -4   3   0    0.62    0.03
   3  -3   0    0.07    0.01
   3  -3   0    0.06    0.01
  -3   3   0    0.07    0.01
   2  -3   0   20.84    0.26
   2  -3   0   20.95    0.27
  -2   3   0   20.92    0.27
   1  -3   0   34.56    0.45
   1  -3   0   34.82    0.46
  -1   3   0   34.16    0.42
   0  -3   0   49.65    0.62
   0   3   0   48.37    0.62
  -1  -3   0    0.70    0.01
  -1  -3   0    0.72    0.02
   1   3   0    0.72    0.02
  -2  -3   0   13.35    0.17
  -2  -3   0   12.99    0.17
   2   3   0   13.07    0.17
  -3  -3   0    3.78    0.06
  -3  -3   0    3.72    0.06
  -4  -3   0    1.46    0.04
  -4  -3   0    1.48    0.04
  -4  -3   0    1.48    0.04
  -5  -3   0    0.51    0.03
  -5  -3   0    0.51    0.03
  -5  -3   0    0.56    0.03
   6  -4   0    1.59    0.05
  -6   4   0    1.74    0.06
   5  -4   0    1.48    0.05
  -5   4   0    1.48    0.05
   4  -4   0   12.91    0.19
   4  -4   0   12.72    0.17
  -4   4   0   12.69    0.19
   3  -4   0    5.41    0.09
   3  -4   0    5.45    0.08
  -3   4   0    5.41    0.09
   2  -4   0   17.42    0.22
   2  -4   0   17.21    0.23
  -2   4   0   17.31    0.23
   1  -4   0   11.46    0.15
   1  -4   0   11.46    0.15
  -1   4   0   11.59    0.15
   0  -4   0   33.35    0.76
   0  -4   0   34.65    0.56
   0   4   0   33.37    0.44
  -1  -4   0    9.24    0.12
  -1  -4   0    8.95    0.12
   1   4   0    9.22    0.12
  -2  -4   0   12.31    0.16
  -2  -4   0   12.25    0.16
   2   4   0   12.20    0.15
  -3  -4   0   10.39    0.14
  -3  -4   0   10.28    0.15
   3   4   0   10.45    0.14
  -4  -4   0   35.74    0.46
  -4  -4   0   36.07    0.46
   4   4   0   35.77    0.45
  -5  -4   0   13.03    0.19
  -5  -4   0   12.93    0.19
   5   4   0   13.27    0.18
   6  -5   0    0.41    0.03
  -6   5   0    0.44    0.03
   5  -5   0    0.70    0.03
  -5   5   0    0.69    0.04
   4  -5   0    3.98    0.08
   4  -5   0    4.07    0.07
  -4   5   0    3.99    0.08
   3  -5   0    9.84    0.13
   3  -5   0    9.72    0.14
  -3   5   0    9.88    0.15
   2  -5   0    5.71    0.08
   2  -5   0    5.49    0.09
  -2   5   0    5.65    0.09
   1  -5   0   18.77    0.24
   1  -5   0   18.88    0.24
  -1   5   0   18.96    0.24
   0  -5   0    8.91    0.11
   0  -5   0    8.68    0.12
   0   5   0    8.83    0.12
  -1  -5   0    1.81    0.04
  -1  -5   0    1.95    0.03
   1   5   0    1.84    0.03
  -2  -5   0   85.55    1.07
  -2  -5   0   83.30    1.09
   2   5   0   84.44    1.06
  -3  -5   0   10.17    0.15
  -3  -5   0   10.20    0.14
   3   5   0   10.17    0.13
  -4  -5   0    7.48    0.12
   4   5   0    7.71    0.11
  -5  -5   0    6.52    0.11
   5  -6   0    2.57    0.06
  -5   6   0    2.59    0.07
   4  -6   0    2.38    0.06
  -4   6   0    2.38    0.06
   3  -6   0    0.38    0.02
   3  -6   0    0.44    0.02
  -3   6   0    0.43    0.03
   2  -6   0    0.12    0.01
   2  -6   0    0.12    0.01
  -2   6   0    0.13    0.02
   1  -6   0   25.32    0.32
   1  -6   0   25.42    0.33
  -1   6   0   25.70    0.32
   0  -6   0    1.76    0.04
   0  -6   0    1.82    0.03
   0   6   0    1.75    0.04
  -1  -6   0    4.13    0.07
  -1  -6   0    4.13    0.06
   1   6   0    4.14    0.06
  -2  -6   0   43.32    0.54
  -2  -6   0   42.07    0.53
   2   6   0   42.49    0.54
  -3  -6   0    0.14    0.02
   3   6   0    0.14    0.01
  -4  -6   0    3.11    0.07
   4   6   0    3.25    0.05
  -5  -6   0    0.86    0.04
  -6  -6   0   12.41    0.19
   5  -7   0    0.26    0.03
  -5   7   0    0.31    0.03
   4  -7   0    0.04    0.02
  -4   7   0    0.06    0.02
   3  -7   0    3.83    0.07
   3  -7   0    3.93    0.07
  -3   7   0    4.01    0.08
   2  -7   0   20.68    0.28
   2  -7   0   20.84    0.27
  -2   7   0   21.11    0.28
   1  -7   0    5.17    0.08
   1  -7   0    5.30    0.08
  -1   7   0    5.21    0.08
   0  -7   0    0.00    0.01
   0  -7   0    0.01    0.01
   0   7   0   -0.02    0.01
  -1  -7   0   26.41    0.34
  -1  -7   0   26.44    0.34
   1   7   0   26.76    0.33
  -2  -7   0   11.73    0.17
   2   7   0   12.08    0.16
  -3  -7   0    5.44    0.09
   3   7   0    5.45    0.08
  -4  -7   0   10.42    0.16
  -5  -7   0    2.67    0.07
  -6  -7   0    0.02    0.02
   5  -8   0    0.08    0.02
  -5   8   0    0.09    0.02
   4  -8   0    0.81    0.04
   3  -8   0    0.11    0.02
   3  -8   0    0.07    0.02
  -3   8   0    0.10    0.02
   2  -8   0   12.23    0.17
   2  -8   0   11.87    0.17
  -2   8   0   12.14    0.17
   1  -8   0    0.82    0.02
   1  -8   0    0.79    0.03
  -1   8   0    0.79    0.03
   0  -8   0   17.14    0.23
   0  -8   0   17.98    0.22
   0   8   0   17.21    0.23
  -1  -8   0    7.87    0.12
   1   8   0    7.71    0.11
  -2  -8   0    0.16    0.02
   2   8   0    0.24    0.02
  -3  -8   0    0.01    0.01
   3   8   0    0.00    0.01
  -4  -8   0    2.60    0.06
  -5  -8   0    1.57    0.05
  -6  -8   0    0.88    0.04
   4  -9   0    0.12    0.02
  -4   9   0    0.12    0.02
   3  -9   0    0.39    0.02
   3  -9   0    0.41    0.02
  -3   9   0    0.45    0.03
   2  -9   0    4.94    0.08
   2  -9   0    4.94    0.08
  -2   9   0    5.02    0.09
   1  -9   0    0.71    0.03
   1  -9   0    0.75    0.02
  -1   9   0    0.69    0.03
   0  -9   0    0.10    0.02
   0   9   0    0.09    0.01
  -1  -9   0   23.52    0.31
   1   9   0   23.46    0.30
  -2  -9   0    9.06    0.14
   2   9   0    9.33    0.13
  -3  -9   0    7.65    0.13
   3   9   0    8.19    0.11
  -4  -9   0    0.24    0.02
  -5  -9   0    1.80    0.06
  -6  -9   0    0.27    0.03
   4 -10   0    0.03    0.02
  -4  10   0    0.04    0.02
   3 -10   0    5.17    0.09
  -3  10   0    5.11    0.10
   2 -10   0    0.54    0.03
   2 -10   0    0.56    0.03
  -2  10   0    0.58    0.03
   1 -10   0    5.26    0.09
  -1  10   0    5.41    0.09
   0 -10   0    6.21    0.10
   0  10   0    6.29    0.10
  -1 -10   0    0.79    0.03
   1  10   0    0.88    0.03
  -2 -10   0    0.42    0.03
   2  10   0    0.43    0.02
  -3 -10   0    2.68    0.06
  -4 -10   0    0.78    0.04
  -5 -10   0    0.18    0.03
   4 -11   0    0.16    0.02
  -3  11   0    0.14    0.02
   2 -11   0    0.68    0.03
  -2  11   0    0.68    0.03
   1 -11   0    0.00    0.01
  -1  11   0    0.00    0.01
   0 -11   0    1.39    0.04
   0  11   0    1.40    0.04
  -1 -11   0    3.53    0.07
   1  11   0    3.42    0.06
  -2 -11   0   14.27    0.21
   2  11   0   14.81    0.20
  -3 -11   0    0.60    0.03
  -4 -11   0    4.16    0.09
  -5 -11   0    0.08    0.03
  -3  12   0    0.22    0.03
   2 -12   0    0.93    0.04
  -2  12   0    0.87    0.04
   1 -12   0    0.05    0.02
  -1  12   0    0.07    0.02
   0 -12   0    2.77    0.06
   0  12   0    2.92    0.06
  -1 -12   0    0.77    0.03
   1  12   0    0.79    0.03
  -2 -12   0    7.00    0.12
  -3 -12   0    0.51    0.03
  -4 -12   0    1.93    0.06
   2 -13   0    1.58    0.05
   1 -13   0    0.01    0.02
  -1  13   0    0.02    0.02
   0 -13   0    2.03    0.06
   0  13   0    2.06    0.05
  -1 -13   0    0.02    0.02
  -2 -13   0    0.03    0.02
  -3 -13   0    0.81    0.04
   1 -14   0    1.96    0.06
  -1  14   0    1.97    0.06
   0 -14   0    0.01    0.02
   0  14   0    0.04    0.02
  -1 -14   0    3.63    0.08
  -2 -14   0    0.11    0.02
  -2 -14   1    0.87    0.04
  -1 -14   1    0.20    0.03
   0 -14   1    0.02    0.02
  -1  14  -1    0.64    0.04
   1 -14   1    0.54    0.04
  -3 -13   1    0.53    0.04
  -2 -13   1    1.73    0.06
  -1 -13   1    2.01    0.06
   0  13  -1    3.65    0.08
   0 -13   1    3.62    0.08
  -1  13  -1    0.00    0.02
   1 -13   1    0.01    0.02
  -2  13  -1    0.36    0.03
  -4 -12   1    2.14    0.07
  -3 -12   1    2.40    0.07
  -2 -12   1    1.47    0.05
  -1 -12   1    0.44    0.03
   0  12  -1    4.72    0.09
   0 -12   1    4.49    0.09
  -1  12  -1    1.71    0.05
   1 -12   1    1.68    0.05
  -2  12  -1    0.27    0.03
  -3  12  -1    0.22    0.03
  -5 -11   1    1.93    0.07
  -4 -11   1    0.08    0.02
  -3 -11   1    2.71    0.07
  -2 -11   1    4.52    0.09
   1  11  -1    4.28    0.07
  -1 -11   1    4.11    0.08
   0  11  -1    0.13    0.02
   0 -11   1    0.15    0.02
  -1  11  -1    0.70    0.03
   1 -11   1    0.73    0.03
  -2  11  -1    0.01    0.02
   2 -11   1    0.02    0.02
  -3  11  -1    0.02    0.02
   4 -11   1    2.62    0.07
  -5 -10   1    4.48    0.10
  -4 -10   1    0.05    0.02
  -3 -10   1    0.32    0.03
  -2 -10   1    2.49    0.06
   1  10  -1   28.56    0.36
  -1 -10   1   27.59    0.37
   0  10  -1    0.78    0.03
   0 -10   1    0.83    0.03
  -1  10  -1    2.53    0.06
   1 -10   1    2.54    0.06
  -2  10  -1    0.15    0.02
   2 -10   1    0.16    0.02
   2 -10   1    0.15    0.02
  -3  10  -1    0.15    0.02
   3 -10   1    0.12    0.02
  -4  10  -1    0.66    0.04
   4 -10   1    0.61    0.03
  -6  -9   1    1.52    0.06
  -5  -9   1    0.22    0.03
  -4  -9   1    0.01    0.02
  -3  -9   1   13.62    0.20
   2   9  -1   14.71    0.19
  -2  -9   1   14.31    0.21
   1   9  -1    0.38    0.02
  -1  -9   1    0.39    0.02
   0   9  -1   11.60    0.16
   0  -9   1   11.39    0.16
  -1   9  -1    0.47    0.03
   1  -9   1    0.50    0.02
   1  -9   1    0.48    0.02
  -2   9  -1    2.91    0.07
   2  -9   1    2.95    0.06
   2  -9   1    2.92    0.06
  -3   9  -1    9.57    0.16
   3  -9   1    9.58    0.15
  -4   9  -1    2.49    0.07
   4  -9   1    2.50    0.06
  -6  -8   1    0.23    0.03
  -5  -8   1    0.28    0.03
  -4  -8   1    0.20    0.02
  -3  -8   1   20.09    0.28
   2   8  -1    0.42    0.02
  -2  -8   1    0.39    0.02
   1   8  -1    0.87    0.03
  -1  -8   1    0.86    0.03
   0   8  -1    0.25    0.02
   0  -8   1    0.27    0.02
   0  -8   1    0.26    0.02
  -1   8  -1    0.04    0.01
   1  -8   1    0.06    0.01
   1  -8   1    0.05    0.01
  -2   8  -1    1.15    0.04
   2  -8   1    1.22    0.03
   2  -8   1    1.12    0.03
  -3   8  -1    0.03    0.02
   3  -8   1    0.05    0.01
  -4   8  -1    0.11    0.02
   4  -8   1    0.08    0.02
  -5   8  -1    0.68    0.04
   5  -8   1    0.64    0.04
  -6  -7   1    3.97    0.09
  -5  -7   1    0.10    0.02
  -4  -7   1    3.92    0.08
   3   7  -1    0.05    0.01
  -3  -7   1    0.06    0.02
   2   7  -1    3.43    0.05
  -2  -7   1    3.22    0.06
   1   7  -1    4.45    0.07
  -1  -7   1    4.56    0.08
  -1  -7   1    4.41    0.06
   0   7  -1    2.15    0.04
   0  -7   1    2.22    0.04
   0  -7   1    2.19    0.04
  -1   7  -1    1.43    0.04
   1  -7   1    1.47    0.03
   1  -7   1    1.41    0.03
  -2   7  -1    2.59    0.06
   2  -7   1    2.55    0.05
   2  -7   1    2.45    0.05
  -3   7  -1    7.89    0.13
   3  -7   1    7.70    0.12
   3  -7   1    8.13    0.12
  -4   7  -1    2.44    0.06
   4  -7   1    2.48    0.06
  -5   7  -1    0.31    0.03
   5  -7   1    0.36    0.03
  -6  -6   1    2.85    0.07
  -5  -6   1    2.55    0.06
  -4  -6   1   28.47    0.38
   3   6  -1   41.34    0.50
  -3  -6   1   40.43    0.52
   2   6  -1    6.67    0.09
  -2  -6   1    6.65    0.09
  -2  -6   1    6.62    0.10
   1   6  -1    0.39    0.02
  -1  -6   1    0.37    0.02
  -1  -6   1    0.43    0.01
   0   6  -1    2.61    0.05
   0  -6   1    2.72    0.05
   0  -6   1    2.66    0.04
  -1   6  -1    8.53    0.12
   1  -6   1    8.55    0.12
   1  -6   1    8.49    0.12
  -2   6  -1   12.03    0.17
   2  -6   1   12.21    0.16
   2  -6   1   11.83    0.17
  -3   6  -1    3.20    0.07
   3  -6   1    3.25    0.06
   3  -6   1    3.11    0.06
  -4   6  -1    1.74    0.05
   4  -6   1    1.71    0.05
  -5   6  -1   -0.01    0.02
   5  -6   1   -0.02    0.02
  -6  -5   1    0.70    0.04
  -5  -5   1    4.64    0.09
  -4  -5   1   11.37    0.17
   3   5  -1    0.08    0.01
  -3  -5   1    0.06    0.01
  -3  -5   1    0.07    0.01
   2   5  -1    0.35    0.01
  -2  -5   1    0.36    0.01
  -2  -5   1    0.32    0.02
   1   5  -1    0.31    0.02
  -1  -5   1    0.32    0.02
  -1  -5   1    0.35    0.01
   0   5  -1    1.34    0.03
   0  -5   1    1.34    0.02
   0  -5   1    1.34    0.03
  -1   5  -1    2.35    0.04
   1  -5   1    2.44    0.04
   1  -5   1    2.43    0.04
  -2   5  -1   20.46    0.27
   2  -5   1   20.51    0.26
   2  -5   1   20.31    0.27
  -3   5  -1   10.69    0.16
   3  -5   1   10.89    0.15
   3  -5   1   10.88    0.16
  -4   5  -1    2.91    0.07
   4  -5   1    2.88    0.06
  -5   5  -1    0.00    0.02
   5  -5   1    0.00    0.02
  -6   5  -1    0.03    0.02
   6  -5   1    0.00    0.02
  -5  -4   1    6.98    0.12
  -5  -4   1    6.89    0.12
   4   4  -1   32.96    0.40
  -4  -4   1   32.02    0.42
  -4  -4   1   32.12    0.42
   3   4  -1    0.64    0.02
  -3  -4   1    0.64    0.03
  -3  -4   1    0.67    0.02
   2   4  -1    8.80    0.11
  -2  -4   1    9.08    0.12
   1   4  -1    3.42    0.05
  -1  -4   1    3.47    0.05
   0   4  -1    5.18    0.07
   0  -4   1    5.21    0.07
   0  -4   1    5.21    0.07
  -1   4  -1  148.79    1.86
   1  -4   1  149.55    1.85
   1  -4   1  149.33    1.90
  -2   4  -1  161.87    2.04
   2  -4   1  162.14    3.14
   2  -4   1  161.66    2.01
  -3   4  -1    6.30    0.10
   3  -4   1    6.24    0.09
   3  -4   1    6.20    0.10
  -4   4  -1   14.81    0.21
   4  -4   1   14.74    0.21
  -5   4  -1   14.34    0.22
   5  -4   1   14.87    0.22
  -6   4  -1    0.49    0.04
   6  -4   1    0.41    0.03
   6   3  -1    0.08    0.02
  -6  -3   1    0.08    0.02
  -5  -3   1   16.48    0.23
  -5  -3   1   16.31    0.23
  -4  -3   1    0.16    0.02
  -4  -3   1    0.22    0.02
  -4  -3   1    0.17    0.02
  -3  -3   1    0.35    0.02
  -3  -3   1    0.34    0.02
   2   3  -1   10.74    0.14
  -2  -3   1   10.88    0.15
  -2  -3   1   10.75    0.14
   1   3  -1    6.78    0.08
  -1  -3   1    6.61    0.09
  -1  -3   1    6.68    0.09
   0   3  -1   13.06    0.16
   0  -3   1   13.19    0.17
   0  -3   1   13.12    0.17
  -1   3  -1   11.00    0.14
   1  -3   1   11.21    0.14
   1  -3   1   11.08    0.15
  -2   3  -1    2.57    0.05
   2  -3   1    2.48    0.04
   2  -3   1    2.55    0.05
  -3   3  -1    0.04    0.01
   3  -3   1    0.03    0.01
   3  -3   1    0.03    0.01
  -4   3  -1    1.24    0.04
   4  -3   1    1.28    0.04
  -5   3  -1    0.58    0.03
   5  -3   1    0.50    0.03
  -6   3  -1    0.04    0.02
   6  -3   1    0.02    0.02
  -6  -2   1    0.04    0.02
   5   2  -1   12.12    0.17
  -5  -2   1   12.26    0.17
  -5  -2   1   11.98    0.18
  -4  -2   1    1.24    0.04
  -4  -2   1    1.26    0.03
  -4  -2   1    1.24    0.04
  -3  -2   1    7.55    0.11
  -3  -2   1    7.53    0.11
  -3  -2   1    7.38    0.11
  -2  -2   1   25.46    0.32
  -2  -2   1   25.19    0.31
  -2  -2   1   25.22    0.32
   1   2  -1   15.42    0.19
  -1  -2   1   15.43    0.20
  -1  -2   1   15.20    0.19
   0   2  -1   41.28    0.51
   0  -2   1   40.60    0.52
   0  -2   1   40.64    0.53
  -1   2  -1  472.65    6.68
   1  -2   1  491.88    6.18
   1  -2   1  456.02    6.64
  -2   2  -1    2.57    0.05
   2  -2   1    2.54    0.05
   2  -2   1    2.55    0.04
  -3   2  -1    0.02    0.01
   3  -2   1    0.01    0.01
   3  -2   1    0.00    0.01
  -4   2  -1   10.53    0.16
   4  -2   1   10.93    0.16
   4  -2   1   10.91    0.15
  -5   2  -1    0.03    0.02
   5  -2   1    0.06    0.02
  -6   2  -1    0.00    0.02
   6  -2   1   -0.01    0.02
   7   1  -1    0.13    0.03
  -6  -1   1    8.53    0.15
   5   1  -1    7.19    0.11
  -5  -1   1    6.95    0.12
  -5  -1   1    7.06    0.11
   4   1  -1   13.66    0.19
  -4  -1   1   13.65    0.20
  -4  -1   1   13.63    0.19
  -3  -1   1   20.67    0.26
  -3  -1   1   20.83    0.27
  -3  -1   1   20.15    0.27
  -2  -1   1   35.80    0.44
  -2  -1   1   35.32    0.44
  -2  -1   1   35.13    0.47
  -1  -1   1  131.74    1.61
  -1  -1   1  128.08    1.87
  -1  -1   1  127.69    2.05
   0   1  -1    5.60    0.08
   0  -1   1    5.63    0.08
   0  -1   1    5.69    0.08
  -1   1  -1   18.58    0.23
   1  -1   1   18.98    0.24
  -2   1  -1    4.89    0.07
   2  -1   1    4.93    0.07
   2  -1   1    4.94    0.07
  -3   1  -1    1.74    0.04
   3  -1   1    1.74    0.04
   3  -1   1    1.68    0.03
  -4   1  -1    0.81    0.03
   4  -1   1    0.78    0.02
   4  -1   1    0.80    0.03
  -5   1  -1    0.65    0.03
   5  -1   1    0.62    0.03
  -6   1  -1   -0.01    0.02
   6  -1   1   -0.02    0.02
  -7   1  -1    0.90    0.05
   5   0  -1    3.50    0.07
  -5   0   1    3.44    0.08
  -5   0   1    3.36    0.07
   4   0  -1    0.90    0.03
  -4   0   1    0.87    0.03
  -4   0   1    0.90    0.03
   3   0  -1    3.67    0.06
  -3   0   1    3.73    0.06
  -3   0   1    3.68    0.07
  -2   0   1    9.53    0.13
  -2   0   1    9.58    0.13
  -1   0   1    2.96    0.04
  -1   0   1    2.95    0.04
  -1   0   1    2.98    0.04
   0   0   1    1.82    0.02
  -1   0  -1    1.92    0.03
   1   0   1    1.91    0.03
   1   0   1    1.88    0.03
  -2   0  -1   18.93    0.24
   2   0   1   19.21    0.25
   2   0   1   19.11    0.25
  -3   0  -1    0.80    0.03
   3   0   1    0.76    0.02
  -4   0  -1    5.55    0.09
   4   0   1    5.53    0.08
   4   0   1    5.51    0.09
  -5   0  -1   -0.03    0.01
   5   0   1   -0.01    0.01
  -6   0  -1   12.93    0.20
   6   0   1   13.27    0.20
  -7   0  -1    2.09    0.06
   7   0   1    2.18    0.06
   6  -1  -1    2.95    0.07
  -6   1   1    3.00    0.07
   5  -1  -1    1.77    0.04
  -5   1   1    1.66    0.05
  -5   1   1    1.72    0.05
   4  -1  -1    0.11    0.01
  -4   1   1    0.09    0.02
  -4   1   1    0.11    0.02
   3  -1  -1    0.34    0.02
  -3   1   1    0.33    0.02
  -3   1   1    0.36    0.02
   2  -1  -1    3.14    0.05
  -2   1   1    3.19    0.05
  -2   1   1    3.22    0.05
   1  -1  -1   -0.01    0.01
  -1   1   1   -0.02    0.01
  -1   1   1   -0.02    0.01
   0  -1  -1    1.00    0.02
   0   1   1    0.99    0.02
   0   1   1    1.02    0.02
  -1  -1  -1    2.10    0.03
  -1  -1  -1    2.14    0.03
   1   1   1    2.12    0.03
  -2  -1  -1   17.28    0.22
  -2  -1  -1   17.44    0.23
  -2  -1  -1   17.57    0.22
  -3  -1  -1    9.00    0.13
  -3  -1  -1    9.17    0.12
  -3  -1  -1    9.03    0.13
  -4  -1  -1    3.23    0.06
   4   1   1    3.28    0.06
  -5  -1  -1    9.27    0.14
   5   1   1    9.43    0.14
  -6  -1  -1    0.35    0.03
   6   1   1    0.34    0.03
   7   1   1    1.93    0.06
   6  -2  -1    1.21    0.05
  -6   2   1    1.21    0.05
   5  -2  -1    2.15    0.05
  -5   2   1    2.17    0.06
  -5   2   1    2.06    0.06
   4  -2  -1    0.53    0.02
  -4   2   1    0.47    0.03
  -4   2   1    0.49    0.03
   3  -2  -1    5.96    0.09
  -3   2   1    6.06    0.10
  -3   2   1    5.92    0.09
   2  -2  -1   10.81    0.14
  -2   2   1   10.92    0.15
  -2   2   1   11.00    0.15
   1  -2  -1   13.72    0.17
  -1   2   1   13.72    0.18
  -1   2   1   13.72    0.17
   0  -2  -1    6.73    0.09
   0   2   1    6.66    0.09
   0   2   1    6.73    0.09
  -1  -2  -1    0.28    0.01
   1   2   1    0.29    0.01
   1   2   1    0.28    0.01
  -2  -2  -1    0.09    0.01
  -2  -2  -1    0.10    0.01
  -2  -2  -1    0.10    0.01
  -3  -2  -1    8.41    0.12
  -3  -2  -1    8.59    0.12
  -3  -2  -1    8.53    0.12
  -4  -2  -1    0.02    0.01
  -4  -2  -1    0.04    0.01
  -4  -2  -1    0.03    0.01
  -5  -2  -1    5.42    0.10
   5   2   1    5.63    0.09
   5   2   1    5.34    0.09
  -6  -2  -1    3.77    0.08
   6   2   1    3.69    0.08
   6  -3  -1    0.02    0.02
  -6   3   1    0.03    0.02
   5  -3  -1   11.18    0.17
  -5   3   1   10.86    0.17
   4  -3  -1    3.12    0.06
  -4   3   1    3.02    0.06
  -4   3   1    3.03    0.07
   3  -3  -1    3.07    0.05
  -3   3   1    3.04    0.06
   2  -3  -1   32.64    0.42
  -2   3   1   32.47    0.41
  -2   3   1   31.90    0.41
   1  -3  -1  190.63    3.03
  -1   3   1  193.88    3.11
   0  -3  -1   47.09    0.60
   0   3   1   46.63    0.60
   0   3   1   47.93    0.60
  -1  -3  -1    0.01    0.01
   1   3   1    0.01    0.00
  -2  -3  -1    0.39    0.01
  -2  -3  -1    0.38    0.02
   2   3   1    0.39    0.01
  -3  -3  -1   26.23    0.33
  -3  -3  -1   25.85    0.33
  -3  -3  -1   25.66    0.33
  -4  -3  -1   27.89    0.37
  -4  -3  -1   27.69    0.36
  -4  -3  -1   28.41    0.36
  -5  -3  -1    1.45    0.04
  -5  -3  -1    1.42    0.04
   5   3   1    1.35    0.04
  -6  -3  -1    4.38    0.09
   6   3   1    4.36    0.08
   6  -4  -1    2.00    0.06
  -6   4   1    2.06    0.06
   5  -4  -1    7.80    0.13
  -5   4   1    7.66    0.13
   4  -4  -1    8.69    0.12
  -4   4   1    8.38    0.13
   3  -4  -1    1.40    0.03
  -3   4   1    1.51    0.04
  -3   4   1    1.49    0.04
   2  -4  -1   22.32    0.28
  -2   4   1   22.09    0.29
  -2   4   1   22.07    0.28
   1  -4  -1    2.52    0.04
  -1   4   1    2.51    0.04
  -1   4   1    2.54    0.04
   0  -4  -1   14.92    0.19
   0  -4  -1   14.83    0.19
   0   4   1   14.66    0.19
  -1  -4  -1    0.42    0.02
   1   4   1    0.42    0.01
  -2  -4  -1    3.91    0.06
  -2  -4  -1    3.96    0.06
   2   4   1    3.92    0.06
  -3  -4  -1    0.72    0.02
  -3  -4  -1    0.72    0.03
   3   4   1    0.66    0.02
  -4  -4  -1    2.10    0.05
  -4  -4  -1    2.10    0.05
   4   4   1    2.13    0.04
  -5  -4  -1    0.52    0.03
   5   4   1    0.53    0.03
   6   4   1    0.04    0.01
  -6   5   1    1.75    0.06
   5  -5  -1    0.02    0.02
  -5   5   1    0.04    0.02
   4  -5  -1    5.64    0.10
   4  -5  -1    5.53    0.09
  -4   5   1    5.50    0.10
   3  -5  -1    0.09    0.01
   3  -5  -1    0.08    0.02
  -3   5   1    0.08    0.01
   2  -5  -1   45.38    0.57
   2  -5  -1   44.58    0.57
  -2   5   1   44.88    0.90
   1  -5  -1   57.83    0.77
   1  -5  -1   57.90    0.75
  -1   5   1   58.53    0.75
   0  -5  -1    1.81    0.03
   0  -5  -1    2.10    0.03
   0   5   1    1.77    0.03
  -1  -5  -1    2.97    0.04
  -1  -5  -1    2.93    0.05
   1   5   1    2.90    0.05
  -2  -5  -1    0.01    0.01
  -2  -5  -1    0.00    0.01
   2   5   1    0.00    0.01
  -3  -5  -1   29.61    0.37
  -3  -5  -1   29.43    0.38
   3   5   1   29.68    0.37
  -4  -5  -1    0.01    0.01
   4   5   1    0.03    0.01
  -5  -5  -1    0.13    0.02
   5   5   1    0.15    0.02
   5  -6  -1    1.30    0.05
  -5   6   1    1.19    0.05
   4  -6  -1    2.75    0.06
   4  -6  -1    2.76    0.05
  -4   6   1    2.92    0.07
   3  -6  -1    0.14    0.01
   3  -6  -1    0.13    0.02
  -3   6   1    0.12    0.02
   2  -6  -1    9.89    0.14
   2  -6  -1    9.98    0.14
  -2   6   1    9.98    0.14
   1  -6  -1   31.69    0.39
   1  -6  -1   31.34    0.40
  -1   6   1   31.29    0.39
   0  -6  -1    2.27    0.04
   0  -6  -1    2.32    0.04
   0   6   1    2.29    0.04
  -1  -6  -1    2.92    0.05
  -1  -6  -1    2.95    0.04
   1   6   1    2.94    0.05
  -2  -6  -1    0.68    0.02
   2   6   1    0.65    0.02
  -3  -6  -1    5.23    0.09
   3   6   1    5.28    0.08
  -4  -6  -1    0.89    0.03
   4   6   1    0.93    0.03
  -5  -6  -1    0.05    0.02
   5   6   1    0.04    0.01
   5  -7  -1    0.02    0.02
  -5   7   1    0.04    0.02
   4  -7  -1    0.03    0.02
   4  -7  -1    0.03    0.01
  -4   7   1    0.06    0.02
   3  -7  -1    1.06    0.04
   3  -7  -1    1.11    0.03
  -3   7   1    1.17    0.04
   2  -7  -1    0.50    0.02
   2  -7  -1    0.55    0.02
  -2   7   1    0.52    0.03
   1  -7  -1    3.90    0.06
   1  -7  -1    3.92    0.06
  -1   7   1    3.86    0.07
   0  -7  -1    1.72    0.03
   0  -7  -1    1.67    0.04
   0   7   1    1.70    0.04
  -1  -7  -1    0.35    0.01
  -1  -7  -1    0.31    0.02
   1   7   1    0.35    0.02
  -2  -7  -1    1.12    0.03
   2   7   1    1.11    0.03
  -3  -7  -1    3.94    0.07
   3   7   1    3.89    0.06
  -4  -7  -1    3.20    0.07
   4   7   1    3.26    0.06
  -5  -7  -1    5.65    0.10
   5  -8  -1    0.02    0.02
  -5   8   1    0.05    0.02
   4  -8  -1    0.02    0.02
  -4   8   1    0.02    0.02
   3  -8  -1    7.11    0.12
   3  -8  -1    7.13    0.11
  -3   8   1    6.91    0.12
   2  -8  -1    6.95    0.11
   2  -8  -1    6.98    0.10
  -2   8   1    6.77    0.11
   1  -8  -1    2.27    0.04
   1  -8  -1    2.32    0.05
  -1   8   1    2.30    0.05
   0  -8  -1    4.92    0.08
   0  -8  -1    5.01    0.07
   0   8   1    4.85    0.08
  -1  -8  -1   26.43    0.34
   1   8   1   26.30    0.33
  -2  -8  -1    0.44    0.02
   2   8   1    0.43    0.02
  -3  -8  -1    1.95    0.05
   3   8   1    1.92    0.04
  -4  -8  -1    0.63    0.03
   4   8   1    0.69    0.02
  -5  -8  -1    4.08    0.08
   4  -9  -1    0.30    0.03
  -4   9   1    0.38    0.03
   3  -9  -1    0.13    0.02
   3  -9  -1    0.12    0.02
  -3   9   1    0.16    0.02
   2  -9  -1    0.11    0.02
   2  -9  -1    0.08    0.02
  -2   9   1    0.10    0.02
   1  -9  -1    2.26    0.05
   1  -9  -1    2.25    0.04
  -1   9   1    2.32    0.05
   0  -9  -1    0.78    0.03
   0   9   1    0.74    0.03
  -1  -9  -1   17.95    0.24
   1   9   1   18.33    0.24
  -2  -9  -1    0.33    0.03
   2   9   1    0.33    0.02
   3   9   1    0.69    0.03
  -4  -9  -1    0.11    0.02
  -5  -9  -1    0.04    0.02
  -6  -9  -1    0.01    0.02
   4 -10  -1    2.39    0.06
  -4  10   1    2.35    0.07
   3 -10  -1    2.38    0.06
   3 -10  -1    2.53    0.06
  -3  10   1    2.51    0.07
   2 -10  -1    0.22    0.02
   2 -10  -1    0.23    0.02
  -2  10   1    0.21    0.02
   1 -10  -1    0.13    0.02
  -1  10   1    0.13    0.02
   0 -10  -1   34.39    0.44
   0  10   1   34.08    0.43
  -1 -10  -1   12.35    0.18
   1  10   1   12.67    0.17
  -2 -10  -1    0.39    0.03
   2  10   1    0.47    0.03
  -3 -10  -1    1.53    0.05
   3  10   1    1.56    0.04
  -4 -10  -1    3.73    0.08
  -5 -10  -1    5.30    0.11
  -6 -10  -1    0.20    0.03
   4 -11  -1    0.07    0.02
   3 -11  -1    0.10    0.02
  -3  11   1    0.10    0.02
   2 -11  -1    0.10    0.02
  -2  11   1    0.08    0.02
   1 -11  -1    4.03    0.08
  -1  11   1    4.09    0.08
   0 -11  -1    1.11    0.04
   0  11   1    1.13    0.04
  -1 -11  -1    0.00    0.01
   1  11   1    0.02    0.01
  -2 -11  -1    4.49    0.09
   2  11   1    4.41    0.08
  -3 -11  -1    0.02    0.02
  -4 -11  -1    0.55    0.03
  -5 -11  -1    2.39    0.07
  -3  12   1    0.66    0.04
   2 -12  -1    0.19    0.02
  -2  12   1    0.17    0.02
   1 -12  -1    0.61    0.03
  -1  12   1    0.67    0.03
   0 -12  -1   -0.01    0.01
   0  12   1    0.02    0.01
  -1 -12  -1    0.01    0.02
   1  12   1   -0.01    0.01
  -2 -12  -1    0.39    0.03
   2  12   1    0.43    0.03
  -3 -12  -1    0.05    0.02
  -4 -12  -1    0.38    0.03
  -5 -12  -1    0.12    0.03
   2 -13  -1    0.74    0.04
  -2  13   1    0.71    0.04
   1 -13  -1    0.01    0.02
  -1  13   1    0.02    0.02
   0 -13  -1    1.29    0.04
   0  13   1    1.27    0.04
  -1 -13  -1    0.89    0.04
   1  13   1    0.85    0.03
  -2 -13  -1    1.17    0.05
  -3 -13  -1    0.05    0.02
  -4 -13  -1    0.84    0.05
   2 -14  -1    0.01    0.02
   1 -14  -1    2.11    0.06
   0 -14  -1    0.96    0.04
   0  14   1    1.05    0.04
  -1 -14  -1    0.59    0.03
   1  14   1    0.65    0.03
  -2 -14  -1    0.01    0.02
  -3 -14  -1    0.43    0.04
   0  15   1    0.71    0.04
  -1 -14   2    1.27    0.05
   0 -14   2    2.31    0.07
  -2 -13   2    0.53    0.04
  -1 -13   2    8.45    0.15
   0 -13   2    1.28    0.05
  -1  13  -2    0.01    0.02
   1 -13   2    0.02    0.02
  -2  13  -2    0.53    0.04
  -3 -12   2    1.03    0.05
  -2 -12   2    0.39    0.03
  -1 -12   2    0.41    0.03
   0 -12   2    1.33    0.04
  -1  12  -2    1.31    0.04
   1 -12   2    1.26    0.04
  -2  12  -2    0.48    0.03
  -4 -11   2    0.02    0.02
  -3 -11   2    1.87    0.06
  -2 -11   2    1.29    0.05
  -1 -11   2    0.09    0.02
   0  11  -2    1.95    0.05
   0 -11   2    1.96    0.05
  -1  11  -2    0.59    0.03
   1 -11   2    0.59    0.03
  -2  11  -2    0.38    0.03
  -3  11  -2    0.57    0.04
  -5 -10   2    0.48    0.04
  -4 -10   2    0.01    0.02
  -3 -10   2    0.01    0.02
  -2 -10   2   19.24    0.27
  -1 -10   2   39.30    0.51
   0  10  -2    4.38    0.08
   0 -10   2    4.22    0.08
  -1  10  -2    1.79    0.05
   1 -10   2    1.92    0.05
  -2  10  -2    0.01    0.01
   2 -10   2    0.00    0.01
   2 -10   2    0.00    0.01
  -3  10  -2    2.36    0.06
   3 -10   2    2.31    0.06
  -4  10  -2    0.27    0.03
   4 -10   2    0.22    0.02
  -5  -9   2    0.35    0.03
  -4  -9   2   -0.01    0.02
  -3  -9   2    0.09    0.02
  -2  -9   2   12.03    0.18
   1   9  -2    0.73    0.03
  -1  -9   2    0.69    0.03
   0   9  -2    1.32    0.04
   0  -9   2    1.32    0.04
  -1   9  -2    3.21    0.06
   1  -9   2    3.22    0.06
   1  -9   2    3.25    0.06
  -2   9  -2    0.05    0.02
   2  -9   2    0.04    0.01
   2  -9   2    0.02    0.01
  -3   9  -2    0.89    0.04
   3  -9   2    0.92    0.03
  -4   9  -2    4.86    0.11
   4  -9   2    5.23    0.10
  -6  -8   2    1.87    0.07
  -5  -8   2    0.40    0.03
  -4  -8   2    0.01    0.02
  -3  -8   2   12.49    0.19
  -2  -8   2   49.82    0.63
   1   8  -2    5.82    0.09
  -1  -8   2    5.71    0.10
   0   8  -2    0.76    0.03
   0  -8   2    0.75    0.03
   0  -8   2    0.78    0.02
  -1   8  -2    0.15    0.02
   1  -8   2    0.17    0.01
   1  -8   2    0.15    0.02
  -2   8  -2    2.55    0.06
   2  -8   2    2.57    0.05
   2  -8   2    2.49    0.05
  -3   8  -2    3.95    0.08
   3  -8   2    4.05    0.08
  -4   8  -2    4.52    0.10
   4  -8   2    4.69    0.09
   5  -8   2    2.80    0.07
  -6  -7   2    0.98    0.05
  -5  -7   2    0.09    0.02
  -4  -7   2    0.46    0.03
  -3  -7   2    7.34    0.12
   2   7  -2    8.21    0.11
  -2  -7   2    8.01    0.13
   1   7  -2    2.34    0.04
  -1  -7   2    2.33    0.04
  -1  -7   2    2.30    0.05
   0   7  -2    3.47    0.06
   0  -7   2    3.51    0.06
   0  -7   2    3.55    0.06
  -1   7  -2    0.35    0.02
   1  -7   2    0.40    0.02
   1  -7   2    0.35    0.02
  -2   7  -2    0.85    0.03
   2  -7   2    0.89    0.03
   2  -7   2    0.85    0.03
  -3   7  -2    1.98    0.05
   3  -7   2    1.92    0.05
  -4   7  -2    0.37    0.03
   4  -7   2    0.39    0.03
  -5   7  -2    0.01    0.02
   5  -7   2    0.05    0.02
  -6  -6   2    0.06    0.03
  -5  -6   2   -0.02    0.02
  -4  -6   2    1.88    0.05
  -3  -6   2   42.89    0.55
   2   6  -2    5.43    0.08
  -2  -6   2    5.45    0.08
  -2  -6   2    5.27    0.09
   1   6  -2    1.49    0.03
  -1  -6   2    1.45    0.03
  -1  -6   2    1.42    0.04
   0   6  -2    0.07    0.01
   0  -6   2    0.04    0.01
   0  -6   2    0.05    0.01
  -1   6  -2    0.86    0.03
   1  -6   2    0.88    0.02
   1  -6   2    0.90    0.03
  -2   6  -2    5.43    0.09
   2  -6   2    5.37    0.09
   2  -6   2    5.57    0.08
  -3   6  -2   57.69    0.71
   3  -6   2   55.20    0.72
  -4   6  -2    0.84    0.04
   4  -6   2    0.84    0.03
  -5   6  -2    0.70    0.04
   5  -6   2    0.74    0.04
  -6  -5   2    0.44    0.03
  -5  -5   2    0.80    0.04
  -4  -5   2   10.71    0.16
  -4  -5   2   10.66    0.16
  -3  -5   2    7.60    0.12
  -3  -5   2    8.01    0.11
   2   5  -2    0.06    0.01
  -2  -5   2    0.06    0.01
  -2  -5   2    0.05    0.01
   1   5  -2    5.70    0.08
  -1  -5   2    5.61    0.08
  -1  -5   2    5.56    0.09
   0   5  -2   30.08    0.37
   0  -5   2   30.19    0.38
   0  -5   2   29.99    0.38
  -1   5  -2   18.59    0.24
   1  -5   2   18.51    0.24
   1  -5   2   18.61    0.24
  -2   5  -2    6.45    0.10
   2  -5   2    6.51    0.09
   2  -5   2    6.42    0.10
  -3   5  -2    9.93    0.15
   3  -5   2   10.26    0.14
   3  -5   2    9.86    0.15
  -4   5  -2    4.36    0.09
   4  -5   2    4.41    0.08
  -5   5  -2    1.50    0.05
   5  -5   2    1.57    0.05
  -5  -4   2    5.21    0.10
  -5  -4   2    5.26    0.10
  -4  -4   2   14.37    0.20
  -4  -4   2   14.21    0.20
   3   4  -2    0.01    0.01
  -3  -4   2    0.01    0.01
  -3  -4   2    0.01    0.01
   2   4  -2    1.81    0.03
  -2  -4   2    1.84    0.03
  -2  -4   2    1.84    0.04
   1   4  -2    0.77    0.02
  -1  -4   2    0.73    0.02
  -1  -4   2    0.74    0.02
   0   4  -2   20.04    0.25
   0  -4   2   20.03    0.25
   0  -4   2   19.89    0.25
  -1   4  -2   16.91    0.22
   1  -4   2   17.02    0.22
   1  -4   2   17.08    0.21
  -2   4  -2  121.46    1.56
   2  -4   2  123.64    1.50
   2  -4   2  118.19    1.56
  -3   4  -2    1.52    0.04
   3  -4   2    1.55    0.03
   3  -4   2    1.54    0.04
  -4   4  -2    0.76    0.03
   4  -4   2    0.75    0.03
  -5   4  -2    5.03    0.10
   5  -4   2    4.92    0.09
  -6   4  -2    1.11    0.05
   6  -4   2    1.12    0.05
   6   3  -2    0.47    0.03
  -6  -3   2    0.44    0.03
  -5  -3   2    4.25    0.09
  -5  -3   2    4.39    0.09
  -4  -3   2    5.09    0.09
  -4  -3   2    5.07    0.09
   3   3  -2    0.50    0.02
  -3  -3   2    0.51    0.02
  -3  -3   2    0.52    0.02
   2   3  -2    2.10    0.03
  -2  -3   2    2.05    0.04
  -2  -3   2    2.14    0.04
   1   3  -2   21.63    0.26
  -1  -3   2   20.56    0.27
  -1  -3   2   20.83    0.27
   0   3  -2   17.66    0.22
   0  -3   2   18.06    0.22
   0  -3   2   17.43    0.23
  -1   3  -2   29.74    0.37
   1  -3   2   29.71    0.38
   1  -3   2   28.97    0.37
  -2   3  -2    7.98    0.12
   2  -3   2    8.16    0.11
   2  -3   2    8.11    0.11
  -3   3  -2    8.18    0.12
   3  -3   2    8.12    0.11
   3  -3   2    8.21    0.12
  -4   3  -2   13.15    0.19
   4  -3   2   13.45    0.19
  -5   3  -2    0.21    0.02
   5  -3   2    0.19    0.02
  -6   3  -2    0.46    0.03
   6  -3   2    0.38    0.03
   6   2  -2    2.32    0.06
  -6  -2   2    2.23    0.06
   5   2  -2    3.32    0.07
  -5  -2   2    3.42    0.07
  -4  -2   2    1.18    0.03
  -4  -2   2    1.17    0.04
  -4  -2   2    1.11    0.04
  -3  -2   2    1.17    0.03
  -3  -2   2    1.16    0.03
  -3  -2   2    1.18    0.03
  -2  -2   2    0.05    0.01
  -2  -2   2    0.06    0.01
   1   2  -2   38.83    0.47
  -1  -2   2   37.78    0.50
  -1  -2   2   38.62    0.50
   0   2  -2  395.60    5.28
   0  -2   2  400.89    5.44
   0  -2   2  394.99    5.50
  -1   2  -2  199.22    2.43
   1  -2   2  199.72    2.72
   1  -2   2  194.99    3.14
  -2   2  -2    0.19    0.02
   2  -2   2    0.22    0.02
   2  -2   2    0.19    0.01
  -3   2  -2    2.00    0.05
   3  -2   2    2.00    0.04
   3  -2   2    2.04    0.03
  -4   2  -2    5.28    0.09
   4  -2   2    5.34    0.09
  -5   2  -2    1.37    0.05
   5  -2   2    1.40    0.04
  -6   2  -2    0.14    0.02
   6  -2   2    0.09    0.02
   6   1  -2    0.49    0.03
  -6  -1   2    0.50    0.04
   5   1  -2    8.48    0.13
  -5  -1   2    8.16    0.14
   4   1  -2    1.87    0.04
  -4  -1   2    1.91    0.04
  -4  -1   2    1.76    0.05
  -3  -1   2    9.38    0.13
  -3  -1   2    9.44    0.13
  -3  -1   2    9.29    0.14
  -2  -1   2    3.67    0.06
  -2  -1   2    3.73    0.05
  -2  -1   2    3.74    0.06
  -1  -1   2   25.60    0.31
  -1  -1   2   23.48    0.33
  -1  -1   2   25.18    0.31
   0   1  -2  429.19    5.59
   0  -1   2  453.45    5.97
   0  -1   2  447.19    5.90
  -1   1  -2   37.89    0.50
   1  -1   2   39.86    0.48
   1  -1   2   38.57    0.50
  -2   1  -2    1.56    0.04
   2  -1   2    1.60    0.02
   2  -1   2    1.61    0.03
  -3   1  -2    8.97    0.13
   3  -1   2    8.96    0.13
   3  -1   2    8.70    0.11
  -4   1  -2    5.25    0.09
   4  -1   2    5.27    0.09
  -5   1  -2    1.01    0.04
   5  -1   2    1.07    0.04
  -6   1  -2    1.97    0.06
   6  -1   2    2.03    0.06
  -6   0   2    0.00    0.02
   5   0  -2    0.23    0.02
  -5   0   2    0.25    0.02
  -5   0   2    0.23    0.02
   4   0  -2    0.63    0.03
  -4   0   2    0.61    0.03
  -4   0   2    0.63    0.03
   3   0  -2   16.33    0.22
  -3   0   2   16.63    0.21
  -3   0   2   16.56    0.23
  -2   0   2   27.08    0.35
  -2   0   2   27.34    0.34
  -1   0   2 1000.00   12.86
  -1   0   2  964.35   12.93
   0   0   2    0.58    0.01
   0   0   2    0.57    0.01
  -1   0  -2    0.13    0.01
   1   0   2    0.17    0.01
  -2   0  -2   21.13    0.27
   2   0   2   21.41    0.27
   2   0   2   21.42    0.26
  -3   0  -2   28.54    0.36
   3   0   2   28.26    0.35
   3   0   2   29.23    0.37
  -4   0  -2    0.07    0.01
   4   0   2    0.06    0.01
   4   0   2    0.06    0.01
  -5   0  -2    1.56    0.05
   5   0   2    1.62    0.04
  -6   0  -2    2.24    0.06
   6   0   2    2.20    0.06
  -7   0  -2    0.16    0.03
   7   0   2    0.17    0.03
  -6   1   2    2.57    0.07
   5  -1  -2    1.77    0.05
  -5   1   2    1.74    0.05
  -5   1   2    1.88    0.05
   4  -1  -2    0.98    0.03
  -4   1   2    0.94    0.04
  -4   1   2    0.94    0.03
   3  -1  -2    0.37    0.02
  -3   1   2    0.43    0.02
  -3   1   2    0.41    0.02
   2  -1  -2    5.28    0.08
  -2   1   2    5.30    0.08
  -2   1   2    5.33    0.08
   1  -1  -2  150.40    1.88
  -1   1   2  153.61    2.26
   0  -1  -2  148.98    2.19
   0   1   2  151.34    2.03
   0   1   2  147.38    2.21
  -1  -1  -2  103.52    1.40
   1   1   2  106.84    1.62
  -2  -1  -2  108.31    1.39
  -2  -1  -2  112.22    1.36
   2   1   2  109.10    1.40
  -3  -1  -2   39.59    0.49
   3   1   2   39.60    0.50
  -4  -1  -2   13.25    0.19
   4   1   2   13.33    0.17
   4   1   2   13.20    0.18
  -5  -1  -2    2.34    0.06
   5   1   2    2.32    0.05
  -6  -1  -2    0.10    0.02
   6   1   2    0.08    0.02
  -7  -1  -2   -0.01    0.02
   7   1   2    0.00    0.02
   5  -2  -2    5.11    0.09
  -5   2   2    4.88    0.09
  -5   2   2    4.94    0.10
   4  -2  -2    0.87    0.03
  -4   2   2    0.90    0.04
  -4   2   2    0.85    0.03
   3  -2  -2   37.52    0.47
  -3   2   2   38.16    0.49
  -3   2   2   37.46    0.47
   2  -2  -2   13.24    0.17
  -2   2   2   13.25    0.17
  -2   2   2   13.21    0.18
   1  -2  -2    1.77    0.03
  -1   2   2    1.71    0.03
   0  -2  -2   34.45    0.44
   0   2   2   34.11    0.44
   0   2   2   34.74    0.44
  -1  -2  -2  211.48    2.99
   1   2   2  207.49    2.98
   1   2   2  211.35    2.88
  -2  -2  -2   91.03    1.11
  -2  -2  -2   87.72    1.12
   2   2   2   87.28    1.13
  -3  -2  -2   20.99    0.26
  -3  -2  -2   20.67    0.27
   3   2   2   20.61    0.27
  -4  -2  -2    2.72    0.06
  -4  -2  -2    2.69    0.05
   4   2   2    2.71    0.05
  -5  -2  -2    0.93    0.04
   5   2   2    0.93    0.03
  -6  -2  -2    1.65    0.05
   6   2   2    1.66    0.05
  -7  -2  -2    0.50    0.04
   6  -3  -2    3.26    0.08
  -6   3   2    3.17    0.08
   5  -3  -2    0.19    0.02
  -5   3   2    0.30    0.03
  -5   3   2    0.20    0.02
   4  -3  -2    1.19    0.03
  -4   3   2    1.16    0.04
  -4   3   2    1.22    0.04
   3  -3  -2    0.41    0.02
  -3   3   2    0.47    0.02
  -3   3   2    0.41    0.02
   2  -3  -2    2.59    0.04
  -2   3   2    2.64    0.05
  -2   3   2    2.59    0.05
   1  -3  -2    6.54    0.09
  -1   3   2    6.58    0.09
  -1   3   2    6.75    0.09
   0  -3  -2   29.50    0.39
   0   3   2   30.37    0.39
   0   3   2   29.97    0.39
  -1  -3  -2  129.33    2.13
   1   3   2  130.56    1.73
   1   3   2  128.36    1.59
  -2  -3  -2    4.06    0.06
   2   3   2    3.94    0.06
   2   3   2    3.87    0.06
  -3  -3  -2    6.98    0.10
  -3  -3  -2    6.82    0.10
   3   3   2    6.79    0.10
  -4  -3  -2    0.44    0.02
  -4  -3  -2    0.44    0.02
   4   3   2    0.48    0.02
  -5  -3  -2    0.57    0.03
   5   3   2    0.61    0.03
  -6  -3  -2    0.18    0.02
   6  -4  -2    4.64    0.10
  -6   4   2    4.88    0.10
   5  -4  -2    4.62    0.08
  -5   4   2    4.63    0.10
  -5   4   2    4.66    0.09
   4  -4  -2    0.42    0.02
  -4   4   2    0.42    0.03
  -4   4   2    0.42    0.03
   3  -4  -2    3.54    0.06
  -3   4   2    3.56    0.07
  -3   4   2    3.56    0.07
   2  -4  -2   20.04    0.26
  -2   4   2   20.12    0.27
  -2   4   2   20.06    0.26
   1  -4  -2   15.39    0.20
  -1   4   2   15.24    0.20
  -1   4   2   15.30    0.20
   0  -4  -2   59.80    0.76
   0   4   2   59.47    0.77
   0   4   2   59.37    0.76
  -1  -4  -2   87.64    1.12
   1   4   2   88.09    1.10
  -2  -4  -2  151.46    1.88
   2   4   2  148.00    1.84
   2   4   2  148.91    2.10
  -3  -4  -2    2.20    0.04
   3   4   2    2.14    0.04
   3   4   2    2.24    0.04
  -4  -4  -2   -0.01    0.01
   4   4   2    0.00    0.01
   4   4   2    0.00    0.01
   5   4   2   -0.02    0.01
   6   4   2    4.79    0.09
  -6   5   2    0.05    0.02
   5  -5  -2    0.16    0.02
  -5   5   2    0.14    0.02
   4  -5  -2    0.01    0.01
  -4   5   2    0.01    0.02
  -4   5   2    0.05    0.01
   3  -5  -2    4.24    0.07
  -3   5   2    4.24    0.08
  -3   5   2    4.23    0.08
   2  -5  -2    4.25    0.07
  -2   5   2    4.19    0.07
  -2   5   2    4.07    0.07
   1  -5  -2    3.96    0.06
  -1   5   2    4.13    0.06
  -1   5   2    3.99    0.06
   0  -5  -2   19.37    0.24
   0   5   2   19.25    0.24
   0   5   2   19.39    0.24
  -1  -5  -2   52.95    1.22
   1   5   2   52.95    0.67
  -2  -5  -2   10.10    0.14
   2   5   2   10.02    0.13
   2   5   2    9.83    0.13
  -3  -5  -2    4.75    0.08
   3   5   2    4.77    0.07
   3   5   2    4.70    0.07
  -4  -5  -2    2.46    0.05
   4   5   2    2.46    0.05
  -5  -5  -2    5.50    0.09
   5   5   2    5.47    0.09
   6   5   2    1.38    0.04
   5  -6  -2    0.13    0.02
  -5   6   2    0.15    0.02
   4  -6  -2    0.08    0.02
   4  -6  -2    0.11    0.02
  -4   6   2    0.09    0.02
   3  -6  -2    0.22    0.02
  -3   6   2    0.22    0.02
   2  -6  -2    7.42    0.11
  -2   6   2    7.54    0.12
  -2   6   2    7.54    0.11
   1  -6  -2    1.30    0.03
  -1   6   2    1.33    0.03
  -1   6   2    1.31    0.03
   0  -6  -2    5.52    0.08
   0  -6  -2    5.63    0.08
   0   6   2    5.51    0.08
  -1  -6  -2  137.75    1.74
   1   6   2  136.41    1.70
  -2  -6  -2   12.23    0.16
   2   6   2   12.06    0.16
  -3  -6  -2    7.28    0.11
   3   6   2    7.41    0.10
  -4  -6  -2    3.39    0.07
   4   6   2    3.37    0.06
  -5  -6  -2   26.05    0.35
   5   6   2   26.47    0.34
   5  -7  -2    1.09    0.04
  -5   7   2    1.05    0.04
   4  -7  -2    0.47    0.02
   4  -7  -2    0.44    0.03
  -4   7   2    0.51    0.03
   3  -7  -2    1.27    0.04
   3  -7  -2    1.27    0.03
  -3   7   2    1.32    0.04
   2  -7  -2    2.30    0.05
   2  -7  -2    2.34    0.05
  -2   7   2    2.36    0.05
   1  -7  -2    1.12    0.03
   1  -7  -2    1.14    0.03
  -1   7   2    1.10    0.03
   0  -7  -2    6.13    0.08
   0  -7  -2    6.14    0.09
   0   7   2    6.09    0.09
  -1  -7  -2    0.85    0.03
   1   7   2    0.85    0.03
  -2  -7  -2    0.18    0.02
   2   7   2    0.18    0.02
  -3  -7  -2    0.36    0.02
   3   7   2    0.34    0.02
  -4  -7  -2    0.01    0.01
   4   7   2   -0.01    0.01
  -5  -7  -2    2.61    0.06
   5   7   2    2.62    0.05
   5  -8  -2    0.03    0.02
  -5   8   2    0.02    0.02
   4  -8  -2    0.89    0.03
   4  -8  -2    1.00    0.04
  -4   8   2    0.99    0.04
   3  -8  -2    2.51    0.05
   3  -8  -2    2.59    0.06
  -3   8   2    2.52    0.06
   2  -8  -2    0.70    0.03
   2  -8  -2    0.73    0.03
  -2   8   2    0.71    0.03
   1  -8  -2    0.54    0.02
   1  -8  -2    0.55    0.02
  -1   8   2    0.51    0.02
   0  -8  -2    7.42    0.10
   0  -8  -2    6.98    0.11
   0   8   2    7.21    0.11
  -1  -8  -2    6.07    0.09
   1   8   2    5.97    0.09
  -2  -8  -2    2.79    0.06
   2   8   2    2.75    0.05
  -3  -8  -2    0.64    0.03
   3   8   2    0.69    0.02
  -4  -8  -2    2.31    0.06
   4   8   2    2.36    0.05
  -5  -8  -2    0.03    0.02
   5   8   2    0.01    0.01
   4  -9  -2    0.71    0.04
   4  -9  -2    0.76    0.03
  -4   9   2    0.69    0.04
   3  -9  -2    2.20    0.05
   3  -9  -2    2.11    0.05
  -3   9   2    2.15    0.06
   2  -9  -2    4.55    0.08
   2  -9  -2    4.55    0.08
  -2   9   2    4.54    0.08
   1  -9  -2    1.71    0.04
   1  -9  -2    1.71    0.04
  -1   9   2    1.73    0.04
   0  -9  -2    0.03    0.01
   0   9   2    0.03    0.01
  -1  -9  -2    1.40    0.04
   1   9   2    1.45    0.04
  -2  -9  -2    0.80    0.03
   2   9   2    0.88    0.03
  -3  -9  -2   -0.01    0.01
   3   9   2    0.00    0.01
  -4  -9  -2    2.68    0.06
   4   9   2    2.62    0.05
  -5  -9  -2    0.82    0.04
   4 -10  -2    1.28    0.05
  -4  10   2    1.25    0.05
   3 -10  -2    0.56    0.03
   3 -10  -2    0.57    0.03
  -3  10   2    0.59    0.03
   2 -10  -2    0.03    0.01
   2 -10  -2    0.02    0.01
  -2  10   2    0.04    0.02
   1 -10  -2    6.03    0.10
  -1  10   2    5.99    0.10
   0 -10  -2   23.38    0.31
   0  10   2   23.63    0.31
  -1 -10  -2   10.82    0.16
   1  10   2   11.19    0.16
  -2 -10  -2    0.16    0.02
   2  10   2    0.16    0.02
  -3 -10  -2    0.10    0.02
   3  10   2    0.10    0.02
  -4 -10  -2    3.22    0.07
   4  10   2    3.29    0.06
  -5 -10  -2    2.08    0.06
   4 -11  -2    0.40    0.03
   3 -11  -2    1.23    0.04
  -3  11   2    1.12    0.04
   2 -11  -2    0.00    0.01
  -2  11   2    0.04    0.02
   1 -11  -2    0.84    0.03
  -1  11   2    0.86    0.04
   0 -11  -2    1.09    0.04
   0  11   2    1.10    0.03
  -1 -11  -2    1.94    0.05
   1  11   2    1.90    0.05
  -2 -11  -2    0.07    0.02
   2  11   2    0.06    0.02
  -3 -11  -2    6.43    0.11
   3  11   2    6.51    0.10
  -4 -11  -2    0.68    0.04
  -5 -11  -2    2.00    0.06
   3 -12  -2    0.10    0.02
  -3  12   2    0.11    0.02
   2 -12  -2    0.91    0.03
  -2  12   2    0.90    0.04
   1 -12  -2    6.49    0.11
  -1  12   2    6.82    0.11
   0 -12  -2    0.98    0.04
   0  12   2    0.92    0.04
  -1 -12  -2    0.59    0.03
   1  12   2    0.61    0.03
  -2 -12  -2    2.45    0.06
   2  12   2    2.49    0.06
  -3 -12  -2   -0.01    0.02
   3  12   2    0.01    0.02
  -4 -12  -2    0.84    0.04
  -5 -12  -2    0.02    0.02
   2 -13  -2    0.39    0.03
  -2  13   2    0.44    0.03
   1 -13  -2    5.17    0.10
  -1  13   2    5.18    0.10
   0 -13  -2    0.54    0.03
   0  13   2    0.54    0.03
  -1 -13  -2    0.11    0.02
   1  13   2    0.07    0.02
  -2 -13  -2    1.93    0.06
   2  13   2    1.96    0.05
  -3 -13  -2    0.26    0.03
  -4 -13  -2    1.67    0.06
   2 -14  -2    1.87    0.05
   1 -14  -2    0.37    0.03
  -1  14   2    0.42    0.03
   0 -14  -2    2.51    0.07
   0  14   2    2.54    0.06
  -1 -14  -2    2.15    0.06
   1  14   2    2.20    0.06
  -2 -14  -2    0.83    0.04
   2  14   2    0.88    0.04
  -3 -14  -2    0.44    0.04
   0  15   2    0.03    0.02
  -1 -15  -2    0.50    0.03
   1  15   2    0.49    0.03
  -2 -13   3    0.00    0.02
  -1 -13   3    0.00    0.02
   0 -13   3    0.38    0.03
  -3 -12   3    0.02    0.02
  -2 -12   3    0.04    0.02
  -1 -12   3   19.06    0.27
   0 -12   3    0.28    0.03
   1 -12   3    0.82    0.04
  -2  12  -3    0.12    0.02
  -4 -11   3    0.39    0.04
  -3 -11   3    0.85    0.04
  -2 -11   3    1.85    0.06
  -1 -11   3    0.37    0.03
   0 -11   3    0.32    0.03
  -1  11  -3    1.39    0.04
   1 -11   3    1.37    0.04
  -2  11  -3    0.03    0.02
  -3  11  -3    0.43    0.03
  -4 -10   3    0.13    0.03
  -3 -10   3    0.96    0.04
  -2 -10   3   29.95    0.40
  -1 -10   3    1.44    0.05
   0 -10   3    2.29    0.06
  -1  10  -3    0.00    0.01
   1 -10   3    0.00    0.01
  -2  10  -3    1.76    0.05
   2 -10   3    1.79    0.04
  -3  10  -3    0.54    0.04
   3 -10   3    0.54    0.03
   4 -10   3    1.49    0.05
  -5  -9   3    1.47    0.06
  -4  -9   3    0.06    0.02
  -3  -9   3   -0.01    0.02
  -2  -9   3    0.06    0.02
  -1  -9   3    3.70    0.07
   0   9  -3    0.69    0.03
   0  -9   3    0.68    0.03
  -1   9  -3    1.56    0.04
   1  -9   3    1.57    0.04
   1  -9   3    1.56    0.04
  -2   9  -3    0.50    0.03
   2  -9   3    0.41    0.02
  -3   9  -3    0.04    0.02
   3  -9   3    0.02    0.02
  -4   9  -3    0.81    0.04
   4  -9   3    0.86    0.04
  -5  -8   3    0.52    0.04
  -4  -8   3    1.79    0.06
  -3  -8   3    2.09    0.06
  -2  -8   3    7.21    0.12
  -1  -8   3    0.14    0.02
   0   8  -3    0.11    0.01
   0  -8   3    0.11    0.02
   0  -8   3    0.12    0.01
  -1   8  -3    3.12    0.06
   1  -8   3    3.18    0.06
   1  -8   3    3.15    0.06
  -2   8  -3    0.07    0.02
   2  -8   3    0.07    0.01
   2  -8   3    0.07    0.01
  -3   8  -3    1.12    0.04
   3  -8   3    1.06    0.03
  -4   8  -3    2.35    0.07
   4  -8   3    2.27    0.06
  -6  -7   3    2.54    0.08
  -5  -7   3    0.07    0.02
  -4  -7   3    0.11    0.02
  -3  -7   3    9.12    0.15
  -2  -7   3    2.92    0.06
   1   7  -3    0.08    0.01
  -1  -7   3    0.07    0.02
  -1  -7   3    0.06    0.01
   0   7  -3    0.14    0.01
   0  -7   3    0.10    0.02
   0  -7   3    0.12    0.01
  -1   7  -3    7.88    0.12
   1  -7   3    7.85    0.12
   1  -7   3    7.99    0.11
  -2   7  -3    0.00    0.01
   2  -7   3   -0.01    0.01
   2  -7   3    0.00    0.01
  -3   7  -3    3.84    0.08
   3  -7   3    3.56    0.07
  -4   7  -3    0.06    0.02
   4  -7   3    0.01    0.02
  -5   7  -3    1.95    0.06
   5  -7   3    2.04    0.06
  -6  -6   3    6.26    0.12
  -5  -6   3    0.03    0.02
  -4  -6   3    8.91    0.14
  -3  -6   3    0.09    0.02
  -2  -6   3    6.07    0.09
  -2  -6   3    5.83    0.10
   1   6  -3    0.14    0.01
  -1  -6   3    0.13    0.02
  -1  -6   3    0.15    0.01
   0   6  -3    5.87    0.09
   0  -6   3    5.93    0.09
   0  -6   3    5.99    0.09
  -1   6  -3    0.83    0.03
   1  -6   3    0.84    0.03
   1  -6   3    0.86    0.03
  -2   6  -3    0.28    0.02
   2  -6   3    0.30    0.02
   2  -6   3    0.31    0.02
  -3   6  -3   12.88    0.19
   3  -6   3   12.55    0.18
  -4   6  -3    0.03    0.02
   4  -6   3    0.02    0.02
  -5   6  -3    0.75    0.04
   5  -6   3    0.66    0.03
  -6  -5   3    0.10    0.03
  -5  -5   3    2.53    0.07
  -4  -5   3    4.44    0.08
  -4  -5   3    4.54    0.09
  -3  -5   3   16.16    0.23
  -3  -5   3   16.37    0.22
  -2  -5   3    2.33    0.05
  -2  -5   3    2.33    0.04
   1   5  -3    2.55    0.04
  -1  -5   3    2.58    0.05
  -1  -5   3    2.58    0.04
   0   5  -3   14.22    0.18
   0  -5   3   14.32    0.19
   0  -5   3   14.18    0.19
  -1   5  -3    2.61    0.05
   1  -5   3    2.71    0.05
   1  -5   3    2.68    0.05
  -2   5  -3   14.54    0.20
   2  -5   3   14.85    0.19
   2  -5   3   14.50    0.20
  -3   5  -3    5.68    0.10
   3  -5   3    5.52    0.09
  -4   5  -3    1.26    0.04
   4  -5   3    1.23    0.04
  -5   5  -3    1.66    0.06
   5  -5   3    1.65    0.05
   6   4  -3    1.50    0.05
  -5  -4   3    2.86    0.07
  -5  -4   3    2.90    0.07
  -4  -4   3    1.01    0.04
  -4  -4   3    0.96    0.03
  -3  -4   3   19.19    0.25
  -3  -4   3   18.73    0.26
   2   4  -3    1.02    0.02
  -2  -4   3    1.00    0.03
  -2  -4   3    1.01    0.03
   1   4  -3    0.32    0.01
  -1  -4   3    0.27    0.02
  -1  -4   3    0.28    0.01
   0   4  -3   10.55    0.14
   0  -4   3   10.36    0.14
   0  -4   3   10.66    0.14
  -1   4  -3   48.47    0.61
   1  -4   3   48.00    0.61
   1  -4   3   48.92    0.63
  -2   4  -3   20.92    0.28
   2  -4   3   21.66    0.27
   2  -4   3   20.97    0.28
  -3   4  -3    8.15    0.13
   3  -4   3    8.45    0.12
  -4   4  -3    9.66    0.15
   4  -4   3    9.26    0.14
  -5   4  -3    0.51    0.03
   5  -4   3    0.43    0.03
  -6   4  -3    0.05    0.02
   6  -4   3    0.01    0.02
   6   3  -3    0.62    0.04
  -5  -3   3    1.07    0.04
  -5  -3   3    0.99    0.04
  -4  -3   3    4.01    0.08
  -4  -3   3    4.02    0.08
  -3  -3   3   10.19    0.15
  -3  -3   3    9.81    0.14
   2   3  -3    4.16    0.05
  -2  -3   3    4.08    0.07
  -2  -3   3    4.08    0.07
   1   3  -3   13.29    0.16
  -1  -3   3   12.65    0.17
  -1  -3   3   12.84    0.17
   0   3  -3    3.53    0.05
   0  -3   3    3.47    0.05
   0  -3   3    3.57    0.05
  -1   3  -3   21.33    0.27
   1  -3   3   21.97    0.28
   1  -3   3   21.74    0.27
  -2   3  -3    1.78    0.04
   2  -3   3    1.76    0.04
   2  -3   3    1.83    0.03
  -3   3  -3    0.15    0.02
   3  -3   3    0.20    0.02
  -4   3  -3   18.27    0.25
   4  -3   3   18.17    0.25
  -5   3  -3    3.15    0.08
   5  -3   3    3.26    0.07
  -6   3  -3    0.00    0.02
   6  -3   3    0.02    0.02
   6   2  -3    1.10    0.04
  -6  -2   3    1.21    0.05
   5   2  -3    0.24    0.02
  -5  -2   3    0.27    0.03
  -4  -2   3   16.84    0.23
  -4  -2   3   16.52    0.23
  -3  -2   3    3.80    0.07
  -3  -2   3    3.78    0.06
  -3  -2   3    3.88    0.07
   2   2  -3   51.45    0.63
  -2  -2   3   50.54    0.67
  -2  -2   3   50.99    0.63
  -1  -2   3   45.66    0.58
  -1  -2   3   44.00    0.59
   0   2  -3    0.13    0.01
   0  -2   3    0.15    0.01
  -1   2  -3    0.18    0.01
   1  -2   3    0.19    0.01
   1  -2   3    0.17    0.01
  -2   2  -3    4.23    0.07
   2  -2   3    4.32    0.07
   2  -2   3    4.47    0.06
  -3   2  -3    0.52    0.02
   3  -2   3    0.57    0.01
   3  -2   3    0.56    0.02
  -4   2  -3    1.78    0.05
   4  -2   3    1.79    0.05
  -5   2  -3    4.11    0.09
   5  -2   3    4.03    0.08
  -6   2  -3    1.01    0.04
   6  -2   3    1.00    0.04
   6   1  -3    0.06    0.02
  -6  -1   3    0.12    0.02
   5   1  -3    0.56    0.03
  -5  -1   3    0.56    0.03
   4   1  -3    6.95    0.11
  -4  -1   3    6.93    0.11
  -3  -1   3    0.09    0.01
  -3  -1   3    0.09    0.01
  -3  -1   3    0.08    0.01
  -2  -1   3   20.57    0.27
  -2  -1   3   21.11    0.26
  -2  -1   3   20.50    0.27
  -1  -1   3    6.00    0.08
  -1  -1   3    6.03    0.09
   0   1  -3    0.17    0.01
   0  -1   3    0.19    0.01
   0  -1   3    0.19    0.01
  -1   1  -3    6.17    0.09
   1  -1   3    6.18    0.08
  -2   1  -3    0.13    0.01
   2  -1   3    0.16    0.01
   2  -1   3    0.17    0.01
  -3   1  -3   13.33    0.18
   3  -1   3   13.42    0.18
   3  -1   3   13.22    0.17
  -4   1  -3    0.29    0.02
   4  -1   3    0.33    0.02
  -5   1  -3    2.09    0.06
   5  -1   3    2.14    0.05
  -6   1  -3    2.22    0.06
   6  -1   3    2.32    0.06
   6   0  -3    0.31    0.03
  -6   0   3    0.42    0.03
   5   0  -3    4.82    0.09
  -5   0   3    4.63    0.09
   4   0  -3    0.20    0.02
  -4   0   3    0.17    0.02
  -4   0   3    0.19    0.02
   3   0  -3    2.75    0.05
  -3   0   3    2.86    0.05
  -3   0   3    2.80    0.06
  -2   0   3   49.61    0.67
  -2   0   3   50.31    0.63
  -1   0   3  496.02    6.24
  -1   0   3  485.15    6.92
  -1   0   3  497.19    7.07
   0   0   3   81.56    1.00
   0   0   3   79.54    1.14
   0   0   3   80.02    1.03
  -1   0  -3   22.32    0.28
   1   0   3   22.32    0.28
  -2   0  -3   35.57    0.44
   2   0   3   34.96    0.43
   2   0   3   35.40    0.45
  -3   0  -3    1.24    0.03
   3   0   3    1.15    0.02
   3   0   3    1.17    0.03
  -4   0  -3    5.91    0.10
   4   0   3    5.97    0.10
  -5   0  -3    1.20    0.04
   5   0   3    1.26    0.04
  -6   0  -3    0.30    0.03
   6   0   3    0.30    0.03
   7   0   3    0.07    0.02
   6  -1  -3    0.00    0.02
  -6   1   3   -0.01    0.02
   5  -1  -3    0.24    0.02
  -5   1   3    0.22    0.02
   4  -1  -3    1.37    0.04
  -4   1   3    1.42    0.04
  -4   1   3    1.42    0.04
   3  -1  -3    6.69    0.10
  -3   1   3    6.70    0.10
  -3   1   3    6.77    0.11
   2  -1  -3    6.66    0.10
  -2   1   3    6.74    0.10
  -2   1   3    6.65    0.09
   1  -1  -3   19.15    0.25
  -1   1   3   19.66    0.25
  -1   1   3   20.01    0.24
   0  -1  -3   26.86    0.35
   0   1   3   27.06    0.34
  -1  -1  -3    1.77    0.03
   1   1   3    1.81    0.03
  -2  -1  -3   27.09    0.34
  -2  -1  -3   26.72    0.34
   2   1   3   27.26    0.35
  -3  -1  -3   28.54    0.36
   3   1   3   28.23    0.36
   3   1   3   28.34    0.35
  -4  -1  -3   10.29    0.15
   4   1   3   10.49    0.15
  -5  -1  -3    0.16    0.02
   5   1   3    0.17    0.02
  -6  -1  -3    0.00    0.01
   6   1   3    0.01    0.02
  -7  -1  -3    0.77    0.04
   7   1   3    0.75    0.04
  -6   2   3    0.80    0.04
   5  -2  -3    0.01    0.01
  -5   2   3    0.00    0.02
  -5   2   3    0.01    0.01
   4  -2  -3    1.36    0.04
  -4   2   3    1.44    0.04
  -4   2   3    1.37    0.04
   3  -2  -3    1.56    0.04
  -3   2   3    1.56    0.04
   2  -2  -3   39.26    0.49
  -2   2   3   39.11    0.49
  -2   2   3   38.28    0.49
   1  -2  -3    0.02    0.01
  -1   2   3    0.02    0.01
  -1   2   3    0.01    0.01
   0  -2  -3    6.84    0.09
   0   2   3    6.92    0.09
   0   2   3    6.82    0.09
  -1  -2  -3    0.32    0.01
   1   2   3    0.34    0.01
   1   2   3    0.33    0.01
  -2  -2  -3    0.21    0.01
  -2  -2  -3    0.20    0.01
   2   2   3    0.22    0.01
  -3  -2  -3    8.70    0.11
  -3  -2  -3    8.53    0.12
   3   2   3    8.42    0.12
  -4  -2  -3    0.27    0.02
   4   2   3    0.30    0.02
  -5  -2  -3    0.18    0.02
   5   2   3    0.16    0.02
  -6  -2  -3    1.36    0.05
   6   2   3    1.33    0.04
  -7  -2  -3    0.52    0.04
  -6   3   3    9.04    0.16
   5  -3  -3    1.99    0.05
  -5   3   3    1.96    0.06
  -5   3   3    2.10    0.06
   4  -3  -3    6.88    0.11
  -4   3   3    6.77    0.11
  -4   3   3    6.85    0.12
   3  -3  -3    0.06    0.01
  -3   3   3    0.05    0.01
  -3   3   3    0.08    0.01
   2  -3  -3    4.09    0.06
  -2   3   3    4.13    0.07
  -2   3   3    4.24    0.07
   1  -3  -3    0.04    0.01
  -1   3   3    0.03    0.01
  -1   3   3    0.02    0.01
   0  -3  -3    5.75    0.08
   0   3   3    5.74    0.08
   0   3   3    5.79    0.08
  -1  -3  -3    2.14    0.03
   1   3   3    2.10    0.03
   1   3   3    2.19    0.03
  -2  -3  -3   47.86    0.61
   2   3   3   48.01    0.83
   2   3   3   47.48    0.59
  -3  -3  -3   14.18    0.18
  -3  -3  -3   14.00    0.19
   3   3   3   13.86    0.18
  -4  -3  -3    0.03    0.01
  -4  -3  -3    0.05    0.01
   4   3   3    0.02    0.01
  -5  -3  -3    0.04    0.01
   5   3   3    0.07    0.01
  -6  -3  -3    0.65    0.03
  -7  -3  -3   -0.01    0.02
   5  -4  -3    1.21    0.04
  -5   4   3    1.23    0.04
  -5   4   3    1.22    0.05
   4  -4  -3    0.29    0.02
  -4   4   3    0.32    0.03
  -4   4   3    0.32    0.02
   3  -4  -3    0.48    0.02
  -3   4   3    0.46    0.03
  -3   4   3    0.46    0.02
   2  -4  -3   10.36    0.14
  -2   4   3   10.43    0.14
  -2   4   3   10.37    0.15
   1  -4  -3    0.01    0.01
  -1   4   3    0.00    0.01
  -1   4   3    0.01    0.01
   0  -4  -3    0.57    0.02
   0   4   3    0.53    0.02
   0   4   3    0.53    0.02
  -1  -4  -3    2.94    0.04
   1   4   3    2.89    0.04
  -2  -4  -3    2.86    0.05
   2   4   3    2.76    0.05
   2   4   3    2.81    0.04
  -3  -4  -3   17.54    0.22
   3   4   3   17.11    0.22
   3   4   3   17.55    0.22
  -4  -4  -3    5.17    0.08
   4   4   3    4.87    0.08
   4   4   3    4.80    0.08
   5   4   3    0.04    0.01
   7   4   3    0.25    0.03
  -6   5   3    0.51    0.04
   5  -5  -3    7.74    0.12
  -5   5   3    7.88    0.14
   4  -5  -3    6.65    0.11
  -4   5   3    6.91    0.12
   3  -5  -3    2.09    0.04
  -3   5   3    2.12    0.05
  -3   5   3    2.14    0.05
   2  -5  -3    4.93    0.08
  -2   5   3    4.96    0.08
  -2   5   3    4.83    0.08
   1  -5  -3    1.26    0.03
  -1   5   3    1.28    0.03
  -1   5   3    1.28    0.03
   0  -5  -3    0.00    0.01
   0   5   3    0.00    0.01
   0   5   3    0.00    0.01
  -1  -5  -3    9.39    0.12
   1   5   3    9.28    0.12
   1   5   3    9.42    0.12
  -2  -5  -3    0.03    0.01
   2   5   3    0.02    0.01
   2   5   3    0.02    0.00
  -3  -5  -3    5.62    0.08
   3   5   3    5.51    0.08
   3   5   3    5.57    0.08
  -4  -5  -3    7.57    0.11
   4   5   3    7.54    0.11
   5   5   3    3.11    0.06
   6   5   3    0.03    0.02
   7   5   3    0.01    0.02
   5  -6  -3    0.87    0.03
   5  -6  -3    0.88    0.04
  -5   6   3    0.86    0.04
   4  -6  -3    1.95    0.05
  -4   6   3    1.92    0.05
  -4   6   3    1.97    0.06
   3  -6  -3    0.06    0.01
  -3   6   3    0.02    0.01
  -3   6   3    0.05    0.01
   2  -6  -3    0.39    0.02
  -2   6   3    0.36    0.02
  -2   6   3    0.37    0.02
   1  -6  -3    3.69    0.06
  -1   6   3    3.72    0.06
  -1   6   3    3.67    0.06
   0  -6  -3    9.06    0.12
   0   6   3    9.03    0.12
   0   6   3    9.15    0.12
  -1  -6  -3    7.03    0.10
   1   6   3    7.15    0.10
  -2  -6  -3    0.31    0.02
   2   6   3    0.31    0.02
  -3  -6  -3    0.05    0.01
   3   6   3    0.05    0.01
  -4  -6  -3    0.32    0.02
   4   6   3    0.33    0.02
   5   6   3   26.02    0.34
   6   6   3    0.38    0.03
   5  -7  -3    0.54    0.03
   4  -7  -3    0.04    0.01
  -4   7   3    0.05    0.02
   3  -7  -3    0.26    0.02
  -3   7   3    0.28    0.03
  -3   7   3    0.26    0.02
   2  -7  -3    0.65    0.03
  -2   7   3    0.67    0.03
  -2   7   3    0.66    0.03
   1  -7  -3    2.42    0.05
  -1   7   3    2.33    0.05
  -1   7   3    2.44    0.05
   0  -7  -3    0.45    0.02
   0   7   3    0.49    0.02
  -1  -7  -3   29.87    0.38
   1   7   3   30.29    0.37
  -2  -7  -3   -0.01    0.01
   2   7   3    0.00    0.01
  -3  -7  -3    1.75    0.04
   3   7   3    1.72    0.04
  -4  -7  -3    5.87    0.10
   4   7   3    5.92    0.09
  -5  -7  -3    5.50    0.10
   5   7   3    5.44    0.09
   6   7   3    0.38    0.03
   5  -8  -3    0.97    0.05
  -5   8   3    0.94    0.05
   4  -8  -3    1.01    0.04
   4  -8  -3    0.98    0.03
  -4   8   3    0.94    0.04
   3  -8  -3    0.02    0.01
   3  -8  -3    0.01    0.02
  -3   8   3    0.02    0.01
   2  -8  -3    5.63    0.09
   2  -8  -3    5.65    0.09
  -2   8   3    5.63    0.09
   1  -8  -3    2.41    0.05
   1  -8  -3    2.37    0.05
  -1   8   3    2.36    0.05
   0  -8  -3    4.94    0.07
   0  -8  -3    4.86    0.08
   0   8   3    4.84    0.08
  -1  -8  -3    2.82    0.05
   1   8   3    2.75    0.05
  -2  -8  -3    0.16    0.02
   2   8   3    0.15    0.01
  -3  -8  -3    1.09    0.03
   3   8   3    1.03    0.03
  -4  -8  -3    4.81    0.09
   4   8   3    4.87    0.08
  -5  -8  -3    0.43    0.03
   5   8   3    0.45    0.03
   4  -9  -3    0.06    0.02
   4  -9  -3    0.07    0.02
  -4   9   3    0.05    0.02
   3  -9  -3    1.59    0.04
   3  -9  -3    1.51    0.04
  -3   9   3    1.44    0.05
   2  -9  -3    0.02    0.01
   2  -9  -3    0.03    0.01
  -2   9   3    0.03    0.01
   1  -9  -3    0.38    0.02
   1  -9  -3    0.39    0.02
  -1   9   3    0.37    0.02
   0  -9  -3   68.19    0.85
   0   9   3   69.90    0.88
  -1  -9  -3    7.01    0.11
   1   9   3    6.98    0.10
  -2  -9  -3    2.24    0.05
   2   9   3    2.24    0.05
  -3  -9  -3    0.07    0.02
   3   9   3    0.07    0.01
  -4  -9  -3    0.45    0.03
   4   9   3    0.41    0.02
  -5  -9  -3    0.03    0.02
   5   9   3    0.01    0.01
   4 -10  -3    0.00    0.02
   4 -10  -3    0.01    0.02
  -4  10   3    0.05    0.02
   3 -10  -3    1.30    0.04
   3 -10  -3    1.27    0.04
  -3  10   3    1.24    0.05
   2 -10  -3    0.36    0.02
   2 -10  -3    0.37    0.02
  -2  10   3    0.34    0.03
   1 -10  -3    9.33    0.14
  -1  10   3    9.15    0.14
   0 -10  -3    9.06    0.13
   0  10   3    9.16    0.13
  -1 -10  -3    0.06    0.01
   1  10   3    0.03    0.02
  -2 -10  -3    0.01    0.01
   2  10   3   -0.02    0.01
  -3 -10  -3    1.07    0.04
   3  10   3    1.06    0.03
  -4 -10  -3    2.85    0.07
   4  10   3    2.98    0.06
  -5 -10  -3    0.10    0.02
   5  10   3    0.09    0.02
   4 -11  -3    0.67    0.04
   3 -11  -3    0.03    0.02
  -3  11   3    0.09    0.02
   2 -11  -3    0.58    0.03
  -2  11   3    0.66    0.03
   1 -11  -3    6.52    0.11
  -1  11   3    6.65    0.11
   0 -11  -3    0.92    0.03
   0  11   3    0.94    0.03
  -1 -11  -3   13.95    0.20
   1  11   3   14.19    0.19
  -2 -11  -3    0.03    0.01
   2  11   3   -0.01    0.01
  -3 -11  -3    0.01    0.02
   3  11   3    0.00    0.01
  -4 -11  -3    0.41    0.03
   4  11   3    0.36    0.03
  -5 -11  -3    0.08    0.02
   3 -12  -3    0.15    0.02
  -3  12   3    0.15    0.03
   2 -12  -3    0.16    0.02
  -2  12   3    0.18    0.02
   1 -12  -3    0.02    0.02
  -1  12   3    0.00    0.01
   0 -12  -3    0.67    0.03
   0  12   3    0.71    0.03
  -1 -12  -3    0.60    0.03
   1  12   3    0.59    0.03
  -2 -12  -3    7.74    0.13
   2  12   3    7.54    0.12
  -3 -12  -3    0.22    0.02
   3  12   3    0.17    0.02
  -4 -12  -3    0.15    0.02
   4  12   3    0.14    0.02
  -5 -12  -3    0.13    0.03
   3 -13  -3   -0.01    0.02
   2 -13  -3    0.12    0.02
  -2  13   3    0.13    0.02
   1 -13  -3    2.49    0.06
  -1  13   3    2.50    0.06
   0 -13  -3    0.44    0.03
   0  13   3    0.48    0.03
  -1 -13  -3    1.84    0.05
   1  13   3    1.90    0.05
  -2 -13  -3    0.02    0.02
   2  13   3    0.02    0.02
  -3 -13  -3    0.06    0.02
   3  13   3    0.05    0.02
  -4 -13  -3    0.13    0.03
  -5 -13  -3    0.30    0.03
   2 -14  -3    0.54    0.03
   1 -14  -3    0.03    0.02
  -1  14   3    0.02    0.02
   0 -14  -3    0.65    0.04
   0  14   3    0.67    0.04
  -1 -14  -3    3.50    0.08
   1  14   3    3.60    0.07
  -2 -14  -3    0.04    0.02
   2  14   3    0.06    0.02
  -3 -14  -3    0.27    0.03
   3  14   3    0.22    0.02
  -4 -14  -3    0.07    0.02
   0 -15  -3    2.44    0.07
   0  15   3    2.48    0.06
  -1 -15  -3    0.10    0.02
   1  15   3    0.07    0.02
  -2 -15  -3    0.09    0.02
   2  15   3    0.10    0.02
  -1 -13   4    0.24    0.03
   0 -13   4    0.15    0.03
  -2 -12   4    0.11    0.03
  -1 -12   4    0.02    0.02
   0 -12   4    5.64    0.11
  -3 -11   4    0.31    0.03
  -2 -11   4    0.07    0.03
  -1 -11   4    6.30    0.12
   0 -11   4    0.51    0.03
  -2  11  -4    0.23    0.03
  -3  11  -4    0.86    0.04
  -4 -10   4    1.23    0.05
  -3 -10   4    4.63    0.10
  -2 -10   4   20.14    0.29
  -1 -10   4    7.91    0.13
   0 -10   4    0.01    0.02
   1 -10   4    0.03    0.02
  -2  10  -4    2.20    0.06
   2 -10   4    2.26    0.05
  -3  10  -4    0.09    0.02
   3 -10   4    0.05    0.02
  -4  -9   4    0.49    0.04
  -3  -9   4    4.79    0.10
  -2  -9   4    7.65    0.13
  -1  -9   4    0.00    0.02
   0  -9   4    0.00    0.02
  -1   9  -4    5.06    0.09
   1  -9   4    5.21    0.09
   1  -9   4    5.07    0.09
  -2   9  -4    4.36    0.09
   2  -9   4    4.24    0.08
  -3   9  -4    0.42    0.03
   3  -9   4    0.38    0.03
  -4   9  -4    0.27    0.03
   4  -9   4    0.15    0.02
  -5  -8   4    2.96    0.08
  -4  -8   4    0.55    0.04
  -3  -8   4   12.89    0.20
  -2  -8   4    7.08    0.12
  -1  -8   4    2.55    0.06
   0  -8   4    0.05    0.01
   0  -8   4    0.00    0.01
  -1   8  -4    5.93    0.10
   1  -8   4    6.01    0.09
   1  -8   4    6.03    0.10
  -2   8  -4    0.09    0.02
   2  -8   4    0.09    0.02
  -3   8  -4    1.49    0.05
   3  -8   4    1.39    0.04
   4  -8   4   10.24    0.16
  -5  -7   4    0.08    0.03
  -4  -7   4    1.05    0.04
  -3  -7   4    9.94    0.16
  -2  -7   4    0.05    0.02
  -1  -7   4    1.35    0.03
  -1  -7   4    1.42    0.04
   0   7  -4    4.70    0.07
   0  -7   4    4.70    0.08
   0  -7   4    4.60    0.07
  -1   7  -4    1.27    0.04
   1  -7   4    1.25    0.03
   1  -7   4    1.26    0.03
  -2   7  -4    0.01    0.01
   2  -7   4    0.02    0.01
  -3   7  -4    0.89    0.04
   3  -7   4    0.81    0.03
  -4   7  -4   -0.01    0.01
   4  -7   4    0.01    0.01
  -5   7  -4    0.28    0.03
   5  -7   4    0.30    0.03
  -5  -6   4    3.65    0.09
  -4  -6   4    2.41    0.06
  -3  -6   4   12.39    0.19
  -3  -6   4   13.04    0.18
  -2  -6   4    0.86    0.04
  -2  -6   4    0.93    0.03
  -1  -6   4    2.85    0.06
  -1  -6   4    2.78    0.05
   0   6  -4   18.36    0.23
   0  -6   4   17.99    0.24
   0  -6   4   17.88    0.24
  -1   6  -4   11.50    0.16
   1  -6   4   11.77    0.16
   1  -6   4   11.70    0.16
  -2   6  -4   27.43    0.36
   2  -6   4   27.53    0.36
  -3   6  -4    2.48    0.06
   3  -6   4    2.35    0.05
  -4   6  -4    0.10    0.02
   4  -6   4    0.12    0.02
  -5   6  -4    0.55    0.04
   5  -6   4    0.62    0.03
  -6  -5   4    0.00    0.03
  -5  -5   4    0.15    0.03
  -4  -5   4    5.73    0.11
  -4  -5   4    6.05    0.10
  -3  -5   4    1.48    0.04
  -3  -5   4    1.50    0.05
  -2  -5   4    0.87    0.03
  -2  -5   4    0.84    0.03
  -1  -5   4    1.76    0.04
  -1  -5   4    1.85    0.04
   0   5  -4    7.16    0.10
   0  -5   4    7.17    0.10
   0  -5   4    7.26    0.11
  -1   5  -4    4.37    0.07
   1  -5   4    4.63    0.07
   1  -5   4    4.45    0.07
  -2   5  -4    0.41    0.02
   2  -5   4    0.38    0.02
  -3   5  -4    0.24    0.02
   3  -5   4    0.25    0.02
  -4   5  -4    0.88    0.04
   4  -5   4    0.72    0.03
  -5   5  -4    0.46    0.03
   5  -5   4    0.49    0.03
   6   4  -4    4.55    0.09
  -5  -4   4    0.83    0.04
  -5  -4   4    0.79    0.04
  -4  -4   4    1.55    0.04
  -4  -4   4    1.57    0.05
  -3  -4   4   -0.03    0.01
  -3  -4   4    0.00    0.01
  -2  -4   4    1.00    0.03
  -2  -4   4    1.00    0.03
   1   4  -4    7.14    0.09
  -1  -4   4    7.12    0.10
  -1  -4   4    7.16    0.11
   0   4  -4  112.16    1.41
   0  -4   4  112.84    2.18
   0  -4   4  115.27    1.45
  -1   4  -4    7.07    0.10
   1  -4   4    7.15    0.10
   1  -4   4    7.09    0.10
  -2   4  -4    2.36    0.05
   2  -4   4    2.38    0.05
  -3   4  -4   11.48    0.17
   3  -4   4   11.61    0.16
  -4   4  -4   27.14    0.36
   4  -4   4   26.74    0.36
  -5   4  -4    4.02    0.09
   5  -4   4    4.17    0.08
  -6   4  -4    2.58    0.07
   6  -4   4    2.52    0.07
   6   3  -4    0.31    0.03
  -5  -3   4    0.03    0.02
  -4  -3   4    1.53    0.04
  -4  -3   4    1.55    0.05
  -3  -3   4    0.05    0.01
  -3  -3   4    0.05    0.02
  -2  -3   4    0.11    0.02
  -2  -3   4    0.12    0.01
  -1  -3   4   12.46    0.17
  -1  -3   4   12.38    0.16
   0   3  -4    0.86    0.02
   0  -3   4    0.90    0.02
   0  -3   4    0.88    0.02
  -1   3  -4    5.84    0.09
   1  -3   4    5.82    0.08
   1  -3   4    5.93    0.08
  -2   3  -4    1.80    0.04
   2  -3   4    1.82    0.04
  -3   3  -4    5.41    0.09
   3  -3   4    5.47    0.09
  -4   3  -4    2.53    0.06
   4  -3   4    2.66    0.06
  -5   3  -4    0.07    0.02
   5  -3   4    0.06    0.02
  -6   3  -4    0.58    0.04
   6  -3   4    0.55    0.03
   6   2  -4    0.40    0.03
  -6  -2   4    0.44    0.03
   5   2  -4    0.12    0.02
  -5  -2   4    0.14    0.02
  -4  -2   4    0.57    0.03
  -4  -2   4    0.55    0.03
  -3  -2   4    0.00    0.01
  -3  -2   4    0.00    0.01
   2   2  -4    0.01    0.00
  -2  -2   4    0.00    0.01
  -2  -2   4    0.01    0.01
  -1  -2   4  140.82    1.79
  -1  -2   4  139.30    1.78
   0   2  -4    3.52    0.05
   0  -2   4    3.53    0.05
   0  -2   4    3.47    0.05
  -1   2  -4    4.99    0.07
   1  -2   4    5.13    0.07
   1  -2   4    5.17    0.07
  -2   2  -4    8.33    0.12
   2  -2   4    8.48    0.12
  -3   2  -4   16.85    0.23
   3  -2   4   17.26    0.23
  -4   2  -4    6.20    0.11
   4  -2   4    6.34    0.10
  -5   2  -4    2.38    0.06
   5  -2   4    2.56    0.06
  -6   2  -4    0.02    0.02
   6  -2   4    0.03    0.02
   6   1  -4    0.02    0.02
  -6  -1   4    0.02    0.02
   5   1  -4    6.52    0.11
  -5  -1   4    6.52    0.12
   4   1  -4    5.56    0.09
  -4  -1   4    5.37    0.10
  -3  -1   4    0.35    0.02
  -3  -1   4    0.37    0.03
  -2  -1   4    2.78    0.04
  -2  -1   4    2.70    0.05
  -2  -1   4    2.69    0.05
  -1  -1   4  123.82    1.59
  -1  -1   4  127.02    1.61
   0   1  -4    6.58    0.08
   0  -1   4    6.57    0.09
   0  -1   4    6.38    0.09
  -1   1  -4    0.01    0.01
   1  -1   4    0.00    0.01
   1  -1   4    0.01    0.01
  -2   1  -4   21.20    0.27
   2  -1   4   21.32    0.27
  -3   1  -4    0.24    0.02
   3  -1   4    0.23    0.02
  -4   1  -4    1.40    0.04
   4  -1   4    1.41    0.04
  -5   1  -4    1.60    0.05
   5  -1   4    1.58    0.04
  -6   1  -4    0.08    0.02
   6  -1   4    0.05    0.02
   6   0  -4    0.55    0.03
  -6   0   4    0.57    0.04
   5   0  -4   -0.01    0.01
  -5   0   4   -0.02    0.02
   4   0  -4    1.87    0.05
  -4   0   4    1.78    0.05
   3   0  -4    0.43    0.02
  -3   0   4    0.42    0.02
  -3   0   4    0.44    0.02
  -2   0   4   91.00    1.23
  -2   0   4   94.79    1.15
  -1   0   4   14.85    0.20
  -1   0   4   14.78    0.19
  -1   0   4   15.16    0.18
   0   0   4    8.36    0.11
   0   0   4    8.48    0.11
   0   0   4    8.51    0.10
  -1   0  -4  100.45    1.40
  -1   0  -4  100.04    1.26
   1   0   4   99.13    1.27
  -2   0  -4    2.80    0.05
   2   0   4    2.81    0.05
  -3   0  -4   22.64    0.29
   3   0   4   22.41    0.29
  -4   0  -4   12.97    0.18
   4   0   4   12.59    0.18
  -5   0  -4    0.08    0.02
   5   0   4    0.07    0.02
  -6   0  -4    1.68    0.05
   6   0   4    1.57    0.05
   7   0   4    0.06    0.02
   6  -1  -4    1.46    0.05
  -6   1   4    1.47    0.06
   5  -1  -4    1.12    0.04
  -5   1   4    1.12    0.04
   4  -1  -4    0.29    0.02
  -4   1   4    0.26    0.02
   3  -1  -4   14.83    0.20
  -3   1   4   15.18    0.20
  -3   1   4   14.94    0.21
   2  -1  -4   15.88    0.21
  -2   1   4   15.78    0.20
  -2   1   4   15.73    0.21
   1  -1  -4    6.42    0.09
  -1   1   4    6.42    0.09
  -1   1   4    6.45    0.08
   0  -1  -4   58.22    0.74
   0   1   4   58.58    0.72
   0   1   4   58.31    0.76
  -1  -1  -4  147.11    1.80
  -1  -1  -4  143.94    2.01
   1   1   4  146.51    1.84
  -2  -1  -4   32.68    0.40
   2   1   4   32.20    0.41
  -3  -1  -4   18.00    0.24
   3   1   4   17.66    0.23
   3   1   4   17.69    0.22
  -4  -1  -4    1.61    0.04
   4   1   4    1.60    0.04
  -5  -1  -4    2.02    0.05
   5   1   4    1.97    0.05
  -6  -1  -4    2.48    0.07
   6   1   4    2.47    0.06
   7   1   4    0.09    0.02
   6  -2  -4    1.82    0.05
  -6   2   4    1.81    0.06
   5  -2  -4    0.14    0.02
  -5   2   4    0.22    0.03
   4  -2  -4    0.04    0.01
  -4   2   4    0.00    0.01
  -4   2   4    0.01    0.01
   3  -2  -4    0.11    0.01
  -3   2   4    0.09    0.02
  -3   2   4    0.11    0.01
   2  -2  -4   11.83    0.16
  -2   2   4   11.79    0.15
  -2   2   4   11.79    0.17
   1  -2  -4    0.15    0.01
  -1   2   4    0.12    0.01
  -1   2   4    0.12    0.01
   0  -2  -4  119.34    1.50
   0   2   4  121.74    1.53
   0   2   4  120.83    1.48
  -1  -2  -4   14.93    0.18
   1   2   4   14.33    0.18
   1   2   4   14.60    0.19
  -2  -2  -4    1.54    0.02
  -2  -2  -4    1.38    0.03
   2   2   4    1.45    0.03
  -3  -2  -4   24.86    0.30
  -3  -2  -4   24.28    0.31
   3   2   4   24.14    0.31
  -4  -2  -4    0.25    0.02
   4   2   4    0.23    0.02
  -5  -2  -4    0.17    0.02
   5   2   4    0.18    0.02
  -6  -2  -4    2.35    0.06
   6   2   4    2.37    0.06
  -7  -2  -4    0.19    0.03
   6  -3  -4    0.63    0.03
  -6   3   4    0.65    0.04
   5  -3  -4    0.65    0.03
  -5   3   4    0.68    0.04
   4  -3  -4    3.16    0.06
  -4   3   4    3.21    0.07
  -4   3   4    3.34    0.07
   3  -3  -4    4.23    0.07
  -3   3   4    4.14    0.08
  -3   3   4    4.17    0.07
   2  -3  -4   28.81    0.36
  -2   3   4   29.11    0.36
  -2   3   4   28.28    0.37
   1  -3  -4    0.06    0.01
  -1   3   4    0.07    0.01
  -1   3   4    0.05    0.01
   0  -3  -4  107.23    1.36
   0   3   4  108.48    1.35
   0   3   4  109.64    1.38
  -1  -3  -4    6.53    0.09
   1   3   4    6.78    0.09
   1   3   4    6.75    0.09
  -2  -3  -4    0.62    0.02
   2   3   4    0.46    0.02
   2   3   4    0.49    0.01
  -3  -3  -4   25.71    0.32
  -3  -3  -4   25.98    0.33
   3   3   4   25.24    0.33
  -4  -3  -4    0.42    0.02
   4   3   4    0.38    0.02
  -5  -3  -4    1.26    0.04
   5   3   4    1.28    0.04
  -6  -3  -4    1.04    0.04
  -7  -3  -4    0.49    0.04
   5  -4  -4    2.40    0.06
  -5   4   4    2.36    0.07
  -5   4   4    2.38    0.06
   4  -4  -4    1.36    0.04
  -4   4   4    1.27    0.04
  -4   4   4    1.31    0.04
   3  -4  -4   13.26    0.18
  -3   4   4   12.90    0.19
  -3   4   4   13.14    0.18
   2  -4  -4    7.91    0.11
  -2   4   4    7.86    0.11
  -2   4   4    7.88    0.12
   1  -4  -4    4.25    0.06
  -1   4   4    4.09    0.07
  -1   4   4    4.16    0.06
   0  -4  -4   39.73    0.50
   0   4   4   39.28    0.50
   0   4   4   39.14    0.51
  -1  -4  -4   29.15    0.38
   1   4   4   28.83    0.36
   1   4   4   29.89    0.37
  -2  -4  -4   16.81    0.21
   2   4   4   17.03    0.21
   2   4   4   16.95    0.21
  -3  -4  -4    9.83    0.13
   3   4   4    9.66    0.13
   3   4   4    9.78    0.13
   4   4   4    0.10    0.01
   4   4   4    0.09    0.01
   6   4   4    0.04    0.01
   7   4   4    0.05    0.02
   5  -5  -4   -0.01    0.02
  -5   5   4    0.01    0.02
  -5   5   4    0.01    0.01
   4  -5  -4    0.01    0.01
  -4   5   4   -0.02    0.01
  -4   5   4    0.01    0.01
   3  -5  -4    7.39    0.11
  -3   5   4    7.39    0.11
  -3   5   4    7.56    0.12
   2  -5  -4    4.94    0.08
  -2   5   4    4.94    0.08
  -2   5   4    4.83    0.08
   1  -5  -4   12.16    0.16
  -1   5   4   12.36    0.17
  -1   5   4   12.30    0.16
   0  -5  -4   14.06    0.18
   0   5   4   13.93    0.18
   0   5   4   13.94    0.18
  -1  -5  -4   16.55    0.21
   1   5   4   16.72    0.21
   1   5   4   16.22    0.21
  -2  -5  -4   86.62    1.08
   2   5   4   85.02    1.08
  -3  -5  -4    1.29    0.03
   3   5   4    1.26    0.02
   3   5   4    1.26    0.03
  -4  -5  -4    4.74    0.08
   4   5   4    4.75    0.08
   5   5   4    2.86    0.06
   6   5   4    1.72    0.05
   7   5   4    0.24    0.03
   5  -6  -4    0.06    0.02
  -5   6   4    0.04    0.02
  -5   6   4    0.05    0.02
   4  -6  -4    0.07    0.02
  -4   6   4    0.10    0.02
  -4   6   4    0.06    0.02
   3  -6  -4    3.35    0.06
  -3   6   4    3.25    0.07
  -3   6   4    3.33    0.07
   2  -6  -4    4.43    0.07
  -2   6   4    4.50    0.08
  -2   6   4    4.43    0.07
   1  -6  -4   20.33    0.26
  -1   6   4   20.28    0.26
  -1   6   4   20.28    0.27
   0  -6  -4   26.83    0.34
   0   6   4   26.74    0.34
   0   6   4   27.14    0.34
  -1  -6  -4    1.66    0.03
   1   6   4    1.66    0.03
   1   6   4    1.68    0.03
  -2  -6  -4   35.03    0.43
   2   6   4   34.39    0.43
  -3  -6  -4    0.40    0.02
   3   6   4    0.36    0.02
  -4  -6  -4   11.03    0.16
   4   6   4   11.11    0.15
   5   6   4    2.71    0.06
   6   6   4    0.93    0.03
   7   6   4    0.63    0.04
   5  -7  -4    0.06    0.02
  -5   7   4    0.07    0.02
   4  -7  -4    0.27    0.02
  -4   7   4    0.32    0.03
  -4   7   4    0.30    0.03
   3  -7  -4    0.02    0.01
  -3   7   4    0.04    0.01
  -3   7   4    0.04    0.02
   2  -7  -4    3.17    0.06
  -2   7   4    3.07    0.06
  -2   7   4    3.05    0.06
   1  -7  -4    5.17    0.08
  -1   7   4    5.16    0.08
  -1   7   4    5.30    0.08
   0  -7  -4    0.02    0.01
   0   7   4    0.03    0.01
   0   7   4    0.02    0.01
  -1  -7  -4   14.19    0.19
   1   7   4   14.49    0.19
   1   7   4   14.25    0.18
  -2  -7  -4    1.06    0.03
   2   7   4    1.04    0.03
  -3  -7  -4    0.57    0.02
   3   7   4    0.56    0.02
  -4  -7  -4    4.40    0.08
   4   7   4    4.33    0.07
   5   7   4    0.02    0.01
   6   7   4    1.22    0.04
   5  -8  -4    0.03    0.02
   5  -8  -4    0.03    0.02
  -5   8   4    0.04    0.02
   4  -8  -4    3.46    0.07
  -4   8   4    3.33    0.08
   3  -8  -4    0.96    0.03
  -3   8   4    0.87    0.03
  -3   8   4    1.00    0.04
   2  -8  -4    4.07    0.07
  -2   8   4    4.05    0.08
  -2   8   4    4.29    0.08
   1  -8  -4    3.90    0.07
  -1   8   4    3.73    0.07
  -1   8   4    3.95    0.07
   0  -8  -4   24.10    0.31
   0   8   4   24.70    0.31
   0   8   4   24.62    0.31
  -1  -8  -4    6.16    0.09
   1   8   4    6.27    0.09
  -2  -8  -4    3.75    0.06
   2   8   4    3.71    0.06
  -3  -8  -4    0.44    0.02
   3   8   4    0.46    0.02
  -4  -8  -4   11.63    0.17
   4   8   4   11.65    0.16
   5   8   4   -0.02    0.01
   6   8   4    0.51    0.03
   4  -9  -4    0.03    0.02
   4  -9  -4    0.02    0.02
  -4   9   4    0.05    0.02
   3  -9  -4    4.98    0.09
   3  -9  -4    4.81    0.09
  -3   9   4    4.92    0.09
   2  -9  -4    2.38    0.05
  -2   9   4    2.45    0.06
   1  -9  -4    0.04    0.01
  -1   9   4    0.02    0.01
   0  -9  -4    4.32    0.07
   0   9   4    4.42    0.07
  -1  -9  -4    0.82    0.03
   1   9   4    0.83    0.03
  -2  -9  -4    0.43    0.02
   2   9   4    0.44    0.02
  -3  -9  -4    0.37    0.02
   3   9   4    0.36    0.02
  -4  -9  -4    6.88    0.11
   4   9   4    6.89    0.10
   5   9   4    0.11    0.02
   6   9   4    0.37    0.03
   4 -10  -4   -0.01    0.02
   4 -10  -4    0.01    0.02
  -4  10   4    0.01    0.02
   3 -10  -4    3.62    0.07
   3 -10  -4    3.69    0.08
  -3  10   4    3.59    0.08
   2 -10  -4    8.50    0.13
   2 -10  -4    8.19    0.13
  -2  10   4    7.93    0.13
   1 -10  -4   21.18    0.28
  -1  10   4   21.01    0.28
   0 -10  -4   10.58    0.15
   0  10   4   10.45    0.15
  -1 -10  -4    0.04    0.01
   1  10   4    0.03    0.02
  -2 -10  -4    0.19    0.02
   2  10   4    0.19    0.02
  -3 -10  -4   21.78    0.29
   3  10   4   21.87    0.28
  -4 -10  -4    1.49    0.05
   4  10   4    1.56    0.04
  -5 -10  -4    0.02    0.02
   5  10   4    0.02    0.01
   4 -11  -4    0.90    0.04
   4 -11  -4    0.94    0.04
   3 -11  -4    0.06    0.02
  -3  11   4    0.09    0.02
   2 -11  -4    0.16    0.02
  -2  11   4    0.17    0.02
   1 -11  -4    1.90    0.05
  -1  11   4    1.95    0.05
   0 -11  -4    0.90    0.03
   0  11   4    0.89    0.03
  -1 -11  -4   -0.02    0.01
   1  11   4   -0.01    0.01
  -2 -11  -4    5.72    0.10
   2  11   4    5.51    0.09
  -3 -11  -4    3.23    0.07
   3  11   4    3.27    0.06
  -4 -11  -4    0.01    0.02
   4  11   4    0.01    0.01
  -5 -11  -4    0.10    0.02
   5  11   4    0.07    0.02
   3 -12  -4    1.37    0.05
  -3  12   4    1.38    0.05
   2 -12  -4    0.90    0.04
  -2  12   4    0.88    0.04
   1 -12  -4    0.02    0.02
  -1  12   4    0.01    0.02
   0 -12  -4    2.32    0.06
   0  12   4    2.39    0.06
  -1 -12  -4    8.29    0.13
   1  12   4    8.44    0.13
  -2 -12  -4    3.26    0.07
   2  12   4    3.29    0.07
  -3 -12  -4    4.25    0.08
   3  12   4    4.20    0.08
  -4 -12  -4    0.70    0.04
   4  12   4    0.71    0.03
  -5 -12  -4   -0.01    0.02
   2 -13  -4    1.86    0.05
  -2  13   4    1.97    0.06
   1 -13  -4    0.07    0.02
  -1  13   4    0.10    0.02
   0 -13  -4    0.78    0.03
   0  13   4    0.80    0.04
  -1 -13  -4    1.79    0.05
   1  13   4    1.76    0.05
  -2 -13  -4    0.03    0.02
   2  13   4    0.03    0.02
  -3 -13  -4    0.96    0.04
   3  13   4    0.93    0.04
  -4 -13  -4    1.33    0.05
   4  13   4    1.22    0.04
  -5 -13  -4    0.07    0.02
   1 -14  -4    8.31    0.14
  -1  14   4    8.04    0.14
   0 -14  -4    1.42    0.05
   0  14   4    1.41    0.05
  -1 -14  -4    0.01    0.02
   1  14   4    0.03    0.02
  -2 -14  -4    4.53    0.09
   2  14   4    4.76    0.09
  -3 -14  -4    0.20    0.03
   3  14   4    0.18    0.02
  -4 -14  -4    1.06    0.05
   0 -15  -4    0.20    0.03
   0  15   4    0.22    0.02
  -1 -15  -4    2.48    0.07
   1  15   4    2.53    0.06
  -2 -15  -4    2.26    0.06
   2  15   4    2.34    0.06
   3  15   4    0.49    0.04
  -2 -12   5    2.12    0.07
  -1 -12   5    0.12    0.03
  -3 -11   5    0.59    0.04
  -2 -11   5    0.26    0.03
  -1 -11   5    0.76    0.04
   0 -11   5    0.65    0.04
  -3  11  -5    0.11    0.02
  -3 -10   5   -0.01    0.02
  -2 -10   5    1.21    0.05
  -1 -10   5    3.52    0.08
   0 -10   5    3.99    0.08
   2 -10   5    0.07    0.02
  -3  10  -5    0.07    0.02
   3 -10   5    0.06    0.02
  -4  -9   5    0.30    0.03
  -3  -9   5    0.80    0.04
  -2  -9   5    4.13    0.09
  -1  -9   5    0.04    0.02
   0  -9   5    6.72    0.11
   1  -9   5    1.34    0.04
  -2   9  -5    0.27    0.02
   2  -9   5    0.30    0.02
  -3   9  -5    2.86    0.07
   3  -9   5    2.78    0.06
  -4   9  -5    0.05    0.02
   4  -9   5    0.00    0.02
  -4  -8   5    2.26    0.07
  -3  -8   5    0.03    0.02
  -2  -8   5    2.06    0.06
  -1  -8   5    2.12    0.05
   0  -8   5    2.91    0.06
   0  -8   5    2.92    0.06
   1  -8   5    1.03    0.03
   1  -8   5    1.05    0.03
  -2   8  -5    0.88    0.04
   2  -8   5    0.90    0.03
  -3   8  -5    0.34    0.03
   3  -8   5    0.30    0.02
  -4   8  -5    0.41    0.03
   4  -8   5    0.38    0.03
  -5  -7   5    0.48    0.04
  -4  -7   5    0.30    0.03
  -3  -7   5    0.43    0.03
  -2  -7   5    0.66    0.03
  -1  -7   5    4.43    0.08
  -1  -7   5    4.40    0.07
   0  -7   5    0.30    0.02
   0  -7   5    0.25    0.02
  -1   7  -5    0.04    0.01
   1  -7   5    0.04    0.01
   1  -7   5    0.02    0.01
  -2   7  -5    4.05    0.08
   2  -7   5    3.92    0.07
  -3   7  -5    1.34    0.05
   3  -7   5    1.29    0.04
  -4   7  -5    0.78    0.04
   4  -7   5    0.89    0.04
  -5  -6   5    4.94    0.11
  -4  -6   5    0.02    0.02
  -3  -6   5    3.73    0.07
  -3  -6   5    3.59    0.08
  -2  -6   5    0.08    0.02
  -2  -6   5    0.06    0.01
  -1  -6   5    4.09    0.08
  -1  -6   5    4.11    0.07
   0  -6   5    7.04    0.11
   0  -6   5    7.16    0.11
  -1   6  -5    6.40    0.10
   1  -6   5    6.70    0.10
   1  -6   5    6.37    0.10
  -2   6  -5    0.15    0.02
   2  -6   5    0.13    0.02
  -3   6  -5    2.29    0.06
   3  -6   5    2.25    0.05
  -4   6  -5    0.86    0.04
   4  -6   5    0.91    0.03
  -5   6  -5    0.15    0.03
   5  -6   5    0.11    0.02
  -5  -5   5    0.10    0.02
  -4  -5   5    2.96    0.07
  -4  -5   5    3.05    0.07
  -3  -5   5    1.43    0.04
  -3  -5   5    1.39    0.05
  -2  -5   5    0.36    0.03
  -2  -5   5    0.40    0.02
  -1  -5   5    0.78    0.03
  -1  -5   5    0.78    0.03
   0   5  -5    1.18    0.03
   0  -5   5    1.19    0.03
   0  -5   5    1.25    0.03
  -1   5  -5    3.18    0.06
   1  -5   5    3.21    0.06
   1  -5   5    3.19    0.06
  -2   5  -5   22.22    0.30
   2  -5   5   23.19    0.30
  -3   5  -5    8.69    0.14
   3  -5   5    8.61    0.13
  -4   5  -5    3.10    0.07
   4  -5   5    3.16    0.07
  -5   5  -5    0.54    0.04
   5  -5   5    0.55    0.03
   6   4  -5    0.17    0.03
  -5  -4   5    0.67    0.04
  -5  -4   5    0.70    0.04
  -4  -4   5    5.05    0.09
  -4  -4   5    4.87    0.10
  -3  -4   5    0.12    0.02
  -3  -4   5    0.09    0.02
  -2  -4   5    0.43    0.02
  -2  -4   5    0.43    0.03
  -1  -4   5   25.98    0.33
  -1  -4   5   26.06    0.34
   0   4  -5   11.57    0.15
   0  -4   5   11.43    0.16
   0  -4   5   11.60    0.16
  -1   4  -5    0.02    0.01
   1  -4   5    0.03    0.01
   1  -4   5    0.03    0.01
  -2   4  -5    0.01    0.01
   2  -4   5   -0.01    0.01
  -3   4  -5    0.00    0.01
   3  -4   5    0.04    0.01
  -4   4  -5    4.53    0.09
   4  -4   5    4.67    0.08
  -5   4  -5    0.21    0.03
   5  -4   5    0.21    0.02
   6   3  -5    0.17    0.03
  -5  -3   5    0.04    0.02
  -4  -3   5    4.02    0.08
  -4  -3   5    4.23    0.08
  -3  -3   5    2.63    0.06
  -3  -3   5    2.57    0.06
  -2  -3   5    0.00    0.01
  -2  -3   5    0.01    0.01
  -1  -3   5    7.37    0.11
  -1  -3   5    7.38    0.11
   0   3  -5    1.07    0.02
   0  -3   5    1.06    0.03
   0  -3   5    1.08    0.03
  -1   3  -5    2.74    0.05
   1  -3   5    2.77    0.04
   1  -3   5    2.61    0.05
  -2   3  -5    7.76    0.12
   2  -3   5    7.76    0.11
  -3   3  -5   33.60    0.43
   3  -3   5   33.29    0.43
  -4   3  -5    1.76    0.05
   4  -3   5    1.77    0.05
  -5   3  -5    0.28    0.03
   5  -3   5    0.33    0.03
  -6   3  -5    3.30    0.08
   6  -3   5    3.51    0.08
   6   2  -5    0.10    0.02
  -6  -2   5    0.12    0.03
   5   2  -5    3.46    0.08
  -5  -2   5    3.47    0.08
  -4  -2   5   -0.01    0.01
  -4  -2   5    0.02    0.02
  -3  -2   5    5.21    0.09
  -3  -2   5    5.08    0.09
  -2  -2   5    0.36    0.02
  -2  -2   5    0.41    0.02
  -1  -2   5   19.96    0.26
  -1  -2   5   20.07    0.26
   0   2  -5    1.05    0.02
   0  -2   5    1.02    0.03
   0  -2   5    1.04    0.03
  -1   2  -5    3.97    0.06
   1  -2   5    4.01    0.06
   1  -2   5    3.96    0.06
  -2   2  -5    3.54    0.06
   2  -2   5    3.68    0.06
  -3   2  -5    0.99    0.03
   3  -2   5    1.00    0.03
  -4   2  -5    0.42    0.03
   4  -2   5    0.42    0.02
  -5   2  -5    1.31    0.05
   5  -2   5    1.35    0.04
  -6   2  -5    0.11    0.02
   6  -2   5    0.09    0.02
   6   1  -5    0.73    0.04
  -6  -1   5    0.68    0.04
   5   1  -5    0.73    0.04
  -5  -1   5    0.79    0.04
   4   1  -5    1.26    0.04
  -4  -1   5    1.32    0.04
  -3  -1   5    1.93    0.05
  -3  -1   5    1.94    0.05
  -2  -1   5   33.35    0.43
  -2  -1   5   33.21    0.42
  -1  -1   5   46.78    0.58
  -1  -1   5   46.58    0.62
   0   1  -5    0.87    0.02
   0  -1   5    0.83    0.02
   0  -1   5    0.86    0.02
  -1   1  -5    0.92    0.02
   1  -1   5    0.95    0.02
   1  -1   5    0.95    0.02
  -2   1  -5   16.37    0.22
   2  -1   5   16.43    0.22
  -3   1  -5    4.53    0.08
   3  -1   5    4.46    0.07
  -4   1  -5    4.08    0.08
   4  -1   5    3.93    0.07
  -5   1  -5    0.23    0.02
   5  -1   5    0.25    0.02
  -6   1  -5    0.04    0.02
   6  -1   5   -0.01    0.02
   6   0  -5    0.58    0.03
  -6   0   5    0.51    0.04
   5   0  -5    0.07    0.02
  -5   0   5    0.06    0.02
   4   0  -5    0.18    0.02
  -4   0   5    0.23    0.02
   3   0  -5    0.00    0.01
  -3   0   5   -0.01    0.01
   2   0  -5  165.58    2.11
  -2   0   5  169.00    2.03
  -2   0   5  163.31    3.20
  -1   0   5   41.37    0.52
  -1   0   5   41.64    0.55
  -1   0   5   41.71    0.54
   0   0   5    0.78    0.02
   0   0   5    0.81    0.02
   0   0   5    0.78    0.02
  -1   0  -5   12.33    0.16
  -1   0  -5   12.56    0.15
   1   0   5   12.35    0.16
  -2   0  -5    6.13    0.09
   2   0   5    6.28    0.09
  -3   0  -5    0.08    0.01
   3   0   5    0.06    0.01
  -4   0  -5    2.47    0.06
   4   0   5    2.39    0.05
  -5   0  -5    0.18    0.02
   5   0   5    0.24    0.02
  -6   0  -5    0.09    0.02
   6   0   5    0.10    0.02
   6  -1  -5    0.50    0.03
  -6   1   5    0.48    0.04
   5  -1  -5    0.94    0.04
  -5   1   5    0.92    0.04
   4  -1  -5    0.21    0.02
  -4   1   5    0.18    0.02
   3  -1  -5    2.93    0.06
  -3   1   5    2.93    0.06
   2  -1  -5   12.33    0.17
  -2   1   5   12.43    0.16
  -2   1   5   12.28    0.17
   1  -1  -5    0.57    0.02
  -1   1   5    0.63    0.02
  -1   1   5    0.61    0.01
   0  -1  -5   20.66    0.26
   0   1   5   20.91    0.27
   0   1   5   21.29    0.26
  -1  -1  -5   19.66    0.24
   1   1   5   19.31    0.25
   1   1   5   18.96    0.24
  -2  -1  -5   34.11    0.42
   2   1   5   33.81    0.43
  -3  -1  -5    2.30    0.05
   3   1   5    2.30    0.04
  -4  -1  -5    1.51    0.04
   4   1   5    1.43    0.04
  -5  -1  -5    0.22    0.02
   5   1   5    0.18    0.02
  -6  -1  -5    0.17    0.02
   6   1   5    0.15    0.02
   7   1   5    0.85    0.04
   6  -2  -5    1.75    0.05
  -6   2   5    1.64    0.06
   5  -2  -5    4.17    0.08
  -5   2   5    4.05    0.09
   4  -2  -5    1.77    0.05
  -4   2   5    1.78    0.05
   3  -2  -5    5.20    0.09
  -3   2   5    5.13    0.09
   2  -2  -5    0.10    0.01
  -2   2   5    0.11    0.01
  -2   2   5    0.10    0.01
   1  -2  -5    5.17    0.08
  -1   2   5    5.35    0.08
   0  -2  -5   26.16    0.33
   0   2   5   26.82    0.34
   0   2   5   26.73    0.34
  -1  -2  -5    8.18    0.10
   1   2   5    7.96    0.11
   1   2   5    8.03    0.11
  -2  -2  -5    5.58    0.07
   2   2   5    5.57    0.08
  -3  -2  -5    1.99    0.04
   3   2   5    1.89    0.04
  -4  -2  -5    0.36    0.02
   4   2   5    0.36    0.02
  -5  -2  -5    2.86    0.07
   5   2   5    2.83    0.06
  -6  -2  -5    0.07    0.02
   6   2   5    0.05    0.02
   6  -3  -5    0.66    0.04
   5  -3  -5    0.13    0.02
  -5   3   5    0.11    0.02
   4  -3  -5    0.20    0.02
  -4   3   5    0.17    0.02
   3  -3  -5    5.02    0.08
  -3   3   5    5.18    0.08
  -3   3   5    5.01    0.09
   2  -3  -5    0.93    0.03
  -2   3   5    0.95    0.03
  -2   3   5    0.95    0.03
   1  -3  -5    1.15    0.03
  -1   3   5    1.20    0.03
   0  -3  -5    0.05    0.01
   0   3   5    0.05    0.01
   0   3   5    0.07    0.01
  -1  -3  -5    3.23    0.05
   1   3   5    3.25    0.05
   1   3   5    3.30    0.05
  -2  -3  -5    5.45    0.07
   2   3   5    5.43    0.08
   2   3   5    5.42    0.08
   3   3   5    8.11    0.11
  -4  -3  -5    0.16    0.02
   4   3   5    0.18    0.02
  -5  -3  -5    0.11    0.02
   5   3   5    0.09    0.01
  -6  -3  -5    0.35    0.03
  -7  -3  -5    0.44    0.03
   6  -4  -5    6.90    0.12
   5  -4  -5    0.71    0.03
  -5   4   5    0.73    0.04
   4  -4  -5    0.11    0.02
  -4   4   5    0.13    0.02
  -4   4   5    0.11    0.02
   3  -4  -5    5.00    0.08
  -3   4   5    5.02    0.09
  -3   4   5    4.94    0.08
   2  -4  -5    4.14    0.07
  -2   4   5    4.09    0.07
  -2   4   5    4.07    0.07
   1  -4  -5    4.93    0.07
  -1   4   5    4.75    0.08
  -1   4   5    4.79    0.07
   0  -4  -5   25.64    0.32
   0   4   5   25.88    0.33
   0   4   5   25.72    0.33
  -1  -4  -5   27.13    0.34
   1   4   5   26.69    0.33
   1   4   5   27.66    0.34
  -2  -4  -5    0.12    0.01
   2   4   5    0.11    0.01
   2   4   5    0.13    0.01
  -3  -4  -5   14.16    0.18
   3   4   5   14.13    0.19
   3   4   5   14.18    0.18
   4   4   5    0.00    0.01
   4   4   5    0.00    0.01
   5   4   5    6.48    0.11
   6   4   5    0.16    0.02
   7   4   5    0.07    0.02
   5  -5  -5    1.44    0.04
  -5   5   5    1.50    0.05
   4  -5  -5    2.17    0.05
  -4   5   5    2.15    0.06
   3  -5  -5    0.13    0.02
  -3   5   5    0.16    0.02
  -3   5   5    0.11    0.02
   2  -5  -5    0.52    0.02
  -2   5   5    0.50    0.03
  -2   5   5    0.53    0.02
   1  -5  -5    3.22    0.05
  -1   5   5    3.16    0.06
  -1   5   5    3.11    0.05
   0  -5  -5   41.18    0.54
   0   5   5   41.20    0.53
   0   5   5   41.30    0.53
  -1  -5  -5    2.53    0.04
   1   5   5    2.64    0.04
   1   5   5    2.59    0.04
  -2  -5  -5    0.86    0.02
   2   5   5    0.88    0.02
   2   5   5    0.87    0.02
  -3  -5  -5    2.37    0.04
   3   5   5    2.40    0.05
   3   5   5    2.49    0.04
   4   5   5    2.43    0.05
   5   5   5    3.38    0.07
   6   5   5    0.76    0.03
   7   5   5    0.28    0.03
   5  -6  -5    0.36    0.03
  -5   6   5    0.38    0.03
   4  -6  -5    0.48    0.03
  -4   6   5    0.48    0.03
  -4   6   5    0.50    0.03
   3  -6  -5    0.36    0.02
  -3   6   5    0.33    0.02
  -3   6   5    0.32    0.03
   2  -6  -5    0.71    0.03
  -2   6   5    0.72    0.03
  -2   6   5    0.75    0.03
   1  -6  -5   30.16    0.38
  -1   6   5   29.58    0.39
  -1   6   5   29.78    0.37
   0  -6  -5    6.18    0.09
   0   6   5    6.09    0.09
   0   6   5    6.21    0.09
  -1  -6  -5   18.12    0.23
   1   6   5   17.93    0.23
   1   6   5   18.47    0.23
  -2  -6  -5    0.00    0.01
   2   6   5   -0.02    0.01
   2   6   5   -0.01    0.00
  -3  -6  -5    0.42    0.02
   3   6   5    0.40    0.02
   4   6   5   50.70    0.63
   5   6   5   11.80    0.17
   6   6   5    0.07    0.02
   7   6   5    0.33    0.03
   5  -7  -5    0.27    0.03
  -5   7   5    0.24    0.03
  -5   7   5    0.25    0.03
   4  -7  -5    0.02    0.01
  -4   7   5    0.03    0.02
  -4   7   5    0.00    0.02
   3  -7  -5    0.67    0.03
  -3   7   5    0.68    0.03
  -3   7   5    0.69    0.03
   2  -7  -5    2.72    0.05
  -2   7   5    2.67    0.05
  -2   7   5    2.62    0.06
   1  -7  -5    1.06    0.03
  -1   7   5    1.08    0.03
  -1   7   5    0.96    0.03
   0  -7  -5   19.58    0.25
   0   7   5   19.41    0.25
   0   7   5   19.35    0.25
  -1  -7  -5    4.18    0.07
   1   7   5    4.21    0.06
   1   7   5    4.26    0.07
  -2  -7  -5    0.05    0.01
   2   7   5    0.03    0.01
  -3  -7  -5    0.00    0.01
   3   7   5    0.00    0.01
  -4  -7  -5    0.01    0.01
   4   7   5   -0.02    0.01
   5   7   5    0.56    0.03
   6   7   5   -0.01    0.01
   5  -8  -5    1.49    0.05
   4  -8  -5    0.02    0.02
  -4   8   5    0.01    0.02
  -4   8   5    0.00    0.01
   3  -8  -5    2.92    0.06
  -3   8   5    2.83    0.06
  -3   8   5    2.85    0.07
   2  -8  -5   10.71    0.15
  -2   8   5   10.60    0.16
  -2   8   5   10.53    0.15
   1  -8  -5    1.45    0.04
  -1   8   5    1.51    0.04
  -1   8   5    1.49    0.04
   0  -8  -5    0.11    0.01
   0   8   5    0.11    0.02
   0   8   5    0.16    0.01
  -1  -8  -5    0.57    0.02
   1   8   5    0.59    0.03
  -2  -8  -5    0.80    0.03
   2   8   5    0.87    0.03
  -3  -8  -5    0.54    0.03
   3   8   5    0.50    0.02
  -4  -8  -5    5.31    0.09
   4   8   5    5.30    0.09
   5   8   5    2.35    0.05
   6   8   5    0.45    0.03
   4  -9  -5    3.48    0.07
  -4   9   5    3.31    0.08
   3  -9  -5    0.01    0.01
  -3   9   5   -0.01    0.02
  -3   9   5    0.02    0.01
   2  -9  -5    2.86    0.06
  -2   9   5    2.88    0.06
  -2   9   5    2.74    0.06
   1  -9  -5   42.40    0.53
  -1   9   5   42.60    0.54
  -1   9   5   42.20    0.53
   0  -9  -5    0.07    0.01
   0   9   5    0.08    0.02
  -1  -9  -5    0.11    0.01
   1   9   5    0.11    0.02
  -2  -9  -5    2.25    0.05
   2   9   5    2.22    0.05
  -3  -9  -5    0.15    0.02
   3   9   5    0.14    0.02
  -4  -9  -5    0.61    0.03
   4   9   5    0.62    0.03
   5   9   5    0.35    0.02
   6   9   5    0.55    0.03
   4 -10  -5    0.91    0.04
   4 -10  -5    0.94    0.04
  -4  10   5    0.96    0.04
   3 -10  -5    0.50    0.03
   3 -10  -5    0.53    0.03
  -3  10   5    0.50    0.03
   2 -10  -5    1.05    0.04
  -2  10   5    1.09    0.04
   1 -10  -5    0.48    0.03
  -1  10   5    0.48    0.03
   0 -10  -5    8.39    0.13
   0  10   5    8.22    0.12
  -1 -10  -5    6.30    0.10
   1  10   5    6.14    0.10
  -2 -10  -5   11.02    0.16
   2  10   5   10.92    0.16
  -3 -10  -5    0.08    0.02
   3  10   5    0.08    0.01
  -4 -10  -5    0.00    0.01
   4  10   5    0.02    0.01
   5  10   5    0.00    0.01
   6  10   5    1.53    0.05
   4 -11  -5    0.00    0.02
   3 -11  -5    0.16    0.02
  -3  11   5    0.16    0.02
   2 -11  -5    4.08    0.08
  -2  11   5    4.07    0.08
   1 -11  -5    0.08    0.02
  -1  11   5    0.08    0.02
   0 -11  -5    4.29    0.08
   0  11   5    4.35    0.08
  -1 -11  -5    0.75    0.03
   1  11   5    0.76    0.03
  -2 -11  -5    0.05    0.01
   2  11   5    0.02    0.01
  -3 -11  -5    1.30    0.04
   3  11   5    1.27    0.04
  -4 -11  -5    0.24    0.02
   4  11   5    0.21    0.02
   5  11   5    0.06    0.02
   6  11   5    2.77    0.06
   3 -12  -5    0.25    0.03
  -3  12   5    0.29    0.03
   2 -12  -5    0.21    0.02
  -2  12   5    0.27    0.03
   1 -12  -5    0.19    0.02
  -1  12   5    0.15    0.02
   0 -12  -5    4.13    0.08
   0  12   5    4.22    0.08
  -1 -12  -5    6.12    0.10
   1  12   5    6.37    0.10
  -2 -12  -5    1.07    0.04
   2  12   5    1.10    0.04
  -3 -12  -5    0.01    0.01
   3  12   5   -0.02    0.02
  -4 -12  -5    0.19    0.02
   4  12   5    0.13    0.02
   5  12   5    0.42    0.03
   2 -13  -5    3.59    0.08
  -2  13   5    3.63    0.08
   1 -13  -5    0.05    0.02
  -1  13   5    0.06    0.02
   0 -13  -5    2.60    0.06
   0  13   5    2.52    0.06
  -1 -13  -5    0.05    0.02
   1  13   5    0.07    0.02
  -2 -13  -5    2.32    0.06
   2  13   5    2.42    0.06
  -3 -13  -5    0.18    0.02
   3  13   5    0.14    0.02
  -4 -13  -5    0.08    0.02
   4  13   5    0.07    0.02
   5  13   5    0.87    0.04
   1 -14  -5    3.39    0.08
  -1  14   5    3.32    0.08
   0 -14  -5    0.47    0.03
   0  14   5    0.41    0.03
  -1 -14  -5    0.92    0.04
   1  14   5    0.88    0.04
  -2 -14  -5    0.41    0.03
   2  14   5    0.42    0.03
  -3 -14  -5    0.44    0.03
   3  14   5    0.43    0.03
  -4 -14  -5    0.01    0.02
   4  14   5    0.00    0.02
   0  15   5    0.24    0.02
  -1 -15  -5    0.04    0.02
   1  15   5   -0.02    0.02
  -2 -15  -5    0.14    0.03
   2  15   5    0.17    0.02
  -3 -15  -5    0.99    0.04
   3  15   5    0.99    0.04
  -1 -12   6    1.53    0.06
  -2 -11   6    3.78    0.09
  -1 -11   6    1.69    0.06
  -3 -10   6   17.29    0.26
  -2 -10   6    2.12    0.07
  -1 -10   6    1.33    0.05
   0 -10   6   -0.01    0.02
   2 -10   6    1.46    0.05
   3 -10   6    0.41    0.03
  -3  -9   6    2.69    0.07
  -2  -9   6    0.10    0.03
  -1  -9   6    0.25    0.03
   0  -9   6    1.32    0.05
   1  -9   6    2.41    0.05
   2  -9   6    0.01    0.02
  -3   9  -6    0.02    0.02
   3  -9   6    0.00    0.02
  -4  -8   6    4.83    0.11
  -3  -8   6    2.34    0.07
  -2  -8   6    5.52    0.11
  -1  -8   6    0.53    0.03
   0  -8   6    0.50    0.03
   0  -8   6    0.53    0.03
   1  -8   6    0.60    0.03
  -2   8  -6    4.28    0.09
   2  -8   6    4.32    0.08
  -3   8  -6    3.00    0.07
   3  -8   6    2.98    0.07
  -4   8  -6    0.04    0.02
   4  -8   6    0.02    0.02
  -4  -7   6    0.22    0.03
  -3  -7   6    1.29    0.05
  -2  -7   6    3.79    0.07
  -2  -7   6    3.75    0.08
  -1  -7   6    1.61    0.04
  -1  -7   6    1.57    0.05
   0  -7   6    0.00    0.01
   0  -7   6   -0.02    0.01
   1  -7   6    0.28    0.02
  -2   7  -6    0.13    0.02
   2  -7   6    0.13    0.02
  -3   7  -6    1.06    0.04
   3  -7   6    0.97    0.03
  -4   7  -6    1.52    0.05
   4  -7   6    1.43    0.04
  -5  -6   6   -0.01    0.02
  -4  -6   6    6.18    0.12
  -3  -6   6    0.21    0.03
  -3  -6   6    0.26    0.02
  -2  -6   6    0.09    0.02
  -2  -6   6    0.10    0.01
  -1  -6   6    3.63    0.06
  -1  -6   6    3.59    0.07
   0  -6   6    1.26    0.04
   0  -6   6    1.18    0.03
  -1   6  -6   12.86    0.18
   1  -6   6   13.01    0.18
  -2   6  -6    0.03    0.01
   2  -6   6    0.01    0.01
  -3   6  -6    2.14    0.06
   3  -6   6    2.10    0.05
  -4   6  -6    4.88    0.10
   4  -6   6    5.09    0.09
  -5   6  -6    0.84    0.05
   5  -6   6    0.82    0.04
  -5  -5   6    0.00    0.02
  -4  -5   6    0.54    0.04
  -4  -5   6    0.53    0.03
  -3  -5   6    3.39    0.07
  -3  -5   6    3.22    0.07
  -2  -5   6    0.19    0.02
  -2  -5   6    0.20    0.02
  -1  -5   6    2.42    0.05
   0  -5   6   13.20    0.18
   0  -5   6   12.98    0.18
  -1   5  -6    0.26    0.02
   1  -5   6    0.22    0.02
   1  -5   6    0.20    0.02
  -2   5  -6    0.02    0.01
   2  -5   6    0.00    0.01
  -3   5  -6    0.01    0.01
   3  -5   6    0.02    0.01
  -4   5  -6    0.37    0.03
   4  -5   6    0.39    0.03
  -5   5  -6    0.17    0.03
   5  -5   6    0.16    0.02
  -5  -4   6    0.61    0.04
  -5  -4   6    0.67    0.04
  -4  -4   6    0.98    0.04
  -4  -4   6    1.07    0.04
  -3  -4   6    0.23    0.02
  -3  -4   6    0.26    0.02
  -2  -4   6    0.96    0.03
  -2  -4   6    0.89    0.03
  -1  -4   6   16.82    0.22
  -1  -4   6   16.70    0.23
   0  -4   6    0.18    0.02
   0  -4   6    0.17    0.02
  -1   4  -6    0.03    0.01
   1  -4   6    0.02    0.01
   1  -4   6    0.05    0.01
  -2   4  -6   13.45    0.19
   2  -4   6   13.18    0.18
  -3   4  -6   43.18    0.55
   3  -4   6   43.21    0.55
  -4   4  -6    1.29    0.05
   4  -4   6    1.33    0.04
  -5   4  -6    0.33    0.03
   5  -4   6    0.36    0.03
   5   3  -6    0.01    0.02
  -5  -3   6    0.03    0.02
  -4  -3   6    0.15    0.02
  -4  -3   6    0.17    0.02
  -3  -3   6    1.27    0.04
  -3  -3   6    1.33    0.04
  -2  -3   6    2.25    0.05
  -2  -3   6    2.29    0.05
  -1  -3   6   17.36    0.23
  -1  -3   6   17.53    0.23
   0   3  -6    1.12    0.02
   0  -3   6    1.15    0.03
  -1   3  -6    2.73    0.05
   1  -3   6    2.79    0.05
   1  -3   6    2.70    0.05
  -2   3  -6    2.42    0.05
   2  -3   6    2.42    0.05
  -3   3  -6    1.51    0.04
   3  -3   6    1.46    0.04
  -4   3  -6    0.52    0.03
   4  -3   6    0.49    0.03
  -5   3  -6    0.97    0.04
   5  -3   6    1.01    0.04
   6  -3   6    0.93    0.04
  -6  -2   6    0.00    0.02
   5   2  -6    2.72    0.07
  -5  -2   6    2.82    0.07
  -4  -2   6    0.29    0.03
  -3  -2   6    0.26    0.02
  -3  -2   6    0.20    0.02
  -2  -2   6    0.36    0.02
  -2  -2   6    0.36    0.03
  -1  -2   6    4.12    0.07
  -1  -2   6    4.13    0.07
   0   2  -6    0.63    0.02
   0  -2   6    0.60    0.02
   0  -2   6    0.59    0.02
  -1   2  -6    7.90    0.11
   1  -2   6    7.86    0.11
   1  -2   6    8.01    0.11
  -2   2  -6    6.33    0.10
   2  -2   6    6.58    0.10
  -3   2  -6    3.13    0.06
   3  -2   6    2.95    0.06
  -4   2  -6    0.40    0.03
   4  -2   6    0.40    0.02
  -5   2  -6    1.15    0.04
   5  -2   6    1.07    0.04
  -6   2  -6    1.85    0.06
   6  -2   6    1.91    0.05
  -6  -1   6    1.30    0.05
   5   1  -6    1.77    0.05
  -5  -1   6    1.93    0.06
   4   1  -6    0.67    0.03
  -4  -1   6    0.71    0.04
  -3  -1   6    2.62    0.06
  -2  -1   6   54.87    0.70
  -2  -1   6   54.56    0.68
  -1  -1   6    0.80    0.03
  -1  -1   6    0.85    0.03
   0  -1   6    2.92    0.04
   0  -1   6    2.85    0.05
   0  -1   6    2.83    0.05
  -1   1  -6    0.32    0.02
   1  -1   6    0.36    0.02
   1  -1   6    0.36    0.01
  -2   1  -6    2.70    0.05
   2  -1   6    2.75    0.05
  -3   1  -6    1.11    0.04
   3  -1   6    1.13    0.03
  -4   1  -6    0.50    0.03
   4  -1   6    0.48    0.02
  -5   1  -6    1.16    0.04
   5  -1   6    1.14    0.04
  -6   1  -6    0.02    0.02
   6  -1   6    0.06    0.02
   6   0  -6    0.90    0.04
   5   0  -6    0.15    0.02
  -5   0   6    0.15    0.02
   4   0  -6    5.46    0.10
  -4   0   6    5.12    0.10
   3   0  -6    0.25    0.02
   2   0  -6   47.49    0.58
  -2   0   6   45.93    0.59
  -1   0   6   26.36    0.34
  -1   0   6   26.13    0.32
   0   0   6   23.32    0.28
   0   0   6   22.95    0.30
  -1   0  -6   22.70    0.28
  -1   0  -6   22.86    0.28
   1   0   6   22.41    0.29
  -2   0  -6   64.93    0.84
   2   0   6   64.87    0.85
  -3   0  -6    2.90    0.06
   3   0   6    2.94    0.05
  -4   0  -6    1.06    0.04
   4   0   6    1.10    0.03
  -5   0  -6    3.04    0.07
   5   0   6    3.11    0.06
  -6   0  -6    0.04    0.02
   6   0   6    0.02    0.01
   6  -1  -6    0.00    0.02
   5  -1  -6    0.54    0.03
  -5   1   6    0.53    0.04
   4  -1  -6    0.95    0.04
  -4   1   6    0.91    0.04
   3  -1  -6    6.39    0.10
  -3   1   6    6.30    0.11
   2  -1  -6    4.71    0.08
  -2   1   6    4.58    0.08
   1  -1  -6   31.14    0.39
  -1   1   6   31.08    0.40
   0  -1  -6    5.47    0.08
   0   1   6    5.57    0.07
   0   1   6    5.40    0.08
  -1  -1  -6   11.45    0.14
   1   1   6   11.44    0.15
   1   1   6   11.53    0.15
  -2  -1  -6   11.21    0.15
   2   1   6   11.23    0.15
  -3  -1  -6    5.69    0.09
   3   1   6    5.71    0.09
  -4  -1  -6    0.14    0.02
   4   1   6    0.16    0.01
  -5  -1  -6    1.09    0.04
   5   1   6    1.13    0.03
  -6  -1  -6    0.37    0.03
   6   1   6    0.41    0.03
   7   1   6    0.67    0.04
   6  -2  -6    0.05    0.02
   5  -2  -6    3.00    0.07
  -5   2   6    3.01    0.08
   4  -2  -6    0.01    0.01
  -4   2   6    0.00    0.02
   3  -2  -6    7.00    0.11
  -3   2   6    7.07    0.12
   2  -2  -6    0.20    0.02
  -2   2   6    0.20    0.01
  -2   2   6    0.20    0.02
   1  -2  -6    4.72    0.07
  -1   2   6    4.73    0.08
   0  -2  -6    3.62    0.06
   0   2   6    3.62    0.05
   0   2   6    3.65    0.06
  -1  -2  -6   53.60    0.68
   1   2   6   53.59    0.69
   1   2   6   55.10    0.69
  -2  -2  -6   17.48    0.21
   2   2   6   17.14    0.22
   2   2   6   17.27    0.22
  -3  -2  -6    5.87    0.09
   3   2   6    5.75    0.09
  -4  -2  -6    0.33    0.02
   4   2   6    0.34    0.02
  -5  -2  -6    2.35    0.06
   5   2   6    2.33    0.05
  -6  -2  -6    1.28    0.05
   6   2   6    1.31    0.04
   5  -3  -6    0.18    0.02
  -5   3   6    0.17    0.03
   4  -3  -6    0.65    0.03
  -4   3   6    0.58    0.03
   3  -3  -6    2.17    0.05
  -3   3   6    2.16    0.05
   2  -3  -6    0.44    0.02
  -2   3   6    0.42    0.02
  -2   3   6    0.44    0.02
   1  -3  -6    0.94    0.03
  -1   3   6    0.98    0.03
  -1   3   6    1.00    0.02
   0  -3  -6   23.57    0.30
   0   3   6   23.56    0.29
   0   3   6   23.97    0.30
  -1  -3  -6   15.07    0.19
   1   3   6   15.38    0.19
   1   3   6   15.32    0.20
  -2  -3  -6   32.37    0.41
   2   3   6   33.25    0.41
   2   3   6   32.70    0.41
   3   3   6    1.77    0.04
   3   3   6    1.75    0.03
  -4  -3  -6    0.01    0.01
   4   3   6    0.02    0.01
  -5  -3  -6    0.18    0.02
   5   3   6    0.15    0.02
  -6  -3  -6    0.02    0.02
   5  -4  -6    0.02    0.02
  -5   4   6    0.02    0.02
   4  -4  -6    1.90    0.05
  -4   4   6    1.90    0.06
   3  -4  -6    1.41    0.04
  -3   4   6    1.37    0.04
  -3   4   6    1.38    0.04
   2  -4  -6    0.47    0.02
  -2   4   6    0.46    0.02
  -2   4   6    0.43    0.02
   1  -4  -6    0.52    0.02
  -1   4   6    0.54    0.02
  -1   4   6    0.52    0.02
   0  -4  -6    9.43    0.13
   0   4   6    9.77    0.13
   0   4   6    9.26    0.12
  -1  -4  -6   36.78    0.48
   1   4   6   39.05    0.48
   1   4   6   37.48    0.46
  -2  -4  -6   30.60    0.39
   2   4   6   31.81    0.39
   2   4   6   31.15    0.39
   3   4   6    4.55    0.07
   3   4   6    4.47    0.07
   4   4   6    0.00    0.01
   4   4   6    0.02    0.01
   5   4   6    0.46    0.03
   6   4   6    4.21    0.08
   5  -5  -6    0.28    0.03
  -5   5   6    0.32    0.03
   4  -5  -6    0.03    0.02
  -4   5   6    0.07    0.02
   3  -5  -6    1.19    0.04
  -3   5   6    1.23    0.04
  -3   5   6    1.25    0.04
   2  -5  -6    0.15    0.02
  -2   5   6    0.17    0.01
  -2   5   6    0.16    0.02
   1  -5  -6   26.51    0.33
  -1   5   6   25.66    0.33
  -1   5   6   25.86    0.34
   0  -5  -6   22.40    0.28
   0   5   6   21.98    0.28
   0   5   6   22.15    0.29
  -1  -5  -6   62.10    0.80
   1   5   6   61.76    0.93
   1   5   6   64.67    0.81
  -2  -5  -6   11.09    0.15
   2   5   6   11.25    0.15
   2   5   6   11.45    0.15
  -3  -5  -6   24.45    0.31
   3   5   6   25.01    0.31
   3   5   6   24.31    0.31
   4   5   6   10.75    0.15
   5   5   6    0.69    0.03
   6   5   6    0.05    0.02
   5  -6  -6    0.07    0.02
  -5   6   6    0.06    0.02
   4  -6  -6    0.53    0.03
  -4   6   6    0.52    0.03
  -4   6   6    0.54    0.03
   3  -6  -6    0.02    0.01
  -3   6   6   -0.01    0.01
  -3   6   6    0.01    0.01
   2  -6  -6    2.80    0.05
  -2   6   6    2.70    0.05
  -2   6   6    2.67    0.06
   1  -6  -6    0.11    0.01
  -1   6   6    0.12    0.01
  -1   6   6    0.12    0.01
   0  -6  -6   18.64    0.24
   0   6   6   18.43    0.24
   0   6   6   18.33    0.24
  -1  -6  -6   12.07    0.16
   1   6   6   12.06    0.16
   1   6   6   12.42    0.16
  -2  -6  -6    0.03    0.01
   2   6   6    0.03    0.01
   2   6   6    0.02    0.01
  -3  -6  -6    3.27    0.05
   3   6   6    3.26    0.06
   4   6   6   33.20    0.42
   5   6   6    0.69    0.03
   6   6   6    1.84    0.05
   5  -7  -6    0.20    0.02
   4  -7  -6    0.04    0.02
  -4   7   6    0.01    0.02
  -4   7   6    0.01    0.01
   3  -7  -6    5.19    0.09
  -3   7   6    5.15    0.10
  -3   7   6    5.17    0.09
   2  -7  -6    5.54    0.09
  -2   7   6    5.42    0.09
  -2   7   6    5.34    0.09
   1  -7  -6    4.63    0.08
  -1   7   6    4.60    0.08
  -1   7   6    4.64    0.08
   0  -7  -6    2.55    0.05
   0   7   6    2.52    0.05
   0   7   6    2.52    0.05
  -1  -7  -6    0.19    0.02
   1   7   6    0.21    0.02
   1   7   6    0.17    0.01
  -2  -7  -6    5.66    0.09
   2   7   6    5.77    0.09
  -3  -7  -6   14.57    0.19
   3   7   6   14.74    0.20
   4   7   6    0.05    0.01
   5   7   6    1.61    0.04
   6   7   6    1.52    0.05
   4  -8  -6    0.71    0.03
  -4   8   6    0.70    0.04
  -4   8   6    0.64    0.04
   3  -8  -6    0.59    0.03
  -3   8   6    0.52    0.03
  -3   8   6    0.61    0.03
   2  -8  -6    0.32    0.02
  -2   8   6    0.33    0.03
  -2   8   6    0.31    0.02
   1  -8  -6    8.47    0.12
  -1   8   6    8.31    0.13
  -1   8   6    8.29    0.12
   0  -8  -6    1.24    0.03
   0   8   6    1.30    0.03
   0   8   6    1.22    0.03
  -1  -8  -6    0.12    0.01
   1   8   6    0.14    0.02
  -2  -8  -6   12.13    0.17
   2   8   6   12.18    0.17
  -3  -8  -6   29.20    0.37
   3   8   6   29.00    0.37
   4   8   6    5.08    0.08
   5   8   6    1.16    0.04
   6   8   6    0.26    0.02
   4  -9  -6    0.85    0.04
  -4   9   6    0.90    0.04
  -4   9   6    0.93    0.04
   3  -9  -6    2.64    0.06
  -3   9   6    2.63    0.07
  -3   9   6    2.61    0.06
   2  -9  -6    1.19    0.04
  -2   9   6    1.25    0.04
  -2   9   6    1.25    0.04
   1  -9  -6   16.32    0.22
  -1   9   6   16.49    0.23
  -1   9   6   16.32    0.22
   0  -9  -6    7.83    0.12
   0   9   6    7.70    0.12
  -1  -9  -6    3.94    0.07
   1   9   6    3.90    0.07
  -2  -9  -6    4.72    0.08
   2   9   6    4.82    0.08
  -3  -9  -6    7.35    0.11
   3   9   6    7.41    0.11
   4   9   6    0.68    0.03
   5   9   6    0.67    0.03
   6   9   6    0.01    0.02
   4 -10  -6    0.37    0.03
  -4  10   6    0.38    0.03
   3 -10  -6    2.46    0.06
  -3  10   6    2.40    0.06
  -3  10   6    2.28    0.06
   2 -10  -6    4.23    0.08
  -2  10   6    4.04    0.08
  -2  10   6    4.06    0.08
   1 -10  -6    3.20    0.06
  -1  10   6    3.18    0.06
   0 -10  -6    0.56    0.03
   0  10   6    0.51    0.03
  -1 -10  -6   19.83    0.26
   1  10   6   19.68    0.26
  -2 -10  -6    9.84    0.14
   2  10   6    9.61    0.14
  -3 -10  -6    2.00    0.05
   3  10   6    1.96    0.05
  -4 -10  -6    0.28    0.02
   4  10   6    0.20    0.02
   5  10   6    0.51    0.03
   6  10   6    0.22    0.02
   3 -11  -6    0.63    0.03
  -3  11   6    0.71    0.04
   2 -11  -6    2.72    0.06
  -2  11   6    2.64    0.06
   1 -11  -6    0.23    0.02
  -1  11   6    0.26    0.02
   0 -11  -6    3.61    0.07
   0  11   6    3.50    0.07
  -1 -11  -6   10.06    0.15
   1  11   6    9.91    0.15
  -2 -11  -6    3.84    0.07
   2  11   6    3.80    0.07
  -3 -11  -6    3.95    0.08
   3  11   6    3.84    0.07
  -4 -11  -6    0.76    0.03
   4  11   6    0.73    0.03
   5  11   6    0.00    0.02
   6  11   6   -0.01    0.02
   3 -12  -6    0.03    0.02
  -3  12   6    0.07    0.02
   2 -12  -6    0.94    0.04
  -2  12   6    0.93    0.04
   1 -12  -6    0.19    0.02
  -1  12   6    0.20    0.02
   0 -12  -6   28.92    0.38
   0  12   6   28.91    0.38
  -1 -12  -6    0.86    0.04
   1  12   6    0.82    0.03
  -2 -12  -6    0.49    0.03
   2  12   6    0.47    0.03
  -3 -12  -6    0.66    0.03
   3  12   6    0.59    0.03
  -4 -12  -6    0.40    0.03
   4  12   6    0.38    0.03
   5  12   6    0.84    0.04
   2 -13  -6    0.32    0.03
  -2  13   6    0.28    0.03
   1 -13  -6    1.05    0.04
  -1  13   6    1.03    0.04
   0 -13  -6    0.07    0.02
   0  13   6    0.09    0.02
  -1 -13  -6    0.42    0.03
   1  13   6    0.40    0.03
  -2 -13  -6    0.13    0.02
   2  13   6    0.07    0.02
  -3 -13  -6    0.00    0.02
   3  13   6    0.00    0.02
  -4 -13  -6    0.17    0.02
   4  13   6    0.13    0.02
   5  13   6    0.21    0.03
   1 -14  -6    4.68    0.09
  -1  14   6    4.49    0.09
   0 -14  -6    2.51    0.06
   0  14   6    2.39    0.06
  -1 -14  -6    2.84    0.07
   1  14   6    2.81    0.07
  -2 -14  -6    0.63    0.03
   2  14   6    0.64    0.04
  -3 -14  -6    0.02    0.02
   3  14   6   -0.01    0.02
  -4 -14  -6    0.52    0.04
   4  14   6    0.49    0.04
  -1 -15  -6    0.02    0.02
   1  15   6    0.00    0.02
  -2 -15  -6    0.07    0.02
   2  15   6    0.06    0.02
  -3 -15  -6    0.00    0.02
   3  15   6   -0.01    0.02
  -1 -11   7    0.63    0.04
  -2 -10   7    1.37    0.06
  -1 -10   7    5.94    0.12
   2 -10   7    0.57    0.03
  -3  -9   7    0.00    0.02
  -2  -9   7    0.15    0.03
  -1  -9   7    5.99    0.11
   1  -9   7    0.78    0.03
   2  -9   7    2.28    0.06
   3  -9   7    0.08    0.02
  -3  -8   7    0.62    0.04
  -2  -8   7    0.53    0.04
  -1  -8   7    0.16    0.03
   0  -8   7    0.13    0.02
   0  -8   7    0.14    0.02
   1  -8   7    0.55    0.03
   2  -8   7    0.45    0.03
   3  -8   7    0.23    0.02
  -4   8  -7    3.81    0.09
  -4  -7   7    1.21    0.05
  -3  -7   7   -0.02    0.02
  -2  -7   7    3.82    0.07
  -2  -7   7    3.88    0.08
  -1  -7   7    0.55    0.03
  -1  -7   7    0.59    0.03
   0  -7   7    0.30    0.02
   0  -7   7    0.23    0.02
   1  -7   7    4.68    0.08
   2  -7   7    1.04    0.04
  -3   7  -7    0.56    0.03
   3  -7   7    0.55    0.03
  -4   7  -7    0.49    0.04
   4  -7   7    0.43    0.03
  -4  -6   7   -0.03    0.02
  -3  -6   7    0.09    0.02
  -3  -6   7    0.08    0.02
  -2  -6   7    0.35    0.03
  -2  -6   7    0.40    0.02
  -1  -6   7    0.26    0.02
  -1  -6   7    0.24    0.02
   0  -6   7    1.37    0.04
   0  -6   7    1.30    0.04
   1  -6   7    1.35    0.04
  -2   6  -7    1.79    0.05
   2  -6   7    1.68    0.04
  -3   6  -7    0.31    0.03
   3  -6   7    0.31    0.03
  -4   6  -7    0.22    0.03
   4  -6   7    0.17    0.02
  -4  -5   7    0.06    0.02
  -4  -5   7    0.12    0.02
  -3  -5   7    0.54    0.03
  -3  -5   7    0.53    0.03
  -2  -5   7    6.86    0.11
  -2  -5   7    7.03    0.12
  -1  -5   7    1.98    0.05
  -1  -5   7    1.94    0.04
   0  -5   7    4.70    0.08
   0  -5   7    4.71    0.08
   1  -5   7    9.13    0.14
  -2   5  -7    3.10    0.07
   2  -5   7    3.26    0.06
  -3   5  -7    0.19    0.02
   3  -5   7    0.18    0.02
  -4   5  -7    1.91    0.06
   4  -5   7    1.88    0.05
  -5   5  -7    0.01    0.02
   5  -5   7    0.00    0.02
  -5  -4   7    0.10    0.02
  -4  -4   7    0.48    0.04
  -4  -4   7    0.49    0.03
  -3  -4   7    0.62    0.03
  -3  -4   7    0.65    0.03
  -2  -4   7    8.28    0.13
  -2  -4   7    8.31    0.13
  -1  -4   7    6.02    0.09
  -1  -4   7    5.97    0.10
   0  -4   7    0.44    0.02
  -1   4  -7    0.03    0.01
   1  -4   7    0.01    0.01
  -2   4  -7    4.57    0.08
   2  -4   7    4.69    0.08
  -3   4  -7   25.25    0.34
   3  -4   7   25.06    0.34
  -4   4  -7    0.14    0.02
   4  -4   7    0.13    0.02
  -5   4  -7    1.54    0.06
   5  -4   7    1.57    0.05
   5   3  -7    0.03    0.02
  -5  -3   7    0.05    0.02
  -4  -3   7    0.90    0.04
  -4  -3   7    0.90    0.04
  -3  -3   7    0.77    0.03
  -3  -3   7    0.69    0.04
  -2  -3   7    0.30    0.02
  -2  -3   7    0.30    0.03
  -1  -3   7    1.71    0.04
  -1  -3   7    1.61    0.04
   0  -3   7    0.93    0.03
   0  -3   7    0.95    0.03
  -1   3  -7    0.97    0.03
   1  -3   7    0.99    0.03
   1  -3   7    1.02    0.03
  -2   3  -7    8.49    0.13
   2  -3   7    8.34    0.12
  -3   3  -7   -0.03    0.01
   3  -3   7    0.00    0.01
  -4   3  -7    0.18    0.02
   4  -3   7    0.18    0.02
  -5   3  -7    1.27    0.05
   5  -3   7    1.35    0.04
   5   2  -7    0.03    0.02
  -5  -2   7    0.05    0.02
   4   2  -7    0.04    0.02
  -4  -2   7    0.05    0.02
  -3  -2   7    8.67    0.14
  -3  -2   7    8.46    0.14
  -2  -2   7   16.44    0.23
  -2  -2   7   16.66    0.23
  -1  -2   7    0.74    0.03
  -1  -2   7    0.71    0.03
   0  -2   7    0.18    0.02
   0  -2   7    0.20    0.02
  -1   2  -7    0.00    0.01
   1  -2   7    0.02    0.01
   1  -2   7    0.00    0.01
  -2   2  -7   17.09    0.23
   2  -2   7   17.04    0.23
  -3   2  -7    1.60    0.04
   3  -2   7    1.58    0.04
  -4   2  -7    0.04    0.01
   4  -2   7    0.05    0.02
  -5   2  -7    1.20    0.05
   5  -2   7    1.12    0.04
  -6   2  -7    0.99    0.05
   6  -2   7    1.08    0.04
   5   1  -7   -0.01    0.02
  -5  -1   7   -0.01    0.02
   4   1  -7    0.04    0.02
  -4  -1   7    0.04    0.02
   3   1  -7   11.02    0.16
  -3  -1   7   10.51    0.16
  -2  -1   7   29.87    0.39
  -2  -1   7   30.31    0.39
  -1  -1   7    2.35    0.05
  -1  -1   7    2.35    0.05
   0  -1   7    1.88    0.04
   0  -1   7    1.84    0.04
  -1   1  -7    0.73    0.02
   1  -1   7    0.72    0.02
   1  -1   7    0.72    0.02
  -2   1  -7    5.21    0.08
   2  -1   7    5.11    0.08
  -3   1  -7    0.04    0.01
   3  -1   7    0.04    0.01
  -4   1  -7    0.01    0.01
   4  -1   7    0.03    0.01
  -5   1  -7    0.36    0.03
   5  -1   7    0.37    0.02
  -6   1  -7    0.01    0.02
   6  -1   7    0.02    0.02
   5   0  -7    0.03    0.02
  -5   0   7    0.00    0.02
   4   0  -7    4.72    0.09
  -4   0   7    4.67    0.09
   3   0  -7   27.00    0.36
  -3   0   7   27.35    0.37
   2   0  -7    5.74    0.09
  -2   0   7    5.82    0.10
   1   0  -7    0.64    0.03
  -1   0   7    0.69    0.03
   0   0  -7    2.16    0.04
   0   0   7    2.27    0.03
   0   0   7    2.27    0.04
  -1   0  -7    4.99    0.07
   1   0   7    5.21    0.08
  -2   0  -7    7.40    0.11
   2   0   7    7.73    0.11
  -3   0  -7    0.01    0.01
   3   0   7    0.02    0.01
  -4   0  -7    3.03    0.07
   4   0   7    3.06    0.06
  -5   0  -7    0.91    0.04
   5   0   7    0.92    0.03
  -6   0  -7    0.09    0.02
   6   0   7    0.03    0.02
   5  -1  -7    0.51    0.03
  -5   1   7    0.53    0.04
   4  -1  -7    0.19    0.02
  -4   1   7    0.21    0.02
   3  -1  -7    6.20    0.10
  -3   1   7    6.19    0.11
   2  -1  -7    1.78    0.04
  -2   1   7    1.78    0.04
   1  -1  -7    4.36    0.07
  -1   1   7    4.22    0.07
   0  -1  -7    4.46    0.07
   0   1   7    4.51    0.06
   0   1   7    4.38    0.07
  -1  -1  -7    6.47    0.09
   1   1   7    6.70    0.09
   1   1   7    6.66    0.10
  -2  -1  -7    1.41    0.03
   2   1   7    1.38    0.03
  -3  -1  -7    0.54    0.03
   3   1   7    0.53    0.02
  -4  -1  -7    8.66    0.14
   4   1   7    8.75    0.13
  -5  -1  -7    4.49    0.09
   5   1   7    4.40    0.08
  -6  -1  -7    0.08    0.02
   6   1   7    0.07    0.02
   5  -2  -7    1.58    0.05
  -5   2   7    1.56    0.06
   4  -2  -7    0.17    0.02
  -4   2   7    0.17    0.02
   3  -2  -7    0.05    0.02
  -3   2   7    0.09    0.02
   2  -2  -7    0.67    0.03
  -2   2   7    0.68    0.03
   1  -2  -7   13.60    0.18
  -1   2   7   13.83    0.19
   0  -2  -7    0.90    0.02
   0   2   7    0.87    0.02
   0   2   7    0.87    0.02
  -1  -2  -7   28.36    0.36
   1   2   7   28.93    0.37
   1   2   7   28.98    0.35
   2   2   7    0.66    0.02
   2   2   7    0.64    0.02
  -3  -2  -7    5.75    0.09
   3   2   7    5.49    0.09
  -4  -2  -7    0.46    0.03
   4   2   7    0.47    0.02
  -5  -2  -7    1.54    0.05
   5   2   7    1.44    0.04
  -6  -2  -7    0.00    0.02
   6   2   7   -0.01    0.01
   5  -3  -7    0.10    0.02
  -5   3   7    0.11    0.02
   4  -3  -7    0.11    0.02
  -4   3   7    0.12    0.02
   3  -3  -7   15.18    0.21
  -3   3   7   15.06    0.22
   2  -3  -7    1.61    0.04
  -2   3   7    1.62    0.04
   1  -3  -7   13.91    0.18
  -1   3   7   13.60    0.19
   0  -3  -7   10.46    0.14
   0   3   7   10.57    0.14
   0   3   7   10.59    0.14
  -1  -3  -7    6.68    0.09
   1   3   7    6.64    0.09
   1   3   7    6.60    0.09
  -2  -3  -7    4.08    0.06
   2   3   7    4.08    0.06
   2   3   7    4.09    0.06
   3   3   7   13.23    0.18
   3   3   7   13.36    0.18
   4   3   7    3.47    0.06
  -5  -3  -7    0.76    0.03
   5   3   7    0.78    0.03
  -6  -3  -7    0.05    0.02
   5  -4  -7    0.02    0.02
  -5   4   7    0.03    0.02
   4  -4  -7    2.09    0.05
  -4   4   7    2.10    0.06
   3  -4  -7   11.90    0.17
  -3   4   7   11.90    0.18
   2  -4  -7    1.36    0.04
  -2   4   7    1.33    0.03
  -2   4   7    1.32    0.04
   1  -4  -7    0.88    0.03
  -1   4   7    0.84    0.03
   0  -4  -7   36.98    0.47
   0   4   7   37.01    0.46
   0   4   7   37.41    0.47
  -1  -4  -7    0.06    0.01
   1   4   7    0.05    0.01
   1   4   7    0.05    0.01
  -2  -4  -7    8.81    0.12
   2   4   7    9.17    0.12
   2   4   7    9.18    0.12
   3   4   7    2.27    0.05
   3   4   7    2.25    0.04
   4   4   7    4.11    0.07
   4   4   7    4.20    0.07
   5   4   7    1.05    0.04
   6   4   7    2.52    0.06
   5  -5  -7    0.27    0.03
  -5   5   7    0.21    0.03
   4  -5  -7    2.68    0.06
  -4   5   7    2.91    0.07
   3  -5  -7    1.22    0.04
  -3   5   7    1.21    0.04
   2  -5  -7    9.09    0.13
  -2   5   7    8.96    0.14
  -2   5   7    9.12    0.13
   1  -5  -7   12.64    0.17
  -1   5   7   12.58    0.18
   0  -5  -7    0.42    0.02
   0   5   7    0.47    0.02
   0   5   7    0.44    0.02
  -1  -5  -7    0.60    0.02
   1   5   7    0.59    0.02
   1   5   7    0.64    0.02
  -2  -5  -7    9.71    0.13
   2   5   7    9.85    0.13
   2   5   7    9.70    0.13
   3   5   7    0.18    0.02
   3   5   7    0.20    0.02
   4   5   7    2.69    0.06
   5   5   7    0.79    0.03
   6   5   7    0.02    0.02
   5  -6  -7    0.22    0.02
   4  -6  -7    4.46    0.09
  -4   6   7    4.55    0.10
   3  -6  -7   15.69    0.22
  -3   6   7   15.78    0.22
  -3   6   7   15.60    0.23
   2  -6  -7    1.36    0.04
  -2   6   7    1.42    0.04
  -2   6   7    1.30    0.04
   1  -6  -7    5.60    0.09
  -1   6   7    5.42    0.08
  -1   6   7    5.44    0.09
   0  -6  -7    0.28    0.02
   0   6   7    0.27    0.02
   0   6   7    0.26    0.02
  -1  -6  -7    0.54    0.02
   1   6   7    0.55    0.02
   1   6   7    0.56    0.02
  -2  -6  -7    3.17    0.05
   2   6   7    3.22    0.05
   3   6   7    5.56    0.09
   4   6   7    9.59    0.14
   5   6   7    3.22    0.07
   6   6   7   -0.01    0.02
   4  -7  -7    0.44    0.03
  -4   7   7    0.50    0.04
   3  -7  -7    0.31    0.02
  -3   7   7    0.36    0.02
  -3   7   7    0.33    0.03
   2  -7  -7    2.22    0.05
  -2   7   7    2.19    0.05
  -2   7   7    2.20    0.05
   1  -7  -7    1.35    0.04
  -1   7   7    1.23    0.03
  -1   7   7    1.33    0.04
   0  -7  -7    0.12    0.01
   0   7   7    0.14    0.01
   0   7   7    0.16    0.01
  -1  -7  -7    4.94    0.08
   1   7   7    5.00    0.07
   1   7   7    5.02    0.08
  -2  -7  -7    3.57    0.06
   2   7   7    3.63    0.06
  -3  -7  -7    0.21    0.02
   3   7   7    0.21    0.02
   4   7   7    2.33    0.05
   5   7   7    4.90    0.09
   6   7   7    0.31    0.03
   4  -8  -7   12.58    0.19
  -4   8   7   12.40    0.20
  -4   8   7   12.40    0.19
   3  -8  -7    0.52    0.03
  -3   8   7    0.52    0.04
  -3   8   7    0.53    0.03
   2  -8  -7    0.67    0.03
  -2   8   7    0.69    0.03
  -2   8   7    0.70    0.03
   1  -8  -7   13.26    0.19
  -1   8   7   13.43    0.19
  -1   8   7   13.30    0.18
   0  -8  -7    1.36    0.03
   0   8   7    1.43    0.04
   0   8   7    1.33    0.03
  -1  -8  -7    7.14    0.11
   1   8   7    7.18    0.11
  -2  -8  -7   33.58    0.42
   2   8   7   33.43    0.42
  -3  -8  -7    0.40    0.02
   3   8   7    0.39    0.02
   4   8   7   -0.01    0.01
   5   8   7    2.45    0.05
   6   8   7    0.02    0.02
   4  -9  -7    1.32    0.05
  -4   9   7    1.33    0.05
  -4   9   7    1.27    0.05
   3  -9  -7    0.05    0.02
  -3   9   7    0.07    0.02
  -3   9   7    0.07    0.02
   2  -9  -7    6.68    0.11
  -2   9   7    6.54    0.11
  -2   9   7    6.62    0.11
   1  -9  -7    0.52    0.02
  -1   9   7    0.51    0.03
  -1   9   7    0.50    0.03
   0  -9  -7    0.01    0.01
   0   9   7    0.01    0.01
  -1  -9  -7    0.06    0.01
   1   9   7    0.03    0.02
  -2  -9  -7    1.59    0.04
   2   9   7    1.62    0.04
  -3  -9  -7    1.49    0.04
   3   9   7    1.45    0.04
   4   9   7    0.87    0.03
   5   9   7    0.34    0.02
   6   9   7    0.64    0.03
  -4  10   7    0.25    0.03
  -4  10   7    0.19    0.03
   3 -10  -7    0.62    0.03
  -3  10   7    0.61    0.03
  -3  10   7    0.58    0.04
   2 -10  -7    7.37    0.12
  -2  10   7    6.98    0.12
   1 -10  -7   13.33    0.19
  -1  10   7   13.19    0.19
   0 -10  -7    2.39    0.05
   0  10   7    2.37    0.05
  -1 -10  -7   52.70    0.66
   1  10   7   52.23    0.65
  -2 -10  -7    5.30    0.09
   2  10   7    5.33    0.09
  -3 -10  -7    0.87    0.03
   3  10   7    0.79    0.03
   4  10   7    0.26    0.02
   5  10   7    0.07    0.02
   6  10   7    0.91    0.04
   3 -11  -7    0.38    0.03
  -3  11   7    0.41    0.03
   2 -11  -7    0.37    0.03
  -2  11   7    0.39    0.03
   1 -11  -7    2.91    0.06
  -1  11   7    2.82    0.06
   0 -11  -7    1.23    0.04
   0  11   7    1.29    0.04
  -1 -11  -7    3.33    0.07
   1  11   7    3.37    0.07
  -2 -11  -7    0.27    0.02
   2  11   7    0.33    0.03
  -3 -11  -7   -0.01    0.01
   3  11   7   -0.04    0.01
   4  11   7    0.01    0.02
   5  11   7   -0.01    0.01
   2 -12  -7   -0.02    0.02
  -2  12   7    0.03    0.02
   1 -12  -7    0.35    0.03
  -1  12   7    0.43    0.03
   0 -12  -7   12.15    0.18
   0  12   7   11.84    0.18
  -1 -12  -7    0.74    0.03
   1  12   7    0.70    0.03
  -2 -12  -7    0.34    0.02
   2  12   7    0.34    0.03
  -3 -12  -7    0.29    0.03
   3  12   7    0.29    0.03
   4  12   7    0.00    0.02
   5  12   7    0.46    0.03
   2 -13  -7    0.09    0.02
  -2  13   7    0.13    0.02
   1 -13  -7    2.50    0.06
  -1  13   7    2.44    0.06
   0 -13  -7    6.29    0.11
   0  13   7    6.17    0.11
  -1 -13  -7    0.50    0.03
   1  13   7    0.50    0.03
  -2 -13  -7    0.01    0.02
   2  13   7    0.02    0.02
  -3 -13  -7    0.52    0.03
   3  13   7    0.46    0.03
  -4 -13  -7    0.34    0.03
   4  13   7    0.27    0.03
   1 -14  -7    1.72    0.05
  -1  14   7    1.73    0.05
   0 -14  -7    0.06    0.02
   0  14   7    0.04    0.02
  -1 -14  -7    0.56    0.03
   1  14   7    0.57    0.03
  -2 -14  -7    0.89    0.04
   2  14   7    0.84    0.04
  -3 -14  -7    0.44    0.03
   3  14   7    0.44    0.03
  -4 -14  -7    0.46    0.04
   4  14   7    0.47    0.04
  -1 -15  -7    0.54    0.03
   1  15   7    0.60    0.04
  -2 -15  -7    0.77    0.04
   2  15   7    0.81    0.04
  -3 -15  -7    3.04    0.08
  -2 -10   8    0.22    0.03
   2 -10   8   -0.01    0.02
  -2  -9   8    0.11    0.03
  -1  -9   8    0.02    0.02
   1  -9   8    0.05    0.02
   2  -9   8    0.15    0.02
  -3  -8   8    0.40    0.04
  -2  -8   8    1.20    0.05
  -1  -8   8    0.07    0.02
   0  -8   8    0.26    0.02
   1  -8   8   -0.03    0.02
   2  -8   8    2.84    0.07
   3  -8   8    0.00    0.02
  -3  -7   8    0.16    0.03
  -2  -7   8    0.31    0.03
  -1  -7   8    0.50    0.03
  -1  -7   8    0.55    0.03
   0  -7   8    0.22    0.02
   1  -7   8    0.31    0.02
   2  -7   8    0.16    0.02
   3  -7   8    0.16    0.02
  -4   7  -8    0.01    0.02
  -4  -6   8    0.19    0.03
  -3  -6   8    0.04    0.02
  -3  -6   8    0.06    0.02
  -2  -6   8    0.02    0.02
  -2  -6   8   -0.02    0.02
  -1  -6   8    0.04    0.01
  -1  -6   8    0.03    0.02
   0  -6   8    0.01    0.01
   1  -6   8    3.04    0.06
   2  -6   8    0.28    0.02
  -3   6  -8    4.49    0.09
   3  -6   8    4.49    0.09
  -4   6  -8    0.02    0.02
   4  -6   8   -0.01    0.02
  -4  -5   8   -0.02    0.02
  -4  -5   8   -0.01    0.02
  -3  -5   8    0.56    0.03
  -3  -5   8    0.59    0.04
  -2  -5   8    0.10    0.02
  -2  -5   8    0.09    0.02
  -1  -5   8    8.29    0.13
  -1  -5   8    8.34    0.13
   0  -5   8    0.41    0.03
   0  -5   8    0.36    0.02
   1  -5   8    6.93    0.11
   2  -5   8    9.18    0.14
  -3   5  -8    1.84    0.05
   3  -5   8    1.79    0.05
  -4   5  -8    0.01    0.02
   4  -5   8    0.04    0.02
  -5   5  -8    0.48    0.04
  -4  -4   8    0.05    0.02
  -4  -4   8    0.06    0.02
  -3  -4   8    0.02    0.02
  -3  -4   8    0.01    0.02
  -2  -4   8    0.11    0.02
  -2  -4   8    0.16    0.02
  -1  -4   8    3.39    0.06
  -1  -4   8    3.42    0.07
   0  -4   8    3.74    0.07
   0  -4   8    3.77    0.07
   1  -4   8    0.47    0.03
  -2   4  -8   12.45    0.18
   2  -4   8   12.39    0.18
  -3   4  -8    0.17    0.02
   3  -4   8    0.16    0.02
  -4   4  -8    0.51    0.03
   4  -4   8    0.52    0.03
  -5   4  -8    0.18    0.03
   5  -4   8    0.18    0.02
  -5  -3   8    0.98    0.05
  -4  -3   8    0.05    0.02
  -3  -3   8    0.07    0.02
  -3  -3   8    0.09    0.02
  -2  -3   8    5.59    0.10
  -2  -3   8    5.66    0.10
  -1  -3   8    2.27    0.05
  -1  -3   8    2.29    0.05
   0  -3   8    3.45    0.06
   0  -3   8    3.42    0.06
   1  -3   8    4.41    0.08
  -2   3  -8    5.87    0.10
   2  -3   8    5.79    0.10
  -3   3  -8    0.64    0.03
   3  -3   8    0.63    0.03
  -4   3  -8    0.01    0.02
   4  -3   8   -0.01    0.01
  -5   3  -8    2.74    0.07
   5  -3   8    2.81    0.06
   5   2  -8    0.00    0.02
  -5  -2   8    0.03    0.02
   4   2  -8    0.06    0.02
  -4  -2   8    0.03    0.02
  -3  -2   8    4.33    0.08
  -2  -2   8    3.13    0.07
  -2  -2   8    3.28    0.07
  -1  -2   8    2.10    0.05
  -1  -2   8    2.12    0.05
   0  -2   8    2.74    0.05
   0  -2   8    2.62    0.05
   1  -2   8    0.00    0.01
  -2   2  -8    0.27    0.02
   2  -2   8    0.30    0.02
  -3   2  -8    7.73    0.12
   3  -2   8    7.80    0.12
  -4   2  -8    0.63    0.03
   4  -2   8    0.65    0.03
  -5   2  -8    5.15    0.10
   5  -2   8    5.01    0.09
   5   1  -8    0.07    0.02
  -5  -1   8    0.04    0.02
   4   1  -8    3.40    0.08
  -4  -1   8    3.61    0.08
   3   1  -8    3.56    0.07
  -3  -1   8    3.71    0.08
   2   1  -8   10.43    0.15
  -2  -1   8   10.46    0.16
  -1  -1   8    9.27    0.14
  -1  -1   8    9.23    0.14
   0  -1   8    3.08    0.06
   0  -1   8    3.17    0.06
  -1   1  -8    1.48    0.03
   1  -1   8    1.45    0.04
  -2   1  -8   17.48    0.23
   2  -1   8   17.12    0.23
  -3   1  -8    0.04    0.01
   3  -1   8    0.04    0.01
  -4   1  -8    1.67    0.05
   4  -1   8    1.68    0.04
  -5   1  -8    2.35    0.06
   5  -1   8    2.40    0.06
  -6   1  -8    1.24    0.05
   6  -1   8    1.22    0.04
   5   0  -8    2.31    0.06
  -5   0   8    2.43    0.07
   4   0  -8    0.34    0.03
  -4   0   8    0.34    0.03
   3   0  -8   23.03    0.31
  -3   0   8   22.38    0.31
   2   0  -8   11.89    0.17
  -2   0   8   11.81    0.17
   1   0  -8    1.84    0.04
  -1   0   8    1.78    0.04
   0   0  -8    6.08    0.09
   0   0   8    6.13    0.09
  -1   0  -8   19.87    0.25
   1   0   8   20.42    0.25
   1   0   8   20.42    0.27
  -2   0  -8    0.26    0.02
   2   0   8    0.30    0.02
  -3   0  -8    0.02    0.01
   3   0   8    0.03    0.01
  -4   0  -8    7.60    0.13
   4   0   8    7.58    0.12
  -5   0  -8    0.39    0.03
   5   0   8    0.44    0.03
  -6   0  -8   -0.02    0.02
   6   0   8    0.02    0.02
   5  -1  -8    0.29    0.03
  -5   1   8    0.38    0.03
   4  -1  -8    0.54    0.03
  -4   1   8    0.53    0.03
   3  -1  -8    0.79    0.03
  -3   1   8    0.86    0.04
   2  -1  -8    2.10    0.05
  -2   1   8    2.04    0.05
   1  -1  -8    6.89    0.10
  -1   1   8    6.94    0.11
   0  -1  -8   13.18    0.18
   0   1   8   13.63    0.17
   0   1   8   13.33    0.18
  -1  -1  -8   58.75    0.74
   1   1   8   58.49    0.74
   1   1   8   59.45    0.73
   2   1   8    0.21    0.02
  -3  -1  -8    0.08    0.01
   3   1   8    0.09    0.01
  -4  -1  -8    6.16    0.11
   4   1   8    6.41    0.10
  -5  -1  -8    1.00    0.04
   5   1   8    0.95    0.03
  -6  -1  -8    0.08    0.02
   6   1   8    0.11    0.02
   5  -2  -8    0.31    0.03
  -5   2   8    0.29    0.03
   4  -2  -8    0.83    0.04
  -4   2   8    0.90    0.04
   3  -2  -8   -0.01    0.01
  -3   2   8    0.00    0.02
   2  -2  -8   12.98    0.18
  -2   2   8   12.94    0.19
   1  -2  -8    9.17    0.13
  -1   2   8    9.09    0.13
   0  -2  -8    4.02    0.06
   0   2   8    4.05    0.07
   0   2   8    4.04    0.06
  -1  -2  -8    6.30    0.09
   1   2   8    6.38    0.10
   1   2   8    6.46    0.09
   2   2   8    0.15    0.01
   2   2   8    0.09    0.01
   3   2   8    1.40    0.04
  -4  -2  -8    0.56    0.03
   4   2   8    0.59    0.03
  -5  -2  -8   -0.01    0.01
   5   2   8    0.03    0.01
  -6  -2  -8    0.58    0.04
   6   2   8    0.55    0.03
   5  -3  -8    0.08    0.02
  -5   3   8    0.10    0.03
   4  -3  -8    1.70    0.05
  -4   3   8    1.59    0.05
   3  -3  -8    1.70    0.05
  -3   3   8    1.73    0.05
   2  -3  -8    0.09    0.02
  -2   3   8    0.09    0.02
   1  -3  -8    9.34    0.13
  -1   3   8    9.40    0.14
   0  -3  -8   15.66    0.21
   0   3   8   16.11    0.21
   0   3   8   16.15    0.20
  -1  -3  -8    5.31    0.07
   1   3   8    5.18    0.08
   1   3   8    5.27    0.08
   2   3   8    0.50    0.02
   2   3   8    0.47    0.02
   3   3   8    3.91    0.07
   3   3   8    3.85    0.07
   4   3   8    5.03    0.09
   4   3   8    5.10    0.08
   5   3   8    1.70    0.04
   5  -4  -8    0.01    0.02
  -5   4   8    0.00    0.02
   4  -4  -8    2.26    0.06
  -4   4   8    2.26    0.06
   3  -4  -8    2.99    0.06
  -3   4   8    3.03    0.07
   2  -4  -8   18.15    0.24
  -2   4   8   18.17    0.25
   1  -4  -8    0.86    0.03
  -1   4   8    0.84    0.03
   0  -4  -8   26.72    0.34
   0   4   8   27.19    0.35
   0   4   8   26.81    0.33
  -1  -4  -8    0.27    0.01
   1   4   8    0.27    0.02
   1   4   8    0.24    0.02
   2   4   8    6.52    0.09
   2   4   8    6.40    0.09
   3   4   8    6.89    0.10
   3   4   8    6.75    0.10
   4   4   8   33.49    0.43
   4   4   8   33.27    0.43
   5   4   8    3.01    0.06
   6   4   8    0.04    0.02
   4  -5  -8    1.33    0.04
  -4   5   8    1.34    0.05
   3  -5  -8    1.81    0.05
  -3   5   8    1.81    0.05
   2  -5  -8    2.76    0.06
  -2   5   8    2.78    0.06
  -2   5   8    2.82    0.05
   1  -5  -8    2.51    0.05
  -1   5   8    2.36    0.05
   0  -5  -8    5.96    0.09
   0   5   8    5.91    0.09
   0   5   8    5.85    0.09
  -1  -5  -8    0.05    0.01
   1   5   8    0.07    0.01
   1   5   8    0.07    0.01
  -2  -5  -8    3.21    0.05
   2   5   8    3.32    0.05
   2   5   8    3.20    0.06
   3   5   8    0.48    0.03
   3   5   8    0.59    0.02
   4   5   8    9.76    0.14
   5   5   8    1.12    0.04
   6   5   8    0.23    0.02
   4  -6  -8    1.12    0.04
  -4   6   8    1.11    0.05
   3  -6  -8   12.81    0.19
  -3   6   8   12.89    0.20
   2  -6  -8    0.37    0.02
  -2   6   8    0.40    0.02
  -2   6   8    0.35    0.03
   1  -6  -8    8.62    0.13
  -1   6   8    8.38    0.13
  -1   6   8    8.44    0.12
   0  -6  -8    2.43    0.05
   0   6   8    2.48    0.05
   0   6   8    2.42    0.05
  -1  -6  -8    0.20    0.01
   1   6   8    0.22    0.02
   1   6   8    0.23    0.02
  -2  -6  -8    2.19    0.04
   2   6   8    2.19    0.04
   3   6   8  191.41    2.40
   4   6   8    2.71    0.06
   5   6   8    0.10    0.02
   6   6   8    1.39    0.04
   4  -7  -8    5.26    0.10
  -4   7   8    5.19    0.11
   3  -7  -8    0.42    0.03
  -3   7   8    0.47    0.03
   2  -7  -8    0.16    0.02
  -2   7   8    0.19    0.02
  -2   7   8    0.18    0.02
   1  -7  -8    1.94    0.04
  -1   7   8    1.89    0.04
  -1   7   8    1.91    0.05
   0  -7  -8    2.73    0.05
   0   7   8    2.73    0.05
   0   7   8    2.72    0.05
  -1  -7  -8    0.07    0.01
   1   7   8    0.07    0.01
   1   7   8    0.05    0.01
  -2  -7  -8    4.47    0.07
   2   7   8    4.39    0.07
   3   7   8    0.41    0.03
   4   7   8    3.87    0.07
   5   7   8    0.05    0.01
   6   7   8    0.20    0.02
   4  -8  -8    1.97    0.06
  -4   8   8    1.90    0.06
   3  -8  -8    0.26    0.02
  -3   8   8    0.31    0.03
  -3   8   8    0.32    0.03
   2  -8  -8    0.66    0.03
  -2   8   8    0.73    0.03
  -2   8   8    0.70    0.03
   1  -8  -8    0.38    0.02
  -1   8   8    0.41    0.03
  -1   8   8    0.42    0.02
   0  -8  -8    0.47    0.02
   0   8   8    0.42    0.02
   0   8   8    0.43    0.03
  -1  -8  -8    1.46    0.04
   1   8   8    1.46    0.04
  -2  -8  -8   87.61    1.09
   2   8   8   87.54    1.07
   3   8   8    0.01    0.01
   4   8   8    0.02    0.01
   5   8   8    0.06    0.02
   6   8   8    0.60    0.03
   3  -9  -8    0.09    0.02
  -3   9   8    0.12    0.02
  -3   9   8    0.09    0.02
   2  -9  -8   18.52    0.26
  -2   9   8   18.52    0.25
  -2   9   8   18.73    0.26
   1  -9  -8    1.39    0.04
  -1   9   8    1.29    0.04
  -1   9   8    1.31    0.04
   0  -9  -8    0.19    0.02
   0   9   8    0.19    0.02
  -1  -9  -8    6.71    0.10
   1   9   8    6.78    0.11
  -2  -9  -8    0.03    0.01
   2   9   8    0.05    0.01
  -3  -9  -8    2.13    0.05
   3   9   8    2.13    0.05
   4   9   8    0.05    0.02
   5   9   8    0.03    0.01
   6   9   8    0.02    0.02
   3 -10  -8    1.44    0.05
  -3  10   8    1.40    0.05
  -3  10   8    1.44    0.05
   2 -10  -8   -0.01    0.02
  -2  10   8    0.01    0.02
   1 -10  -8    2.15    0.05
  -1  10   8    2.14    0.05
   0 -10  -8    0.35    0.02
   0  10   8    0.36    0.03
  -1 -10  -8   13.35    0.19
   1  10   8   13.21    0.19
  -2 -10  -8    0.45    0.02
   2  10   8    0.48    0.03
  -3 -10  -8    1.59    0.04
   3  10   8    1.58    0.04
   4  10   8    0.07    0.02
   5  10   8    0.19    0.02
   3 -11  -8    1.25    0.05
   2 -11  -8    0.09    0.02
  -2  11   8    0.09    0.02
   1 -11  -8    1.69    0.05
  -1  11   8    1.60    0.05
   0 -11  -8   16.18    0.23
   0  11   8   16.07    0.22
  -1 -11  -8    2.48    0.06
   1  11   8    2.55    0.06
  -2 -11  -8    1.00    0.03
   2  11   8    0.97    0.04
  -3 -11  -8    0.47    0.03
   3  11   8    0.46    0.03
   4  11   8    0.28    0.02
   5  11   8    3.37    0.07
   2 -12  -8    1.25    0.05
  -2  12   8    1.28    0.05
   1 -12  -8    2.34    0.06
  -1  12   8    2.37    0.06
   0 -12  -8    0.31    0.03
   0  12   8    0.29    0.03
  -1 -12  -8    0.04    0.02
   1  12   8    0.05    0.02
  -2 -12  -8    0.45    0.03
   2  12   8    0.41    0.03
  -3 -12  -8    0.14    0.02
   3  12   8    0.12    0.02
   4  12   8    0.40    0.03
   5  12   8    2.12    0.06
   1 -13  -8    1.28    0.04
  -1  13   8    1.31    0.05
   0 -13  -8    2.45    0.06
   0  13   8    2.50    0.06
  -1 -13  -8    2.72    0.06
   1  13   8    2.64    0.06
  -2 -13  -8    0.03    0.02
   2  13   8    0.00    0.02
  -3 -13  -8    0.14    0.02
   3  13   8    0.13    0.02
   4  13   8    2.83    0.07
   0 -14  -8    0.15    0.02
   0  14   8    0.15    0.02
  -1 -14  -8    1.04    0.04
   1  14   8    1.01    0.04
  -2 -14  -8    0.01    0.02
   2  14   8   -0.02    0.02
  -3 -14  -8    1.74    0.05
   3  14   8    1.69    0.05
  -2 -15  -8    0.89    0.04
  -3 -15  -8    0.42    0.03
  -2  -9   9    0.24    0.03
   1  -9   9    0.95    0.04
  -2  -8   9    0.03    0.03
   0  -8   9    1.46    0.04
   1  -8   9    1.38    0.04
   2  -8   9    0.39    0.03
  -3  -7   9    0.23    0.03
  -2  -7   9    0.23    0.03
  -1  -7   9    0.02    0.02
  -1  -7   9    0.02    0.02
   0  -7   9    2.17    0.05
   1  -7   9    1.88    0.05
   2  -7   9    1.46    0.05
   3  -7   9    0.54    0.03
  -3  -6   9    0.04    0.03
  -2  -6   9    0.25    0.03
  -2  -6   9    0.28    0.03
  -1  -6   9    5.87    0.10
  -1  -6   9    5.92    0.11
   0  -6   9    5.82    0.10
   1  -6   9    6.20    0.11
   2  -6   9    0.62    0.03
   3  -6   9    2.00    0.06
  -4  -5   9    1.29    0.06
  -3  -5   9    1.43    0.05
  -3  -5   9    1.49    0.05
  -2  -5   9    3.58    0.07
  -2  -5   9    3.62    0.08
  -1  -5   9    0.35    0.03
  -1  -5   9    0.32    0.03
   0  -5   9    6.59    0.11
   1  -5   9    9.35    0.14
   2  -5   9    0.66    0.03
   3  -5   9    0.58    0.03
  -4   5  -9    0.04    0.02
   4  -5   9    0.03    0.02
  -4  -4   9    0.24    0.03
  -3  -4   9    1.91    0.05
  -3  -4   9    1.87    0.06
  -2  -4   9    9.21    0.14
  -2  -4   9    9.21    0.15
  -1  -4   9    0.03    0.02
  -1  -4   9    0.01    0.01
   0  -4   9    0.35    0.02
   1  -4   9    2.86    0.06
   2  -4   9   31.41    0.41
  -3   4  -9    0.00    0.01
   3  -4   9    0.01    0.02
  -4   4  -9    4.06    0.09
   4  -4   9    3.85    0.08
  -5   4  -9    0.12    0.02
   4   3  -9    0.03    0.02
  -4  -3   9    0.02    0.02
  -3  -3   9    1.46    0.05
  -3  -3   9    1.46    0.05
  -2  -3   9    0.58    0.03
  -2  -3   9    0.54    0.03
  -1  -3   9    0.09    0.02
  -1  -3   9    0.08    0.02
   0  -3   9   15.12    0.21
   0  -3   9   15.11    0.21
   1  -3   9    9.30    0.14
   2  -3   9    0.15    0.02
  -3   3  -9    0.90    0.04
   3  -3   9    0.91    0.04
  -4   3  -9    0.21    0.02
   4  -3   9    0.19    0.02
  -5   3  -9    0.79    0.04
   5  -3   9    0.64    0.03
   4   2  -9    4.64    0.10
  -4  -2   9    4.69    0.10
   3   2  -9    1.01    0.04
  -3  -2   9    1.16    0.04
  -2  -2   9    0.74    0.04
  -2  -2   9    0.68    0.03
  -1  -2   9    0.35    0.03
  -1  -2   9    0.30    0.02
   0  -2   9   14.68    0.20
   0  -2   9   14.67    0.20
   1  -2   9    1.87    0.04
  -2   2  -9    0.41    0.03
   2  -2   9    0.44    0.03
  -3   2  -9    0.22    0.02
   3  -2   9    0.22    0.02
  -4   2  -9    0.03    0.02
   4  -2   9    0.01    0.01
  -5   2  -9    0.27    0.03
   5  -2   9    0.30    0.03
   4   1  -9    0.44    0.03
  -4  -1   9    0.50    0.04
   3   1  -9   18.07    0.25
  -3  -1   9   18.06    0.26
   2   1  -9    0.02    0.02
  -2  -1   9    0.03    0.01
   1   1  -9    7.73    0.12
  -1  -1   9    7.45    0.12
   0   1  -9    0.51    0.02
   0  -1   9    0.53    0.02
   1  -1   9    0.06    0.01
  -2   1  -9    2.02    0.05
   2  -1   9    2.04    0.05
  -3   1  -9    0.03    0.01
   3  -1   9    0.06    0.01
  -4   1  -9    0.23    0.02
   4  -1   9    0.26    0.02
  -5   1  -9    2.69    0.07
   5  -1   9    2.74    0.06
   4   0  -9    1.02    0.04
  -4   0   9    1.02    0.04
   3   0  -9    1.55    0.05
  -3   0   9    1.67    0.05
   2   0  -9    2.16    0.05
  -2   0   9    2.10    0.05
   1   0  -9   32.61    0.41
  -1   0   9   31.94    0.42
   0   0  -9   19.78    0.25
   0   0   9   19.38    0.26
   1   0   9    0.69    0.03
  -2   0  -9    0.61    0.03
   2   0   9    0.61    0.03
  -3   0  -9    0.05    0.01
   3   0   9    0.04    0.01
  -4   0  -9    1.27    0.04
   4   0   9    1.23    0.04
  -5   0  -9    3.62    0.08
   5   0   9    3.66    0.07
   6   0   9    0.08    0.02
   4  -1  -9    3.52    0.08
  -4   1   9    3.54    0.08
   3  -1  -9    0.11    0.02
  -3   1   9    0.13    0.02
   2  -1  -9   13.04    0.19
  -2   1   9   12.87    0.19
   1  -1  -9    1.08    0.04
  -1   1   9    1.03    0.04
   0  -1  -9    2.22    0.04
   0   1   9    2.27    0.05
   1   1   9    2.84    0.05
   1   1   9    2.90    0.05
   2   1   9    0.03    0.01
   2   1   9    0.05    0.01
  -3  -1  -9    1.60    0.04
   3   1   9    1.57    0.04
  -4  -1  -9    0.00    0.01
   4   1   9    0.02    0.01
  -5  -1  -9    1.85    0.06
   5   1   9    1.86    0.05
  -6  -1  -9    2.08    0.06
   6   1   9    2.00    0.05
   4  -2  -9    0.52    0.03
  -4   2   9    0.54    0.04
   3  -2  -9    0.08    0.02
  -3   2   9    0.07    0.02
   2  -2  -9   25.08    0.33
  -2   2   9   25.33    0.34
   1  -2  -9   34.29    0.44
  -1   2   9   34.24    0.45
   0  -2  -9    2.40    0.05
   0   2   9    2.37    0.05
  -1  -2  -9    0.19    0.02
   1   2   9    0.19    0.02
   1   2   9    0.18    0.01
   2   2   9    0.01    0.01
   2   2   9    0.02    0.01
   3   2   9    0.11    0.02
   3   2   9    0.13    0.02
   4   2   9   16.81    0.23
  -5  -2  -9   11.88    0.19
   5   2   9   12.30    0.18
  -6  -2  -9    0.95    0.04
   6   2   9    1.00    0.04
   4  -3  -9    2.67    0.06
  -4   3   9    2.50    0.07
   3  -3  -9    0.04    0.02
  -3   3   9    0.05    0.02
   2  -3  -9   14.59    0.20
  -2   3   9   14.43    0.21
   1  -3  -9    0.88    0.03
  -1   3   9    0.86    0.03
   0  -3  -9    0.02    0.01
   0   3   9    0.03    0.01
   0   3   9    0.02    0.01
  -1  -3  -9    0.04    0.01
   1   3   9    0.03    0.01
   1   3   9    0.04    0.01
   2   3   9    0.46    0.02
   2   3   9    0.44    0.02
   3   3   9    0.26    0.02
   3   3   9    0.28    0.02
   4   3   9    0.41    0.02
   4   3   9    0.39    0.03
   5   3   9    0.08    0.02
   5   3   9    0.08    0.02
   6   3   9    0.07    0.02
   4  -4  -9    0.21    0.02
  -4   4   9    0.23    0.03
   3  -4  -9    1.27    0.04
  -3   4   9    1.32    0.05
   2  -4  -9   16.38    0.23
  -2   4   9   16.69    0.24
   1  -4  -9    8.27    0.12
  -1   4   9    8.19    0.13
   0  -4  -9    1.62    0.04
   0   4   9    1.65    0.04
   0   4   9    1.69    0.04
  -1  -4  -9    0.06    0.01
   1   4   9    0.04    0.01
   1   4   9    0.06    0.01
   2   4   9    3.91    0.06
   2   4   9    3.90    0.07
   3   4   9    8.69    0.13
   3   4   9    8.87    0.13
   4   4   9   29.19    0.38
   4   4   9   28.87    0.38
   5   4   9    0.26    0.02
   6   4   9    0.12    0.02
   4  -5  -9    0.94    0.04
  -4   5   9    0.92    0.04
   3  -5  -9   15.61    0.22
  -3   5   9   16.14    0.24
   2  -5  -9    3.50    0.07
  -2   5   9    3.52    0.07
   1  -5  -9    7.39    0.11
  -1   5   9    7.49    0.12
   0  -5  -9    5.59    0.09
   0   5   9    5.58    0.08
   0   5   9    5.66    0.09
  -1  -5  -9    0.08    0.01
   1   5   9    0.08    0.01
   1   5   9    0.10    0.01
   2   5   9   11.20    0.15
   2   5   9   11.00    0.15
   3   5   9    4.79    0.08
   3   5   9    4.67    0.08
   4   5   9    0.08    0.02
   5   5   9    0.45    0.03
   6   5   9    0.20    0.02
   4  -6  -9    1.86    0.05
  -4   6   9    1.79    0.06
   3  -6  -9    2.33    0.06
  -3   6   9    2.46    0.06
   2  -6  -9    4.61    0.08
  -2   6   9    4.39    0.09
   1  -6  -9    0.47    0.02
  -1   6   9    0.49    0.03
  -1   6   9    0.48    0.02
   0  -6  -9    0.49    0.02
   0   6   9    0.49    0.02
   0   6   9    0.48    0.02
  -1  -6  -9    0.04    0.01
   1   6   9    0.04    0.01
   1   6   9    0.04    0.01
   2   6   9    5.24    0.08
   2   6   9    5.35    0.08
   3   6   9   20.06    0.26
   4   6   9    2.39    0.05
   5   6   9    0.33    0.02
   6   6   9    0.13    0.02
   4  -7  -9    2.53    0.07
  -4   7   9    2.55    0.07
   3  -7  -9    2.46    0.06
  -3   7   9    2.48    0.07
   2  -7  -9    1.69    0.05
  -2   7   9    1.77    0.05
  -2   7   9    1.73    0.04
   1  -7  -9    0.19    0.02
  -1   7   9    0.19    0.02
  -1   7   9    0.22    0.02
   0  -7  -9    0.09    0.01
   0   7   9    0.09    0.02
   0   7   9    0.09    0.02
  -1  -7  -9    0.03    0.01
   1   7   9    0.05    0.01
   1   7   9    0.04    0.01
  -2  -7  -9    1.87    0.04
   2   7   9    1.81    0.04
   3   7   9    1.66    0.04
   4   7   9    1.91    0.05
   5   7   9    0.09    0.02
   6   7   9    1.27    0.04
  -4   8   9    0.03    0.02
   3  -8  -9    0.57    0.03
  -3   8   9    0.59    0.04
   2  -8  -9    4.39    0.08
  -2   8   9    4.39    0.09
  -2   8   9    4.46    0.08
   1  -8  -9    1.22    0.04
  -1   8   9    1.19    0.04
  -1   8   9    1.20    0.04
   0  -8  -9    0.07    0.01
   0   8   9    0.08    0.02
   0   8   9    0.09    0.02
  -1  -8  -9    3.03    0.06
   1   8   9    3.06    0.06
  -2  -8  -9    2.09    0.04
   2   8   9    2.12    0.05
   3   8   9   -0.02    0.01
   4   8   9    0.69    0.03
   5   8   9    0.13    0.02
   6   8   9    0.00    0.02
   3  -9  -9    1.62    0.05
  -3   9   9    1.74    0.06
   2  -9  -9    7.08    0.12
  -2   9   9    7.34    0.13
  -2   9   9    7.07    0.12
   1  -9  -9    2.89    0.06
  -1   9   9    2.98    0.06
  -1   9   9    3.02    0.06
   0  -9  -9    0.29    0.02
   0   9   9    0.29    0.03
  -1  -9  -9    8.50    0.13
   1   9   9    8.44    0.13
  -2  -9  -9   26.39    0.34
   2   9   9   26.53    0.34
   3   9   9    1.82    0.05
   4   9   9    0.01    0.01
   5   9   9    0.11    0.02
   3 -10  -9    1.19    0.04
  -3  10   9    1.22    0.05
  -3  10   9    1.21    0.05
   2 -10  -9    7.90    0.13
  -2  10   9    7.71    0.13
   1 -10  -9    7.72    0.12
  -1  10   9    7.74    0.12
   0 -10  -9    4.09    0.08
   0  10   9    4.06    0.08
  -1 -10  -9    1.93    0.05
   1  10   9    2.03    0.05
  -2 -10  -9    1.11    0.03
   2  10   9    1.13    0.04
   3  10   9    0.81    0.03
   4  10   9    0.09    0.02
   5  10   9    0.04    0.02
  -3  11   9    1.91    0.06
   2 -11  -9    0.13    0.02
  -2  11   9    0.18    0.02
   1 -11  -9    0.75    0.03
  -1  11   9    0.73    0.03
   0 -11  -9    0.01    0.01
   0  11   9    0.02    0.02
  -1 -11  -9   10.49    0.16
   1  11   9   10.37    0.15
  -2 -11  -9    5.73    0.10
   2  11   9    5.65    0.10
   3  11   9    0.09    0.02
   4  11   9    0.06    0.02
   5  11   9    0.26    0.03
   2 -12  -9    0.83    0.04
  -2  12   9    0.83    0.04
   1 -12  -9    0.04    0.02
  -1  12   9    0.04    0.02
   0 -12  -9    0.03    0.02
   0  12   9    0.02    0.02
  -1 -12  -9    3.20    0.07
   1  12   9    3.00    0.07
  -2 -12  -9    6.44    0.11
   2  12   9    6.41    0.11
  -3 -12  -9    0.35    0.03
   3  12   9    0.31    0.03
   4  12   9    0.05    0.02
   1 -13  -9    0.07    0.02
  -1  13   9    0.11    0.02
   0 -13  -9    0.73    0.03
   0  13   9    0.81    0.04
  -1 -13  -9    0.87    0.04
   1  13   9    0.90    0.04
  -2 -13  -9    1.98    0.05
   2  13   9    1.89    0.05
  -3 -13  -9    0.05    0.02
   3  13   9    0.00    0.02
   4  13   9    0.20    0.03
   0 -14  -9    4.67    0.09
   0  14   9    4.54    0.09
  -1 -14  -9    6.07    0.11
   1  14   9    6.17    0.11
  -2 -14  -9    1.09    0.04
   2  14   9    0.95    0.04
  -3 -14  -9    2.02    0.06
   3  14   9    1.84    0.06
  -2 -15  -9    1.11    0.05
  -3 -15  -9    0.71    0.04
  -2  -8  10   -0.02    0.03
   0  -8  10    0.02    0.02
   1  -8  10    0.05    0.02
  -2  -7  10    0.04    0.03
  -1  -7  10    0.34    0.03
   0  -7  10    0.00    0.02
   1  -7  10    1.86    0.05
   2  -7  10    3.61    0.08
  -3  -6  10    0.42    0.04
  -2  -6  10    0.63    0.04
  -2  -6  10    0.69    0.04
  -1  -6  10    0.01    0.02
   0  -6  10    0.48    0.03
   1  -6  10    1.55    0.05
   2  -6  10    0.02    0.02
   3  -6  10    0.09    0.02
  -3  -5  10    0.59    0.04
  -3  -5  10    0.49    0.04
  -2  -5  10    1.28    0.05
  -2  -5  10    1.33    0.04
  -1  -5  10    0.30    0.03
  -1  -5  10    0.30    0.02
   0  -5  10    0.48    0.03
   1  -5  10    0.13    0.02
   2  -5  10    0.10    0.02
   3  -5  10    0.49    0.03
  -4  -4  10    1.56    0.06
  -3  -4  10    0.16    0.03
  -3  -4  10    0.19    0.02
  -2  -4  10    0.03    0.02
  -2  -4  10    0.04    0.02
  -1  -4  10    0.11    0.02
  -1  -4  10    0.13    0.02
   0  -4  10    0.45    0.03
   1  -4  10    4.97    0.09
   2  -4  10   11.01    0.17
   3  -4  10    0.24    0.02
  -4   4 -10    1.35    0.05
   4  -4  10    1.26    0.04
  -4  -3  10    0.10    0.02
   3   3 -10    0.08    0.02
  -3  -3  10    0.10    0.02
  -2  -3  10    0.00    0.02
  -2  -3  10    0.04    0.02
  -1  -3  10    0.24    0.03
  -1  -3  10    0.29    0.02
   0  -3  10    0.76    0.03
   1  -3  10    3.44    0.07
   2  -3  10    0.01    0.01
   3  -3  10    3.28    0.07
  -4   3 -10    2.82    0.07
   4  -3  10    2.78    0.07
  -5   3 -10    0.73    0.04
   4   2 -10    1.09    0.05
  -4  -2  10    1.12    0.05
   3   2 -10    3.55    0.08
  -3  -2  10    3.49    0.08
   2   2 -10    0.10    0.02
  -2  -2  10    0.08    0.02
  -1  -2  10    1.19    0.04
   0  -2  10   18.98    0.26
   1  -2  10   16.39    0.23
   2  -2  10    3.26    0.07
  -3   2 -10    1.02    0.04
   3  -2  10    0.99    0.04
  -4   2 -10    0.10    0.02
   4  -2  10    0.09    0.02
  -5   2 -10    0.03    0.02
   5  -2  10    0.00    0.02
   4   1 -10    0.30    0.03
  -4  -1  10    0.38    0.04
   3   1 -10    4.93    0.10
  -3  -1  10    4.93    0.10
   2   1 -10    0.56    0.03
  -2  -1  10    0.57    0.03
   1   1 -10    0.74    0.03
  -1  -1  10    0.72    0.03
   0   1 -10    2.02    0.05
   0  -1  10    1.98    0.05
   1  -1  10   10.43    0.15
   2  -1  10    1.66    0.04
  -3   1 -10    1.73    0.05
   3  -1  10    1.76    0.05
  -4   1 -10    0.07    0.02
   4  -1  10    0.07    0.02
  -5   1 -10    0.15    0.02
   5  -1  10    0.12    0.02
   4   0 -10    7.38    0.13
  -4   0  10    7.37    0.14
   3   0 -10    1.53    0.05
  -3   0  10    1.49    0.05
   2   0 -10    0.17    0.02
  -2   0  10    0.17    0.02
   1   0 -10   16.78    0.23
  -1   0  10   16.46    0.23
   0   0 -10   28.72    0.37
   0   0  10   28.60    0.38
   1   0  10    1.17    0.04
   2   0  10    0.00    0.01
   2   0  10    0.03    0.01
  -3   0 -10    0.29    0.02
   3   0  10    0.27    0.02
  -4   0 -10    0.18    0.02
   4   0  10    0.15    0.02
  -5   0 -10    2.03    0.06
   5   0  10    2.14    0.06
   4  -1 -10    0.19    0.03
  -4   1  10    0.23    0.03
   3  -1 -10    0.05    0.02
  -3   1  10    0.06    0.02
   2  -1 -10    1.99    0.05
  -2   1  10    2.02    0.05
   1  -1 -10   18.88    0.25
  -1   1  10   18.58    0.26
   0  -1 -10   10.95    0.15
   0   1  10   10.90    0.16
   1   1  10   -0.01    0.01
   2   1  10    0.63    0.02
   2   1  10    0.59    0.03
   3   1  10    1.55    0.04
   3   1  10    1.52    0.04
  -4  -1 -10    1.35    0.05
   4   1  10    1.45    0.04
  -5  -1 -10    0.00    0.02
   5   1  10    0.04    0.02
   6   1  10    1.16    0.04
   4  -2 -10    1.45    0.05
  -4   2  10    1.50    0.05
   3  -2 -10    0.46    0.03
  -3   2  10    0.45    0.03
   2  -2 -10    0.39    0.03
  -2   2  10    0.39    0.03
   1  -2 -10    9.33    0.14
  -1   2  10    9.16    0.14
   0  -2 -10    0.12    0.02
   0   2  10    0.12    0.02
   1   2  10    0.86    0.03
   2   2  10   -0.01    0.01
   2   2  10    0.00    0.01
   3   2  10    2.11    0.05
   3   2  10    2.19    0.05
   4   2  10    0.91    0.03
   4   2  10    0.98    0.04
   5   2  10   13.64    0.20
   6   2  10    0.87    0.04
   4  -3 -10    0.36    0.03
  -4   3  10    0.38    0.03
   3  -3 -10   -0.01    0.02
  -3   3  10   -0.01    0.02
   2  -3 -10   14.91    0.21
  -2   3  10   15.14    0.22
   1  -3 -10    0.46    0.02
  -1   3  10    0.50    0.03
   0  -3 -10    1.05    0.03
   0   3  10    1.00    0.03
   1   3  10    1.01    0.03
   1   3  10    0.95    0.03
   2   3  10    1.68    0.04
   2   3  10    1.65    0.04
   3   3  10    0.25    0.02
   3   3  10    0.24    0.02
   4   3  10    4.38    0.08
   4   3  10    4.54    0.08
   5   3  10   -0.01    0.02
   5   3  10    0.02    0.02
   6   3  10    0.86    0.04
   4  -4 -10    1.00    0.04
  -4   4  10    1.05    0.05
   3  -4 -10    1.62    0.05
  -3   4  10    1.57    0.05
   2  -4 -10    2.68    0.06
  -2   4  10    2.76    0.06
   1  -4 -10    2.64    0.06
  -1   4  10    2.69    0.06
   0  -4 -10    0.31    0.02
   0   4  10    0.34    0.02
  -1  -4 -10    2.15    0.04
   1   4  10    2.19    0.04
   1   4  10    2.15    0.05
   2   4  10    0.16    0.02
   2   4  10    0.17    0.02
   3   4  10   12.96    0.18
   3   4  10   12.76    0.18
   4   4  10   13.61    0.19
   4   4  10   13.38    0.19
   5   4  10   -0.02    0.02
   6   4  10    0.06    0.02
   4  -5 -10    0.33    0.03
  -4   5  10    0.27    0.03
   3  -5 -10    4.47    0.09
  -3   5  10    4.46    0.09
   2  -5 -10    8.85    0.14
  -2   5  10    8.57    0.14
   1  -5 -10    0.06    0.01
  -1   5  10    0.06    0.02
   0  -5 -10    0.08    0.01
   0   5  10    0.10    0.01
   0   5  10    0.09    0.02
  -1  -5 -10    4.31    0.07
   1   5  10    4.39    0.07
   1   5  10    4.35    0.07
   2   5  10    2.70    0.05
   2   5  10    2.70    0.05
   3   5  10   44.07    0.56
   3   5  10   45.42    0.57
   4   5  10    1.85    0.05
   5   5  10    0.01    0.02
   6   5  10    0.52    0.03
   4  -6 -10    0.74    0.04
  -4   6  10    0.82    0.05
   3  -6 -10    0.01    0.02
  -3   6  10    0.05    0.02
   2  -6 -10    0.00    0.01
  -2   6  10    0.02    0.02
   1  -6 -10    0.51    0.03
  -1   6  10    0.53    0.03
   0  -6 -10    3.06    0.06
   0   6  10    3.06    0.06
   0   6  10    3.06    0.06
  -1  -6 -10    2.76    0.05
   1   6  10    2.83    0.06
   1   6  10    2.78    0.05
   2   6  10   68.21    0.84
   2   6  10   66.16    0.82
   3   6  10    0.56    0.03
   4   6  10    0.12    0.02
   5   6  10   -0.01    0.02
   6   6  10    1.21    0.04
   3  -7 -10    3.48    0.08
  -3   7  10    3.36    0.08
   2  -7 -10    3.01    0.06
  -2   7  10    3.01    0.07
   1  -7 -10    0.01    0.01
  -1   7  10    0.03    0.02
  -1   7  10    0.02    0.01
   0  -7 -10    0.28    0.02
   0   7  10    0.27    0.02
   0   7  10    0.29    0.02
  -1  -7 -10    0.65    0.02
   1   7  10    0.58    0.03
   1   7  10    0.62    0.03
   2   7  10   16.10    0.22
   3   7  10    2.39    0.05
   4   7  10    3.72    0.07
   5   7  10    0.80    0.04
   3  -8 -10    2.17    0.06
  -3   8  10    2.16    0.06
   2  -8 -10    4.79    0.09
  -2   8  10    4.78    0.10
   1  -8 -10    0.06    0.02
  -1   8  10    0.06    0.02
  -1   8  10    0.06    0.01
   0  -8 -10    7.18    0.11
   0   8  10    7.24    0.11
   0   8  10    7.28    0.12
  -1  -8 -10    6.72    0.10
   1   8  10    6.85    0.11
   2   8  10    0.00    0.01
   3   8  10    1.61    0.04
   4   8  10    4.97    0.09
   5   8  10    1.60    0.05
   3  -9 -10    8.53    0.14
  -3   9  10    8.57    0.15
   2  -9 -10    0.77    0.03
  -2   9  10    0.82    0.04
   1  -9 -10    0.25    0.02
  -1   9  10    0.30    0.02
   0  -9 -10    0.63    0.03
   0   9  10    0.62    0.03
  -1  -9 -10    2.65    0.05
   1   9  10    2.70    0.06
  -2  -9 -10    0.01    0.01
   2   9  10    0.01    0.02
   3   9  10    0.90    0.03
   4   9  10    1.65    0.04
   5   9  10    0.26    0.02
  -3  10  10    1.80    0.06
   2 -10 -10    1.11    0.04
  -2  10  10    1.17    0.04
   1 -10 -10    0.00    0.01
  -1  10  10    0.01    0.02
   0 -10 -10    0.01    0.01
   0  10  10   -0.01    0.02
  -1 -10 -10    1.11    0.04
   1  10  10    1.08    0.04
  -2 -10 -10    0.00    0.01
   2  10  10    0.01    0.02
   3  10  10    2.04    0.05
   4  10  10    2.70    0.06
   5  10  10    7.37    0.12
   2 -11 -10    0.00    0.02
  -2  11  10    0.04    0.02
   1 -11 -10    1.83    0.05
  -1  11  10    1.81    0.05
   0 -11 -10    0.63    0.03
   0  11  10    0.66    0.03
  -1 -11 -10   -0.01    0.01
   1  11  10    0.01    0.02
  -2 -11 -10    0.15    0.02
   2  11  10    0.10    0.02
   3  11  10    0.48    0.03
   4  11  10    1.90    0.05
  -2  12  10    0.35    0.03
   1 -12 -10    0.57    0.03
  -1  12  10    0.59    0.03
   0 -12 -10    0.25    0.02
   0  12  10    0.28    0.03
  -1 -12 -10    0.08    0.02
   1  12  10    0.09    0.02
  -2 -12 -10    0.31    0.03
   2  12  10    0.29    0.03
   3  12  10    0.65    0.04
   4  12  10    6.15    0.11
  -1  13  10    0.27    0.03
   0 -13 -10    0.01    0.02
   0  13  10    0.03    0.02
  -1 -13 -10    0.00    0.02
   1  13  10    0.01    0.02
  -2 -13 -10    0.02    0.02
   2  13  10    0.01    0.02
   3  13  10    1.59    0.05
  -1 -14 -10    0.04    0.02
   1  14  10    0.04    0.02
  -2 -14 -10    0.01    0.02
   2  14  10   -0.03    0.02
  -1  -7  11    0.03    0.02
   0  -7  11    0.06    0.02
   1  -7  11    0.00    0.02
  -2  -6  11    4.28    0.09
  -2  -6  11    4.35    0.10
  -1  -6  11    0.55    0.03
   0  -6  11    0.56    0.03
   1  -6  11    0.94    0.04
   2  -6  11   12.40    0.19
  -3  -5  11    0.89    0.04
  -2  -5  11    0.82    0.05
  -2  -5  11    0.83    0.04
  -1  -5  11    0.02    0.02
   0  -5  11    0.05    0.02
   1  -5  11    4.41    0.09
   2  -5  11    2.03    0.06
   3  -5  11    0.09    0.02
  -3  -4  11    4.04    0.09
  -2  -4  11    0.30    0.03
  -2  -4  11    0.28    0.03
  -1  -4  11   -0.01    0.02
   0  -4  11    2.53    0.06
   1  -4  11   44.04    0.57
   2  -4  11    2.60    0.06
   3  -4  11    2.67    0.06
   3   3 -11    1.35    0.05
  -3  -3  11    1.27    0.05
  -2  -3  11    1.80    0.05
  -1  -3  11    0.41    0.03
  -1  -3  11    0.40    0.03
   0  -3  11    0.16    0.02
   1  -3  11    0.05    0.02
   2  -3  11    0.65    0.03
   3  -3  11   -0.02    0.02
   4  -3  11    0.45    0.03
   3   2 -11    1.57    0.05
  -3  -2  11    1.55    0.05
   2   2 -11    0.23    0.03
  -2  -2  11    0.25    0.02
   1   2 -11    2.40    0.06
  -1  -2  11    2.26    0.06
   0  -2  11    5.90    0.10
   1  -2  11    4.28    0.08
   2  -2  11    0.24    0.02
   3  -2  11    0.29    0.02
  -4   2 -11    0.89    0.04
   4  -2  11    0.92    0.04
  -5   2 -11    0.12    0.02
   3   1 -11    2.72    0.07
  -3  -1  11    2.56    0.07
   2   1 -11    0.00    0.02
  -2  -1  11    0.04    0.02
   1   1 -11    0.45    0.03
  -1  -1  11    0.45    0.03
   0  -1  11    6.27    0.11
   1  -1  11    1.17    0.04
   2  -1  11    0.05    0.02
   3  -1  11    0.02    0.02
  -4   1 -11    0.01    0.02
   4  -1  11    0.00    0.02
  -5   1 -11    0.13    0.02
   5  -1  11    0.12    0.02
   3   0 -11    8.94    0.15
  -3   0  11    8.85    0.15
   2   0 -11    0.33    0.03
  -2   0  11    0.33    0.03
   1   0 -11    4.93    0.09
  -1   0  11    4.54    0.09
   0   0  11    0.00    0.01
   1   0  11    4.33    0.08
   2   0  11   -0.01    0.01
   3   0  11    1.16    0.04
  -4   0 -11    1.43    0.05
   4   0  11    1.34    0.04
  -5   0 -11    1.24    0.05
   5   0  11    1.24    0.05
   3  -1 -11    0.91    0.04
  -3   1  11    1.01    0.04
   2  -1 -11   -0.01    0.01
  -2   1  11    0.00    0.02
   1  -1 -11    4.04    0.08
  -1   1  11    4.01    0.08
   0   1  11    4.51    0.08
   1   1  11    0.07    0.02
   2   1  11    1.78    0.05
   3   1  11    1.58    0.04
   3   1  11    1.65    0.04
   4   1  11    0.52    0.03
   5   1  11    3.18    0.07
   3  -2 -11    0.01    0.02
  -3   2  11    0.00    0.02
   2  -2 -11    5.50    0.10
  -2   2  11    5.44    0.10
   1  -2 -11    1.42    0.04
  -1   2  11    1.37    0.04
   0  -2 -11    7.62    0.11
   0   2  11    7.64    0.12
   1   2  11    0.06    0.02
   2   2  11    0.96    0.03
   2   2  11    0.94    0.03
   3   2  11    2.33    0.05
   3   2  11    2.18    0.05
   4   2  11    3.84    0.08
   4   2  11    3.84    0.08
   5   2  11    3.58    0.08
   5   2  11    3.56    0.07
   6   2  11    0.67    0.04
   3  -3 -11    0.78    0.04
  -3   3  11    0.86    0.04
   2  -3 -11    1.18    0.04
  -2   3  11    1.24    0.05
   1  -3 -11    2.29    0.05
  -1   3  11    2.19    0.05
   0  -3 -11    1.33    0.04
   0   3  11    1.34    0.04
   1   3  11    1.91    0.05
   2   3  11    0.30    0.02
   2   3  11    0.25    0.02
   3   3  11    0.20    0.02
   3   3  11    0.22    0.02
   4   3  11    2.81    0.06
   4   3  11    2.81    0.06
   5   3  11    0.65    0.03
   5   3  11    0.68    0.03
   3  -4 -11    2.60    0.06
  -3   4  11    2.44    0.07
   2  -4 -11    0.64    0.03
  -2   4  11    0.67    0.03
   1  -4 -11   12.88    0.18
  -1   4  11   12.93    0.19
   0  -4 -11    0.00    0.01
   0   4  11    0.01    0.01
   1   4  11   13.11    0.18
   2   4  11    3.33    0.06
   2   4  11    3.25    0.06
   3   4  11    0.80    0.03
   3   4  11    0.76    0.03
   4   4  11    1.05    0.04
   4   4  11    1.00    0.03
   5   4  11    1.74    0.05
   3  -5 -11    0.03    0.02
  -3   5  11    0.02    0.02
   2  -5 -11    0.69    0.03
  -2   5  11    0.66    0.04
   1  -5 -11    5.64    0.09
  -1   5  11    5.50    0.10
   0  -5 -11    0.91    0.03
   0   5  11    0.90    0.03
   1   5  11    6.97    0.10
   1   5  11    6.84    0.11
   2   5  11    4.10    0.07
   2   5  11    4.11    0.07
   3   5  11    0.40    0.03
   3   5  11    0.43    0.02
   4   5  11    1.34    0.04
   5   5  11    0.02    0.02
   3  -6 -11    0.32    0.03
  -3   6  11    0.42    0.04
   2  -6 -11    4.39    0.08
  -2   6  11    4.29    0.09
   1  -6 -11    0.00    0.01
  -1   6  11    0.02    0.02
   0  -6 -11    1.93    0.04
   0   6  11    1.95    0.05
   1   6  11    1.50    0.04
   1   6  11    1.51    0.04
   2   6  11    4.89    0.08
   2   6  11    5.02    0.08
   3   6  11    8.18    0.12
   4   6  11    1.33    0.04
   5   6  11    3.23    0.07
   3  -7 -11    0.05    0.02
  -3   7  11    0.03    0.02
   2  -7 -11    0.21    0.02
  -2   7  11    0.19    0.03
   1  -7 -11    0.53    0.03
  -1   7  11    0.63    0.03
   0  -7 -11    0.77    0.03
   0   7  11    0.80    0.03
   0   7  11    0.77    0.03
  -1  -7 -11    0.29    0.02
   1   7  11    0.28    0.02
   1   7  11    0.29    0.03
   2   7  11    0.22    0.02
   3   7  11    6.73    0.11
   4   7  11    0.02    0.01
   5   7  11    3.32    0.07
   3  -8 -11    2.06    0.06
  -3   8  11    1.97    0.06
   2  -8 -11    0.03    0.02
  -2   8  11    0.03    0.02
   1  -8 -11    1.13    0.04
  -1   8  11    1.26    0.04
   0  -8 -11    1.14    0.03
   0   8  11    1.11    0.04
   0   8  11    1.10    0.04
  -1  -8 -11    1.29    0.04
   1   8  11    1.31    0.04
   2   8  11    0.01    0.01
   3   8  11    0.74    0.03
   4   8  11    0.75    0.03
   5   8  11    1.19    0.04
  -3   9  11    6.76    0.13
   2  -9 -11    2.85    0.07
  -2   9  11    2.91    0.07
   1  -9 -11    3.32    0.07
  -1   9  11    3.33    0.07
   0  -9 -11    0.01    0.01
   0   9  11    0.00    0.02
  -1  -9 -11    3.06    0.06
   1   9  11    3.19    0.06
   2   9  11   -0.01    0.02
   3   9  11    0.00    0.01
   4   9  11    1.36    0.04
   5   9  11    1.59    0.05
   2 -10 -11    0.00    0.02
   1 -10 -11    0.72    0.03
   0 -10 -11    0.47    0.03
   0  10  11    0.51    0.03
  -1 -10 -11    0.54    0.03
   1  10  11    0.60    0.03
   2  10  11    0.08    0.02
   3  10  11    0.23    0.02
   4  10  11    1.58    0.05
   1 -11 -11    4.43    0.09
  -1  11  11    4.44    0.09
   0 -11 -11    0.25    0.02
   0  11  11    0.27    0.03
  -1 -11 -11    1.11    0.04
   1  11  11    1.08    0.04
   2  11  11   -0.01    0.02
   3  11  11    0.43    0.03
   4  11  11    0.06    0.02
   1 -12 -11    0.93    0.04
  -1  12  11    1.02    0.04
   0 -12 -11    0.01    0.02
   0  12  11   -0.01    0.02
  -1 -12 -11    0.96    0.04
   1  12  11    0.98    0.04
   2  12  11    0.07    0.02
   3  12  11    1.35    0.05
   4  12  11    0.03    0.02
   0 -13 -11    0.14    0.02
   0  13  11    0.17    0.02
  -1 -13 -11    0.83    0.04
   1  13  11    0.75    0.04
  -2 -13 -11    0.16    0.02
   2  13  11    0.16    0.02
   3  13  11    0.11    0.03
  -1 -14 -11    1.23    0.05
  -2 -14 -11    0.07    0.02
   0  -6  12    1.29    0.05
  -1  -5  12    2.76    0.07
   0  -5  12    1.47    0.05
   1  -5  12    0.06    0.02
   2  -5  12    3.12    0.08
  -2  -4  12    0.16    0.03
  -1  -4  12    0.33    0.03
   0  -4  12    2.35    0.06
   1  -4  12    6.45    0.12
   2  -4  12    0.64    0.04
   2   3 -12    0.27    0.03
  -2  -3  12    0.24    0.03
  -1  -3  12    0.10    0.02
   0  -3  12    1.20    0.04
   1  -3  12    3.80    0.08
   2  -3  12    1.22    0.04
   3  -3  12    0.39    0.03
   3   2 -12    0.00    0.02
  -3  -2  12   -0.02    0.02
   2   2 -12    1.86    0.05
  -2  -2  12    1.86    0.06
  -1  -2  12    0.08    0.02
   0  -2  12    3.83    0.08
   1  -2  12    2.86    0.06
   2  -2  12    0.39    0.03
   3  -2  12    0.03    0.02
   4  -2  12    0.55    0.03
   3   1 -12    0.82    0.04
  -3  -1  12    0.80    0.04
   2   1 -12    0.00    0.02
  -2  -1  12    0.05    0.02
   1   1 -12    0.08    0.02
  -1  -1  12    0.10    0.02
   0  -1  12   14.83    0.22
   1  -1  12    0.00    0.02
   2  -1  12    0.03    0.02
   3  -1  12    0.31    0.03
   4  -1  12    0.65    0.04
  -5   1 -12    0.48    0.04
   3   0 -12    1.28    0.05
  -3   0  12    1.23    0.05
   2   0 -12    0.23    0.02
  -2   0  12    0.18    0.03
   1   0 -12    2.10    0.05
  -1   0  12    1.99    0.05
   0   0  12    4.87    0.09
   1   0  12    1.17    0.04
   2   0  12    0.47    0.03
   3   0  12    2.18    0.06
   4   0  12    0.88    0.04
   3  -1 -12    0.39    0.03
  -3   1  12    0.41    0.04
   2  -1 -12    1.83    0.05
  -2   1  12    1.75    0.05
   1  -1 -12    9.68    0.15
  -1   1  12    9.48    0.15
   0   1  12    1.37    0.04
   1   1  12    0.41    0.03
   2   1  12    0.85    0.03
   3   1  12    0.78    0.03
   4   1  12    0.00    0.02
   5   1  12    0.00    0.02
   5   1  12    0.07    0.02
   3  -2 -12    3.72    0.08
  -3   2  12    3.55    0.09
   2  -2 -12    0.42    0.03
  -2   2  12    0.43    0.03
   1  -2 -12    0.19    0.02
  -1   2  12    0.26    0.03
   0   2  12    2.15    0.05
   1   2  12    0.80    0.03
   2   2  12    0.58    0.03
   3   2  12    4.97    0.09
   3   2  12    5.28    0.09
   4   2  12    1.32    0.04
   4   2  12    1.34    0.04
   5   2  12    0.73    0.04
   5   2  12    0.65    0.04
   3  -3 -12    0.03    0.02
  -3   3  12    0.01    0.02
   2  -3 -12    0.70    0.03
  -2   3  12    0.74    0.04
   1  -3 -12    0.77    0.03
  -1   3  12    0.76    0.04
   0   3  12    2.25    0.05
   1   3  12    0.30    0.02
   2   3  12    0.12    0.02
   3   3  12    1.98    0.05
   3   3  12    1.94    0.05
   4   3  12    2.50    0.06
   4   3  12    2.50    0.06
   5   3  12    0.00    0.02
   5   3  12    0.00    0.02
   3  -4 -12    0.53    0.03
  -3   4  12    0.47    0.04
   2  -4 -12    0.73    0.03
  -2   4  12    0.75    0.04
   1  -4 -12    0.34    0.03
  -1   4  12    0.31    0.03
   0  -4 -12    1.59    0.04
   0   4  12    1.56    0.04
   1   4  12    0.33    0.02
   2   4  12   10.55    0.14
   2   4  12    9.97    0.15
   3   4  12    0.69    0.03
   3   4  12    0.69    0.03
   4   4  12    0.29    0.03
   4   4  12    0.27    0.02
   5   4  12    0.00    0.02
   3  -5 -12    0.01    0.02
  -3   5  12    0.03    0.02
   2  -5 -12    3.32    0.07
  -2   5  12    3.23    0.08
   1  -5 -12    0.41    0.03
  -1   5  12    0.45    0.03
   0  -5 -12    1.07    0.03
   0   5  12    1.04    0.04
   1   5  12    0.41    0.03
   2   5  12   25.72    0.33
   2   5  12   25.01    0.34
   3   5  12    0.15    0.02
   3   5  12    0.13    0.02
   4   5  12    0.26    0.02
   5   5  12    0.53    0.03
   3  -6 -12    0.33    0.03
  -3   6  12    0.31    0.03
   2  -6 -12   -0.01    0.02
  -2   6  12    0.02    0.02
   1  -6 -12    0.23    0.02
  -1   6  12    0.23    0.03
   0  -6 -12    0.06    0.01
   0   6  12    0.04    0.02
   1   6  12   17.59    0.24
   2   6  12    0.63    0.03
   2   6  12    0.56    0.03
   3   6  12    0.04    0.02
   4   6  12    0.40    0.03
   5   6  12   -0.01    0.02
  -3   7  12    1.82    0.06
   2  -7 -12    0.01    0.02
  -2   7  12    0.03    0.02
   1  -7 -12    0.42    0.03
  -1   7  12    0.44    0.03
   0  -7 -12    5.01    0.09
   0   7  12    5.15    0.09
   1   7  12    2.64    0.06
   1   7  12    2.52    0.06
   2   7  12    0.15    0.02
   3   7  12    2.26    0.05
   4   7  12    0.59    0.03
   5   7  12    2.51    0.06
   2  -8 -12    0.10    0.02
  -2   8  12    0.07    0.02
   1  -8 -12    0.00    0.01
  -1   8  12    0.04    0.02
   0  -8 -12    0.03    0.01
   1   8  12    0.70    0.03
   2   8  12    0.04    0.02
   3   8  12    3.80    0.07
   4   8  12    0.00    0.02
   5   8  12    0.01    0.02
   2  -9 -12    0.29    0.03
  -2   9  12    0.38    0.03
   1  -9 -12    2.12    0.05
   0  -9 -12    0.43    0.03
   0   9  12    0.43    0.03
  -1  -9 -12    5.11    0.09
   1   9  12    5.27    0.09
   2   9  12    0.25    0.02
   3   9  12    2.39    0.06
   4   9  12    1.27    0.04
   1 -10 -12    0.60    0.03
   0 -10 -12    3.76    0.07
   0  10  12    3.80    0.08
  -1 -10 -12    0.94    0.03
   1  10  12    0.94    0.04
   2  10  12    0.00    0.02
   3  10  12    0.85    0.04
   4  10  12    1.26    0.05
   1 -11 -12    0.00    0.02
   0 -11 -12    0.70    0.03
   0  11  12    0.76    0.04
  -1 -11 -12    1.02    0.04
   1  11  12    1.02    0.04
   2  11  12    1.43    0.05
   3  11  12    0.38    0.03
   4  11  12    1.27    0.04
  -1  12  12    0.19    0.02
   0 -12 -12    0.29    0.03
   0  12  12    0.34    0.03
  -1 -12 -12    1.29    0.04
   1  12  12    1.33    0.05
   2  12  12    2.02    0.06
   3  12  12    1.11    0.05
   0  13  12    0.21    0.03
  -1 -13 -12    0.17    0.02
   1  13  12    0.12    0.03
   2  13  12    0.11    0.03
   0  -4  13    2.67    0.07
   1  -4  13    0.05    0.02
  -1  -3  13    0.02    0.02
   0  -3  13    0.73    0.04
   1  -3  13    2.78    0.07
   2  -3  13    0.20    0.03
   2   2 -13    3.57    0.08
  -1  -2  13    0.82    0.04
   0  -2  13    0.09    0.02
   1  -2  13    0.73    0.04
   2  -2  13    1.85    0.05
   3  -2  13    0.75    0.04
   2   1 -13    0.02    0.02
  -2  -1  13    0.00    0.02
  -1  -1  13    0.59    0.04
   0  -1  13    0.23    0.03
   1  -1  13    0.03    0.02
   2  -1  13    1.39    0.05
   3  -1  13    0.23    0.03
   2   0 -13    5.13    0.10
  -2   0  13    4.89    0.10
  -1   0  13    0.14    0.02
   0   0  13    2.97    0.07
   1   0  13    0.01    0.02
   2   0  13    2.01    0.05
   3   0  13    4.10    0.09
   4   0  13    0.28    0.03
   2  -1 -13    0.15    0.02
  -2   1  13    0.15    0.03
  -1   1  13    0.72    0.04
   0   1  13    0.12    0.02
   1   1  13    0.01    0.02
   2   1  13   -0.02    0.02
   3   1  13    0.24    0.02
   4   1  13    1.21    0.05
   2  -2 -13    0.61    0.04
  -2   2  13    0.61    0.04
   1  -2 -13    3.63    0.07
  -1   2  13    3.40    0.08
   0   2  13    0.58    0.03
   1   2  13    0.14    0.02
   2   2  13    4.82    0.09
   3   2  13    3.65    0.08
   4   2  13    0.05    0.02
   5   2  13    0.05    0.02
   5   2  13   -0.01    0.02
   2  -3 -13    0.00    0.02
  -2   3  13    0.00    0.02
   1  -3 -13    1.75    0.05
  -1   3  13    1.71    0.05
   0   3  13    1.93    0.05
   1   3  13    0.24    0.02
   2   3  13    0.92    0.04
   3   3  13    0.00    0.02
   4   3  13    0.04    0.02
   4   3  13    0.03    0.02
   5   3  13    0.52    0.04
   2  -4 -13    4.23    0.09
  -2   4  13    4.11    0.09
   1  -4 -13    0.37    0.03
  -1   4  13    0.45    0.03
   0   4  13    2.63    0.06
   1   4  13    0.20    0.02
   2   4  13    0.74    0.03
   3   4  13    0.07    0.02
   3   4  13    0.11    0.02
   4   4  13    1.50    0.05
   4   4  13    1.52    0.05
   5   4  13    0.34    0.03
   2  -5 -13    1.84    0.05
  -2   5  13    1.82    0.06
   1  -5 -13    1.89    0.05
  -1   5  13    1.73    0.05
   0   5  13    0.72    0.04
   1   5  13    1.63    0.05
   2   5  13    6.55    0.11
   3   5  13    0.39    0.03
   3   5  13    0.32    0.03
   4   5  13    0.03    0.02
   5   5  13    0.63    0.04
   2  -6 -13   -0.02    0.02
  -2   6  13    0.02    0.02
   1  -6 -13    0.08    0.02
  -1   6  13    0.11    0.02
   0   6  13    0.15    0.02
   1   6  13   13.59    0.20
   2   6  13    9.82    0.15
   3   6  13   -0.01    0.01
   4   6  13    2.65    0.06
   5   6  13    0.31    0.03
   2  -7 -13    0.97    0.04
  -2   7  13    0.95    0.05
   1  -7 -13    0.02    0.01
  -1   7  13    0.03    0.02
   0  -7 -13    0.89    0.03
   0   7  13    0.86    0.04
   2   7  13    0.22    0.02
   3   7  13    0.81    0.03
   4   7  13    3.63    0.07
   2  -8 -13    2.23    0.06
  -2   8  13    2.24    0.07
   1  -8 -13    0.29    0.03
  -1   8  13    0.29    0.03
   0  -8 -13    1.43    0.04
   2   8  13    0.26    0.02
   3   8  13    0.22    0.02
   4   8  13    0.66    0.03
  -2   9  13    0.10    0.03
   1  -9 -13    0.23    0.02
   0  -9 -13    2.55    0.06
   1   9  13   -0.01    0.02
   2   9  13    0.25    0.02
   3   9  13    1.92    0.05
   4   9  13   -0.01    0.02
   1 -10 -13    0.31    0.03
   0 -10 -13    0.47    0.03
   1  10  13    0.08    0.02
   2  10  13    0.36    0.03
   3  10  13    2.42    0.06
   4  10  13    0.97    0.04
   0 -11 -13    0.25    0.02
   1  11  13    0.02    0.02
   2  11  13    0.15    0.02
   3  11  13    1.76    0.06
   0 -12 -13    0.21    0.02
   0  12  13    0.25    0.03
   1  12  13    0.08    0.02
   2  12  13    4.59    0.09
  -1 -13 -13    0.68    0.04
   0  -1  14    1.13    0.05
   1  -1  14    0.84    0.04
   2  -1  14    0.06    0.02
   2   0 -14    0.04    0.02
  -1   0  14    4.12    0.09
   0   0  14    0.59    0.04
   1   0  14    0.08    0.02
   2   0  14    0.38    0.03
   3   0  14    0.32    0.03
   2  -1 -14    0.25    0.03
  -1   1  14    0.11    0.02
   0   1  14    2.28    0.06
   1   1  14    0.04    0.02
   2   1  14    0.24    0.03
   3   1  14    1.20    0.05
   2  -2 -14    0.67    0.04
  -1   2  14   -0.01    0.02
   0   2  14    0.37    0.03
   1   2  14    0.01    0.02
   2   2  14    1.01    0.04
   3   2  14    0.00    0.02
   4   2  14    0.10    0.02
   2  -3 -14   -0.01    0.02
  -1   3  14    2.01    0.06
   0   3  14    0.28    0.03
   1   3  14   -0.01    0.02
   2   3  14    5.78    0.10
   3   3  14    0.32    0.03
   4   3  14    0.51    0.03
   2  -4 -14    1.04    0.04
  -1   4  14    1.50    0.05
   0   4  14    0.01    0.02
   1   4  14    0.11    0.02
   2   4  14    0.37    0.03
   3   4  14    0.19    0.02
   2  -5 -14    0.24    0.03
  -2   5  14    0.22    0.03
   1  -5 -14    0.01    0.02
  -1   5  14    0.02    0.02
   0   5  14    1.47    0.05
   1   5  14   20.48    0.29
   2   5  14    0.05    0.02
   4   5  14    0.25    0.02
   2  -6 -14    0.56    0.04
   1  -6 -14    1.60    0.05
  -1   6  14    1.53    0.05
   0   6  14    0.36    0.03
   1   6  14    0.61    0.03
   4   6  14    2.50    0.06
   1  -7 -14    0.51    0.03
  -1   7  14    0.53    0.04
   0   7  14    2.14    0.06
   3   7  14    0.39    0.03
   4   7  14    0.47    0.03
   1  -8 -14    0.05    0.02
  -1   8  14    0.05    0.02
   3   8  14    2.52    0.06
   4   8  14    1.77    0.05
   1  -9 -14    0.03    0.02
   2   9  14    0.09    0.02
   3   9  14    1.48    0.05
   0 -10 -14    0.10    0.02
   2  10  14    0.13    0.02
   3  10  14    0.90    0.04
   0 -11 -14    0.37    0.03
   2  11  14    2.86    0.07
   1   1  15    1.67    0.05
   2   1  15    1.05    0.05
   0   2  15    0.92    0.04
   1   2  15    1.80    0.05
   2   2  15    0.18    0.03
   3   2  15    0.03    0.02
   0   3  15    0.05    0.02
   1   3  15    0.08    0.02
   2   3  15    0.05    0.02
   3   3  15    0.34    0.03
  -1   4  15    0.03    0.02
   0   4  15    0.98    0.04
   1   4  15    2.65    0.07
   2   4  15    0.15    0.02
   3   4  15    0.02    0.02
  -1   5  15    0.04    0.02
   0   5  15    1.15    0.05
   1   5  15    7.27    0.13
   2   5  15    0.02    0.02
  -1   6  15    2.76    0.08
   0   6  15    6.72    0.12
   1   6  15    3.85    0.08
  -1   7  15    0.06    0.03
   0   7  15    1.07    0.05
   4   7  15    0.72    0.04
  -1   8  15    0.13    0.03
   3   9  15    0.27    0.03
   1   4  16    0.27    0.03
   2   4  16    0.21    0.03
   1   5  16    2.08    0.06
   2   5  16    1.93    0.06
   1   6  16    2.63    0.07
   0   7  16    0.79    0.04
   0   0   0    0.00    0.00
;
_shelx_hkl_checksum              57121
#END Tags that were not found in dictionaries
loop_
_space_group_symop_operation_xyz
'x, y, z'
'-x, -y, -z'
loop_
_atom_site_label
_atom_site_type_symbol
_atom_site_fract_x
_atom_site_fract_y
_atom_site_fract_z
_atom_site_U_iso_or_equiv
_atom_site_adp_type
_atom_site_occupancy
_atom_site_site_symmetry_order
_atom_site_calc_flag
_atom_site_refinement_flags_posn
_atom_site_refinement_flags_adp
C1A C 0.81699(18) 0.22299(8) 0.64350(8) 0.0292(2) Uani 1 1 d . .
C2A C 0.8153(2) 0.24341(9) 0.74937(8) 0.0349(2) Uani 1 1 d . .
H2A H 0.6992 0.2102 0.8132 0.042 Uiso 1 1 calc R U
C3A C 0.9786(2) 0.31093(10) 0.76344(9) 0.0388(2) Uani 1 1 d . .
H3A H 0.9750 0.3224 0.8367 0.047 Uiso 1 1 calc R U
C4A C 1.14728(19) 0.36185(9) 0.67157(9) 0.0351(2) Uani 1 1 d . .
H4A H 1.2610 0.4076 0.6811 0.042 Uiso 1 1 calc R U
C5A C 1.14649(17) 0.34448(8) 0.56458(8) 0.0301(2) Uani 1 1 d . .
C6A C 0.98349(18) 0.27636(8) 0.55032(8) 0.0299(2) Uani 1 1 d . .
H6A H 0.9854 0.2660 0.4767 0.036 Uiso 1 1 calc R U
C7A C 0.65009(18) 0.14620(8) 0.63387(8) 0.0317(2) Uani 1 1 d . .
H7A H 0.5214 0.1258 0.6964 0.038 Uiso 1 1 calc R U
C8A C 0.66046(18) 0.10172(8) 0.54569(9) 0.0328(2) Uani 1 1 d . .
H8A H 0.7850 0.1226 0.4813 0.039 Uiso 1 1 calc R U
C9A C 0.49346(19) 0.02407(9) 0.54312(9) 0.0342(2) Uani 1 1 d . .
H9A H 0.3656 0.0056 0.6065 0.041 Uiso 1 1 calc R U
C10A C 1.32130(19) 0.39447(9) 0.46657(9) 0.0353(2) Uani 1 1 d . .
C1B C 0.90119(18) 0.18403(9) 0.15330(8) 0.0329(2) Uani 1 1 d . .
C2B C 1.0978(2) 0.16087(10) 0.21940(9) 0.0382(2) Uani 1 1 d . .
H2B H 1.1808 0.0822 0.2447 0.046 Uiso 1 1 calc R U
C3B C 1.1746(2) 0.24965(10) 0.24892(9) 0.0401(3) Uani 1 1 d . .
H3B H 1.3095 0.2313 0.2934 0.048 Uiso 1 1 calc R U
C4B C 1.05643(19) 0.36440(10) 0.21419(9) 0.0368(2) Uani 1 1 d . .
H4B H 1.1086 0.4256 0.2341 0.044 Uiso 1 1 calc R U
C5B C 0.85802(18) 0.38877(9) 0.14901(8) 0.0317(2) Uani 1 1 d . .
C6B C 0.78152(18) 0.30051(9) 0.11823(8) 0.0317(2) Uani 1 1 d . .
H6B H 0.6474 0.3193 0.0732 0.038 Uiso 1 1 calc R U
C7B C 0.8306(2) 0.08741(9) 0.12280(9) 0.0360(2) Uani 1 1 d . .
H7B H 0.9236 0.0114 0.1502 0.043 Uiso 1 1 calc R U
C8B C 0.64813(19) 0.09510(9) 0.06019(8) 0.0339(2) Uani 1 1 d . .
H8B H 0.5506 0.1700 0.0331 0.041 Uiso 1 1 calc R U
C9B C 0.59126(19) -0.00359(9) 0.03152(9) 0.0348(2) Uani 1 1 d . .
H9B H 0.6888 -0.0785 0.0588 0.042 Uiso 1 1 calc R U
C10B C 0.73156(19) 0.50833(9) 0.11187(8) 0.0347(2) Uani 1 1 d . .
N1A N 1.45992(19) 0.43095(9) 0.38739(8) 0.0482(3) Uani 1 1 d . .
N1B N 0.6346(2) 0.60359(8) 0.08208(8) 0.0458(3) Uani 1 1 d . .
loop_
_atom_site_aniso_label
_atom_site_aniso_U_11
_atom_site_aniso_U_22
_atom_site_aniso_U_33
_atom_site_aniso_U_23
_atom_site_aniso_U_13
_atom_site_aniso_U_12
C1A 0.0322(5) 0.0245(4) 0.0310(5) -0.0075(4) -0.0056(4) -0.0041(4)
C2A 0.0422(6) 0.0340(5) 0.0292(5) -0.0093(4) 0.0008(4) -0.0117(4)
C3A 0.0495(6) 0.0416(6) 0.0316(5) -0.0164(4) -0.0033(4) -0.0133(5)
C4A 0.0380(5) 0.0344(5) 0.0383(5) -0.0144(4) -0.0062(4) -0.0105(4)
C5A 0.0299(5) 0.0284(5) 0.0323(5) -0.0077(4) -0.0043(4) -0.0060(4)
C6A 0.0338(5) 0.0302(5) 0.0278(5) -0.0095(4) -0.0049(4) -0.0070(4)
C7A 0.0341(5) 0.0282(5) 0.0324(5) -0.0060(4) -0.0031(4) -0.0092(4)
C8A 0.0357(5) 0.0292(5) 0.0343(5) -0.0070(4) -0.0050(4) -0.0096(4)
C9A 0.0378(5) 0.0305(5) 0.0355(5) -0.0074(4) -0.0048(4) -0.0113(4)
C10A 0.0370(5) 0.0369(5) 0.0363(5) -0.0118(4) -0.0061(4) -0.0122(4)
C1B 0.0332(5) 0.0349(5) 0.0280(5) -0.0086(4) 0.0006(4) -0.0035(4)
C2B 0.0369(5) 0.0391(5) 0.0331(5) -0.0081(4) -0.0045(4) 0.0036(4)
C3B 0.0346(5) 0.0531(7) 0.0324(5) -0.0132(5) -0.0087(4) -0.0002(5)
C4B 0.0372(5) 0.0452(6) 0.0311(5) -0.0149(4) -0.0051(4) -0.0063(4)
C5B 0.0339(5) 0.0349(5) 0.0263(5) -0.0098(4) -0.0024(4) -0.0046(4)
C6B 0.0322(5) 0.0350(5) 0.0279(5) -0.0090(4) -0.0044(4) -0.0041(4)
C7B 0.0394(5) 0.0293(5) 0.0350(5) -0.0078(4) 0.0004(4) -0.0021(4)
C8B 0.0396(5) 0.0286(5) 0.0307(5) -0.0088(4) 0.0036(4) -0.0052(4)
C9B 0.0408(6) 0.0279(5) 0.0328(5) -0.0090(4) 0.0049(4) -0.0064(4)
C10B 0.0410(5) 0.0377(6) 0.0297(5) -0.0126(4) -0.0086(4) -0.0075(4)
N1A 0.0492(6) 0.0580(6) 0.0407(5) -0.0135(5) 0.0032(4) -0.0253(5)
N1B 0.0607(6) 0.0371(5) 0.0429(5) -0.0125(4) -0.0192(5) -0.0017(4)
loop_
_atom_type_symbol
_atom_type_description
_atom_type_scat_dispersion_real
_atom_type_scat_dispersion_imag
_atom_type_scat_source
C C 0.0033 0.0016 'International Tables Vol C Tables 4.2.6.8 and 6.1.1.4'
H H 0.0000 0.0000 'International Tables Vol C Tables 4.2.6.8 and 6.1.1.4'
N N 0.0061 0.0033 'International Tables Vol C Tables 4.2.6.8 and 6.1.1.4'
loop_
_geom_angle_atom_site_label_1
_geom_angle_atom_site_label_2
_geom_angle_atom_site_label_3
_geom_angle
_geom_angle_site_symmetry_1
C6A C1A C2A 117.90(9) .
C6A C1A C7A 122.31(9) .
C2A C1A C7A 119.78(9) .
C3A C2A C1A 121.55(9) .
C3A C2A H2A 119.2 .
C1A C2A H2A 119.2 .
C4A C3A C2A 120.50(9) .
C4A C3A H3A 119.8 .
C2A C3A H3A 119.8 .
C3A C4A C5A 118.46(9) .
C3A C4A H4A 120.8 .
C5A C4A H4A 120.8 .
C6A C5A C4A 121.17(9) .
C6A C5A C10A 118.32(9) .
C4A C5A C10A 120.48(9) .
C5A C6A C1A 120.38(9) .
C5A C6A H6A 119.8 .
C1A C6A H6A 119.8 .
C8A C7A C1A 126.54(9) .
C8A C7A H7A 116.7 .
C1A C7A H7A 116.7 .
C7A C8A C9A 123.63(10) .
C7A C8A H8A 118.2 .
C9A C8A H8A 118.2 .
C9A C9A C8A 124.27(12) 2_656
C9A C9A H9A 117.9 2_656
C8A C9A H9A 117.9 .
N1A C10A C5A 177.65(11) .
C6B C1B C2B 117.71(9) .
C6B C1B C7B 122.77(9) .
C2B C1B C7B 119.51(9) .
C3B C2B C1B 121.73(10) .
C3B C2B H2B 119.1 .
C1B C2B H2B 119.1 .
C4B C3B C2B 120.45(10) .
C4B C3B H3B 119.8 .
C2B C3B H3B 119.8 .
C3B C4B C5B 118.50(10) .
C3B C4B H4B 120.8 .
C5B C4B H4B 120.8 .
C6B C5B C4B 121.38(9) .
C6B C5B C10B 119.22(9) .
C4B C5B C10B 119.39(9) .
C5B C6B C1B 120.22(9) .
C5B C6B H6B 119.9 .
C1B C6B H6B 119.9 .
C8B C7B C1B 126.74(9) .
C8B C7B H7B 116.6 .
C1B C7B H7B 116.6 .
C7B C8B C9B 123.88(10) .
C7B C8B H8B 118.1 .
C9B C8B H8B 118.1 .
C9B C9B C8B 124.18(12) 2_655
C9B C9B H9B 117.9 2_655
C8B C9B H9B 117.9 .
N1B C10B C5B 179.03(11) .
loop_
_geom_bond_atom_site_label_1
_geom_bond_atom_site_label_2
_geom_bond_distance
_geom_bond_site_symmetry_2
C1A C6A 1.3951(14) .
C1A C2A 1.3971(14) .
C1A C7A 1.4618(13) .
C2A C3A 1.3839(14) .
C2A H2A 0.9500 .
C3A C4A 1.3837(15) .
C3A H3A 0.9500 .
C4A C5A 1.3966(14) .
C4A H4A 0.9500 .
C5A C6A 1.3888(13) .
C5A C10A 1.4438(14) .
C6A H6A 0.9500 .
C7A C8A 1.3402(15) .
C7A H7A 0.9500 .
C8A C9A 1.4386(14) .
C8A H8A 0.9500 .
C9A C9A 1.345(2) 2_656
C9A H9A 0.9500 .
C10A N1A 1.1455(14) .
C1B C6B 1.3984(14) .
C1B C2B 1.3995(15) .
C1B C7B 1.4637(15) .
C2B C3B 1.3864(16) .
C2B H2B 0.9500 .
C3B C4B 1.3783(16) .
C3B H3B 0.9500 .
C4B C5B 1.3986(14) .
C4B H4B 0.9500 .
C5B C6B 1.3886(14) .
C5B C10B 1.4433(14) .
C6B H6B 0.9500 .
C7B C8B 1.3412(15) .
C7B H7B 0.9500 .
C8B C9B 1.4414(15) .
C8B H8B 0.9500 .
C9B C9B 1.347(2) 2_655
C9B H9B 0.9500 .
C10B N1B 1.1432(14) .
loop_
_geom_torsion_atom_site_label_1
_geom_torsion_atom_site_label_2
_geom_torsion_atom_site_label_3
_geom_torsion_atom_site_label_4
_geom_torsion
_geom_torsion_site_symmetry_4
C6A C1A C2A C3A -2.20(15) .
C7A C1A C2A C3A 176.88(9) .
C1A C2A C3A C4A 0.92(16) .
C2A C3A C4A C5A 0.68(16) .
C3A C4A C5A C6A -0.95(15) .
C3A C4A C5A C10A -179.13(9) .
C4A C5A C6A C1A -0.36(15) .
C10A C5A C6A C1A 177.86(8) .
C2A C1A C6A C5A 1.90(14) .
C7A C1A C6A C5A -177.15(9) .
C6A C1A C7A C8A 11.68(16) .
C2A C1A C7A C8A -167.35(10) .
C1A C7A C8A C9A 178.40(9) .
C7A C8A C9A C9A -177.87(13) 2_656
C6B C1B C2B C3B -0.52(15) .
C7B C1B C2B C3B 178.90(9) .
C1B C2B C3B C4B 0.49(16) .
C2B C3B C4B C5B 0.13(15) .
C3B C4B C5B C6B -0.72(15) .
C3B C4B C5B C10B 179.93(9) .
C4B C5B C6B C1B 0.69(15) .
C10B C5B C6B C1B -179.96(9) .
C2B C1B C6B C5B -0.07(14) .
C7B C1B C6B C5B -179.47(9) .
C6B C1B C7B C8B -0.43(16) .
C2B C1B C7B C8B -179.82(10) .
C1B C7B C8B C9B 178.84(9) .
C7B C8B C9B C9B -179.84(12) 2_655
