#------------------------------------------------------------------------------
#$Date: 2016-03-24 14:28:49 +0200 (Thu, 24 Mar 2016) $
#$Revision: 179665 $
#$URL: svn://www.crystallography.net/cod/cif/4/51/18/4511867.cif $
#------------------------------------------------------------------------------
#
# This file is available in the Crystallography Open Database (COD),
# http://www.crystallography.net/
#
# All data on this site have been placed in the public domain by the
# contributors.
#
data_4511867
loop_
_publ_author_name
'Miyake, Ryosuke'
'Nakagawa, Yuki'
'Hase, Mariko'
_publ_section_title
;
 Selective Thermal Elongation of Metal--Metal Distances in the
 Two-Dimensional Assembly of Ag(I) Ions Templated by Assembled Peptide
 Ligands
;
_journal_issue                   10
_journal_name_full               'Crystal Growth &amp; Design'
_journal_page_first              4882
_journal_paper_doi               10.1021/cg5009347
_journal_volume                  14
_journal_year                    2014
_chemical_absolute_configuration ad
_chemical_formula_sum            'C7 H11 Ag2 N3 O5'
_chemical_formula_weight         432.93
_space_group_crystal_system      monoclinic
_space_group_IT_number           4
_space_group_name_Hall           'P 2yb'
_space_group_name_H-M_alt        'P 1 21 1'
_symmetry_space_group_name_Hall  'P 2yb'
_symmetry_space_group_name_H-M   'P 1 21 1'
_atom_sites_solution_hydrogens   geom
_cell_angle_alpha                90
_cell_angle_beta                 103.050(2)
_cell_angle_gamma                90
_cell_formula_units_Z            2
_cell_length_a                   4.8298(7)
_cell_length_b                   19.955(3)
_cell_length_c                   5.5441(8)
_cell_measurement_temperature    273
_cell_volume                     520.53(13)
_computing_cell_refinement       'SAINT V8.32B (Bruker AXS)'
_computing_data_collection       'Bruker SMART APEXII ULTRA'
_computing_data_reduction        'SAINT V8.32B (Bruker AXS)'
_computing_molecular_graphics    'XSHELL V6.3.1 (Bruker AXS)'
_computing_publication_material  'Generate Report (Bruker AXS)'
_computing_structure_refinement  'SHELXL-2013 (Sheldrick, 2013)'
_computing_structure_solution    'SHELXS-97 (Sheldrick, 1997)'
_diffrn_ambient_temperature      273
_diffrn_detector_area_resol_mean 8.333
_diffrn_measured_fraction_theta_full 0.985
_diffrn_measured_fraction_theta_max 0.985
_diffrn_measurement_device_type  'Bruker D8 goniometer'
_diffrn_measurement_method       'omega scans'
_diffrn_radiation_monochromator  'multilayered conforcal mirror'
_diffrn_radiation_type           MoK\a
_diffrn_radiation_wavelength     0.71073
_diffrn_reflns_av_R_equivalents  0.0175
_diffrn_reflns_limit_h_max       6
_diffrn_reflns_limit_h_min       -5
_diffrn_reflns_limit_k_max       22
_diffrn_reflns_limit_k_min       -27
_diffrn_reflns_limit_l_max       7
_diffrn_reflns_limit_l_min       -7
_diffrn_reflns_number            3675
_diffrn_reflns_theta_full        29.56
_diffrn_reflns_theta_max         29.56
_diffrn_reflns_theta_min         2.04
_diffrn_source                   'rotating-anode X-ray tube'
_diffrn_source_type              'Bruker Tourbo X-ray Source'
_exptl_absorpt_coefficient_mu    3.776
_exptl_absorpt_correction_T_max  0.96
_exptl_absorpt_correction_T_min  0.82
_exptl_absorpt_correction_type   empirical
_exptl_absorpt_process_details   'SADABS V2012/1 (Bruker AXS)'
_exptl_crystal_colour            colorless
_exptl_crystal_density_diffrn    2.762
_exptl_crystal_density_method    'not measured'
_exptl_crystal_description       plate
_exptl_crystal_F_000             416
_exptl_crystal_size_max          0.055
_exptl_crystal_size_mid          0.023
_exptl_crystal_size_min          0.010
_refine_diff_density_max         1.813
_refine_diff_density_min         -1.452
_refine_ls_abs_structure_details
;
Flack x determined using 876 quotients [(I+)-(I-)]/[(I+)+(I-)]
(Parsons and Flack (2004), Acta Cryst. A60, s61).
;
_refine_ls_abs_structure_Flack   0.02(3)
_refine_ls_extinction_method     none
_refine_ls_goodness_of_fit_ref   1.056
_refine_ls_hydrogen_treatment    constr
_refine_ls_matrix_type           full
_refine_ls_number_parameters     154
_refine_ls_number_reflns         2318
_refine_ls_number_restraints     1
_refine_ls_restrained_S_all      1.056
_refine_ls_R_factor_all          0.0368
_refine_ls_R_factor_gt           0.0311
_refine_ls_shift/su_max          0.000
_refine_ls_shift/su_mean         0.000
_refine_ls_structure_factor_coef Fsqd
_refine_ls_weighting_details
'w=1/[\s^2^(Fo^2^)+(0.0299P)^2^+1.0629P] where P=(Fo^2^+2Fc^2^)/3'
_refine_ls_weighting_scheme      calc
_refine_ls_wR_factor_gt          0.0697
_refine_ls_wR_factor_ref         0.0722
_reflns_number_gt                2099
_reflns_number_total             2318
_reflns_threshold_expression     'I > 2\s(I)'
_cod_data_source_file            cg5009347_si_001.cif
_cod_data_source_block           p21_273K_again
_cod_depositor_comments
'Adding full bibliography for 4511859--4511871.cif.'
_cod_database_code               4511867
#BEGIN Tags that were not found in dictionaries:
_shelx_res_file
;
TITL p21(0) in P2(1)
CELL 0.71073   4.82980  19.95530   5.54410  90.0000 103.0503  90.0000
ZERR    2.00   0.00070   0.00270   0.00080   0.0000   0.0021   0.0000
LATT -1
SYMM -X, 0.5+Y, -Z
SFAC C  H  N  O  Ag
UNIT 14  22  6  10  4
L.S. 10
SHEL 20 0.7
ACTA
BOND $h
FMAP 2
PLAN 20
size 0.055 0.023 0.010
TEMP 0
WGHT    0.029900    1.062900
FVAR       0.18809
AG1   5    0.210543    0.857413    0.435917    11.00000    0.03739    0.01643 =
         0.04249   -0.00433   -0.00331    0.00797
AG2   5   -0.431840    0.867359   -0.007620    11.00000    0.03937    0.02141 =
         0.03775   -0.00506   -0.00148    0.00813
C1    1   -0.023185    0.756224    0.031528    11.00000    0.02176    0.02381 =
         0.02495   -0.00700   -0.00090    0.00237
C2    1    0.140235    0.695107    0.146553    11.00000    0.02429    0.02311 =
         0.02826   -0.00249    0.00118    0.00396
AFIX  23
H2A   2    0.305477    0.689244    0.076587    11.00000   -1.20000
H2B   2    0.020910    0.655785    0.105070    11.00000   -1.20000
AFIX   0
C3    1    0.236968    0.700388    0.427416    11.00000    0.01120    0.01485 =
         0.02597    0.00330    0.00370    0.00227
AFIX  13
H3    2    0.069751    0.704291    0.498970    11.00000   -1.20000
AFIX   0
C4    1    0.400007    0.636919    0.525343    11.00000    0.01703    0.01179 =
         0.03035    0.00462    0.00603    0.00201
C5    1    0.385049    0.524446    0.691083    11.00000    0.01598    0.01161 =
         0.02912    0.00449    0.00540    0.00076
AFIX  13
H5    2    0.560264    0.519920    0.631374    11.00000   -1.20000
AFIX   0
C6    1    0.466971    0.525914    0.973244    11.00000    0.02873    0.01567 =
         0.03184    0.00090    0.00548   -0.00039
AFIX  23
H6A   2    0.579305    0.565684    1.027454    11.00000   -1.20000
H6B   2    0.296155    0.528322    1.037220    11.00000   -1.20000
AFIX   0
C7    1    0.193060    0.465438    0.590005    11.00000    0.02262    0.01627 =
         0.02546    0.00104    0.00405    0.00206
N1    3    0.417204    0.760005    0.494342    11.00000    0.02080    0.01525 =
         0.02936   -0.00130    0.00119   -0.00030
AFIX  23
H1A   2    0.564201    0.758836    0.400658    11.00000   -1.20000
H1B   2    0.510925    0.756466    0.668093    11.00000   -1.20000
AFIX   0
N2    3    0.250609    0.587550    0.595716    11.00000    0.01508    0.01588 =
         0.03960    0.01037    0.01058    0.00541
AFIX  43
H2    2    0.071528    0.592911    0.584824    11.00000   -1.20000
AFIX   0
N3    3    0.631099    0.466021    1.073968    11.00000    0.03125    0.02479 =
         0.02437    0.00245    0.00217   -0.00099
AFIX  23
H3A   2    0.691984    0.471901    1.251757    11.00000   -1.20000
H3B   2    0.801350    0.465238    1.008832    11.00000   -1.20000
AFIX   0
O1    4    0.060121    0.789198   -0.128649    11.00000    0.04906    0.06613 =
         0.04147    0.02326    0.02250    0.01592
O2    4   -0.240387    0.771677    0.110013    11.00000    0.03517    0.03311 =
         0.06583    0.02080    0.02890    0.01537
O3    4    0.658404    0.631953    0.536071    11.00000    0.01285    0.02393 =
         0.08912    0.02406    0.01603    0.00525
O4    4    0.258712    0.428938    0.435485    11.00000    0.05413    0.06880 =
         0.05952   -0.03865    0.02573   -0.02641
O5    4   -0.024219    0.456252    0.676127    11.00000    0.02258    0.02808 =
         0.06264   -0.01220    0.01681   -0.01179
HKLF 4

REM  p21(0) in P2(1)
REM R1 =  0.0311 for    2099 Fo > 4sig(Fo)  and  0.0368 for all    2318 data
REM    154 parameters refined using      1 restraints

END

WGHT      0.0299      1.0647

REM Highest difference peak  1.813,  deepest hole -1.452,  1-sigma level  0.126
Q1    1   0.0910  0.8480  0.5060  11.00000  0.05    1.81
Q2    1  -0.3101  0.8768 -0.0764  11.00000  0.05    1.47
Q3    1   0.1339  0.8615  0.3149  11.00000  0.05    0.70
Q4    1   0.1049  0.8855  0.5103  11.00000  0.05    0.62
Q5    1   0.2869  0.8611  0.2478  11.00000  0.05    0.58
Q6    1  -0.3749  0.8638  0.0743  11.00000  0.05    0.55
Q7    1   0.8814  0.3804  0.9328  11.00000  0.05    0.53
Q8    1   0.3096  0.8558  0.4651  11.00000  0.05    0.53
Q9    1  -0.5022  0.8709  0.1748  11.00000  0.05    0.51
Q10   1  -0.5960  0.8599 -0.1920  11.00000  0.05    0.44
Q11   1   0.2359  0.8889  0.4144  11.00000  0.05    0.44
Q12   1  -0.2930  0.8984  0.1539  11.00000  0.05    0.44
Q13   1  -0.0449  0.7215  0.0088  11.00000  0.05    0.38
Q14   1  -0.6003  0.8605 -0.0495  11.00000  0.05    0.38
Q15   1  -0.0938  0.8724 -0.1114  11.00000  0.05    0.38
Q16   1  -0.0283  0.4105  0.6910  11.00000  0.05    0.37
Q17   1  -0.4867  0.8771  0.0091  11.00000  0.05    0.37
Q18   1  -0.3494  0.8317 -0.0806  11.00000  0.05    0.37
Q19   1   0.2559  0.7368  0.3660  11.00000  0.05    0.36
Q20   1   0.2551  0.3985  0.5292  11.00000  0.05    0.36
;
_shelx_res_checksum              4378
_shelx_hkl_file
;
   1   0   0  119.91    1.94
   1   0   0  126.18    1.99
   2   0   0   17.18    0.59
   2   0   0   16.95    0.54
   3   0   0   25.32    0.89
   3   0   0   26.39    0.84
   4   0   0   10.52    0.70
   4   0   0    9.41    0.72
   5   0   0   50.36    1.66
   6   0   0    7.97    0.95
   0  -1   0   -1.36    0.01
   0   1   0   -1.35    0.02
   1  -1   0   86.51    1.39
   1  -1   0   85.73    1.42
   1   1   0   82.69    1.42
   1   1   0   79.75    1.38
   2  -1   0  224.47    3.61
   2  -1   0  217.94    3.52
   2   1   0  223.67    3.62
   2   1   0  216.22    3.53
   3  -1   0  105.17    2.04
   3  -1   0  105.16    2.15
   3   1   0  107.67    2.16
   3   1   0  105.08    2.04
   4  -1   0    8.27    0.70
   4  -1   0    7.82    0.65
   4   1   0    8.35    0.70
   5  -1   0    5.89    0.75
   5   1   0    5.87    0.73
   6  -1   0   13.72    1.20
   6   1   0   12.75    1.16
   0  -2   0  899.01   16.15
  -1  -2   0   42.06    0.78
   1  -2   0   38.87    0.80
   1  -2   0   40.40    0.79
   1   2   0   43.18    0.80
   1   2   0   42.15    0.81
   2  -2   0    2.49    0.26
   2  -2   0    1.73    0.25
   2   2   0    1.85    0.25
   3  -2   0   72.55    1.56
   3  -2   0   72.66    1.63
   3   2   0   71.47    1.64
   4  -2   0   11.37    0.76
   4  -2   0   11.05    0.71
   4   2   0    8.92    0.70
   5  -2   0   28.69    1.26
   5   2   0   27.17    1.26
   6  -2   0    4.00    0.73
   6   2   0    3.71    0.74
   0  -3   0   -0.49    0.08
   1  -3   0   55.87    1.03
   1  -3   0   54.92    1.01
  -1  -3   0   55.52    1.01
   1   3   0   53.57    1.02
   1   3   0   55.38    1.06
   2  -3   0  176.34    2.93
   2  -3   0  174.05    2.88
  -2  -3   0  173.34    2.86
   2   3   0  170.44    2.93
   3  -3   0  182.54    3.28
  -3  -3   0  177.82    3.14
   3  -3   0  186.99    3.21
   3   3   0  185.26    3.30
  -4  -3   0    2.25    0.36
   4  -3   0    2.47    0.45
   4  -3   0    2.26    0.44
   4   3   0    2.26    0.45
   5  -3   0    4.01    0.65
   5   3   0    4.80    0.71
   6  -3   0   12.53    1.10
   6   3   0   10.77    1.07
   0  -4   0  391.83    5.95
   1  -4   0  131.70    2.21
   1  -4   0  137.99    2.18
  -1  -4   0  135.67    2.21
   1   4   0  134.86    2.39
   1   4   0  131.88    2.19
   2  -4   0   26.47    0.75
   2  -4   0   26.55    0.75
  -2  -4   0   26.68    0.72
   2   4   0   28.91    0.79
   3  -4   0   54.85    1.37
  -3  -4   0   55.89    1.27
   3  -4   0   55.21    1.31
   3   4   0   52.27    1.37
   4  -4   0    2.43    0.48
   4  -4   0    2.69    0.47
  -4  -4   0    2.44    0.37
   4   4   0    2.11    0.44
   5  -4   0   15.70    1.01
   5   4   0   14.02    1.00
   6  -4   0    3.53    0.72
   6   4   0    3.10    0.72
   0  -5   0   -1.14    0.13
   1  -5   0   68.85    1.31
  -1  -5   0   68.36    1.30
   1  -5   0   68.78    1.24
   1   5   0   70.69    1.28
   1   5   0   71.04    1.40
  -2  -5   0  315.91    4.88
   2  -5   0  302.38    4.87
   2  -5   0  315.18    4.90
   2   5   0  293.97    5.24
   2   5   0  312.79    4.93
   3  -5   0  259.24    4.33
  -3  -5   0  256.28    4.29
   3  -5   0  259.91    4.41
   3   5   0  258.84    4.44
  -4  -5   0    0.96    0.30
   4  -5   0    1.12    0.37
   4  -5   0    0.25    0.33
   4   5   0    0.96    0.38
   5  -5   0    2.63    0.59
   5   5   0    4.21    0.67
   6  -5   0   11.36    1.06
   6   5   0   10.43    1.06
   0  -6   0  323.32    5.03
  -1  -6   0  129.49    2.26
   1  -6   0  136.83    2.19
   1  -6   0  131.40    2.29
   1   6   0  132.54    2.22
   1   6   0  136.23    2.48
   2  -6   0    5.06    0.37
   2  -6   0    5.03    0.42
  -2  -6   0    6.06    0.39
   2   6   0    6.16    0.40
   2   6   0    5.92    0.34
   3  -6   0  106.91    2.21
   3  -6   0  111.82    2.20
  -3  -6   0  109.92    2.14
   3   6   0  110.44    2.27
  -4  -6   0    2.03    0.37
   4  -6   0    2.99    0.46
   4  -6   0    1.87    0.44
   4   6   0    4.62    0.59
   5  -6   0   15.51    1.03
   5   6   0   15.58    1.04
   6  -6   0    5.05    0.77
   6   6   0    6.50    0.88
   0  -7   0   -0.05    0.18
   1  -7   0  226.07    3.54
   1  -7   0  223.01    3.67
  -1  -7   0  227.90    3.68
  -2  -7   0  185.86    3.15
   2  -7   0  183.70    3.17
   2  -7   0  178.22    3.08
   2   7   0  186.43    3.15
   2   7   0  181.24    3.35
   3  -7   0  272.31    4.66
   3  -7   0  284.37    4.70
  -3  -7   0  274.47    4.62
   3   7   0  278.29    4.74
   4  -7   0    0.87    0.36
   4  -7   0    1.07    0.37
  -4  -7   0    0.94    0.31
   4   7   0    0.73    0.39
   5  -7   0    0.99    0.49
   5   7   0    3.50    0.62
   6  -7   0   10.26    1.02
   6   7   0    8.50    1.01
   0  -8   0  650.22    9.87
   1  -8   0  180.65    3.10
  -1  -8   0  180.68    3.09
   1  -8   0  185.92    2.95
  -2  -8   0   41.15    1.03
   2  -8   0   38.96    1.05
   2  -8   0   37.76    0.97
   2   8   0   38.57    1.01
   2   8   0   38.32    1.03
  -3  -8   0   43.13    1.17
   3  -8   0   46.43    1.27
   3  -8   0   42.30    1.19
   3   8   0   41.56    1.13
   3   8   0   41.78    1.23
   4  -8   0    7.37    0.65
  -4  -8   0    7.00    0.59
   4  -8   0    7.03    0.67
   4   8   0    7.21    0.70
   5  -8   0   26.84    1.25
   5   8   0   28.38    1.32
   6  -8   0    4.87    0.81
   6   8   0    5.42    0.85
   0  -9   0   -0.29    0.19
  -1  -9   0   47.05    1.14
   1  -9   0   49.06    1.02
   1  -9   0   49.22    1.17
   2  -9   0   41.24    1.12
   2  -9   0   41.32    1.02
  -2  -9   0   41.22    1.08
   2   9   0   41.99    1.07
   3  -9   0   69.48    1.67
   3  -9   0   69.41    1.61
  -3  -9   0   67.22    1.61
   3   9   0   69.90    1.69
   4  -9   0    7.60    0.68
   4  -9   0    6.24    0.66
  -4  -9   0    6.24    0.58
   4   9   0    8.60    0.78
   5  -9   0    2.69    0.59
   5   9   0    3.70    0.67
   6  -9   0    9.97    1.00
   6   9   0   10.60    1.08
   0 -10   0  712.11   10.90
   1 -10   0   27.44    0.71
   1 -10   0   27.70    0.87
  -1 -10   0   28.03    0.86
   2 -10   0    1.81    0.36
   2 -10   0    2.13    0.29
  -2 -10   0    2.40    0.36
   2  10   0    2.52    0.35
  -3 -10   0   27.46    0.97
   3 -10   0   28.12    0.95
   3 -10   0   27.36    1.03
   3  10   0   29.82    1.04
   4 -10   0    8.88    0.77
  -4 -10   0    7.55    0.66
   4 -10   0    7.71    0.71
   4  10   0   10.56    0.87
   5 -10   0   30.12    1.32
   5  10   0   31.66    1.42
   6 -10   0    4.34    0.74
   6  10   0    5.49    0.88
   0 -11   0    0.42    0.24
   1 -11   0   57.26    1.40
   1 -11   0   58.33    1.20
  -1 -11   0   58.02    1.40
   2 -11   0   72.55    1.54
  -2 -11   0   74.56    1.69
   2 -11   0   73.27    1.70
   3 -11   0   96.28    2.05
   3 -11   0   98.40    2.17
  -3 -11   0   96.08    2.09
   3  11   0   95.22    2.12
   4 -11   0   19.36    1.02
  -4 -11   0   18.02    0.91
   4 -11   0   19.59    0.95
   4  11   0   17.39    0.98
   5 -11   0    2.05    0.54
   5  11   0    2.75    0.62
   0 -12   0  652.58   10.16
   1 -12   0   44.08    1.21
  -1 -12   0   40.96    1.20
   1 -12   0   41.93    0.98
   2 -12   0   22.44    0.91
   2 -12   0   22.44    0.75
  -2 -12   0   21.88    0.87
  -3 -12   0   44.30    1.33
   3 -12   0   45.66    1.40
   3 -12   0   44.21    1.24
   3  12   0   42.65    1.30
   4 -12   0   13.56    0.94
  -4 -12   0   14.79    0.84
   4 -12   0   14.77    0.87
   4  12   0   13.53    0.88
   5 -12   0   19.72    1.10
   5  12   0   20.67    1.21
   0 -13   0    0.43    0.28
  -1 -13   0   35.03    1.13
   1 -13   0   35.91    0.90
   1 -13   0   35.69    1.14
   2 -13   0  113.91    2.44
   2 -13   0  115.37    2.21
  -2 -13   0  116.54    2.42
  -3 -13   0   82.06    1.99
   3 -13   0   83.21    2.06
   3 -13   0   82.91    1.87
  -4 -13   0   23.04    1.06
   4 -13   0   24.91    1.07
   4 -13   0   21.54    1.12
   4  13   0   23.49    1.11
   5 -13   0    0.61    0.45
   5  13   0    0.53    0.48
   0 -14   0  209.63    3.84
   1 -14   0   39.90    1.25
   1 -14   0   38.88    0.98
  -1 -14   0   40.23    1.25
   2 -14   0   40.06    1.31
  -2 -14   0   41.53    1.29
   2 -14   0   40.00    1.08
  -3 -14   0   31.10    1.18
   3 -14   0   30.51    1.03
   3 -14   0   31.20    1.23
   4 -14   0    6.35    0.75
   4 -14   0    6.23    0.66
  -4 -14   0    8.39    0.82
   5  14   0    8.87    0.96
   0 -15   0    0.56    0.31
  -1 -15   0   59.30    1.60
   1 -15   0   57.38    1.59
   1 -15   0   56.35    1.28
   2 -15   0   50.73    1.26
  -2 -15   0   51.11    1.51
   2 -15   0   48.90    1.51
  -3 -15   0   81.42    2.04
   3 -15   0   74.39    1.80
   3 -15   0   79.34    2.07
   4 -15   0   12.73    0.93
   4 -15   0   13.85    0.99
  -4 -15   0   13.22    0.92
   0 -16   0   65.55    1.75
   1 -16   0   33.50    0.93
  -1 -16   0   33.14    1.21
   1 -16   0   33.84    1.24
   2 -16   0   22.47    1.04
   2 -16   0   19.98    0.77
  -2 -16   0   20.68    1.01
   3 -16   0   31.71    1.32
  -3 -16   0   31.32    1.26
  -4 -16   0    6.39    0.78
   4 -16   0    5.36    0.74
   0 -17   0    0.14    0.33
   1 -17   0   28.29    0.86
  -1 -17   0   29.15    1.18
   1 -17   0   27.92    1.17
   2 -17   0   42.41    1.47
  -2 -17   0   43.26    1.47
   3 -17   0   52.49    1.72
  -3 -17   0   52.86    1.70
  -4 -17   0    1.39    0.51
   4 -17   0    1.72    0.54
   0 -18   0  259.64    4.82
   1 -18   0   48.20    1.58
  -1 -18   0   48.21    1.58
   2 -18   0   11.46    0.90
  -2 -18   0   12.43    0.87
   3 -18   0   16.18    1.06
  -3 -18   0   16.12    1.02
  -4 -18   0    2.46    0.59
   4 -18   0    1.82    0.59
   0 -19   0    0.52    0.39
  -1 -19   0   69.06    1.99
   1 -19   0   70.80    2.01
   2 -19   0   18.55    1.08
  -2 -19   0   17.81    1.03
   3 -19   0   41.05    1.60
  -3 -19   0   42.66    1.60
   4 -19   0   15.04    1.10
  -4 -19   0   15.30    1.09
   0 -20   0   98.56    2.50
  -1 -20   0   43.13    1.56
   1 -20   0   41.75    1.56
  -2 -20   0   12.56    0.94
   2 -20   0   10.46    0.95
  -3 -20   0   14.31    1.02
   3 -20   0   14.79    1.09
   4 -20   0    5.76    0.83
  -4 -20   0    8.97    1.01
   0 -21   0    1.23    0.46
  -1 -21   0   35.04    1.46
   1 -21   0   37.75    1.52
  -2 -21   0    8.17    0.92
   2 -21   0    7.93    0.91
  -3 -21   0   17.96    1.14
   3 -21   0   19.42    1.24
  -4 -21   0   14.82    1.12
   4 -21   0   13.48    1.14
   0 -22   0   65.73    2.06
  -1 -22   0   15.20    1.05
   1 -22   0   16.18    1.10
  -2 -22   0   11.97    1.15
   2 -22   0   10.24    1.01
   3 -22   0    7.70    1.00
  -3 -22   0    6.80    0.93
   0 -23   0   -0.07    0.43
   1 -23   0   20.21    1.24
  -1 -23   0   18.51    1.18
  -2 -23   0   12.39    1.05
   2 -23   0   13.55    1.14
   3 -23   0   16.96    1.26
  -3 -23   0   17.75    1.23
   0 -24   0   30.97    1.56
  -1 -24   0   11.62    1.12
   1 -24   0   11.04    1.10
   2 -24   0   14.84    1.30
  -2 -24   0   12.96    1.20
   3 -24   0   11.36    1.15
  -3 -24   0   16.39    1.21
   0 -25   0    0.91    0.58
  -1 -25   0   25.17    1.42
   1 -25   0   25.31    1.47
   2 -25   0   14.47    1.29
  -2 -25   0   13.01    1.11
   0 -26   0   28.29    1.61
  -1 -26   0   21.66    1.38
   1 -26   0   23.55    1.47
  -2 -26   0   31.52    1.61
   2 -26   0   27.58    1.60
   0 -27   0    0.58    0.60
   1 -27   0   19.71    1.45
  -1 -27   0   21.07    1.40
   6   0  -1    0.51    0.50
   5   0  -1    4.01    0.64
   4   0  -1   23.62    0.99
   3   0  -1   -0.09    0.21
   2   0  -1  619.74    9.36
   1   0  -1   83.90    1.44
   0   0   1   13.80    0.37
   1   0   1  227.10    3.53
   1   0   1  223.46    3.59
   2   0   1  272.15    4.46
   2   0   1  272.24    4.41
   3   0   1   20.38    0.84
   3   0   1   19.94    0.85
   4   0   1    2.84    0.55
   4   0   1    3.74    0.57
   5   0   1    6.65    0.81
   5   0   1    6.59    0.80
   6   0   1    1.61    0.60
   6  -1  -1    2.03    0.60
   6   1  -1    1.59    0.57
   5  -1  -1   53.11    1.69
   5   1  -1   50.44    1.68
   4  -1  -1   67.09    1.74
   4   1  -1   66.85    1.74
   3  -1  -1   11.91    0.61
   3   1  -1   11.91    0.62
   2  -1  -1   84.98    1.62
   2   1  -1   81.23    1.59
   1  -1  -1  456.57    6.75
   1   1  -1  444.94    6.71
   0  -1   1   78.94    1.32
   0   1   1   79.20    1.33
   1  -1   1  198.84    3.21
   1  -1   1  204.51    3.14
   1   1   1  198.37    3.22
   1   1   1  195.19    3.17
   2  -1   1    1.61    0.26
   2  -1   1    2.44    0.34
   2   1   1    2.43    0.35
   2   1   1    2.36    0.30
   3  -1   1   24.50    0.92
   3  -1   1   25.61    0.95
   3   1   1   26.29    0.97
   3   1   1   25.05    0.93
   4  -1   1  131.94    2.84
   4  -1   1  135.25    2.85
   4   1   1  131.47    2.86
   4   1   1  136.00    2.86
   5  -1   1   10.56    0.95
   5  -1   1   11.24    0.99
   5   1   1    9.61    0.92
   6  -1   1    2.21    0.67
   6   1   1    1.50    0.58
   6  -2  -1    0.40    0.49
   6   2  -1    2.20    0.62
   5  -2  -1    2.18    0.58
   5   2  -1    1.83    0.52
   4  -2  -1   36.85    1.25
   4   2  -1   38.22    1.26
   3  -2  -1    9.21    0.55
   3   2  -1    8.55    0.55
   3   2  -1    8.21    0.44
   2  -2  -1  249.73    4.09
   2   2  -1  255.54    4.07
   1  -2  -1  302.07    4.71
   1   2  -1  313.20    4.65
   0  -2  -1   41.96    0.79
   0  -2   1   40.95    0.80
   1  -2   1  511.59    7.70
   1  -2   1  507.39    7.84
   1   2   1  522.92    7.86
   1   2   1  530.86    7.80
   2  -2   1  185.10    3.12
   2  -2   1  183.81    3.19
   2   2   1  187.66    3.19
   2   2   1  185.77    3.21
   3  -2   1   47.15    1.33
   3  -2   1   48.25    1.29
   3   2   1   46.16    1.31
   3   2   1   47.12    1.30
   4  -2   1   10.06    0.84
   4  -2   1    9.72    0.80
   4   2   1    9.60    0.79
   5  -2   1    2.84    0.68
  -5  -2  -1    1.87    0.45
   5  -2   1    3.50    0.65
   5   2   1    3.55    0.68
   6  -2   1    7.61    0.94
   6   2   1    8.07    1.00
   6  -3  -1    1.03    0.56
   6   3  -1    1.43    0.59
   5  -3  -1   11.28    0.95
   5   3  -1   12.65    0.91
   4  -3  -1   62.33    1.68
   4   3  -1   62.38    1.67
   3  -3  -1    7.76    0.54
   3   3  -1    7.67    0.44
   3   3  -1    9.12    0.55
   2  -3  -1   87.70    1.68
   2   3  -1   83.98    1.75
   2   3  -1   86.08    1.65
   1  -3  -1  395.63    5.91
   1   3  -1  388.13    6.55
   1   3  -1  385.20    5.96
   0  -3   1    4.31    0.26
   0  -3  -1    4.06    0.24
   1  -3   1  388.81    5.87
   1  -3   1  395.54    6.06
   2  -3   1   11.31    0.58
   2  -3   1    9.79    0.48
   2   3   1   11.79    0.55
   2   3   1   11.54    0.58
   3  -3   1   15.56    0.73
   3  -3   1   13.95    0.77
   3   3   1   15.64    0.75
   4  -3   1  102.68    2.38
   4  -3   1  100.70    2.32
   4   3   1   98.99    2.37
   5  -3   1    2.76    0.58
   5  -3   1    2.21    0.63
  -5  -3  -1    2.85    0.52
   5   3   1    3.17    0.64
   6  -3   1    1.19    0.61
   6   3   1    0.92    0.60
   6  -4  -1    0.86    0.57
   6   4  -1    0.22    0.49
   5  -4  -1    2.82    0.59
   5   4  -1    2.16    0.53
   4  -4  -1   30.63    1.14
   4   4  -1   30.63    1.14
   3  -4  -1    2.94    0.38
   3   4  -1    2.82    0.39
   3   4  -1    1.98    0.29
   2  -4  -1  287.84    4.63
   2   4  -1  289.40    5.04
   2   4  -1  287.14    4.57
   1  -4  -1   66.09    1.18
  -1  -4   1   67.23    1.19
   1  -4  -1   68.49    1.27
   1   4  -1   65.54    1.38
   1   4  -1   64.46    1.15
   0  -4  -1   32.84    0.73
   0  -4   1   32.55    0.74
   0   4  -1   34.14    0.80
   1  -4   1  436.66    6.62
   1  -4   1  450.44    6.84
  -1  -4  -1  446.01    6.81
   2  -4   1  242.90    3.96
  -2  -4  -1  240.02    4.03
   2  -4   1  246.43    4.08
   2   4   1  244.60    4.07
  -3  -4  -1    9.37    0.58
   3  -4   1    8.79    0.66
   3  -4   1    9.34    0.61
   3   4   1    8.05    0.59
   4  -4   1    7.92    0.75
  -4  -4  -1    5.98    0.58
   4  -4   1    5.71    0.64
   4   4   1    6.85    0.71
   5  -4   1    0.90    0.49
  -5  -4  -1    1.16    0.42
   5  -4   1    0.72    0.54
   5   4   1    1.41    0.54
   6  -4   1    8.33    0.99
   6   4   1    8.37    0.97
   6  -5  -1    1.45    0.56
   6   5  -1    0.66    0.57
   5  -5  -1   15.54    0.98
   5   5  -1   14.85    0.97
   4  -5  -1   95.58    2.16
   4   5  -1   91.85    2.13
   4   5  -1   87.41    2.00
   3  -5  -1    9.08    0.58
   3   5  -1    9.13    0.58
   3   5  -1    9.12    0.51
  -2  -5   1   56.93    1.14
   2  -5  -1   59.38    1.30
   2   5  -1   59.22    1.24
   2   5  -1   58.79    1.35
   1  -5  -1  272.03    4.26
  -1  -5   1  271.32    4.27
   1  -5  -1  277.60    4.32
   1   5  -1  280.73    4.79
   1   5  -1  275.95    4.18
   0  -5  -1   25.77    0.65
   0  -5   1   24.95    0.66
   0   5  -1   26.43    0.72
   1  -5   1  278.24    4.47
   1  -5   1  279.18    4.22
  -1  -5  -1  276.34    4.43
   2  -5   1   10.35    0.48
  -2  -5  -1   10.29    0.52
   2  -5   1   10.67    0.58
   2   5   1   11.14    0.55
   3  -5   1   21.77    0.91
   3  -5   1   21.24    0.84
  -3  -5  -1   21.25    0.83
   3   5   1   21.67    0.88
   4  -5   1  103.33    2.39
   4  -5   1   97.34    2.26
  -4  -5  -1  101.02    2.27
   4   5   1   99.16    2.39
  -5  -5  -1    4.70    0.63
   5  -5   1    5.96    0.82
   5  -5   1    5.17    0.71
   5   5   1    6.04    0.79
   6  -5   1    0.56    0.56
   6   5   1    2.71    0.67
   6  -6  -1    1.10    0.56
   6   6  -1    0.03    0.53
   5  -6  -1    1.63    0.52
   5   6  -1    2.18    0.57
  -4  -6   1   36.53    1.03
   4  -6  -1   39.52    1.29
   4   6  -1   40.49    1.28
   4   6  -1   35.61    1.10
  -3  -6   1    1.02    0.22
   3  -6  -1    0.94    0.28
   3  -6  -1    1.44    0.33
   3   6  -1    1.29    0.30
   3   6  -1    1.08    0.25
   2  -6  -1  346.23    5.41
   2  -6  -1  354.81    5.54
  -2  -6   1  341.27    5.42
   2   6  -1  347.53    6.05
   2   6  -1  353.55    5.46
   1  -6  -1   94.28    1.69
   1  -6  -1   96.00    1.72
  -1  -6   1   94.66    1.71
   1   6  -1   92.89    1.57
   1   6  -1   94.63    1.90
   0  -6  -1   43.31    0.94
   0  -6   1   43.82    0.97
   0   6  -1   41.90    1.03
   1  -6   1  616.96    9.23
  -1  -6  -1  625.89    9.51
   1  -6   1  637.15    9.56
   2  -6   1  121.93    2.19
  -2  -6  -1  118.74    2.29
   2  -6   1  123.38    2.37
   2   6   1  123.93    2.34
   3  -6   1   23.47    0.96
  -3  -6  -1   22.90    0.87
   3  -6   1   23.22    0.88
   3   6   1   24.13    0.95
   4  -6   1    3.05    0.51
   4  -6   1    2.39    0.53
  -4  -6  -1    2.75    0.49
   4   6   1    4.35    0.61
   5  -6   1    6.21    0.80
  -5  -6  -1    7.70    0.77
   5  -6   1    7.26    0.82
   5   6   1    8.09    0.87
   6  -6   1    2.06    0.64
   6   6   1    2.68    0.73
   6  -7  -1    1.47    0.60
   6   7  -1    1.85    0.60
   5  -7  -1   26.83    1.24
   5   7  -1   29.52    1.31
  -4  -7   1   56.90    1.38
   4  -7  -1   59.55    1.64
   4   7  -1   61.92    1.66
   4   7  -1   58.04    1.51
   3  -7  -1   18.64    0.79
  -3  -7   1   18.28    0.64
   3  -7  -1   18.22    0.69
   3   7  -1   18.68    0.73
   3   7  -1   17.59    0.75
   2  -7  -1   49.50    1.11
  -2  -7   1   48.34    1.10
   2  -7  -1   50.99    1.20
   2   7  -1   51.31    1.26
   2   7  -1   51.27    1.12
   1  -7  -1  396.75    6.15
   1  -7  -1  403.45    6.18
  -1  -7   1  398.77    6.19
   1   7  -1  393.24    5.98
   1   7  -1  406.15    6.88
   0  -7  -1   46.68    1.04
   0  -7   1   46.49    1.04
   0   7  -1   45.73    1.13
   1  -7   1  373.07    5.82
   1  -7   1  358.99    5.47
  -1  -7  -1  361.96    5.76
  -2  -7  -1   16.12    0.66
   2  -7   1   16.56    0.58
   2  -7   1   17.19    0.73
   2   7   1   17.57    0.70
   3  -7   1   10.83    0.74
   3  -7   1   10.13    0.63
  -3  -7  -1    9.98    0.63
   3   7   1   12.30    0.72
   4  -7   1   58.92    1.63
   4  -7   1   58.81    1.73
  -4  -7  -1   57.31    1.62
   4   7   1   59.10    1.77
  -5  -7  -1   10.38    0.85
   5  -7   1    9.28    0.93
   5  -7   1    8.46    0.84
   5   7   1   12.22    1.03
   6  -7   1    0.35    0.53
   6   7   1    1.10    0.62
   6  -8  -1    1.25    0.57
   6   8  -1    1.12    0.59
   5  -8  -1    1.68    0.54
   5   8  -1    1.79    0.55
   4  -8  -1   30.17    1.13
  -4  -8   1   28.58    0.92
   4   8  -1   24.80    0.95
   4   8  -1   27.07    1.11
   3  -8  -1   14.09    0.65
   3  -8  -1   12.99    0.70
  -3  -8   1   14.34    0.61
   3   8  -1   13.70    0.67
   3   8  -1   13.78    0.69
   2  -8  -1  213.97    3.57
   2  -8  -1  219.75    3.66
  -2  -8   1  211.46    3.59
   2   8  -1  214.06    3.55
   2   8  -1  214.44    4.00
   1  -8  -1   85.21    1.60
  -1  -8   1   83.63    1.63
   1  -8  -1   83.45    1.62
   1   8  -1   78.49    1.42
   1   8  -1   80.86    1.79
   0  -8   1   67.19    1.42
   0  -8  -1   67.25    1.40
   0   8  -1   70.05    1.55
  -1  -8  -1  292.54    4.74
   1  -8   1  289.03    4.77
   2  -8   1  114.55    2.07
  -2  -8  -1  111.65    2.22
   2  -8   1  115.18    2.30
   3  -8   1   21.84    0.96
   3  -8   1   19.87    0.81
  -3  -8  -1   18.42    0.82
   3   8   1   19.09    0.89
  -4  -8  -1    7.86    0.72
   4  -8   1    8.95    0.74
   4  -8   1    8.48    0.78
   4   8   1    8.78    0.82
  -5  -8  -1    5.42    0.71
   5  -8   1    5.39    0.70
   5  -8   1    6.43    0.83
   5   8   1    5.24    0.76
   6  -9  -1    0.50    0.52
   6   9  -1    1.34    0.58
   5  -9  -1   22.57    1.20
   5   9  -1   25.64    1.24
  -4  -9   1   23.79    0.89
   4  -9  -1   24.47    0.97
   4  -9  -1   26.20    1.07
   4   9  -1   25.88    1.09
   4   9  -1   25.80    0.97
  -3  -9   1   10.89    0.56
   3  -9  -1    9.13    0.62
   3  -9  -1   10.21    0.62
   3   9  -1    8.09    0.58
   3   9  -1    8.06    0.56
   2  -9  -1   78.49    1.68
   2  -9  -1   78.11    1.64
  -2  -9   1   80.01    1.67
   2   9  -1   81.86    1.85
   2   9  -1   79.94    1.58
   1  -9  -1  283.66    4.64
  -1  -9   1  284.10    4.66
   1  -9  -1  287.27    4.57
   1   9  -1  287.20    5.14
   0  -9  -1   14.60    0.60
   0  -9   1   14.91    0.61
   0   9  -1   15.09    0.65
   1  -9   1   81.23    1.72
  -1  -9  -1   79.46    1.68
   2  -9   1   15.53    0.58
  -2  -9  -1   14.57    0.67
   2  -9   1   15.39    0.74
   3  -9   1   28.13    1.13
  -3  -9  -1   29.89    1.04
   3  -9   1   28.32    0.96
   3   9   1   29.46    1.09
   4  -9   1   96.88    2.42
   4  -9   1  101.81    2.30
  -4  -9  -1   99.90    2.32
   4   9   1   99.67    2.46
  -5  -9  -1    8.27    0.83
   5  -9   1    7.43    0.77
   5  -9   1    7.35    0.86
   5   9   1    8.44    0.93
   6 -10  -1    0.47    0.49
   6  10  -1   -0.26    0.47
   5 -10  -1    2.60    0.58
   5  10  -1    2.39    0.56
   4 -10  -1   16.77    0.87
  -4 -10   1   16.31    0.77
   4 -10  -1   16.12    0.89
   4  10  -1   18.71    0.94
   4  10  -1   18.58    0.83
   3 -10  -1   13.38    0.70
   3 -10  -1   13.38    0.72
  -3 -10   1   14.80    0.68
   3  10  -1   15.44    0.75
   3  10  -1   14.05    0.70
  -2 -10   1  136.08    2.54
   2 -10  -1  133.44    2.51
   2 -10  -1  135.15    2.50
   2  10  -1  132.47    2.77
   2  10  -1  131.68    2.39
  -1 -10   1   88.32    1.84
   1 -10  -1   89.83    1.76
   1 -10  -1   94.16    1.86
   1  10  -1   89.73    2.02
   0 -10   1  102.29    2.04
   0 -10  -1  104.00    2.03
   1 -10   1  179.88    3.24
  -1 -10  -1  178.07    3.17
   2 -10   1   82.92    1.95
   2 -10   1   88.08    1.69
  -2 -10  -1   86.26    1.89
  -3 -10  -1   22.29    0.94
   3 -10   1   22.33    0.85
   3 -10   1   23.04    1.05
  -4 -10  -1    7.55    0.75
   4 -10   1    5.93    0.72
   4 -10   1    5.24    0.62
   4  10   1    6.44    0.75
   5 -10   1   11.15    0.91
   5 -10   1    8.98    0.95
  -5 -10  -1    8.75    0.87
   5  10   1   10.18    1.00
   6 -11  -1    1.01    0.53
   6  11  -1    0.60    0.55
   5 -11  -1   30.73    1.36
   5  11  -1   33.38    1.39
  -4 -11   1   27.68    1.02
   4 -11  -1   30.88    1.18
   4 -11  -1   29.83    1.13
   4  11  -1   27.86    1.07
   4  11  -1   28.63    1.14
   3 -11  -1    1.09    0.36
  -3 -11   1    1.16    0.33
   3 -11  -1    1.12    0.33
   3  11  -1    1.57    0.37
   3  11  -1    2.09    0.38
   2 -11  -1   52.58    1.33
  -2 -11   1   53.78    1.36
   2 -11  -1   54.12    1.32
   2  11  -1   53.40    1.46
   2  11  -1   53.56    1.22
   1 -11  -1  274.81    4.61
   1 -11  -1  272.48    4.49
  -1 -11   1  276.26    4.64
   1  11  -1  278.74    5.10
   0 -11   1   34.40    1.02
   0 -11  -1   33.42    1.00
  -1 -11  -1  155.97    2.88
   1 -11   1  151.34    2.91
   2 -11   1    9.00    0.46
  -2 -11  -1    7.86    0.60
   2 -11   1    7.72    0.66
   3 -11   1    5.11    0.63
   3 -11   1    5.74    0.50
  -3 -11  -1    6.32    0.64
   4 -11   1   54.17    1.74
   4 -11   1   54.88    1.59
  -4 -11  -1   56.39    1.67
  -5 -11  -1    9.15    0.88
   5 -11   1    9.04    0.95
   6 -12  -1    1.63    0.58
   6  12  -1    3.43    0.73
   5 -12  -1    6.39    0.77
   5  12  -1    5.32    0.73
  -4 -12   1   17.19    0.83
   4 -12  -1   17.02    0.91
   4 -12  -1   14.56    0.90
   4  12  -1   15.38    0.84
   4  12  -1   15.33    0.89
   3 -12  -1    4.97    0.52
   3 -12  -1    5.97    0.57
  -3 -12   1    6.91    0.61
   3  12  -1    5.53    0.54
   3  12  -1    6.64    0.64
   2 -12  -1  178.14    3.19
   2 -12  -1  174.76    3.22
  -2 -12   1  176.70    3.28
   2  12  -1  175.90    3.57
   2  12  -1  175.40    3.06
   1 -12  -1   57.44    1.33
   1 -12  -1   56.47    1.43
  -1 -12   1   59.54    1.46
   1  12  -1   59.00    1.58
   0 -12   1   50.45    1.32
   0 -12  -1   49.47    1.32
  -1 -12  -1  184.26    3.38
   1 -12   1  184.46    3.42
   2 -12   1   71.04    1.81
   2 -12   1   71.12    1.47
  -2 -12  -1   72.89    1.75
   3 -12   1   15.25    0.70
  -3 -12  -1   15.69    0.86
   3 -12   1   14.64    0.93
  -4 -12  -1    4.41    0.61
   4 -12   1    3.58    0.63
   4 -12   1    2.65    0.49
   5 -12   1    5.95    0.82
  -5 -12  -1    4.12    0.67
   5 -13  -1   23.22    1.20
   5  13  -1   23.74    1.24
  -4 -13   1   43.27    1.37
   4 -13  -1   44.81    1.46
   4 -13  -1   43.67    1.42
   4  13  -1   45.78    1.49
   4  13  -1   43.49    1.44
  -3 -13   1   21.77    0.94
   3 -13  -1   21.81    0.92
   3 -13  -1   21.63    0.94
   3  13  -1   23.34    0.88
   3  13  -1   21.69    0.99
   2 -13  -1   34.59    1.06
   2 -13  -1   36.26    1.13
  -2 -13   1   34.21    1.13
   2  13  -1   32.66    1.19
   1 -13  -1  110.77    2.31
   1 -13  -1  111.57    2.16
  -1 -13   1  112.64    2.34
   1  13  -1  110.74    2.54
   0 -13  -1   20.99    0.87
   0 -13   1   20.70    0.85
   1 -13   1   98.49    2.18
  -1 -13  -1   98.53    2.14
   2 -13   1   38.43    0.97
  -2 -13  -1   38.27    1.23
   2 -13   1   39.05    1.31
   3 -13   1   11.06    0.69
  -3 -13  -1    9.64    0.76
   3 -13   1    9.87    0.82
   4 -13   1   68.81    2.04
  -4 -13  -1   71.53    1.99
   5 -13   1    3.56    0.73
  -5 -13  -1    3.75    0.67
   5 -14  -1    7.36    0.82
   5  14  -1    7.66    0.83
  -4 -14   1   16.53    0.90
   4 -14  -1   18.16    0.97
   4 -14  -1   17.59    0.99
   4  14  -1   16.95    0.94
   4  14  -1   17.00    0.92
  -3 -14   1    4.00    0.56
   3 -14  -1    3.29    0.48
   3 -14  -1    2.38    0.48
   3  14  -1    1.91    0.45
   3  14  -1    3.12    0.44
  -2 -14   1  111.22    2.40
   2 -14  -1  108.75    2.34
   2 -14  -1  106.54    2.24
   2  14  -1  111.54    2.59
  -1 -14   1   59.94    1.58
   1 -14  -1   59.17    1.41
   1 -14  -1   60.55    1.58
   0 -14   1   70.89    1.77
   0 -14  -1   75.50    1.81
  -1 -14  -1  128.99    2.64
   1 -14   1  126.74    2.68
  -2 -14  -1   97.41    2.24
   2 -14   1   96.04    2.28
  -3 -14  -1   11.00    0.87
   3 -14   1   10.16    0.85
   4 -14   1    5.41    0.76
  -4 -14  -1    5.06    0.67
  -5 -14  -1    2.67    0.62
   5 -14   1    2.64    0.71
   5 -15  -1    2.49    0.57
   5  15  -1    2.74    0.59
  -4 -15   1   25.01    1.13
   4 -15  -1   25.45    1.16
   4 -15  -1   24.71    1.12
   4  15  -1   24.15    1.09
   3 -15  -1   32.86    1.22
  -3 -15   1   32.94    1.22
   3 -15  -1   35.65    1.19
  -2 -15   1   25.26    1.04
   2 -15  -1   25.02    1.03
   2 -15  -1   24.34    0.91
   1 -15  -1   83.10    1.98
  -1 -15   1   80.45    1.97
   1 -15  -1   81.62    1.77
   0 -15  -1    0.90    0.36
   0 -15   1    1.04    0.34
   1 -15   1   88.28    2.12
  -1 -15  -1   84.91    2.05
   2 -15   1   36.01    1.34
  -2 -15  -1   39.33    1.32
  -3 -15  -1    9.92    0.90
   3 -15   1    6.65    0.75
  -4 -15  -1   35.28    1.40
   4 -15   1   34.52    1.50
   5 -15   1    1.90    0.68
  -5 -15  -1    0.79    0.49
   5 -16  -1    3.83    0.68
   5  16  -1    2.91    0.57
  -4 -16   1   15.86    0.94
   4 -16  -1   14.11    1.00
   4 -16  -1   16.21    0.95
   3 -16  -1    3.71    0.57
  -3 -16   1    4.08    0.58
   3 -16  -1    3.44    0.51
   2 -16  -1   74.37    1.78
  -2 -16   1   77.61    1.99
   2 -16  -1   77.14    1.94
  -1 -16   1   16.20    0.85
   1 -16  -1   15.24    0.70
   1 -16  -1   15.37    0.88
   0 -16   1   34.04    1.22
   0 -16  -1   33.68    1.23
   1 -16   1  103.25    2.42
  -1 -16  -1  102.46    2.38
  -2 -16  -1   64.98    1.82
   2 -16   1   63.88    1.86
   3 -16   1   15.98    1.04
  -3 -16  -1   16.23    0.99
  -4 -16  -1    0.68    0.49
   4 -16   1    1.03    0.56
   5 -16   1    5.04    0.83
  -5 -16  -1    4.68    0.80
   4 -17  -1   26.60    1.16
  -4 -17   1   24.55    1.16
   4 -17  -1   22.05    1.25
  -3 -17   1   18.39    0.99
   3 -17  -1   18.56    0.90
   3 -17  -1   17.56    0.99
  -2 -17   1   33.50    1.26
   2 -17  -1   31.54    1.23
   2 -17  -1   30.81    1.07
  -1 -17   1   44.36    1.45
   1 -17  -1   46.92    1.50
   1 -17  -1   46.60    1.27
   0 -17  -1    9.74    0.78
   0 -17   1    9.66    0.78
  -1 -17  -1   30.19    1.23
   1 -17   1   29.70    1.23
   2 -17   1   32.99    1.35
  -2 -17  -1   32.92    1.29
  -3 -17  -1   13.80    0.98
   3 -17   1   16.02    1.07
  -4 -17  -1   33.72    1.47
   4 -17   1   34.06    1.57
  -4 -18   1    5.73    0.73
   3 -18  -1    1.23    0.51
  -3 -18   1    1.48    0.46
   3 -18  -1    0.93    0.36
   2 -18  -1  113.27    2.62
   2 -18  -1  112.52    2.41
  -2 -18   1  113.62    2.67
   1 -18  -1   10.49    0.64
   1 -18  -1   12.04    0.88
  -1 -18   1    9.57    0.77
   0 -18  -1   49.57    1.61
   0 -18   1   50.89    1.62
   1 -18   1   50.94    1.67
  -1 -18  -1   51.98    1.67
   2 -18   1   48.41    1.68
  -2 -18  -1   49.60    1.65
  -3 -18  -1   13.66    1.10
   3 -18   1    9.58    0.97
  -4 -18  -1    1.93    0.59
   4 -18   1    1.55    0.63
  -4 -19   1   11.30    0.92
  -3 -19   1   22.16    1.16
   3 -19  -1   21.57    1.15
   2 -19  -1   25.01    0.99
   2 -19  -1   27.89    1.23
  -2 -19   1   24.97    1.18
   1 -19  -1   61.73    1.59
  -1 -19   1   60.21    1.82
   1 -19  -1   64.36    1.88
   0 -19  -1   12.41    0.93
   0 -19   1   12.47    0.91
  -1 -19  -1   32.68    1.37
   1 -19   1   33.10    1.39
  -2 -19  -1   17.91    1.10
   2 -19   1   20.39    1.16
   3 -19   1   11.91    1.10
  -3 -19  -1   13.62    1.14
   4 -19   1   19.52    1.30
  -4 -19  -1   21.21    1.28
  -4 -20   1    6.16    0.83
  -3 -20   1    3.58    0.66
   3 -20  -1    4.14    0.68
  -2 -20   1   41.99    1.55
   2 -20  -1   41.45    1.54
  -1 -20   1   30.68    1.31
   1 -20  -1   29.68    1.07
   1 -20  -1   32.03    1.35
   0 -20  -1   51.90    1.74
   0 -20   1   50.07    1.72
  -1 -20  -1   46.58    1.65
   1 -20   1   44.08    1.65
  -2 -20  -1   20.99    1.21
   2 -20   1   20.70    1.21
   3 -20   1   15.67    1.18
  -3 -20  -1   14.96    1.11
  -4 -20  -1    1.06    0.58
   4 -20   1    1.96    0.64
   3 -21  -1    9.66    0.96
  -3 -21   1   10.88    0.92
   2 -21  -1   12.76    1.00
  -2 -21   1   11.25    1.05
  -1 -21   1   43.97    1.64
   1 -21  -1   50.25    1.73
   0 -21   1    6.38    0.77
   0 -21  -1    8.31    0.86
   1 -21   1   19.85    1.21
  -1 -21  -1   19.73    1.19
  -2 -21  -1   20.61    1.23
   2 -21   1   20.78    1.25
   3 -21   1    8.13    0.97
  -3 -21  -1   10.36    1.11
  -3 -22   1    1.16    0.46
   3 -22  -1    0.87    0.55
  -2 -22   1   23.46    1.24
   2 -22  -1   24.45    1.29
   1 -22  -1   16.94    1.14
  -1 -22   1   14.88    1.07
   0 -22  -1   41.82    1.66
   0 -22   1   43.59    1.68
  -1 -22  -1   23.82    1.30
   1 -22   1   24.11    1.33
   2 -22   1   17.64    1.22
  -2 -22  -1   14.64    1.12
  -3 -22  -1    9.96    1.13
   3 -22   1    8.00    1.01
  -3 -23   1   10.42    1.05
   3 -23  -1    9.31    1.00
   2 -23  -1   15.44    1.15
  -2 -23   1   17.42    1.13
   1 -23  -1   30.71    1.49
  -1 -23   1   31.01    1.48
   0 -23  -1    4.13    0.73
   0 -23   1    5.81    0.80
   1 -23   1   26.35    1.43
  -1 -23  -1   25.72    1.40
  -2 -23  -1   14.32    1.12
   2 -23   1   13.29    1.20
   3 -23   1    4.31    0.87
  -3 -23  -1    5.51    0.92
  -3 -24   1    2.69    0.64
   3 -24  -1    3.79    0.77
   2 -24  -1   30.63    1.53
  -2 -24   1   28.50    1.44
  -1 -24   1   11.36    1.06
   1 -24  -1   12.12    1.14
   0 -24  -1   32.96    1.56
   0 -24   1   33.00    1.58
   1 -24   1   35.21    1.66
  -1 -24  -1   32.58    1.60
   2 -24   1   10.51    1.12
  -2 -24  -1   12.15    1.18
  -2 -25   1    8.42    0.98
   2 -25  -1    8.11    1.03
   1 -25  -1   13.84    1.24
  -1 -25   1   14.40    1.21
   0 -25  -1    6.64    0.89
   0 -25   1    6.21    0.89
   1 -25   1   20.96    1.41
  -1 -25  -1   19.22    1.31
   2 -25   1   24.03    1.53
  -2 -25  -1   23.77    1.45
  -2 -26   1   21.96    1.38
   2 -26  -1   20.11    1.41
   1 -26  -1    3.13    0.78
  -1 -26   1    3.61    0.80
   0 -26   1   34.43    1.73
   0 -26  -1   34.46    1.71
   1 -26   1   10.08    1.13
  -1 -26  -1   10.95    1.11
   1 -27  -1    9.33    1.10
  -1 -27   1    7.98    1.03
   0 -27   1    1.62    0.67
   0 -27  -1    0.84    0.62
   6   0  -2   19.96    1.25
   5   0  -2    5.84    0.70
   4   0  -2    5.44    0.58
   3   0  -2    0.65    0.31
   2   0  -2   23.48    0.74
   1   0  -2  567.18    8.51
   0   0   2 1000.00   15.13
   1   0   2    9.45    0.52
   2   0   2    7.86    0.59
   2   0   2    7.38    0.50
   3   0   2   76.51    1.92
   3   0   2   74.90    1.82
   4   0   2   -0.72    0.35
   4   0   2    0.10    0.50
   5   0   2   31.76    1.50
   5   0   2   33.30    1.56
   6  -1  -2    5.74    0.85
   6   1  -2    5.64    0.83
   5  -1  -2    1.72    0.54
   5   1  -2    0.91    0.49
   4  -1  -2    8.54    0.68
   4   1  -2    8.88    0.71
   3  -1  -2  137.39    2.62
   3   1  -2  135.22    2.60
   2  -1  -2   40.48    1.02
   2   1  -2   40.63    1.00
   1  -1  -2   30.36    0.75
   1   1  -2   29.32    0.71
   0  -1   2  193.19    3.20
   0   1   2  203.24    3.22
   1  -1   2    1.37    0.28
   1   1   2    1.09    0.26
   2  -1   2  152.18    2.89
   2  -1   2  150.72    2.74
   2   1   2  150.95    2.78
   2   1   2  152.49    2.87
   3  -1   2   37.16    1.21
   3  -1   2   40.21    1.33
   3   1   2   39.05    1.26
   3   1   2   40.77    1.35
   4  -1   2    3.39    0.66
   4  -1   2    4.88    0.65
   4   1   2    3.84    0.61
   5  -1   2   28.72    1.51
   5  -1   2   29.95    1.46
   5   1   2   29.75    1.49
   6  -2  -2   13.02    1.09
   6   2  -2   12.75    1.11
   5  -2  -2    4.37    0.69
   5   2  -2    5.39    0.70
   4  -2  -2   13.16    0.79
   4   2  -2   13.84    0.74
   4   2  -2   13.08    0.80
   3  -2  -2   16.19    0.76
   3   2  -2   16.59    0.73
   2  -2  -2   24.94    0.79
   2   2  -2   26.66    0.77
   1  -2  -2  345.01    5.36
   1   2  -2  346.46    5.27
   0  -2   2  362.50    5.65
   0   2   2  361.18    5.66
   0   2  -2  374.19    6.23
   1  -2   2   24.13    0.77
   1   2   2   24.81    0.79
   2  -2   2   23.67    0.79
   2  -2   2   26.54    0.94
   2   2   2   22.85    0.90
   2   2   2   23.57    0.83
   3  -2   2   93.39    2.20
   3  -2   2   89.55    2.03
   3   2   2   93.70    2.19
   3   2   2   89.92    2.09
   4  -2   2    2.25    0.59
   4  -2   2    1.70    0.49
   4   2   2    0.90    0.46
   4   2   2    2.59    0.60
   5  -2   2   24.25    1.32
   5  -2   2   23.31    1.40
   5   2   2   21.84    1.33
   6  -3  -2    4.81    0.77
   6   3  -2    4.83    0.79
   5  -3  -2    1.28    0.49
   5   3  -2    0.81    0.48
   4  -3  -2   13.39    0.80
   4   3  -2   13.41    0.75
   4   3  -2   12.98    0.79
   3  -3  -2  215.66    3.80
   3   3  -2  216.01    3.73
   3   3  -2  208.66    4.05
   2  -3  -2   71.61    1.54
   2   3  -2   72.89    1.46
   1  -3  -2   27.40    0.74
   1   3  -2   26.89    0.82
   1   3  -2   26.67    0.63
   0  -3   2   83.02    1.59
   0   3  -2   84.79    1.72
   1  -3   2    5.74    0.46
   1   3   2    5.56    0.45
   2  -3   2  220.57    3.90
   2  -3   2  218.71    3.70
   2   3   2  221.43    3.90
   3  -3   2   34.73    1.28
   3  -3   2   33.85    1.10
   3   3   2   34.69    1.19
   3   3   2   33.64    1.24
   4  -3   2    0.99    0.52
   4  -3   2    1.83    0.48
   4   3   2    1.33    0.49
   5  -3   2   12.25    1.15
  -5  -3  -2   11.79    0.97
   5  -3   2   12.92    1.08
   5   3   2   13.71    1.11
   6  -4  -2    8.71    0.96
   6   4  -2    9.79    0.98
   5  -4  -2   18.57    1.08
   5   4  -2   19.24    1.06
   4  -4  -2   14.77    0.84
   4   4  -2   15.31    0.84
   4   4  -2   13.90    0.77
   3  -4  -2    7.30    0.59
   3   4  -2    6.85    0.54
   3   4  -2    6.54    0.55
   2  -4  -2   20.79    0.73
   2   4  -2   21.07    0.66
   2   4  -2   20.75    0.78
   1  -4  -2  177.88    2.89
  -1  -4   2  181.72    2.92
   1  -4  -2  180.04    3.06
   1   4  -2  180.89    2.87
   1   4  -2  190.34    3.41
   0  -4  -2  391.42    6.04
   0  -4   2  391.75    6.09
   0   4  -2  390.39    6.67
   1  -4   2   16.43    0.67
  -1   4  -2   15.55    0.55
   2  -4   2   27.06    0.96
   2  -4   2   26.13    0.80
   3  -4   2   60.85    1.54
   3  -4   2   63.14    1.73
   3   4   2   58.53    1.63
   4  -4   2    6.78    0.70
  -4  -4  -2    7.17    0.74
   4  -4   2    6.82    0.81
   4   4   2    7.26    0.80
  -5  -4  -2    6.61    0.80
   5  -4   2    8.53    0.91
   5  -4   2    8.04    0.99
   5   4   2    9.52    0.99
   6  -5  -2    5.26    0.83
   6   5  -2    3.79    0.71
   5  -5  -2    1.33    0.48
   5   5  -2    0.53    0.44
   4  -5  -2   41.00    1.36
   4   5  -2   40.09    1.29
   4   5  -2   41.44    1.33
   3  -5  -2  217.24    3.89
   3   5  -2  219.24    4.19
   3   5  -2  218.67    3.79
   2  -5  -2   10.80    0.55
   2   5  -2    9.08    0.43
   2   5  -2    8.69    0.55
   1  -5  -2   26.96    0.76
  -1  -5   2   26.42    0.66
   1  -5  -2   25.96    0.64
   1   5  -2   24.51    0.58
   1   5  -2   24.81    0.83
   0  -5  -2   60.86    1.25
   0  -5   2   58.39    1.27
   0   5  -2   59.37    1.37
  -1  -5  -2    8.41    0.48
   1  -5   2    8.02    0.53
  -1   5  -2    7.82    0.42
   2  -5   2  315.98    5.28
  -2  -5  -2  306.96    5.19
   2  -5   2  312.83    4.99
  -3  -5  -2   36.19    1.19
   3  -5   2   34.99    1.11
   3  -5   2   36.28    1.30
   3   5   2   36.06    1.24
   4  -5   2    0.95    0.42
  -4  -5  -2    0.63    0.42
   4  -5   2    0.83    0.54
   4   5   2    0.91    0.48
   5  -5   2    9.84    1.04
  -5  -5  -2   12.18    0.98
   5  -5   2   12.98    1.03
   5   5   2   10.57    1.03
   6  -6  -2    6.65    0.89
   6   6  -2    6.95    0.87
   5  -6  -2    2.68    0.58
   5   6  -2    2.28    0.55
   4  -6  -2   42.21    1.39
   4   6  -2   42.94    1.35
   4   6  -2   43.16    1.36
   3  -6  -2    2.04    0.40
   3   6  -2    2.28    0.40
   3   6  -2    2.68    0.39
   2  -6  -2    6.09    0.48
   2   6  -2    6.00    0.38
   2   6  -2    6.17    0.49
   1  -6  -2   93.06    1.68
   1  -6  -2   93.45    1.80
  -1  -6   2   89.52    1.70
   1   6  -2   93.21    2.00
   0  -6   2  238.87    3.98
   0  -6  -2  240.60    3.92
   0   6  -2  242.28    4.33
   1  -6   2    9.73    0.57
  -1  -6  -2    9.71    0.52
  -1   6  -2    8.97    0.47
   2  -6   2   22.28    0.92
   2  -6   2   23.37    0.72
  -2  -6  -2   23.07    0.86
   3  -6   2  113.83    2.53
   3  -6   2  113.17    2.32
  -3  -6  -2  112.43    2.44
   4  -6   2    0.34    0.51
  -4  -6  -2    0.86    0.44
   4  -6   2    1.36    0.44
   4   6   2    1.02    0.48
  -5  -6  -2   12.56    1.00
   5  -6   2   14.00    1.18
   5  -6   2   13.78    1.07
   5   6   2   15.97    1.18
   6  -7  -2    3.89    0.73
   6   7  -2    4.41    0.74
   5  -7  -2    2.69    0.60
   5   7  -2    1.46    0.50
   4  -7  -2   21.89    1.01
   4   7  -2   20.56    0.94
   4   7  -2   20.86    0.96
   3  -7  -2  196.84    3.61
   3   7  -2  193.95    3.86
   3   7  -2  195.59    3.46
   2  -7  -2   14.31    0.67
   2   7  -2   15.04    0.54
   2   7  -2   16.41    0.74
  -1  -7   2   30.67    0.83
   1  -7  -2   31.01    0.89
   1  -7  -2   31.96    0.82
   1   7  -2   32.22    0.99
   0  -7  -2  105.08    1.96
   0  -7   2  105.59    2.01
   0   7  -2  100.54    2.16
  -1  -7  -2   35.62    1.00
   1  -7   2   36.93    1.06
  -1   7  -2   34.64    0.98
   2  -7   2  222.66    3.71
   2  -7   2  229.68    4.08
  -2  -7  -2  225.38    3.97
  -3  -7  -2   46.04    1.40
   3  -7   2   48.52    1.31
   3  -7   2   47.75    1.52
  -4  -7  -2    4.56    0.63
   4  -7   2    4.92    0.62
   4  -7   2    4.16    0.70
  -5  -7  -2   17.30    1.11
   5  -7   2   15.27    1.24
   5  -7   2   17.07    1.11
   6  -8  -2    6.79    0.91
   6   8  -2    7.87    0.93
   5  -8  -2   15.67    1.03
   5   8  -2   16.37    0.99
   4  -8  -2    9.62    0.77
   4   8  -2    9.44    0.76
   4   8  -2    8.04    0.66
   3  -8  -2   11.37    0.72
   3   8  -2   11.34    0.72
   3   8  -2   11.31    0.63
  -2  -8   2   12.50    0.52
   2  -8  -2   13.60    0.66
   2   8  -2   12.43    0.68
   2   8  -2   12.87    0.49
   1  -8  -2  161.04    2.89
  -1  -8   2  162.35    2.84
   1  -8  -2  159.56    2.80
   1   8  -2  168.50    3.22
   0  -8  -2  355.71    5.74
   0  -8   2  359.31    5.79
   0   8  -2  364.34    6.35
   1  -8   2   17.48    0.75
  -1  -8  -2   16.59    0.68
  -1   8  -2   16.07    0.69
  -2  -8  -2   37.44    1.15
   2  -8   2   37.83    0.94
   2  -8   2   37.76    1.24
  -3  -8  -2   43.97    1.38
   3  -8   2   43.12    1.46
   3  -8   2   43.18    1.23
  -4  -8  -2    3.00    0.57
   4  -8   2    2.52    0.50
   4  -8   2    2.27    0.63
  -5  -8  -2   16.29    1.10
   5  -8   2   12.24    1.18
   6  -9  -2    1.89    0.65
   6   9  -2    2.48    0.68
   5  -9  -2    2.27    0.59
   5   9  -2    2.12    0.53
   4  -9  -2    8.19    0.76
   4   9  -2    7.96    0.68
   4   9  -2    8.94    0.73
   3  -9  -2  133.46    2.66
  -3  -9   2  123.93    2.38
   3   9  -2  125.39    2.44
   3   9  -2  126.75    2.80
   2  -9  -2    7.17    0.47
  -2  -9   2    6.54    0.43
   2  -9  -2    6.85    0.53
   2   9  -2    6.93    0.58
   2   9  -2    7.59    0.38
  -1  -9   2   25.32    0.81
   1  -9  -2   27.38    0.83
   1  -9  -2   26.77    0.86
   1   9  -2   27.17    0.96
   0  -9  -2   87.69    1.80
   0  -9   2   88.85    1.84
   0   9  -2   85.71    1.97
  -1  -9  -2    3.33    0.40
   1  -9   2    3.52    0.44
  -1   9  -2    3.25    0.40
   2  -9   2  136.92    2.78
  -2  -9  -2  129.87    2.64
   2  -9   2  130.47    2.33
   3  -9   2   14.22    0.92
   3  -9   2   14.09    0.70
  -3  -9  -2   14.02    0.82
   4  -9   2    7.38    0.72
  -4  -9  -2    6.22    0.70
   4  -9   2    7.57    0.84
  -5  -9  -2   12.79    1.08
   5  -9   2   11.26    1.14
   6 -10  -2   15.03    1.19
   6  10  -2   13.18    1.10
   5 -10  -2   11.28    0.92
   5  10  -2   10.16    0.91
   4 -10  -2    4.12    0.61
   4  10  -2    5.61    0.62
   4  10  -2    5.90    0.66
  -3 -10   2    2.01    0.33
   3 -10  -2    2.35    0.36
   3 -10  -2    2.66    0.47
   3  10  -2    2.74    0.38
   3  10  -2    2.70    0.46
  -2 -10   2    8.95    0.52
   2 -10  -2    9.22    0.61
   2 -10  -2    9.90    0.56
   2  10  -2    9.24    0.65
   2  10  -2    9.17    0.43
   1 -10  -2  191.75    3.33
  -1 -10   2  188.32    3.34
   1 -10  -2  192.16    3.37
   1  10  -2  187.85    3.74
   0 -10   2  264.52    4.44
   0 -10  -2  258.67    4.37
   0  10  -2  256.63    4.82
  -1 -10  -2   22.63    0.84
   1 -10   2   21.04    0.89
   2 -10   2    8.45    0.73
  -2 -10  -2    8.40    0.62
   2 -10   2    8.64    0.45
   3 -10   2   48.68    1.39
  -3 -10  -2   45.28    1.44
   3 -10   2   45.52    1.53
  -4 -10  -2    0.80    0.47
   4 -10   2    2.14    0.59
  -5 -10  -2   15.82    1.15
   5 -10   2   15.77    1.26
   6 -11  -2    8.24    0.99
   6  11  -2    7.56    0.89
   5 -11  -2   -0.50    0.40
   5  11  -2    0.21    0.43
   4 -11  -2   21.91    1.07
   4  11  -2   20.16    0.97
   4  11  -2   19.31    1.01
   3 -11  -2   89.89    2.10
  -3 -11   2   86.95    1.92
   3 -11  -2   88.54    1.89
   3  11  -2   90.70    1.91
   3  11  -2   92.21    2.27
   2 -11  -2   19.07    0.82
   2 -11  -2   18.41    0.76
  -2 -11   2   19.46    0.75
   2  11  -2   18.03    0.87
   2  11  -2   18.59    0.60
   1 -11  -2   24.89    0.90
  -1 -11   2   26.08    0.88
   1 -11  -2   26.25    0.90
   1  11  -2   27.66    1.02
   0 -11  -2   52.07    1.36
   0 -11   2   54.72    1.43
   0  11  -2   55.63    1.51
  -1 -11  -2   13.22    0.69
   1 -11   2   11.07    0.70
  -2 -11  -2   63.84    1.66
   2 -11   2   63.79    1.74
  -3 -11  -2   49.03    1.52
   3 -11   2   48.72    1.62
  -4 -11  -2    5.03    0.73
   4 -11   2    4.89    0.76
  -5 -11  -2   15.11    1.12
   5 -11   2   16.45    1.27
   6 -12  -2   10.05    1.07
   6  12  -2   10.42    1.01
   5 -12  -2   -0.12    0.40
   5  12  -2   -0.22    0.38
   4 -12  -2   35.81    1.36
   4  12  -2   35.18    1.23
   4  12  -2   34.18    1.34
   3 -12  -2    0.37    0.33
   3 -12  -2    0.92    0.32
  -3 -12   2    0.57    0.28
   3  12  -2   -0.42    0.29
   3  12  -2    0.28    0.25
   2 -12  -2   19.01    0.80
  -2 -12   2   18.32    0.77
   2 -12  -2   18.46    0.83
   2  12  -2   17.75    0.60
   2  12  -2   18.36    0.91
  -1 -12   2  166.42    3.12
   1 -12  -2  168.86    3.11
   1 -12  -2  166.94    3.12
   1  12  -2  167.71    3.46
   0 -12   2  172.82    3.24
   0 -12  -2  167.83    3.16
   0  12  -2  169.38    3.48
  -1 -12  -2   33.81    1.12
   1 -12   2   33.01    1.17
   2 -12   2    6.37    0.65
  -2 -12  -2    7.79    0.67
   3 -12   2   71.25    2.05
  -3 -12  -2   70.49    1.91
   4 -12   2    0.21    0.49
  -4 -12  -2    0.44    0.45
  -5 -12  -2   14.71    1.10
   5 -12   2   12.17    1.19
   5 -13  -2    1.21    0.50
   5  13  -2    2.04    0.50
   4 -13  -2   18.61    1.02
   4  13  -2   18.64    1.02
   4  13  -2   19.48    0.92
   3 -13  -2   72.88    1.73
   3 -13  -2   72.41    1.87
  -3 -13   2   73.62    1.78
   3  13  -2   76.47    2.07
   3  13  -2   70.45    1.64
  -2 -13   2   18.28    0.81
   2 -13  -2   19.42    0.85
   2 -13  -2   19.30    0.86
   2  13  -2   18.01    0.61
   2  13  -2   18.56    0.94
   1 -13  -2   19.78    0.88
   1 -13  -2   20.91    0.84
  -1 -13   2   19.92    0.86
   1  13  -2   21.66    0.96
   0 -13   2   36.86    1.22
   0 -13  -2   37.20    1.18
   0  13  -2   38.58    1.30
  -1 -13  -2    9.01    0.67
   1 -13   2    9.20    0.71
  -2 -13  -2   88.39    2.13
   2 -13   2   89.76    2.22
   3 -13   2   29.53    1.33
  -3 -13  -2   28.39    1.22
   4 -13   2   13.54    1.09
  -4 -13  -2   11.63    0.95
   5 -13   2    5.11    0.89
  -5 -13  -2    6.54    0.86
   5 -14  -2    3.55    0.65
   5  14  -2    3.36    0.62
   4 -14  -2   14.97    0.95
   4  14  -2   15.32    0.84
   4  14  -2   13.42    0.93
  -3 -14   2    4.63    0.55
   3 -14  -2    4.47    0.56
   3 -14  -2    3.71    0.55
   3  14  -2    4.96    0.65
   3  14  -2    5.81    0.52
  -2 -14   2   23.19    0.93
   2 -14  -2   22.88    0.96
   2 -14  -2   22.21    0.94
   2  14  -2   22.91    1.06
   1 -14  -2   96.39    2.10
   1 -14  -2   94.95    2.15
  -1 -14   2   99.49    2.18
   1  14  -2   91.83    2.34
   0 -14   2  116.64    2.51
   0 -14  -2  113.09    2.44
   0  14  -2  113.34    2.68
   1 -14   2   45.79    1.46
  -1 -14  -2   44.25    1.38
  -2 -14  -2   14.14    0.87
   2 -14   2   14.96    0.94
  -3 -14  -2   44.17    1.52
   3 -14   2   39.64    1.56
   4 -14   2    1.39    0.59
  -4 -14  -2    1.16    0.55
   5 -15  -2    1.64    0.56
   5  15  -2    2.39    0.56
   4 -15  -2   15.93    0.98
   4  15  -2   16.01    1.00
   4  15  -2   15.47    0.87
  -3 -15   2   76.96    1.95
   3 -15  -2   78.85    2.01
   3 -15  -2   76.54    1.91
   3  15  -2   81.05    2.23
  -2 -15   2   19.20    0.89
   2 -15  -2   21.82    0.94
   2 -15  -2   20.79    0.94
   2  15  -2   18.93    1.01
   1 -15  -2   39.01    1.30
   1 -15  -2   39.89    1.24
  -1 -15   2   38.57    1.28
   1  15  -2   39.39    1.42
   0 -15   2   18.80    0.95
   0 -15  -2   17.92    0.92
  -1 -15  -2    5.65    0.61
   1 -15   2    5.81    0.66
  -2 -15  -2   72.06    1.93
   2 -15   2   70.83    2.02
  -3 -15  -2   23.06    1.18
   3 -15   2   21.24    1.22
   4 -15   2    8.47    0.96
  -4 -15  -2    9.37    0.96
   5 -16  -2    2.67    0.61
   4 -16  -2   16.24    1.01
   4  16  -2   15.90    1.04
   3 -16  -2   11.26    0.81
   3 -16  -2    9.82    0.79
  -3 -16   2   10.63    0.75
   3  16  -2   10.47    0.87
  -2 -16   2   19.43    0.93
   2 -16  -2   19.97    0.97
   2 -16  -2   20.39    0.94
   2  16  -2   19.84    1.07
   1 -16  -2   56.82    1.55
  -1 -16   2   54.99    1.62
   1 -16  -2   58.15    1.66
   1  16  -2   58.40    1.80
   0 -16  -2   72.57    1.91
   0 -16   2   69.78    1.91
   1 -16   2   30.55    1.25
  -1 -16  -2   29.33    1.20
   2 -16   2   11.46    0.94
  -2 -16  -2   11.69    0.93
   3 -16   2   24.94    1.33
  -3 -16  -2   26.98    1.27
  -4 -16  -2    1.37    0.57
   4 -16   2    1.07    0.57
   5 -17  -2    0.86    0.50
   4 -17  -2    9.98    0.92
   4  17  -2   10.30    0.93
   3 -17  -2   52.93    1.63
  -3 -17   2   53.48    1.64
   3 -17  -2   55.83    1.67
   3  17  -2   55.84    1.90
  -2 -17   2    8.73    0.73
   2 -17  -2    9.07    0.80
   2 -17  -2    9.22    0.77
   2  17  -2    9.59    0.93
   1 -17  -2   28.32    1.20
   1 -17  -2   27.26    1.07
  -1 -17   2   27.13    1.14
   0 -17   2   41.07    1.45
   0 -17  -2   38.41    1.42
  -1 -17  -2    4.56    0.62
   1 -17   2    3.36    0.57
   2 -17   2   66.19    2.07
  -2 -17  -2   67.70    1.97
  -3 -17  -2   13.71    1.10
   3 -17   2   10.91    1.03
  -4 -17  -2    3.23    0.69
   4 -17   2    2.44    0.68
   5 -18  -2    3.89    0.70
   4 -18  -2    7.59    0.81
   4  18  -2    8.82    0.97
   3 -18  -2    3.74    0.61
   3 -18  -2    4.18    0.61
  -3 -18   2    4.25    0.61
   3  18  -2    4.55    0.72
   2 -18  -2   16.53    0.90
   2 -18  -2   16.73    0.99
  -2 -18   2   16.33    0.96
   2  18  -2   16.56    1.06
   1 -18  -2   47.27    1.46
   1 -18  -2   47.31    1.59
  -1 -18   2   48.58    1.58
   0 -18   2  116.73    2.77
   0 -18  -2  116.39    2.74
   1 -18   2   20.91    1.13
  -1 -18  -2   21.77    1.13
   2 -18   2    9.51    0.96
  -2 -18  -2   10.09    0.93
  -3 -18  -2   21.02    1.23
   3 -18   2   19.02    1.24
  -4 -18  -2    0.32    0.53
   4 -18   2    0.80    0.60
   4 -19  -2    6.32    0.77
   3 -19  -2   35.38    1.40
  -3 -19   2   32.56    1.33
   3 -19  -2   34.55    1.34
   2 -19  -2    6.62    0.78
  -2 -19   2    8.07    0.83
   2 -19  -2    7.32    0.74
  -1 -19   2   39.66    1.47
   1 -19  -2   38.61    1.48
   1 -19  -2   37.74    1.32
   0 -19   2   26.59    1.29
   0 -19  -2   28.01    1.30
  -1 -19  -2   10.08    0.94
   1 -19   2    9.59    0.91
  -2 -19  -2   30.27    1.40
   2 -19   2   35.81    1.58
   3 -19   2    9.58    1.02
  -3 -19  -2   10.64    1.02
   4 -19   2   13.12    1.23
  -4 -19  -2   16.41    1.20
   4 -20  -2    9.79    0.97
   3 -20  -2    0.77    0.45
  -3 -20   2    1.52    0.46
   3 -20  -2    0.90    0.51
  -2 -20   2   13.26    0.94
   2 -20  -2   12.81    0.86
   2 -20  -2   13.52    1.01
  -1 -20   2   42.49    1.58
   1 -20  -2   42.81    1.61
   1 -20  -2   40.74    1.40
   0 -20   2   51.83    1.82
   0 -20  -2   52.18    1.79
  -1 -20  -2   30.36    1.42
   1 -20   2   30.30    1.43
  -2 -20  -2    6.74    0.84
   2 -20   2    6.46    0.89
   3 -20   2   18.17    1.27
  -3 -20  -2   19.77    1.28
  -3 -21   2   27.68    1.30
   3 -21  -2   25.79    1.32
   3 -21  -2   27.04    1.23
  -2 -21   2    9.33    0.93
   2 -21  -2   10.67    0.84
   2 -21  -2   11.15    1.05
   1 -21  -2   26.52    1.14
   1 -21  -2   24.56    1.32
  -1 -21   2   26.54    1.33
   0 -21   2   16.79    1.15
   0 -21  -2   14.84    1.10
   1 -21   2    7.19    0.87
  -1 -21  -2    7.67    0.91
   2 -21   2   24.72    1.45
  -2 -21  -2   23.82    1.36
  -3 -21  -2    8.31    0.97
   3 -21   2    6.65    0.93
  -3 -22   2    0.30    0.41
   3 -22  -2    0.49    0.55
   2 -22  -2   13.57    0.93
   2 -22  -2   12.48    1.11
  -2 -22   2   12.10    1.01
   1 -22  -2   34.95    1.35
  -1 -22   2   34.97    1.55
   1 -22  -2   37.90    1.60
   0 -22  -2   33.53    1.56
   0 -22   2   35.55    1.60
   1 -22   2   28.53    1.47
  -1 -22  -2   28.97    1.48
  -2 -22  -2    0.96    0.56
   2 -22   2    0.66    0.60
  -3 -22  -2   13.08    1.22
   3 -22   2    9.29    1.09
  -3 -23   2   16.94    1.18
   3 -23  -2   17.34    1.24
  -2 -23   2    5.37    0.81
   2 -23  -2    4.68    0.78
  -1 -23   2   25.34    1.41
   1 -23  -2   23.88    1.38
   1 -23  -2   23.29    1.22
   0 -23  -2    4.87    0.80
   0 -23   2    3.19    0.70
  -1 -23  -2    7.69    0.96
   1 -23   2    8.24    0.98
   2 -23   2   17.27    1.36
  -2 -23  -2   14.86    1.23
  -3 -24   2    0.66    0.51
   3 -24  -2   -0.22    0.52
   2 -24  -2    7.91    0.97
  -2 -24   2    7.33    0.92
   1 -24  -2   20.14    1.34
  -1 -24   2   20.84    1.38
   0 -24   2    9.15    1.01
   0 -24  -2    7.49    0.97
  -1 -24  -2   23.19    1.43
   1 -24   2   24.66    1.47
  -2 -24  -2    4.47    0.85
   2 -24   2    3.25    0.81
   2 -25  -2    7.54    0.96
  -2 -25   2    8.14    0.96
   1 -25  -2   14.15    1.19
  -1 -25   2   12.18    1.18
   0 -25   2    7.22    0.97
   0 -25  -2    7.74    1.02
  -1 -25  -2    6.55    0.94
   1 -25   2    6.91    0.99
   1 -26  -2   14.93    1.35
  -1 -26   2   16.09    1.36
   0 -26  -2   16.12    1.34
   0 -26   2   17.07    1.38
  -1 -26  -2   25.50    1.61
   1 -26   2   25.50    1.63
   6   0  -3    1.25    0.56
   5   0  -3    1.51    0.53
   4   0  -3    9.50    0.75
   3   0  -3   16.62    0.80
   2   0  -3  128.26    2.42
   1   0  -3    1.10    0.22
   0   0   3   22.36    0.76
   1   0   3  240.21    4.18
   2   0   3   39.60    1.31
   3   0   3   16.49    1.05
   4   0   3   11.64    1.07
   5   0   3    0.52    0.65
   6  -1  -3    0.35    0.49
   6   1  -3    0.46    0.52
   5  -1  -3   26.75    1.26
   5   1  -3   27.64    1.29
   4  -1  -3    5.34    0.65
   4   1  -3    4.76    0.60
   3  -1  -3    4.07    0.49
   3   1  -3    3.22    0.45
   2  -1  -3  167.17    3.01
   2   1  -3  166.60    2.95
  -1  -1   3  119.28    2.10
   1  -1  -3  123.71    2.23
   1   1  -3  121.80    2.18
   0  -1   3   53.21    1.25
   0   1   3   50.65    1.22
   1  -1   3   14.80    0.76
   1   1   3   13.11    0.72
   2  -1   3    9.43    0.73
   2   1   3   11.11    0.79
   3  -1   3   87.71    2.29
   3   1   3   85.78    2.27
   4  -1   3   71.60    2.22
   4   1   3   70.45    2.23
   5  -1   3    0.60    0.62
   6  -2  -3    0.99    0.55
   6   2  -3    0.76    0.55
   5  -2  -3   10.94    0.98
   5   2  -3    9.91    0.83
   5   2  -3   12.12    1.01
   4  -2  -3   33.78    1.24
   4   2  -3   32.62    1.21
   3  -2  -3   12.94    0.75
   3   2  -3   13.29    0.71
   2  -2  -3  102.24    2.09
   2   2  -3  104.08    2.00
   1  -2  -3    4.89    0.41
  -1  -2   3    5.22    0.35
   1   2  -3    4.96    0.36
   0  -2   3   80.07    1.70
   0   2   3   86.04    1.72
   1  -2   3  266.25    4.62
  -1   2  -3  272.60    4.78
   1   2   3  273.30    4.64
   2  -2   3   26.49    1.11
   2   2   3   26.66    1.10
   3  -2   3   14.80    1.00
   3   2   3   13.93    1.01
   4  -2   3    8.42    0.95
   4  -2   3    6.73    0.77
   4   2   3    7.52    0.89
   5  -2   3    0.39    0.68
   5  -2   3    0.18    0.54
   6  -3  -3    1.10    0.56
   6   3  -3   -0.01    0.50
   5  -3  -3   24.71    1.24
   5   3  -3   23.65    1.15
   5   3  -3   25.57    1.22
   4  -3  -3   18.79    0.98
   4   3  -3   18.33    0.94
   4   3  -3   19.46    0.98
   3  -3  -3    4.64    0.53
   3   3  -3    5.63    0.55
   2  -3  -3   97.43    2.02
   2   3  -3   95.42    1.88
   1  -3  -3   47.96    1.01
   1  -3  -3   45.02    1.14
  -1  -3   3   44.84    1.02
   1   3  -3   47.61    1.02
   0  -3   3   49.23    1.18
   0   3  -3   45.68    1.24
   1  -3   3   15.12    0.75
   1   3   3   13.42    0.74
  -1   3  -3   11.62    0.61
   2  -3   3    9.56    0.76
   2   3   3    9.40    0.76
   3  -3   3   29.99    1.32
   3   3   3   29.02    1.29
   4  -3   3   28.21    1.45
   4  -3   3   29.03    1.28
   5  -3   3    0.28    0.50
   5  -3   3    0.19    0.63
  -5  -3  -3    0.50    0.53
   6  -4  -3    0.14    0.51
   6   4  -3    0.76    0.53
   5  -4  -3    5.34    0.74
   5   4  -3    4.45    0.62
   5   4  -3    5.92    0.74
   4  -4  -3   22.57    1.06
   4   4  -3   20.17    0.99
   4   4  -3   19.31    1.01
   3  -4  -3   22.13    0.93
   3   4  -3   22.69    1.00
   3   4  -3   23.22    0.88
   2  -4  -3   64.46    1.54
   2   4  -3   64.56    1.68
   2   4  -3   64.70    1.39
   1  -4  -3   12.14    0.58
   1  -4  -3   11.84    0.47
  -1  -4   3   11.47    0.49
   1   4  -3   11.16    0.64
   1   4  -3   11.18    0.45
   0  -4   3   17.40    0.71
   0  -4  -3   16.20    0.64
   0   4  -3   16.21    0.71
   1  -4   3  268.18    4.65
  -1   4  -3  273.06    4.81
   2  -4   3   14.65    0.87
   3  -4   3    2.50    0.61
  -4  -4  -3    4.58    0.67
   4  -4   3    4.88    0.66
   4  -4   3    5.22    0.81
   5  -4   3    0.30    0.51
   5  -4   3    0.18    0.63
  -5  -4  -3    0.41    0.53
   6  -5  -3    1.02    0.56
   6   5  -3    1.78    0.58
   5  -5  -3   19.45    1.14
   5   5  -3   19.27    1.06
   5   5  -3   18.29    1.10
   4  -5  -3    8.32    0.77
   4   5  -3    8.30    0.74
   4   5  -3    7.90    0.75
   3  -5  -3    2.65    0.45
   3   5  -3    2.84    0.42
   3   5  -3    2.92    0.49
   2  -5  -3  105.80    2.18
   2   5  -3  107.10    2.41
   2   5  -3  103.75    1.98
  -1  -5   3  104.12    1.97
   1  -5  -3  107.30    1.93
   1   5  -3  108.67    2.33
   1   5  -3  102.54    1.83
   0  -5  -3   49.80    1.21
   0  -5   3   48.56    1.25
   0   5  -3   52.14    1.35
  -1  -5  -3   15.54    0.71
   1  -5   3   15.11    0.79
  -1   5  -3   14.21    0.67
   2  -5   3    6.41    0.64
   3  -5   3   37.70    1.20
   3  -5   3   37.98    1.48
   4  -5   3   44.43    1.78
   4  -5   3   44.93    1.53
  -5  -5  -3    0.46    0.54
   5  -5   3   -0.25    0.59
   6  -6  -3   -0.22    0.51
   6   6  -3    0.30    0.49
   5  -6  -3    7.82    0.85
   5   6  -3    8.16    0.81
   5   6  -3    5.29    0.68
   4  -6  -3   30.50    1.24
   4   6  -3   30.42    1.15
   4   6  -3   30.18    1.24
   3  -6  -3   16.04    0.83
   3   6  -3   16.31    0.74
   3   6  -3   15.77    0.88
   2  -6  -3   91.94    2.00
   2   6  -3   90.83    1.76
   2   6  -3   93.47    2.20
   1  -6  -3    3.17    0.33
  -1  -6   3    2.83    0.32
   1   6  -3    2.94    0.42
   0  -6  -3   56.35    1.33
   0  -6   3   58.17    1.41
   0   6  -3   56.22    1.48
   1  -6   3  434.75    7.11
  -1  -6  -3  434.04    7.02
  -1   6  -3  439.05    7.55
   2  -6   3   17.51    0.93
  -2  -6  -3   17.25    0.85
   3  -6   3   10.73    0.67
   3  -6   3   11.72    0.95
  -3  -6  -3   12.14    0.85
   4  -6   3    3.82    0.62
  -4  -6  -3    4.46    0.67
   4  -6   3    4.07    0.79
  -5  -6  -3    1.02    0.59
   5  -6   3    1.01    0.66
   6  -7  -3    0.70    0.57
   6   7  -3    0.19    0.47
   5  -7  -3   17.00    1.12
   5   7  -3   16.07    1.02
   5   7  -3   16.26    1.01
   4  -7  -3    8.52    0.78
   4   7  -3    8.35    0.71
   4   7  -3    7.41    0.74
   3  -7  -3   24.24    1.02
   3   7  -3   25.51    0.90
   3   7  -3   25.77    1.10
   2  -7  -3   91.58    2.01
   2   7  -3   93.52    2.21
   2   7  -3   89.13    1.73
  -1  -7   3  101.12    1.97
   1  -7  -3  100.04    1.92
   1   7  -3  100.02    2.29
   0  -7   3   72.28    1.66
   0  -7  -3   70.98    1.58
   0   7  -3   70.13    1.73
   1  -7   3   16.04    0.82
  -1  -7  -3   15.27    0.76
  -1   7  -3   14.51    0.74
  -2  -7  -3   25.93    1.03
   2  -7   3   28.37    1.16
   3  -7   3   31.80    1.37
  -3  -7  -3   32.21    1.27
   3  -7   3   34.18    1.13
   4  -7   3   37.73    1.68
  -4  -7  -3   37.78    1.52
   5  -7   3    3.10    0.81
  -5  -7  -3    2.66    0.69
   6  -8  -3    0.51    0.51
   6   8  -3    0.80    0.51
   5  -8  -3    2.96    0.63
   5   8  -3    1.27    0.48
   5   8  -3    0.98    0.44
   4  -8  -3   10.03    0.83
   4   8  -3    8.75    0.81
   4   8  -3   10.10    0.75
   3  -8  -3    7.26    0.67
   3   8  -3    7.78    0.55
   3   8  -3    7.88    0.73
   2  -8  -3   76.30    1.79
   2   8  -3   72.31    1.48
   2   8  -3   78.55    1.98
  -1  -8   3    5.22    0.45
   1  -8  -3    4.68    0.41
   1   8  -3    4.95    0.55
   0  -8  -3   33.30    1.01
   0  -8   3   36.39    1.10
   0   8  -3   32.77    1.11
  -1  -8  -3  115.70    2.44
   1  -8   3  124.24    2.58
  -1   8  -3  121.34    2.56
  -2  -8  -3   17.22    0.88
   2  -8   3   15.91    0.94
   3  -8   3    9.60    0.92
  -3  -8  -3   10.35    0.82
  -4  -8  -3    7.52    0.85
   4  -8   3    7.05    0.92
   5  -8   3    1.65    0.75
  -5  -8  -3    1.07    0.59
   6  -9  -3    1.10    0.56
   6   9  -3    0.08    0.46
   5  -9  -3   23.50    1.26
   5   9  -3   22.46    1.17
   5   9  -3   22.98    1.13
   4  -9  -3    3.35    0.58
   4   9  -3    5.22    0.71
   4   9  -3    3.58    0.52
   3  -9  -3   19.63    0.95
   3   9  -3   18.35    1.00
   3   9  -3   18.38    0.75
   2  -9  -3  114.85    2.43
  -2  -9   3  114.19    2.21
   2   9  -3  119.26    2.70
  -1  -9   3   82.29    1.79
   1  -9  -3   82.51    1.75
   1   9  -3   84.29    2.06
   0  -9   3   46.33    1.31
   0  -9  -3   46.42    1.25
   0   9  -3   47.32    1.41
  -1  -9  -3    1.79    0.40
   1  -9   3    1.05    0.39
  -1   9  -3    1.79    0.40
   2  -9   3   11.66    0.85
  -2  -9  -3   12.61    0.78
  -3  -9  -3   30.63    1.27
   3  -9   3   31.64    1.38
   4  -9   3   47.12    1.86
  -4  -9  -3   47.67    1.72
   5  -9   3    2.15    0.77
  -5  -9  -3    1.98    0.70
   6 -10  -3    1.69    0.63
   6  10  -3    3.04    0.68
   5 -10  -3    2.14    0.58
   5  10  -3    3.40    0.58
   5  10  -3    2.57    0.55
   4 -10  -3    9.03    0.85
   4  10  -3    9.08    0.72
   4  10  -3    9.14    0.82
   3 -10  -3    7.13    0.70
   3  10  -3    4.69    0.63
   3  10  -3    4.93    0.45
   2 -10  -3   66.70    1.72
   2 -10  -3   69.47    1.55
  -2 -10   3   69.26    1.57
   2  10  -3   68.98    1.90
  -1 -10   3   35.27    1.10
   1 -10  -3   37.15    1.09
   1  10  -3   40.11    1.30
   0 -10  -3   31.64    1.04
   0 -10   3   31.06    1.09
   0  10  -3   29.47    1.12
  -1 -10  -3   75.89    1.84
   1 -10   3   76.81    1.96
  -1  10  -3   79.72    1.94
  -2 -10  -3    9.92    0.75
   2 -10   3   11.25    0.86
  -3 -10  -3    8.74    0.82
   3 -10   3    8.02    0.89
   4 -10   3    5.24    0.85
  -4 -10  -3    5.58    0.81
   6 -11  -3    2.34    0.67
   6  11  -3    2.15    0.61
   5 -11  -3   14.47    1.08
   5  11  -3   14.88    1.03
   5  11  -3   12.84    0.94
   4 -11  -3    5.48    0.70
   4  11  -3    4.85    0.56
   4  11  -3    5.29    0.71
   3 -11  -3    3.17    0.55
   3  11  -3    3.33    0.58
   3  11  -3    2.13    0.33
   2 -11  -3   83.08    1.81
   2 -11  -3   82.59    1.98
  -2 -11   3   84.78    1.84
   2  11  -3   79.18    2.13
   1 -11  -3   50.59    1.34
  -1 -11   3   49.84    1.36
   1  11  -3   47.51    1.53
   0 -11  -3   44.73    1.29
   0 -11   3   43.65    1.36
   0  11  -3   44.14    1.42
   1 -11   3    9.46    0.75
  -1 -11  -3    7.98    0.66
  -1  11  -3    8.18    0.70
   2 -11   3    2.91    0.58
  -2 -11  -3    2.86    0.50
   3 -11   3   31.14    1.42
  -3 -11  -3   31.99    1.34
   4 -11   3   26.92    1.50
  -4 -11  -3   30.45    1.45
   5 -12  -3    7.03    0.87
   5  12  -3    6.45    0.73
   5  12  -3    5.12    0.78
   4 -12  -3   13.99    0.99
   4  12  -3   12.99    0.79
   4  12  -3   13.60    0.98
   3 -12  -3    9.18    0.81
   3  12  -3    9.28    0.84
   2 -12  -3   60.71    1.68
   2 -12  -3   60.65    1.54
  -2 -12   3   63.81    1.58
   2  12  -3   64.69    1.89
  -1 -12   3   11.29    0.70
   1 -12  -3   10.22    0.69
   1  12  -3    9.17    0.74
   0 -12  -3   28.33    1.04
   0 -12   3   28.27    1.12
   0  12  -3   27.29    1.13
  -1 -12  -3  168.99    3.35
   1 -12   3  170.26    3.45
  -1  12  -3  176.39    3.62
   2 -12   3   15.40    1.03
  -2 -12  -3   16.56    0.94
  -3 -12  -3    9.67    0.88
   3 -12   3    9.00    0.95
  -4 -12  -3    5.76    0.83
   4 -12   3    7.26    0.95
   5 -13  -3   15.36    1.11
   5  13  -3   16.44    1.14
   4 -13  -3    3.60    0.62
   4  13  -3    4.31    0.71
   3 -13  -3    5.39    0.68
   3  13  -3    5.42    0.73
   2 -13  -3   70.78    1.87
  -2 -13   3   74.83    1.80
   2 -13  -3   72.28    1.75
   2  13  -3   70.86    2.07
   1 -13  -3   34.73    1.18
  -1 -13   3   34.53    1.18
   1  13  -3   33.92    1.31
   0 -13   3   47.43    1.46
   0 -13  -3   43.26    1.35
   0  13  -3   42.71    1.48
   1 -13   3    9.48    0.80
  -1 -13  -3   10.07    0.82
   2 -13   3   23.27    1.21
  -2 -13  -3   22.27    1.08
   3 -13   3   26.19    1.35
  -3 -13  -3   29.42    1.34
  -4 -13  -3   30.92    1.50
   4 -13   3   32.79    1.63
   5 -14  -3    3.01    0.66
   5  14  -3    3.74    0.74
   4 -14  -3   13.36    0.99
   4  14  -3   12.09    1.03
   3 -14  -3   18.81    1.02
   3  14  -3   15.52    1.08
  -2 -14   3   31.95    1.15
   2 -14  -3   31.90    1.22
   2 -14  -3   32.24    1.15
   2  14  -3   30.91    1.34
  -1 -14   3   26.54    1.06
   1 -14  -3   23.98    1.05
   1  14  -3   23.58    1.14
   0 -14   3   61.14    1.76
   0 -14  -3   60.26    1.69
   0  14  -3   65.53    1.90
  -1 -14  -3  131.02    2.84
   1 -14   3  131.55    2.94
   2 -14   3   11.96    0.98
  -2 -14  -3   11.82    0.90
   3 -14   3    7.58    0.92
  -3 -14  -3    9.16    0.90
   4 -14   3    4.12    0.82
  -4 -14  -3    3.54    0.72
   5 -15  -3   10.09    1.02
   5  15  -3   12.35    1.26
   4 -15  -3    5.02    0.72
   4  15  -3    5.95    0.84
   3 -15  -3   13.96    0.93
   3  15  -3   13.47    1.06
   2 -15  -3   26.09    1.13
  -2 -15   3   25.32    1.07
   2 -15  -3   26.88    1.09
   2  15  -3   24.11    1.24
   1 -15  -3    9.26    0.80
  -1 -15   3   10.35    0.79
   1 -15  -3    9.25    0.75
   1  15  -3    9.05    0.84
   0 -15  -3   14.69    0.91
   0 -15   3   15.91    0.97
   0  15  -3   13.17    0.96
   1 -15   3    5.10    0.67
  -1 -15  -3    5.54    0.69
   2 -15   3   18.27    1.15
  -2 -15  -3   19.29    1.08
  -3 -15  -3    7.13    0.85
   3 -15   3    5.95    0.85
   4 -15   3    5.69    0.92
  -4 -15  -3    7.25    0.91
   5 -16  -3    4.47    0.76
   4 -16  -3   11.77    0.97
   4  16  -3   11.84    1.03
   3 -16  -3   15.18    0.98
   3  16  -3   15.77    1.11
  -2 -16   3   24.60    1.09
   2 -16  -3   24.22    1.12
   2 -16  -3   24.26    1.09
   2  16  -3   23.77    1.25
   1 -16  -3    0.01    0.32
  -1 -16   3    0.59    0.39
   1 -16  -3   -0.49    0.40
   1  16  -3    1.06    0.48
   0 -16   3   15.38    1.00
   0 -16  -3   14.11    0.94
   0  16  -3   13.73    0.99
  -1 -16  -3   91.41    2.34
   1 -16   3   97.48    2.50
  -2 -16  -3    8.85    0.89
   2 -16   3    7.98    0.92
  -3 -16  -3    5.56    0.80
   3 -16   3    3.83    0.76
   4 -16   3    2.01    0.71
  -4 -16  -3    2.15    0.64
   5 -17  -3   15.26    1.17
   4 -17  -3    3.81    0.67
   4  17  -3    4.35    0.76
   3 -17  -3   19.99    1.10
   3  17  -3   19.62    1.24
   2 -17  -3   26.48    1.19
  -2 -17   3   26.42    1.17
   2 -17  -3   26.09    1.17
   2  17  -3   24.47    1.32
  -1 -17   3   25.39    1.19
   1 -17  -3   23.30    1.16
   1 -17  -3   24.34    1.12
   1  17  -3   24.18    1.28
   0 -17   3   21.38    1.17
   0 -17  -3   23.92    1.17
  -1 -17  -3    2.71    0.59
   1 -17   3    2.10    0.58
  -2 -17  -3   15.69    1.06
   2 -17   3   16.79    1.16
  -3 -17  -3   13.85    1.10
   3 -17   3   12.39    1.15
   4 -18  -3    2.38    0.59
   4  18  -3    2.06    0.58
   3 -18  -3    9.75    0.94
   3  18  -3   11.31    1.11
   2 -18  -3   29.23    1.27
   2 -18  -3   28.44    1.25
  -2 -18   3   30.22    1.29
   2  18  -3   28.49    1.44
   1 -18  -3    7.09    0.78
  -1 -18   3    6.43    0.75
   1 -18  -3    6.24    0.71
   1  18  -3    6.69    0.84
   0 -18   3   19.50    1.16
   0 -18  -3   19.26    1.14
  -1 -18  -3   56.21    1.83
   1 -18   3   54.54    1.93
  -2 -18  -3    9.01    0.93
   2 -18   3    8.56    0.96
  -3 -18  -3    9.75    1.01
   3 -18   3    6.90    0.95
   4 -19  -3    1.35    0.54
   4  19  -3    0.72    0.55
   3 -19  -3   17.24    1.07
   3  19  -3   16.68    1.21
   2 -19  -3   39.11    1.49
  -2 -19   3   40.84    1.54
   2 -19  -3   40.68    1.51
   2  19  -3   37.19    1.71
   1 -19  -3   21.97    1.23
   1 -19  -3   23.71    1.17
  -1 -19   3   25.99    1.28
   1  19  -3   22.73    1.34
   0 -19  -3   25.46    1.31
   0 -19   3   23.44    1.30
  -1 -19  -3    2.60    0.65
   1 -19   3    2.80    0.68
   2 -19   3   18.61    1.25
  -2 -19  -3   18.63    1.21
  -3 -19  -3   15.99    1.23
   3 -19   3   11.58    1.18
   4 -20  -3    4.70    0.75
   4  20  -3    4.87    0.82
   3 -20  -3    4.47    0.73
   3  20  -3    3.88    0.76
   2 -20  -3   24.22    1.26
  -2 -20   3   26.87    1.32
   2 -20  -3   25.12    1.23
   2  20  -3   24.54    1.43
   1 -20  -3   21.11    1.25
   1 -20  -3   21.12    1.15
  -1 -20   3   22.47    1.26
   0 -20  -3   23.67    1.34
   0 -20   3   22.58    1.31
   1 -20   3   27.60    1.48
  -1 -20  -3   28.50    1.41
  -2 -20  -3   10.48    1.05
   2 -20   3   10.61    1.06
  -3 -20  -3   13.45    1.18
   3 -20   3   11.46    1.20
   4  21  -3    2.47    0.67
   3 -21  -3   10.11    0.99
   3  21  -3   10.21    1.14
   2 -21  -3   20.91    1.21
  -2 -21   3   21.44    1.28
   2 -21  -3   21.32    1.19
   1 -21  -3    4.45    0.70
   1 -21  -3    4.83    0.79
  -1 -21   3    4.94    0.79
   0 -21  -3   27.20    1.44
   0 -21   3   28.13    1.46
   1 -21   3    1.24    0.63
  -1 -21  -3    1.15    0.59
  -2 -21  -3   16.86    1.27
   2 -21   3   17.29    1.30
   3 -22  -3    3.15    0.67
   2 -22  -3   15.49    1.12
   2 -22  -3   12.05    0.99
  -2 -22   3   13.77    1.15
  -1 -22   3   15.85    1.21
   1 -22  -3   18.83    1.26
   1 -22  -3   18.62    1.14
   0 -22  -3   13.06    1.18
   0 -22   3   12.63    1.14
   1 -22   3   12.80    1.18
  -1 -22  -3   14.02    1.23
   2 -22   3    2.53    0.75
  -2 -22  -3    4.32    0.84
   3 -23  -3    4.76    0.78
   2 -23  -3   19.08    1.25
  -2 -23   3   19.22    1.33
   2 -23  -3   17.98    1.17
   1 -23  -3    3.49    0.77
   1 -23  -3    5.19    0.77
  -1 -23   3    3.04    0.72
   0 -23  -3   11.10    1.11
   0 -23   3   10.33    1.07
   1 -23   3    1.49    0.66
  -1 -23  -3    1.26    0.69
  -2 -24   3   16.07    1.28
   2 -24  -3   12.68    1.18
   2 -24  -3   15.97    1.14
  -1 -24   3    8.05    0.99
   1 -24  -3   11.06    1.06
   0 -24  -3   16.90    1.32
   0 -24   3   16.96    1.36
   1 -24   3   42.56    1.99
  -1 -24  -3   43.72    1.93
   1 -25  -3    2.28    0.63
  -1 -25   3    1.85    0.69
   1 -25  -3    1.91    0.73
   0 -25   3   19.54    1.48
   0 -25  -3   18.44    1.47
   6   0  -4    4.66    0.81
   5   0  -4    0.29    0.44
   4   0  -4   -0.15    0.40
   3   0  -4   14.15    0.86
   2   0  -4   17.32    0.80
   1   0  -4  262.38    4.35
  -1   0   4  254.31    4.27
   0   0   4   34.90    1.11
  -1   0  -4    0.85    0.29
   1   0   4    0.64    0.42
   2   0   4   57.47    1.81
   3   0   4   17.29    1.22
   4   0   4    8.31    1.05
   6  -1  -4   -0.13    0.51
   6   1  -4    0.11    0.54
   5  -1  -4    0.04    0.45
   5   1  -4    0.46    0.46
   4  -1  -4   11.58    0.90
   4   1  -4   12.72    0.90
   3  -1  -4   85.39    2.03
   3   1  -4   83.81    1.98
   2  -1  -4    4.38    0.51
   2   1  -4    4.16    0.47
   1  -1  -4    7.75    0.58
  -1  -1   4    8.71    0.55
  -1   1   4    8.60    0.56
   1   1  -4    8.69    0.54
   0  -1   4   53.43    1.42
   0   1   4   53.95    1.43
   1  -1   4    4.58    0.59
   1   1   4    4.02    0.59
  -1   1  -4    4.15    0.45
   2  -1   4   68.66    2.01
   2   1   4   72.59    2.05
   3  -1   4    2.35    0.67
   3   1   4    3.56    0.72
   4  -1   4    0.95    0.69
   4   1   4    2.73    0.80
   6  -2  -4    6.51    0.88
   6   2  -4    7.03    0.90
   5  -2  -4    0.46    0.47
   5   2  -4    0.31    0.44
   5   2  -4    0.44    0.50
   4  -2  -4    4.11    0.65
   4   2  -4    4.89    0.65
   3  -2  -4   11.99    0.81
   3   2  -4   10.51    0.75
   2  -2  -4    4.45    0.51
   2   2  -4    3.54    0.45
  -1  -2   4  134.00    2.45
   1  -2  -4  130.46    2.56
   1   2  -4  130.72    2.45
   0  -2   4   36.70    1.17
   0   2   4   36.90    1.16
   0   2  -4   36.40    1.18
   1  -2   4    0.78    0.44
   1   2   4    0.19    0.41
  -1   2  -4    0.52    0.29
   2  -2   4   45.60    1.59
   2   2   4   42.58    1.56
   3  -2   4   26.31    1.38
   3   2   4   26.73    1.41
   6  -3  -4    0.58    0.55
   6   3  -4   -0.29    0.48
   5  -3  -4    0.03    0.44
   5   3  -4    0.04    0.44
   5   3  -4   -0.06    0.43
   4  -3  -4   22.19    1.12
   4   3  -4   20.21    1.04
   4   3  -4   20.01    1.14
   3  -3  -4   39.43    1.31
   3   3  -4   35.38    1.20
   2  -3  -4    9.60    0.67
   2   3  -4    9.08    0.58
   1  -3  -4   13.45    0.61
  -1  -3   4   12.75    0.64
   1  -3  -4   13.46    0.71
   1   3  -4   12.18    0.59
   1   3  -4   13.68    0.81
   0  -3   4   62.39    1.57
   0   3  -4   61.23    1.64
   1  -3   4    5.94    0.68
   1   3   4    7.42    0.72
  -1   3  -4    7.06    0.56
   2  -3   4   49.93    1.69
   2   3   4   48.23    1.66
   3  -3   4    1.75    0.63
   4  -3   4    3.81    0.85
   6  -4  -4    3.60    0.75
   5  -4  -4    0.91    0.53
   5   4  -4    0.95    0.52
   5   4  -4    0.85    0.50
   4  -4  -4    0.80    0.48
   4   4  -4    1.84    0.51
   4   4  -4    1.34    0.46
   3  -4  -4   11.49    0.82
   3   4  -4   13.60    0.92
   3   4  -4   13.29    0.76
   2  -4  -4    0.91    0.36
   2   4  -4    1.68    0.34
   2   4  -4    1.48    0.42
   1  -4  -4   91.73    1.82
  -1  -4   4   90.26    1.86
   1  -4  -4   87.87    1.98
   1   4  -4   86.31    1.75
   1   4  -4   94.65    2.23
   0  -4  -4   50.08    1.32
   0  -4   4   49.97    1.39
   0   4  -4   47.57    1.44
   1  -4   4    1.51    0.47
  -1   4  -4    1.33    0.35
   2  -4   4   49.84    1.71
   3  -4   4   28.93    1.46
   4  -4   4    7.42    1.00
  -4  -4  -4    6.90    0.87
   6  -5  -4    0.08    0.52
   6   5  -4   -0.49    0.48
   5  -5  -4   -0.07    0.45
   5   5  -4    0.04    0.43
   5   5  -4   -0.06    0.42
   4  -5  -4   65.91    1.91
   4   5  -4   64.60    2.03
   4   5  -4   63.88    1.77
   3  -5  -4   32.48    1.23
   3   5  -4   32.72    1.09
   3   5  -4   32.84    1.35
   2  -5  -4    0.61    0.35
   2   5  -4    0.93    0.42
   2   5  -4    1.54    0.33
   1  -5  -4    6.36    0.50
  -1  -5   4    5.18    0.48
   1   5  -4    8.55    0.70
   0  -5  -4   61.20    1.52
   0  -5   4   59.92    1.57
   0   5  -4   61.78    1.67
   1  -5   4   30.72    1.21
  -1  -5  -4   31.12    1.13
  -1   5  -4   30.73    1.06
   2  -5   4   53.43    1.75
   3  -5   4    2.55    0.68
  -3  -5  -4    0.93    0.47
  -4  -5  -4    1.33    0.62
   4  -5   4    2.33    0.76
   6  -6  -4   10.74    1.12
   6   6  -4    8.96    0.96
   5  -6  -4    0.64    0.49
   5   6  -4   -0.01    0.43
   5   6  -4    0.25    0.47
   4  -6  -4   12.62    0.97
   4   6  -4   12.08    0.88
   4   6  -4   13.86    1.02
   3  -6  -4    4.11    0.58
   3   6  -4    3.10    0.45
   3   6  -4    3.62    0.58
   2  -6  -4    0.87    0.35
   2   6  -4    0.86    0.29
   2   6  -4    1.15    0.42
   1  -6  -4  114.01    2.19
  -1  -6   4  109.12    2.22
   1   6  -4  111.79    2.61
   0  -6  -4   47.49    1.31
   0  -6   4   46.50    1.40
   0   6  -4   46.30    1.45
  -1  -6  -4    2.73    0.48
   1  -6   4    3.74    0.56
  -1   6  -4    3.12    0.46
  -2  -6  -4   43.05    1.47
   2  -6   4   43.01    1.58
   3  -6   4   21.75    1.32
  -3  -6  -4   22.03    1.21
   4  -6   4    4.99    0.91
  -4  -6  -4    4.96    0.82
   6  -7  -4    0.61    0.58
   6   7  -4    0.32    0.49
   5  -7  -4    1.49    0.56
   5   7  -4    0.94    0.51
   5   7  -4    1.65    0.55
   4  -7  -4   38.37    1.50
   4   7  -4   39.76    1.34
   4   7  -4   40.40    1.60
   3  -7  -4   25.16    1.10
   3   7  -4   24.05    0.90
   3   7  -4   24.87    1.19
   2  -7  -4    5.53    0.60
   2   7  -4    5.14    0.43
   2   7  -4    4.99    0.63
   1  -7  -4    9.23    0.62
  -1  -7   4   10.52    0.67
   1   7  -4    9.52    0.79
   0  -7   4   76.87    1.86
   0  -7  -4   75.81    1.78
   0   7  -4   73.84    1.96
   1  -7   4   15.58    0.95
  -1  -7  -4   15.55    0.85
  -1   7  -4   16.97    0.85
   2  -7   4   60.44    1.89
  -2  -7  -4   58.03    1.74
   3  -7   4    1.67    0.62
  -3  -7  -4    1.64    0.56
  -4  -7  -4    1.61    0.66
   4  -7   4    2.40    0.79
   6  -8  -4    5.57    0.87
   6   8  -4    5.35    0.79
   5  -8  -4    0.75    0.54
   5   8  -4    0.81    0.52
   5   8  -4    1.05    0.50
   4  -8  -4    3.63    0.65
   4   8  -4    3.91    0.68
   4   8  -4    3.36    0.52
   3  -8  -4    5.50    0.65
   3   8  -4    4.90    0.67
   3   8  -4    5.24    0.53
   2  -8  -4    3.79    0.51
   2   8  -4    4.77    0.63
   1  -8  -4   79.53    1.76
  -1  -8   4   76.73    1.81
   1   8  -4   78.60    2.10
   0  -8  -4   54.72    1.49
   0  -8   4   56.33    1.57
   0   8  -4   56.85    1.66
  -1  -8  -4    9.66    0.76
   1  -8   4   11.60    0.87
  -1   8  -4   10.34    0.75
  -2  -8  -4   34.96    1.34
   2  -8   4   35.05    1.43
   3  -8   4   14.58    1.15
  -3  -8  -4   15.14    1.05
   4  -8   4    3.90    0.88
  -4  -8  -4    5.41    0.85
   5  -9  -4    0.92    0.54
   5   9  -4    1.04    0.49
   5   9  -4    1.14    0.52
   4  -9  -4   10.47    0.95
   4   9  -4    9.91    0.77
   4   9  -4   11.05    0.98
   3  -9  -4   36.93    1.36
   3   9  -4   33.08    1.41
   2  -9  -4    3.13    0.51
  -2  -9   4    3.70    0.42
   2   9  -4    5.71    0.72
  -1  -9   4    5.04    0.54
   1  -9  -4    4.64    0.50
   1   9  -4    4.30    0.60
   0  -9   4   45.85    1.45
   0  -9  -4   46.41    1.37
   0   9  -4   45.26    1.49
   1  -9   4   -0.15    0.39
  -1  -9  -4    0.41    0.37
  -1   9  -4    0.30    0.33
  -2  -9  -4   47.19    1.58
   2  -9   4   43.91    1.63
  -3  -9  -4    3.50    0.66
   3  -9   4    3.63    0.76
   4  -9   4    0.86    0.69
  -4  -9  -4    1.84    0.65
   5 -10  -4    0.03    0.47
   5  10  -4    0.42    0.48
   4 -10  -4    2.11    0.56
   4  10  -4    2.31    0.61
   3 -10  -4    5.54    0.67
   3  10  -4    5.14    0.72
  -2 -10   4    4.22    0.46
   2 -10  -4    3.68    0.54
   2 -10  -4    4.10    0.46
   2  10  -4    5.09    0.68
  -1 -10   4   71.66    1.78
   1 -10  -4   72.86    1.71
   1  10  -4   69.66    2.01
   0 -10  -4   25.26    1.05
   0 -10   4   26.64    1.13
   0  10  -4   22.57    1.11
  -1 -10  -4   13.75    0.87
   1 -10   4   13.92    0.97
  -1  10  -4   14.80    0.88
   2 -10   4   28.62    1.39
  -2 -10  -4   32.21    1.30
   3 -10   4   12.33    1.13
  -3 -10  -4   12.87    1.01
  -4 -10  -4    4.01    0.78
   4 -10   4    2.75    0.80
   5 -11  -4    0.19    0.48
   5  11  -4    0.25    0.50
   4 -11  -4    8.69    0.89
   4  11  -4    9.84    0.99
   3 -11  -4   38.94    1.45
   3  11  -4   39.52    1.58
   2 -11  -4    3.18    0.47
  -2 -11   4    3.84    0.47
   2 -11  -4    3.01    0.54
   2  11  -4    4.36    0.67
   1 -11  -4   18.55    0.88
  -1 -11   4   16.80    0.88
   1  11  -4   16.59    1.01
   0 -11  -4   36.50    1.28
   0 -11   4   37.43    1.37
   0  11  -4   43.43    1.51
   1 -11   4    1.66    0.53
  -1 -11  -4    2.70    0.54
  -1  11  -4    2.39    0.51
   2 -11   4   36.31    1.54
  -2 -11  -4   37.05    1.43
  -3 -11  -4    7.49    0.87
   3 -11   4    8.26    0.99
   4 -11   4    2.46    0.78
  -4 -11  -4    3.22    0.76
   5 -12  -4    0.57    0.52
   5  12  -4    1.35    0.56
   4 -12  -4    8.18    0.89
   4  12  -4    6.76    0.88
   3 -12  -4    6.58    0.76
   3  12  -4    6.16    0.82
   2 -12  -4    3.06    0.47
   2 -12  -4    4.48    0.61
  -2 -12   4    3.75    0.50
   2  12  -4    5.05    0.73
  -1 -12   4  113.87    2.51
   1 -12  -4  115.81    2.48
   1  12  -4  113.07    2.85
   0 -12   4   15.34    0.97
   0 -12  -4   15.39    0.91
   0  12  -4   15.17    0.99
  -1 -12  -4   18.35    1.00
   1 -12   4   18.00    1.12
  -1  12  -4   17.41    1.02
   2 -12   4   27.94    1.38
  -2 -12  -4   28.29    1.29
   3 -12   4   11.58    1.13
  -3 -12  -4   14.09    1.09
  -4 -12  -4    6.70    0.93
   4 -12   4    4.07    0.86
   5 -13  -4    3.60    0.75
   5  13  -4    2.49    0.70
   4 -13  -4   24.21    1.28
   4  13  -4   24.18    1.37
   3 -13  -4   33.04    1.41
   3  13  -4   34.03    1.53
   2 -13  -4    6.92    0.65
  -2 -13   4    9.30    0.72
   2 -13  -4    8.77    0.80
   2  13  -4    9.17    0.93
   1 -13  -4    6.22    0.67
  -1 -13   4    4.89    0.60
   1  13  -4    6.45    0.79
   0 -13   4   21.64    1.12
   0 -13  -4   21.05    1.04
   0  13  -4   22.29    1.18
   1 -13   4    8.83    0.89
  -1 -13  -4   10.29    0.90
  -1  13  -4   10.61    0.90
  -2 -13  -4   29.54    1.35
   2 -13   4   30.84    1.46
   3 -13   4    7.67    0.99
  -3 -13  -4    7.94    0.91
   5 -14  -4    0.88    0.56
   5  14  -4    0.19    0.54
   4 -14  -4    1.04    0.52
   4  14  -4    2.90    0.73
   3 -14  -4    8.89    0.89
   3  14  -4    9.29    1.02
   2 -14  -4    4.52    0.67
   2 -14  -4    5.66    0.62
  -2 -14   4    4.67    0.58
   2  14  -4    6.86    0.87
  -1 -14   4   57.02    1.72
   1 -14  -4   54.63    1.64
   1  14  -4   56.97    1.92
   0 -14  -4   11.35    0.88
   0 -14   4   13.26    0.96
   0  14  -4   13.53    1.01
  -1 -14  -4   17.10    1.04
   1 -14   4   17.87    1.16
  -1  14  -4   17.34    1.09
   2 -14   4   19.54    1.23
  -2 -14  -4   17.27    1.12
  -3 -14  -4   17.87    1.21
   3 -14   4   16.05    1.30
   5 -15  -4    0.68    0.56
   5  15  -4    1.84    0.69
   4 -15  -4   13.97    1.09
   4  15  -4   18.50    1.33
   3 -15  -4   10.88    0.98
   3  15  -4   12.47    1.15
  -2 -15   4    9.54    0.78
   2 -15  -4    6.76    0.70
   2 -15  -4   10.78    0.94
   2  15  -4    8.74    1.00
  -1 -15   4   11.30    0.91
   1 -15  -4   11.22    0.89
   1 -15  -4   11.99    0.91
   1  15  -4   10.77    1.02
   0 -15   4   21.12    1.18
   0 -15  -4   20.34    1.12
   0  15  -4   22.31    1.25
   1 -15   4    4.67    0.76
  -1 -15  -4    5.98    0.76
   2 -15   4   12.63    1.14
  -2 -15  -4   15.95    1.11
   3 -15   4    7.22    1.02
  -3 -15  -4    6.40    0.88
   4 -16  -4    6.17    0.82
   4  16  -4    7.69    1.04
   3 -16  -4    3.96    0.70
   3  16  -4    3.86    0.78
   2 -16  -4    1.25    0.47
  -2 -16   4    0.62    0.41
   2 -16  -4    1.30    0.49
   2  16  -4    0.70    0.56
  -1 -16   4   34.46    1.42
   1 -16  -4   35.99    1.42
   1 -16  -4   35.65    1.44
   1  16  -4   36.62    1.61
   0 -16  -4   17.31    1.10
   0 -16   4   19.59    1.17
   0  16  -4   20.74    1.25
  -1 -16  -4   13.36    1.10
   1 -16   4   10.17    1.00
  -2 -16  -4   13.71    1.08
   2 -16   4   14.35    1.18
  -3 -16  -4   12.33    1.14
   3 -16   4   10.78    1.16
   4 -17  -4   11.92    1.08
   4  17  -4   15.48    1.37
   3 -17  -4   12.70    1.06
   3  17  -4   14.19    1.26
  -2 -17   4    6.94    0.77
   2 -17  -4    6.27    0.79
   2  17  -4    6.28    0.92
   1 -17  -4    7.31    0.84
   1 -17  -4    8.92    0.89
  -1 -17   4   10.16    0.93
   1  17  -4    7.14    0.92
   0 -17   4   20.31    1.22
   0 -17  -4   17.97    1.15
   0  17  -4   17.23    1.22
   1 -17   4   10.00    1.04
  -1 -17  -4   11.03    1.07
   2 -17   4   19.52    1.33
  -2 -17  -4   17.41    1.19
   3 -17   4    1.57    0.70
  -3 -17  -4    1.26    0.63
   4 -18  -4    4.67    0.75
   4  18  -4    3.52    0.79
   3 -18  -4    1.16    0.56
   3  18  -4    2.15    0.72
  -2 -18   4    7.00    0.79
   2 -18  -4    5.91    0.79
   2  18  -4    6.91    0.96
   1 -18  -4   51.33    1.80
   1 -18  -4   51.63    1.80
  -1 -18   4   49.80    1.79
   1  18  -4   52.73    2.03
   0 -18  -4   14.33    1.12
   0 -18   4   16.90    1.19
   0  18  -4   14.38    1.19
  -1 -18  -4   12.84    1.16
   1 -18   4   10.76    1.08
   2 -18   4   15.71    1.28
  -2 -18  -4   15.21    1.18
   4 -19  -4    9.92    1.05
   4  19  -4   10.32    1.17
   3 -19  -4   10.78    1.08
   3  19  -4   11.69    1.23
   2 -19  -4   20.75    1.22
  -2 -19   4   18.84    1.15
   2  19  -4   18.39    1.36
   1 -19  -4    4.86    0.75
  -1 -19   4    4.57    0.73
   1 -19  -4    5.08    0.74
   1  19  -4    4.11    0.85
   0 -19  -4   15.58    1.18
   0 -19   4   16.31    1.23
   1 -19   4    3.65    0.76
  -1 -19  -4    4.18    0.77
   2 -19   4   16.74    1.33
  -2 -19  -4   17.76    1.30
   3 -20  -4    2.07    0.62
   3  20  -4    2.29    0.75
   2 -20  -4    7.92    0.95
  -2 -20   4    9.13    0.97
   2  20  -4    9.17    1.11
   1 -20  -4   27.69    1.41
  -1 -20   4   26.16    1.41
   1 -20  -4   27.47    1.42
   1  20  -4   26.45    1.59
   0 -20   4   11.23    1.10
   0 -20  -4   11.64    1.15
  -1 -20  -4   14.70    1.21
   1 -20   4   15.26    1.27
   2 -20   4    4.81    0.88
  -2 -20  -4    5.27    0.88
   3 -21  -4    6.11    0.87
   3  21  -4    5.80    0.97
   2 -21  -4   13.56    1.11
   2  21  -4   13.58    1.37
   1 -21  -4    6.28    0.90
  -1 -21   4    4.58    0.76
   1 -21  -4    6.01    0.87
   0 -21   4   12.35    1.17
   0 -21  -4   13.52    1.26
  -1 -21  -4   -0.30    0.54
   1 -21   4    0.50    0.55
   2 -22  -4    2.33    0.66
   2  22  -4    2.26    0.75
  -1 -22   4   14.73    1.24
   1 -22  -4   16.31    1.20
   1 -22  -4   14.74    1.26
   0 -22   4    3.95    0.83
   0 -22  -4    4.50    0.89
  -1 -22  -4   14.66    1.30
   1 -22   4   14.28    1.32
   2 -23  -4    7.30    0.97
  -1 -23   4    8.35    1.00
   1 -23  -4    9.49    1.07
   1 -23  -4    9.22    1.06
   0 -23   4    4.51    0.87
   0 -23  -4    4.11    0.85
   5   0  -5    4.22    0.73
   4   0  -5    0.28    0.46
   3   0  -5   32.88    1.28
   2   0  -5    0.40    0.39
  -1   0   5    1.83    0.41
   1   0  -5    1.47    0.38
   0   0   5   35.98    1.30
   1   0   5   50.60    1.70
   2   0   5   -0.36    0.52
   3   0   5    0.16    0.60
   5  -1  -5    5.89    0.80
   5   1  -5    5.90    0.88
   5   1  -5    5.67    0.77
   4  -1  -5    0.79    0.50
   4   1  -5    0.08    0.47
   3  -1  -5   17.33    1.00
   3   1  -5   17.69    1.00
   2  -1  -5   44.50    1.40
   2   1  -5   43.92    1.36
  -1  -1   5    9.67    0.67
   1  -1  -5    9.93    0.70
   1   1  -5    9.27    0.65
   0  -1   5    8.08    0.77
   0   1   5    8.85    0.80
   0   1  -5    7.01    0.69
   1  -1   5    5.87    0.74
   1   1   5    3.85    0.68
   2  -1   5   -0.19    0.54
   2   1   5   -0.63    0.50
   3  -1   5   35.95    1.76
   3   1   5   31.29    1.66
   5  -2  -5    9.72    1.00
   5   2  -5    9.31    0.95
   5   2  -5    9.24    1.05
   4  -2  -5    6.15    0.78
   4   2  -5    8.82    0.82
   3  -2  -5   10.58    0.90
   3   2  -5   10.27    0.83
   2  -2  -5    6.63    0.68
   2   2  -5    6.28    0.62
   1  -2  -5    1.46    0.41
  -1  -2   5    1.45    0.38
   1   2  -5    1.45    0.36
   0  -2   5   36.72    1.32
   0   2   5   38.59    1.32
   0   2  -5   37.44    1.35
   1  -2   5   71.16    2.05
   1   2   5   70.01    2.03
   2  -2   5   -0.57    0.50
   2   2   5   -0.66    0.50
   3  -2   5    1.19    0.67
   5  -3  -5    4.20    0.74
   5   3  -5    4.33    0.80
   5   3  -5    3.25    0.65
   4  -3  -5    2.60    0.62
   4   3  -5    1.37    0.50
   4   3  -5    1.81    0.64
   3  -3  -5    9.76    0.88
   3   3  -5    8.96    0.75
   3   3  -5    8.19    0.86
   2  -3  -5   53.30    1.58
   2   3  -5   52.12    1.77
   2   3  -5   52.11    1.44
   1  -3  -5    5.11    0.52
   1  -3  -5    4.72    0.58
  -1  -3   5    4.26    0.50
   1   3  -5    5.16    0.66
   1   3  -5    4.31    0.49
   0  -3   5   15.57    0.93
   0   3  -5   14.85    0.93
   1  -3   5    6.62    0.80
   2  -3   5   -0.43    0.49
   3  -3   5   22.81    1.47
   5  -4  -5    4.25    0.75
   5   4  -5    4.56    0.81
   5   4  -5    3.88    0.68
   4  -4  -5    1.63    0.57
   4   4  -5    0.50    0.53
   4   4  -5    1.87    0.53
   3  -4  -5    6.58    0.75
   3   4  -5    6.60    0.80
   3   4  -5    7.99    0.74
   2  -4  -5    6.59    0.70
   2   4  -5    5.66    0.73
   2   4  -5    6.13    0.58
   1  -4  -5    0.93    0.34
   1  -4  -5    1.05    0.40
  -1  -4   5    1.11    0.38
   1   4  -5    0.82    0.45
   1   4  -5    0.75    0.31
   0  -4  -5   44.19    1.40
   0  -4   5   43.83    1.48
   0   4  -5   45.45    1.53
   1  -4   5   75.13    2.16
   2  -4   5    0.91    0.56
   3  -4   5   -0.57    0.52
  -3  -4  -5    0.59    0.56
   5  -5  -5    4.28    0.77
   5   5  -5    5.02    0.84
   5   5  -5    3.70    0.70
   4  -5  -5    0.47    0.49
   4   5  -5    0.00    0.51
   4   5  -5    0.65    0.43
   3  -5  -5    4.00    0.65
   3   5  -5    3.71    0.53
   3   5  -5    3.58    0.66
   2  -5  -5   55.41    1.65
   2   5  -5   54.71    1.80
   2   5  -5   49.98    1.41
   1  -5  -5    1.04    0.36
   1  -5  -5    0.88    0.42
  -1  -5   5    0.61    0.36
   1   5  -5    1.41    0.47
   0  -5  -5    7.37    0.70
   0  -5   5    7.57    0.75
   0   5  -5    7.16    0.74
   1  -5   5    4.92    0.73
  -1  -5  -5    5.10    0.68
  -2  -5  -5    1.07    0.52
   2  -5   5    0.48    0.56
  -3  -5  -5   21.59    1.35
   3  -5   5   20.66    1.44
   5  -6  -5    5.94    0.88
   5   6  -5    5.61    0.92
   5   6  -5    5.31    0.76
   4  -6  -5    1.47    0.57
   4   6  -5    1.76    0.63
   4   6  -5    1.63    0.47
   3  -6  -5   11.50    0.94
   3   6  -5   10.53    0.98
   2  -6  -5    5.07    0.65
   2   6  -5    4.36    0.68
   1  -6  -5    0.15    0.38
   1  -6  -5    0.62    0.35
  -1  -6   5    0.45    0.34
   1   6  -5    0.70    0.46
   0  -6  -5   45.78    1.43
   0  -6   5   46.32    1.53
   0   6  -5   46.22    1.58
  -1  -6  -5   63.30    1.84
   1  -6   5   63.24    1.97
  -2  -6  -5    3.29    0.65
   2  -6   5    3.50    0.76
  -3  -6  -5   -0.47    0.50
   3  -6   5   -0.12    0.59
   5  -7  -5    3.13    0.71
   5   7  -5    2.95    0.75
   4  -7  -5    0.79    0.52
   4   7  -5    1.03    0.58
   3  -7  -5   10.13    0.91
   3   7  -5    9.01    0.93
   2  -7  -5   48.54    1.58
   2   7  -5   45.67    1.70
   1  -7  -5    0.17    0.38
  -1  -7   5    0.28    0.34
   1  -7  -5   -0.65    0.30
   1   7  -5   -0.06    0.40
   0  -7   5    9.98    0.84
   0  -7  -5    9.36    0.79
   0   7  -5   10.83    0.90
   1  -7   5    4.84    0.73
  -1  -7  -5    4.25    0.65
  -2  -7  -5    3.83    0.71
   2  -7   5    3.56    0.78
   3  -7   5   18.85    1.43
  -3  -7  -5   24.02    1.40
   5  -8  -5    3.61    0.73
   5   8  -5    3.07    0.76
   4  -8  -5    1.64    0.57
   4   8  -5    1.88    0.61
   3  -8  -5   10.43    0.94
   3   8  -5   10.45    1.01
   2  -8  -5    5.60    0.68
   2   8  -5    6.73    0.84
   1  -8  -5    0.74    0.37
  -1  -8   5    0.11    0.36
   1  -8  -5    0.50    0.41
   1   8  -5    0.67    0.48
   0  -8  -5   32.59    1.23
   0  -8   5   35.61    1.36
   0   8  -5   31.94    1.34
   1  -8   5   30.70    1.43
  -1  -8  -5   32.86    1.34
   2  -8   5    5.57    0.87
  -2  -8  -5    6.38    0.84
  -3  -8  -5    1.33    0.63
   3  -8   5   -0.22    0.60
   5  -9  -5    2.81    0.68
   5   9  -5    4.60    0.83
   4  -9  -5    1.01    0.52
   4   9  -5    1.33    0.59
   3  -9  -5    9.28    0.91
   3   9  -5   10.07    1.01
   2  -9  -5   53.40    1.71
   2   9  -5   50.62    1.82
   1  -9  -5   13.95    0.94
   1  -9  -5   14.76    0.86
  -1  -9   5   13.86    0.87
   1   9  -5   13.64    1.04
   0  -9   5    7.74    0.81
   0  -9  -5    6.29    0.71
   0   9  -5    7.90    0.83
  -1  -9  -5    1.43    0.53
   1  -9   5    2.11    0.59
  -2  -9  -5    3.32    0.67
   2  -9   5    2.89    0.71
  -3  -9  -5   24.44    1.44
   3  -9   5   23.59    1.56
   5 -10  -5    5.84    0.87
   5  10  -5    4.82    0.86
   4 -10  -5    2.61    0.61
   4  10  -5    4.17    0.77
   3 -10  -5   12.58    1.06
   3  10  -5   10.23    1.02
   2 -10  -5    3.16    0.61
   2  10  -5    4.15    0.73
   1 -10  -5    3.33    0.61
  -1 -10   5    5.11    0.60
   1 -10  -5    4.71    0.58
   1  10  -5    4.35    0.73
   0 -10   5   29.46    1.32
   0 -10  -5   27.37    1.20
   0  10  -5   28.09    1.33
   1 -10   5   24.01    1.30
  -1 -10  -5   24.32    1.20
   2 -10   5    2.14    0.68
  -2 -10  -5    2.49    0.66
  -3 -10  -5    1.27    0.60
   3 -10   5    1.53    0.71
   5 -11  -5    1.74    0.63
   5  11  -5    2.92    0.73
   4 -11  -5   -0.79    0.41
   4  11  -5    0.28    0.57
   3 -11  -5   11.46    1.02
   3  11  -5   12.34    1.11
   2 -11  -5   30.11    1.34
   2  11  -5   30.41    1.45
   1 -11  -5    2.09    0.54
   1 -11  -5    1.56    0.45
  -1 -11   5    2.33    0.50
   1  11  -5    2.97    0.64
   0 -11  -5   12.00    0.91
   0 -11   5   11.60    0.99
   0  11  -5   12.71    1.02
  -1 -11  -5    2.15    0.60
   1 -11   5    3.31    0.69
  -2 -11  -5    0.40    0.51
   2 -11   5    0.57    0.56
  -3 -11  -5   18.94    1.32
   3 -11   5   19.59    1.45
   5 -12  -5    4.48    0.82
   5  12  -5    3.89    0.82
   4 -12  -5    0.26    0.46
   4  12  -5   -0.03    0.54
   3 -12  -5   13.22    1.08
   3  12  -5   12.68    1.13
   2 -12  -5    2.80    0.62
   2  12  -5    1.73    0.62
   1 -12  -5    7.43    0.72
   1 -12  -5    6.91    0.81
  -1 -12   5    6.48    0.70
   1  12  -5    6.88    0.87
   0 -12   5   21.33    1.20
   0 -12  -5   21.23    1.12
   0  12  -5   23.05    1.29
  -1 -12  -5   36.87    1.48
   1 -12   5   35.51    1.60
   2 -12   5    1.67    0.63
  -2 -12  -5    0.87    0.56
  -3 -12  -5    1.15    0.61
   3 -12   5    1.26    0.69
   4 -13  -5    0.90    0.51
   4  13  -5    0.69    0.60
   3 -13  -5    3.44    0.69
   3  13  -5    2.35    0.66
   2 -13  -5   21.04    1.21
   2  13  -5   21.60    1.30
  -1 -13   5    3.52    0.60
   1 -13  -5    3.20    0.60
   1 -13  -5    3.61    0.65
   1  13  -5    3.74    0.77
   0 -13  -5    9.92    0.89
   0 -13   5    9.23    0.89
   0  13  -5    8.79    0.95
  -1 -13  -5    4.04    0.72
   1 -13   5    2.97    0.69
   2 -13   5    0.98    0.61
  -2 -13  -5    1.49    0.63
   4 -14  -5   -0.05    0.44
   4  14  -5    0.79    0.64
   3 -14  -5    4.79    0.78
   3  14  -5    6.26    0.94
   2 -14  -5    3.70    0.69
   2  14  -5    1.85    0.69
   1 -14  -5    8.85    0.86
   1 -14  -5    8.68    0.92
  -1 -14   5    8.38    0.82
   1  14  -5    8.59    1.01
   0 -14   5   23.85    1.32
   0 -14  -5   25.22    1.26
   0  14  -5   27.33    1.41
  -1 -14  -5   35.91    1.54
   1 -14   5   42.59    1.76
   2 -14   5    1.77    0.71
  -2 -14  -5    3.39    0.75
   4 -15  -5    0.88    0.55
   4  15  -5    1.60    0.74
   3 -15  -5    4.84    0.80
   3  15  -5    4.46    0.87
   2 -15  -5   18.09    1.18
   2  15  -5   18.28    1.33
   1 -15  -5    1.57    0.57
  -1 -15   5    1.53    0.54
   1 -15  -5    0.79    0.50
   1  15  -5    1.39    0.59
   0 -15  -5    8.08    0.86
   0 -15   5    6.44    0.84
   0  15  -5    8.99    1.02
  -1 -15  -5    3.43    0.73
   1 -15   5    3.78    0.75
  -2 -15  -5    2.10    0.68
   2 -15   5    1.30    0.67
   4 -16  -5    2.11    0.65
   4  16  -5    2.40    0.81
   3 -16  -5    4.42    0.80
   3  16  -5    4.25    0.89
   2 -16  -5    3.56    0.72
   2  16  -5    3.45    0.83
   1 -16  -5    3.78    0.70
  -1 -16   5    3.25    0.66
   1 -16  -5    4.24    0.72
   1  16  -5    3.77    0.78
   0 -16   5   16.39    1.23
   0 -16  -5   17.13    1.18
   0  16  -5   16.40    1.31
   1 -16   5   26.55    1.50
  -1 -16  -5   26.19    1.39
  -2 -16  -5    6.89    0.93
   2 -16   5    7.05    1.02
   3 -17  -5   11.44    1.15
   3  17  -5   13.16    1.35
   2 -17  -5   14.77    1.16
   2  17  -5   15.41    1.32
   1 -17  -5    0.94    0.59
  -1 -17   5    1.71    0.60
   1 -17  -5    1.87    0.60
   1  17  -5    2.15    0.73
   0 -17  -5    7.03    0.90
   0 -17   5    7.63    0.94
   0  17  -5    8.39    1.02
  -1 -17  -5    0.78    0.58
   1 -17   5    0.97    0.61
   3 -18  -5   12.21    1.19
   3  18  -5   14.16    1.39
   2 -18  -5    0.25    0.52
   2  18  -5   -0.05    0.54
   1 -18  -5    4.06    0.78
  -1 -18   5    2.83    0.68
   1 -18  -5    2.65    0.70
   1  18  -5    4.09    0.87
   0 -18  -5   17.07    1.27
   0 -18   5   16.00    1.30
   0  18  -5   14.96    1.34
   1 -18   5    8.75    1.06
  -1 -18  -5    9.51    1.09
   3 -19  -5    4.63    0.84
   3  19  -5    4.19    0.90
   2 -19  -5   15.02    1.24
   2  19  -5   14.03    1.40
  -1 -19   5    1.57    0.63
   1 -19  -5    1.28    0.60
   1 -19  -5    1.08    0.67
   1  19  -5    0.00    0.56
   0 -19   5    7.29    0.97
   0 -19  -5    6.54    0.92
   0  19  -5    5.91    0.99
   1 -19   5    1.43    0.70
  -1 -19  -5    0.66    0.65
   2 -20  -5    1.51    0.62
   2  20  -5    2.45    0.80
  -1 -20   5    3.92    0.78
   1 -20  -5    4.06    0.80
   1 -20  -5    2.60    0.77
   1  20  -5    4.04    0.92
   0 -20   5    8.30    1.04
   0 -20  -5    8.92    1.14
   1 -21  -5    0.94    0.60
  -1 -21   5    1.87    0.70
   1  21  -5    1.33    0.73
   5   0  -6    0.65    0.55
   4   0  -6    2.50    0.65
   3   0  -6    6.30    0.76
   2   0  -6   17.43    1.03
   1   0  -6   26.42    1.13
   0   0  -6    1.25    0.49
   0   0   6    0.98    0.51
   1   0   6    1.47    0.64
   2   0   6   39.23    1.87
   5  -1  -6    0.73    0.57
   5   1  -6    0.62    0.72
   5   1  -6    1.23    0.58
   4  -1  -6    5.97    0.78
   4   1  -6    5.37    0.77
   3  -1  -6    5.17    0.73
   2  -1  -6    2.49    0.57
   2   1  -6    2.53    0.55
   1  -1  -6   14.32    0.92
   1   1  -6   13.33    0.87
   1   1  -6   15.45    1.10
   0  -1   6    7.10    0.82
   0   1  -6    8.36    0.87
   1  -1   6    5.17    0.86
   1   1   6    5.02    0.84
   2  -1   6    5.74    0.96
   2   1   6    9.23    1.11
   5  -2  -6    0.49    0.56
   5   2  -6    0.07    0.52
   5   2  -6    1.63    0.76
   4  -2  -6    0.40    0.55
   4   2  -6   -0.11    0.57
   4   2  -6    0.01    0.52
   3  -2  -6    1.62    0.58
   3   2  -6    2.00    0.56
   3   2  -6    2.37    0.66
   2  -2  -6    7.48    0.81
   2   2  -6    8.91    1.02
   1  -2  -6   17.60    1.00
   1   2  -6   17.44    1.17
   0  -2   6    1.27    0.55
   0   2  -6    0.83    0.50
   1  -2   6    2.85    0.72
   2  -2   6   18.32    1.47
   5  -3  -6    0.82    0.57
   5   3  -6    1.25    0.61
   5   3  -6   -0.08    0.65
   4  -3  -6   13.95    1.15
   3  -3  -6    2.54    0.64
   3   3  -6    3.10    0.73
   2  -3  -6    3.71    0.63
   2   3  -6    3.04    0.67
   1  -3  -6   13.57    0.95
   1   3  -6   14.39    1.12
   0  -3   6    7.27    0.84
   0  -3  -6    8.20    0.83
   0   3  -6    7.23    0.81
   1  -3   6    6.55    0.91
   2  -3   6    2.08    0.75
   5  -4  -6    0.67    0.60
   5   4  -6   -0.99    0.59
   4  -4  -6    1.12    0.60
   4   4  -6    0.78    0.62
   3  -4  -6    3.54    0.68
   3   4  -6    3.87    0.81
   2  -4  -6    2.34    0.58
   2   4  -6    2.07    0.63
   1  -4  -6   22.19    1.16
   1   4  -6   21.93    1.29
   0  -4   6    0.70    0.52
   0  -4  -6    0.85    0.47
   0   4  -6    0.86    0.49
   1  -4   6    3.65    0.79
  -1  -4  -6    4.04    0.70
   2  -4   6   13.35    1.28
  -2  -4  -6   17.69    1.34
   5  -5  -6    1.60    0.64
   5   5  -6    1.16    0.74
   4  -5  -6    9.37    1.00
   4   5  -6    9.33    1.10
   3  -5  -6    2.53    0.60
   3   5  -6    2.26    0.68
   2  -5  -6    1.47    0.55
   2   5  -6    0.85    0.55
   1  -5  -6   10.11    0.93
   1   5  -6   11.19    1.08
   0  -5  -6    7.21    0.77
   0  -5   6    7.51    0.86
   0   5  -6   10.46    0.96
   1  -5   6   14.50    1.25
  -1  -5  -6   13.28    1.10
  -2  -5  -6    2.89    0.74
   2  -5   6    3.11    0.80
   5  -6  -6    1.04    0.62
   5   6  -6    1.25    0.72
   4  -6  -6    1.53    0.60
   4   6  -6    0.55    0.62
   3  -6  -6    1.02    0.54
   3   6  -6    1.29    0.62
   2  -6  -6    0.79    0.51
   2   6  -6    0.32    0.54
   1  -6  -6   24.23    1.23
   1   6  -6   22.91    1.33
   0  -6  -6    3.69    0.65
   0  -6   6    3.73    0.70
   0   6  -6    1.75    0.58
   1  -6   6    3.90    0.79
  -1  -6  -6    3.72    0.69
   2  -6   6   20.87    1.46
  -2  -6  -6   22.42    1.41
   4  -7  -6    7.53    0.94
   4   7  -6    6.74    0.98
   3  -7  -6    1.25    0.55
   3   7  -6    1.35    0.62
   2  -7  -6   -0.06    0.46
   2   7  -6    0.15    0.51
   1  -7  -6   18.01    1.11
   1   7  -6   16.68    1.19
   0  -7   6   10.48    1.00
   0  -7  -6   12.81    0.94
   0   7  -6   10.33    0.97
   1  -7   6   12.45    1.16
  -1  -7  -6   13.34    1.18
  -2  -7  -6    5.35    0.88
   2  -7   6    5.48    0.91
   4  -8  -6    0.62    0.56
   4   8  -6    0.85    0.65
   3  -8  -6    1.45    0.61
   3   8  -6    2.27    0.68
   2  -8  -6    4.17    0.73
   2   8  -6    5.29    0.87
   1  -8  -6   18.09    1.15
   1   8  -6   20.81    1.31
   0  -8  -6    7.32    0.82
   0  -8   6    6.38    0.82
   0   8  -6    5.67    0.80
  -1  -8  -6    7.47    0.90
   1  -8   6    6.61    0.95
  -2  -8  -6   19.62    1.36
   2  -8   6   18.46    1.61
   4  -9  -6    5.36    0.82
   4   9  -6    5.14    0.89
   3  -9  -6    3.62    0.73
   3   9  -6    3.34    0.78
   2  -9  -6    0.84    0.52
   2   9  -6    1.18    0.55
   1  -9  -6    7.60    0.86
   1   9  -6    8.98    1.03
   0  -9   6    3.63    0.70
   0  -9  -6    3.76    0.67
   0   9  -6    2.33    0.62
  -1  -9  -6    3.42    0.72
   1  -9   6    2.91    0.74
   2  -9   6    1.99    0.76
  -2  -9  -6    2.14    0.68
   4 -10  -6    0.32    0.52
   4  10  -6    0.33    0.60
   3 -10  -6    1.45    0.63
   3  10  -6    1.39    0.63
   2 -10  -6    7.05    0.89
   2  10  -6    9.20    1.09
   1 -10  -6   10.05    0.98
   1  10  -6   11.97    1.10
   0 -10   6    0.89    0.57
   0 -10  -6   -0.15    0.50
   0  10  -6    0.25    0.53
   1 -10   6    1.81    0.66
  -1 -10  -6    2.40    0.73
   2 -10   6   13.71    1.33
  -2 -10  -6   15.40    1.26
   4 -11  -6    5.44    0.84
   4  11  -6    5.85    0.96
   3 -11  -6    1.54    0.61
   3  11  -6    1.40    0.64
   2 -11  -6    3.38    0.72
   2  11  -6    3.39    0.77
   1 -11  -6    9.29    0.96
   1  11  -6   12.87    1.14
   0 -11  -6    7.44    0.85
   0 -11   6    8.03    0.93
   0  11  -6    7.39    0.94
   1 -11   6    4.04    0.82
  -1 -11  -6    4.15    0.79
   4 -12  -6    0.38    0.52
   4  12  -6    0.06    0.58
   3 -12  -6    1.59    0.64
   3  12  -6    1.70    0.67
   2 -12  -6    7.51    0.95
   2  12  -6    6.59    0.99
   1 -12  -6   15.19    1.15
   1  12  -6   13.49    1.21
   0 -12   6    1.76    0.63
   0 -12  -6    2.05    0.63
   0  12  -6    2.19    0.69
  -1 -12  -6    3.47    0.75
   1 -12   6    4.22    0.82
   3 -13  -6    1.24    0.62
   3  13  -6    2.76    0.79
   2 -13  -6    4.59    0.84
   2  13  -6    3.79    0.80
   1 -13  -6    4.39    0.78
   1  13  -6    5.76    0.95
   0 -13   6    3.73    0.75
   0 -13  -6    2.78    0.70
   0  13  -6    3.72    0.80
  -1 -13  -6    4.76    0.80
   1 -13   6    6.95    0.95
   3 -14  -6    2.45    0.73
   3  14  -6    2.22    0.74
   2 -14  -6    5.31    0.89
   2  14  -6    4.09    0.97
   1 -14  -6   10.94    1.15
   1  14  -6   10.45    1.21
   0 -14  -6    1.52    0.64
   0 -14   6    1.24    0.63
   0  14  -6    1.80    0.67
   1 -14   6    3.72    0.81
  -1 -14  -6    6.45    0.91
   3 -15  -6    1.19    0.65
   3  15  -6    2.08    0.78
   2 -15  -6    4.30    0.81
   2  15  -6    3.68    0.91
   1 -15  -6    6.55    0.91
   1  15  -6    5.64    0.93
   0 -15   6    2.44    0.74
   0 -15  -6    2.10    0.70
   0  15  -6    3.37    0.79
   2 -16  -6    1.40    0.66
   2  16  -6    1.43    0.74
   1 -16  -6    7.90    1.01
   1  16  -6    8.35    1.10
   0 -16   6    2.84    0.76
   0 -16  -6    2.47    0.72
   0  16  -6    2.87    0.82
   2  17  -6    1.47    0.70
   1 -17  -6    3.92    0.81
   1  17  -6    6.43    1.08
   4   0  -7    0.41    0.67
   2   0  -7    0.44    0.63
   1   0  -7    0.04    0.57
   4  -1  -7    0.08    0.55
   4   1  -7    0.44    0.68
   2   1  -7    5.99    1.00
   1  -1  -7    0.71    0.64
   1   1  -7    0.19    0.60
   1  -1   7    3.41    0.82
   4  -2  -7    0.00    0.55
   4   2  -7   -0.07    0.64
   3  -2  -7    0.80    0.60
   3   2  -7    0.95    0.67
   2  -2  -7   -0.23    0.53
   2   2  -7    0.91    0.67
   1   2  -7    0.35    0.59
   1  -2   7    4.14    0.89
  -1  -2  -7    5.52    0.93
   3  -3  -7    3.00    0.74
   3   3  -7    1.64    0.72
   2  -3  -7    5.98    0.83
   1  -3  -7   -0.08    0.51
   1   3  -7    0.41    0.63
   1  -3   7    2.36    0.78
  -1  -3  -7    5.17    0.92
   3  -4  -7   -0.05    0.57
   3   4  -7    0.64    0.64
   2  -4  -7    0.70    0.55
   2   4  -7    0.96    0.67
   1  -4  -7    0.99    0.57
   1   4  -7    1.16    0.71
  -1  -4  -7    6.57    0.97
   1  -4   7    6.39    1.03
   3  -5  -7    2.05    0.66
   3   5  -7    2.54    0.77
   2  -5  -7    6.73    0.91
   2   5  -7    8.51    1.12
   1  -5  -7    0.68    0.53
   1   5  -7    1.23    0.64
  -1  -5  -7    3.11    0.77
   1  -5   7    2.99    0.87
   3  -6  -7    1.72    0.66
   3   6  -7    1.89    0.74
   2  -6  -7    0.20    0.52
   2   6  -7    0.44    0.62
   1  -6  -7    2.90    0.68
   1   6  -7    3.54    0.84
   3  -7  -7    4.87    0.84
   3   7  -7    6.18    1.04
   2  -7  -7    5.70    0.86
   2   7  -7    5.00    0.93
   1  -7  -7    1.98    0.67
   1   7  -7    1.04    0.64
   3  -8  -7    1.83    0.68
   3   8  -7    3.06    0.82
   2  -8  -7    0.61    0.58
   2   8  -7    1.23    0.65
   1  -8  -7    1.12    0.58
   1   8  -7    1.42    0.71
   3  -9  -7    4.82    0.87
   3   9  -7    3.36    0.86
   2  -9  -7    3.94    0.79
   2   9  -7    4.31    0.94
   1  -9  -7    0.63    0.61
   1   9  -7    1.48    0.69
   2 -10  -7    0.67    0.60
   2  10  -7    0.03    0.59
   1 -10  -7   -0.51    0.49
   1  10  -7   -0.03    0.59
   2 -11  -7    3.39    0.77
   2  11  -7    5.29    1.00
   1 -11  -7    0.50    0.57
   1  11  -7    0.85    0.61
   0   0   0    0.00    0.00
;
_shelx_hkl_checksum              59562
#END Tags that were not found in dictionaries
loop_
_space_group_symop_operation_xyz
'x, y, z'
'-x, y+1/2, -z'
loop_
_atom_site_type_symbol
_atom_site_label
_atom_site_fract_x
_atom_site_fract_y
_atom_site_fract_z
_atom_site_U_iso_or_equiv
_atom_site_adp_type
_atom_site_calc_flag
_atom_site_refinement_flags_adp
_atom_site_refinement_flags_posn
_atom_site_occupancy
Ag Ag1 0.21054(12) 0.85741(2) 0.43592(11) 0.03406(16) Uani d . . 1
Ag Ag2 -0.43184(12) 0.86736(3) -0.00762(11) 0.03446(16) Uani d . . 1
C C1 -0.0232(16) 0.7562(4) 0.0315(14) 0.0245(15) Uani d . . 1
C C2 0.1402(17) 0.6951(4) 0.1466(15) 0.0260(16) Uani d . . 1
H H2A 0.3055 0.6892 0.0766 0.031 Uiso calc U R 1
H H2B 0.0209 0.6558 0.1051 0.031 Uiso calc U R 1
C C3 0.2370(13) 0.7004(4) 0.4274(13) 0.0174(14) Uani d . . 1
H H3 0.0698 0.7043 0.499 0.021 Uiso calc U R 1
C C4 0.4000(14) 0.6369(3) 0.5253(13) 0.0196(13) Uani d . . 1
C C5 0.3850(14) 0.5244(3) 0.6911(13) 0.0189(13) Uani d . . 1
H H5 0.5603 0.5199 0.6314 0.023 Uiso calc U R 1
C C6 0.4670(18) 0.5259(4) 0.9732(15) 0.0256(16) Uani d . . 1
H H6A 0.5793 0.5657 1.0275 0.031 Uiso calc U R 1
H H6B 0.2962 0.5283 1.0372 0.031 Uiso calc U R 1
C C7 0.1931(15) 0.4654(4) 0.5900(14) 0.0217(14) Uani d . . 1
N N1 0.4172(13) 0.7600(3) 0.4943(12) 0.0225(13) Uani d . . 1
H H1A 0.5642 0.7588 0.4007 0.027 Uiso calc U R 1
H H1B 0.5109 0.7565 0.6681 0.027 Uiso calc U R 1
N N2 0.2506(12) 0.5876(3) 0.5957(12) 0.0228(13) Uani d . . 1
H H2 0.0715 0.5929 0.5848 0.027 Uiso calc U R 1
N N3 0.6311(15) 0.4660(4) 1.0740(13) 0.0275(14) Uani d . . 1
H H3A 0.692 0.4719 1.2518 0.033 Uiso calc U R 1
H H3B 0.8014 0.4652 1.0088 0.033 Uiso calc U R 1
O O1 0.0601(15) 0.7892(4) -0.1286(12) 0.0503(19) Uani d . . 1
O O2 -0.2404(13) 0.7717(4) 0.1100(13) 0.0419(16) Uani d . . 1
O O3 0.6584(11) 0.6320(3) 0.5361(14) 0.0413(16) Uani d . . 1
O O4 0.2587(16) 0.4289(4) 0.4355(14) 0.059(2) Uani d . . 1
O O5 -0.0242(12) 0.4563(3) 0.6761(12) 0.0366(15) Uani d . . 1
loop_
_atom_site_aniso_label
_atom_site_aniso_U_11
_atom_site_aniso_U_22
_atom_site_aniso_U_33
_atom_site_aniso_U_12
_atom_site_aniso_U_13
_atom_site_aniso_U_23
Ag1 0.0374(3) 0.0164(3) 0.0425(3) 0.0080(2) -0.0033(2) -0.0043(2)
Ag2 0.0394(3) 0.0214(3) 0.0378(3) 0.0081(3) -0.0015(2) -0.0051(3)
C1 0.022(3) 0.024(4) 0.025(4) 0.002(3) -0.001(3) -0.007(3)
C2 0.024(3) 0.023(4) 0.028(4) 0.004(3) 0.001(3) -0.002(3)
C3 0.011(3) 0.015(3) 0.026(4) 0.002(2) 0.004(3) 0.003(2)
C4 0.017(3) 0.012(3) 0.030(4) 0.002(2) 0.006(3) 0.005(3)
C5 0.016(3) 0.012(3) 0.029(4) 0.001(2) 0.005(3) 0.004(3)
C6 0.029(4) 0.016(4) 0.032(4) 0.000(3) 0.005(3) 0.001(3)
C7 0.023(3) 0.016(3) 0.025(4) 0.002(3) 0.004(3) 0.001(3)
N1 0.021(3) 0.015(3) 0.029(3) 0.000(3) 0.001(2) -0.001(3)
N2 0.015(2) 0.016(3) 0.040(4) 0.005(2) 0.011(3) 0.010(2)
N3 0.031(3) 0.025(4) 0.024(3) -0.001(3) 0.002(3) 0.002(3)
O1 0.049(4) 0.066(5) 0.041(4) 0.016(4) 0.023(3) 0.023(3)
O2 0.035(3) 0.033(4) 0.066(4) 0.015(3) 0.029(3) 0.021(3)
O3 0.013(2) 0.024(3) 0.089(5) 0.005(2) 0.016(3) 0.024(3)
O4 0.054(4) 0.069(6) 0.060(5) -0.026(4) 0.026(4) -0.039(4)
O5 0.023(3) 0.028(3) 0.063(4) -0.012(2) 0.017(3) -0.012(3)
loop_
_atom_type_symbol
_atom_type_description
_atom_type_scat_dispersion_real
_atom_type_scat_dispersion_imag
_atom_type_scat_source
C C 0.0033 0.0016 'International Tables Vol C Tables 4.2.6.8 and 6.1.1.4'
H H 0.0000 0.0000 'International Tables Vol C Tables 4.2.6.8 and 6.1.1.4'
N N 0.0061 0.0033 'International Tables Vol C Tables 4.2.6.8 and 6.1.1.4'
O O 0.0106 0.0060 'International Tables Vol C Tables 4.2.6.8 and 6.1.1.4'
Ag Ag -0.8971 1.1015 'International Tables Vol C Tables 4.2.6.8 and 6.1.1.4'
loop_
_geom_angle_atom_site_label_1
_geom_angle_atom_site_label_2
_geom_angle_atom_site_label_3
_geom_angle_site_symmetry_1
_geom_angle_site_symmetry_3
_geom_angle
N1 Ag1 O5 . 2_556 171.2(2)
N1 Ag1 Ag2 . 1_656 77.36(17)
O5 Ag1 Ag2 2_556 1_656 108.41(18)
N1 Ag1 Ag2 . 1_655 82.27(17)
O5 Ag1 Ag2 2_556 1_655 89.16(16)
Ag2 Ag1 Ag2 1_656 1_655 117.10(3)
O2 Ag2 N3 . 2_556 172.1(3)
O2 Ag2 Ag1 . 1_454 109.8(2)
N3 Ag2 Ag1 2_556 1_454 76.77(18)
O2 Ag2 Ag1 . 1_455 88.99(16)
N3 Ag2 Ag1 2_556 1_455 84.00(18)
Ag1 Ag2 Ag1 1_454 1_455 117.11(3)
O1 C1 O2 . . 123.1(8)
O1 C1 C2 . . 120.4(7)
O2 C1 C2 . . 116.5(7)
C1 C2 C3 . . 112.6(6)
C1 C2 H2A . . 109.1
C3 C2 H2A . . 109.1
C1 C2 H2B . . 109.1
C3 C2 H2B . . 109.1
H2A C2 H2B . . 107.8
N1 C3 C2 . . 109.9(6)
N1 C3 C4 . . 110.7(5)
C2 C3 C4 . . 108.7(6)
N1 C3 H3 . . 109.2
C2 C3 H3 . . 109.2
C4 C3 H3 . . 109.2
O3 C4 N2 . . 122.2(6)
O3 C4 C3 . . 121.1(6)
N2 C4 C3 . . 116.7(6)
N2 C5 C6 . . 110.2(6)
N2 C5 C7 . . 110.4(6)
C6 C5 C7 . . 112.8(6)
N2 C5 H5 . . 107.7
C6 C5 H5 . . 107.7
C7 C5 H5 . . 107.7
N3 C6 C5 . . 111.5(6)
N3 C6 H6A . . 109.3
C5 C6 H6A . . 109.3
N3 C6 H6B . . 109.3
C5 C6 H6B . . 109.3
H6A C6 H6B . . 108.0
O4 C7 O5 . . 123.4(8)
O4 C7 C5 . . 119.1(7)
O5 C7 C5 . . 117.5(7)
C3 N1 Ag1 . . 117.4(4)
C3 N1 H1A . . 108.0
Ag1 N1 H1A . . 108.0
C3 N1 H1B . . 108.0
Ag1 N1 H1B . . 108.0
H1A N1 H1B . . 107.2
C4 N2 C5 . . 121.2(5)
C4 N2 H2 . . 119.4
C5 N2 H2 . . 119.4
C6 N3 Ag2 . 2_546 119.2(5)
C6 N3 H3A . . 107.5
Ag2 N3 H3A 2_546 . 107.5
C6 N3 H3B . . 107.5
Ag2 N3 H3B 2_546 . 107.5
H3A N3 H3B . . 107.0
C1 O2 Ag2 . . 116.4(5)
C7 O5 Ag1 . 2_546 110.2(5)
loop_
_geom_bond_atom_site_label_1
_geom_bond_atom_site_label_2
_geom_bond_site_symmetry_2
_geom_bond_distance
Ag1 N1 . 2.176(6)
Ag1 O5 2_556 2.199(6)
Ag1 Ag2 1_656 3.1834(9)
Ag1 Ag2 1_655 3.3148(9)
Ag2 O2 . 2.157(7)
Ag2 N3 2_556 2.186(7)
Ag2 Ag1 1_454 3.1834(9)
Ag2 Ag1 1_455 3.3147(9)
C1 O1 . 1.243(10)
C1 O2 . 1.261(9)
C1 C2 . 1.513(11)
C2 C3 . 1.525(11)
C2 H2A . 0.97
C2 H2B . 0.97
C3 N1 . 1.471(9)
C3 C4 . 1.525(10)
C3 H3 . 0.98
C4 O3 . 1.240(8)
C4 N2 . 1.331(9)
C5 N2 . 1.460(8)
C5 C6 . 1.525(11)
C5 C7 . 1.525(10)
C5 H5 . 0.98
C6 N3 . 1.473(10)
C6 H6A . 0.97
C6 H6B . 0.97
C7 O4 . 1.220(10)
C7 O5 . 1.261(9)
N1 H1A . 0.97
N1 H1B . 0.97
N2 H2 . 0.86
N3 Ag2 2_546 2.186(7)
N3 H3A . 0.97
N3 H3B . 0.97
O5 Ag1 2_546 2.198(6)
