#------------------------------------------------------------------------------
#$Date: 2016-03-24 14:28:49 +0200 (Thu, 24 Mar 2016) $
#$Revision: 179665 $
#$URL: svn://www.crystallography.net/cod/cif/4/51/18/4511871.cif $
#------------------------------------------------------------------------------
#
# This file is available in the Crystallography Open Database (COD),
# http://www.crystallography.net/
#
# All data on this site have been placed in the public domain by the
# contributors.
#
data_4511871
loop_
_publ_author_name
'Miyake, Ryosuke'
'Nakagawa, Yuki'
'Hase, Mariko'
_publ_section_title
;
 Selective Thermal Elongation of Metal--Metal Distances in the
 Two-Dimensional Assembly of Ag(I) Ions Templated by Assembled Peptide
 Ligands
;
_journal_issue                   10
_journal_name_full               'Crystal Growth &amp; Design'
_journal_page_first              4882
_journal_paper_doi               10.1021/cg5009347
_journal_volume                  14
_journal_year                    2014
_chemical_absolute_configuration ad
_chemical_formula_sum            'C7 H11 Ag2 N3 O5'
_chemical_formula_weight         432.93
_space_group_crystal_system      monoclinic
_space_group_IT_number           4
_space_group_name_Hall           'P 2yb'
_space_group_name_H-M_alt        'P 1 21 1'
_symmetry_space_group_name_Hall  'P 2yb'
_symmetry_space_group_name_H-M   'P 1 21 1'
_atom_sites_solution_hydrogens   geom
_cell_angle_alpha                90
_cell_angle_beta                 103.349(2)
_cell_angle_gamma                90
_cell_formula_units_Z            2
_cell_length_a                   4.8090(6)
_cell_length_b                   19.923(3)
_cell_length_c                   5.4926(7)
_cell_measurement_reflns_used    2370
_cell_measurement_temperature    93
_cell_measurement_theta_max      30.9328
_cell_measurement_theta_min      3.8161
_cell_volume                     512.03(12)
_computing_cell_refinement       'SAINT V8.32B (Bruker AXS)'
_computing_data_collection       'Bruker SMART APEXII ULTRA'
_computing_data_reduction        'SAINT V8.32B (Bruker AXS)'
_computing_molecular_graphics    'XSHELL V6.3.1 (Bruker AXS)'
_computing_publication_material  'Generate Report (Bruker AXS)'
_computing_structure_refinement  'SHELXL-2013 (Sheldrick, 2013)'
_computing_structure_solution    'SHELXS-97 (Sheldrick, 1997)'
_diffrn_ambient_temperature      93
_diffrn_detector_area_resol_mean 8.333
_diffrn_measured_fraction_theta_full 0.988
_diffrn_measured_fraction_theta_max 0.988
_diffrn_measurement_device_type  'Bruker D8 goniometer'
_diffrn_measurement_method       'omega scans'
_diffrn_radiation_monochromator  'multilayered conforcal mirror'
_diffrn_radiation_type           MoK\a
_diffrn_radiation_wavelength     0.71073
_diffrn_reflns_av_R_equivalents  0.0182
_diffrn_reflns_limit_h_max       6
_diffrn_reflns_limit_h_min       -5
_diffrn_reflns_limit_k_max       22
_diffrn_reflns_limit_k_min       -27
_diffrn_reflns_limit_l_max       6
_diffrn_reflns_limit_l_min       -7
_diffrn_reflns_number            3550
_diffrn_reflns_theta_full        29.10
_diffrn_reflns_theta_max         29.10
_diffrn_reflns_theta_min         2.04
_diffrn_source                   'rotating-anode X-ray tube'
_diffrn_source_type              'Bruker Tourbo X-ray Source'
_exptl_absorpt_coefficient_mu    3.839
_exptl_absorpt_correction_T_max  0.96
_exptl_absorpt_correction_T_min  0.79
_exptl_absorpt_correction_type   empirical
_exptl_absorpt_process_details   'SADABS V2012/1 (Bruker AXS)'
_exptl_crystal_colour            colorless
_exptl_crystal_density_diffrn    2.808
_exptl_crystal_density_method    'not measured'
_exptl_crystal_description       plate
_exptl_crystal_F_000             416
_exptl_crystal_size_max          0.055
_exptl_crystal_size_mid          0.023
_exptl_crystal_size_min          0.010
_refine_diff_density_max         1.026
_refine_diff_density_min         -0.738
_refine_ls_abs_structure_details
;
Flack x determined using 876 quotients [(I+)-(I-)]/[(I+)+(I-)]
(Parsons and Flack (2004), Acta Cryst. A60, s61).
;
_refine_ls_abs_structure_Flack   0.02(3)
_refine_ls_extinction_method     none
_refine_ls_goodness_of_fit_ref   1.043
_refine_ls_hydrogen_treatment    constr
_refine_ls_matrix_type           full
_refine_ls_number_parameters     154
_refine_ls_number_reflns         2216
_refine_ls_number_restraints     1
_refine_ls_restrained_S_all      1.042
_refine_ls_R_factor_all          0.0236
_refine_ls_R_factor_gt           0.0219
_refine_ls_shift/su_max          0.000
_refine_ls_shift/su_mean         0.000
_refine_ls_structure_factor_coef Fsqd
_refine_ls_weighting_details
'w=1/[\s^2^(Fo^2^)+(0.0222P)^2^+0.3869P] where P=(Fo^2^+2Fc^2^)/3'
_refine_ls_weighting_scheme      calc
_refine_ls_wR_factor_gt          0.0496
_refine_ls_wR_factor_ref         0.0501
_reflns_number_gt                2118
_reflns_number_total             2216
_reflns_threshold_expression     'I > 2\s(I)'
_cod_data_source_file            cg5009347_si_001.cif
_cod_data_source_block           p21_93K_again
_cod_depositor_comments
'Adding full bibliography for 4511859--4511871.cif.'
_cod_original_cell_volume        512.03(11)
_cod_database_code               4511871
#BEGIN Tags that were not found in dictionaries:
_shelx_res_file
;
TITL p21(-180) in P2(1)
CELL 0.71073   4.80900  19.92260   5.49260  90.0000 103.3492  90.0000
ZERR    2.00   0.00060   0.00270   0.00070   0.0000   0.0021   0.0000
LATT -1
SYMM -X, 0.5+Y, -Z
SFAC C  H  N  O  Ag
UNIT 14  22  6  10  4
L.S. 10
SHEL 20 0.73
ACTA
BOND $h
FMAP 2
PLAN 20
size 0.055 0.023 0.010
TEMP -180
WGHT    0.022200    0.386900
FVAR       0.18771
AG1   5    0.214004    0.857971    0.425369    11.00000    0.01447    0.00805 =
         0.01772   -0.00125    0.00041    0.00273
AG2   5   -0.441829    0.866649   -0.009061    11.00000    0.01633    0.01101 =
         0.01658   -0.00167    0.00148    0.00337
C1    1   -0.023669    0.756092    0.022169    11.00000    0.01105    0.01395 =
         0.01076   -0.00353   -0.00037    0.00032
C2    1    0.141233    0.693965    0.142198    11.00000    0.01361    0.00955 =
         0.01452   -0.00157    0.00061    0.00364
AFIX  23
H2A   2    0.017224    0.653932    0.101551    11.00000   -1.20000
H2B   2    0.309961    0.687206    0.070353    11.00000   -1.20000
AFIX   0
C3    1    0.239331    0.700477    0.424169    11.00000    0.00641    0.00978 =
         0.01463    0.00220    0.00474    0.00183
AFIX  13
H3    2    0.067703    0.704732    0.496861    11.00000   -1.20000
AFIX   0
C4    1    0.404979    0.637313    0.529639    11.00000    0.00783    0.00799 =
         0.01442    0.00198    0.00358    0.00299
C5    1    0.390583    0.524823    0.696778    11.00000    0.00990    0.00841 =
         0.01790    0.00214    0.00464    0.00140
AFIX  13
H5    2    0.570476    0.520373    0.636182    11.00000   -1.20000
AFIX   0
C6    1    0.472806    0.525481    0.981538    11.00000    0.01385    0.01103 =
         0.01552   -0.00109    0.00150    0.00143
AFIX  23
H6A   2    0.586719    0.566203    1.039980    11.00000   -1.20000
H6B   2    0.297687    0.527037    1.047135    11.00000   -1.20000
AFIX   0
C7    1    0.197897    0.465265    0.593196    11.00000    0.00834    0.00677 =
         0.01477    0.00050    0.00136   -0.00029
N1    3    0.420734    0.760618    0.491980    11.00000    0.00995    0.00695 =
         0.01551   -0.00048    0.00015   -0.00062
AFIX  23
H1A   2    0.573591    0.758971    0.398400    11.00000   -1.20000
H1B   2    0.514399    0.757575    0.672155    11.00000   -1.20000
AFIX   0
N2    3    0.253436    0.587962    0.598148    11.00000    0.00625    0.01021 =
         0.01782    0.00715    0.00556    0.00367
AFIX  43
H2    2    0.068741    0.593269    0.584114    11.00000   -1.20000
AFIX   0
N3    3    0.640305    0.465376    1.078866    11.00000    0.01539    0.01366 =
         0.01493    0.00293    0.00303    0.00089
AFIX  23
H3A   2    0.706090    0.470765    1.262354    11.00000   -1.20000
H3B   2    0.812992    0.465180    1.009631    11.00000   -1.20000
AFIX   0
O1    4    0.059335    0.788977   -0.136656    11.00000    0.02238    0.02958 =
         0.01926    0.00852    0.01014    0.00835
O2    4   -0.246677    0.770325    0.102022    11.00000    0.01727    0.01519 =
         0.03355    0.00980    0.01346    0.00521
O3    4    0.664636    0.633152    0.541895    11.00000    0.00696    0.01083 =
         0.04649    0.00993    0.01143    0.00401
O4    4    0.265765    0.429260    0.431649    11.00000    0.02308    0.03521 =
         0.02956   -0.01451    0.01320   -0.00686
O5    4   -0.019247    0.456293    0.680542    11.00000    0.01188    0.01487 =
         0.02571   -0.00436    0.00840   -0.00419
HKLF 4

REM  p21(-180) in P2(1)
REM R1 =  0.0219 for    2118 Fo > 4sig(Fo)  and  0.0236 for all    2216 data
REM    154 parameters refined using      1 restraints

END

WGHT      0.0222      0.3868

REM Highest difference peak  1.026,  deepest hole -0.738,  1-sigma level  0.117
Q1    1   0.1019  0.8495  0.5001  11.00000  0.05    1.03
Q2    1  -0.3013  0.8720 -0.0878  11.00000  0.05    0.74
Q3    1   0.2111  0.8209  0.4153  11.00000  0.05    0.69
Q4    1  -0.4253  0.9071 -0.0103  11.00000  0.05    0.66
Q5    1   0.3038  0.8622  0.2839  11.00000  0.05    0.60
Q6    1   0.2234  0.8961  0.4172  11.00000  0.05    0.57
Q7    1  -0.4589  0.8278 -0.0206  11.00000  0.05    0.56
Q8    1  -0.4338  0.8660  0.1473  11.00000  0.05    0.54
Q9    1   0.3372  0.8588  0.4788  11.00000  0.05    0.53
Q10   1   0.9055  0.4014  1.1187  11.00000  0.05    0.46
Q11   1   0.1052  0.8502  0.2454  11.00000  0.05    0.45
Q12   1   0.1575  0.6992  0.2837  11.00000  0.05    0.42
Q13   1  -0.2315  0.8617  0.2641  11.00000  0.05    0.42
Q14   1  -0.0803  0.8591 -0.2874  11.00000  0.05    0.41
Q15   1   0.3954  0.8009  0.4921  11.00000  0.05    0.41
Q16   1  -0.2886  0.8662  0.0879  11.00000  0.05    0.39
Q17   1   0.0810  0.8322 -0.1474  11.00000  0.05    0.39
Q18   1  -0.0263  0.4033  0.7245  11.00000  0.05    0.38
Q19   1   0.6578  0.8187  0.4766  11.00000  0.05    0.36
Q20   1   0.3757  0.8672  0.6446  11.00000  0.05    0.36
;
_shelx_res_checksum              9715
_shelx_hkl_file
;
   1   0   0  153.75    3.22
   1   0   0  153.91    3.11
   2   0   0   15.46    0.70
   2   0   0   14.43    0.67
   3   0   0   52.24    1.58
   3   0   0   52.51    1.66
   4   0   0   54.44    1.80
   4   0   0   52.76    1.90
   5   0   0   79.17    2.74
   6   0   0   20.38    1.61
   0  -1   0   -1.35    0.01
   0   1   0   -1.33    0.02
   1  -1   0  103.28    2.16
   1  -1   0  102.08    2.09
   1   1   0   96.08    2.16
   1   1   0   95.91    2.08
   2  -1   0  211.98    4.50
   2  -1   0  221.13    4.68
   2   1   0  212.36    4.50
   2   1   0  223.67    4.71
   3  -1   0  151.86    3.70
   3  -1   0  153.59    3.55
   3   1   0  154.79    3.54
   3   1   0  162.07    3.75
   4  -1   0   10.79    0.95
   4  -1   0   12.56    0.97
   4   1   0   12.55    0.98
   5  -1   0   15.15    1.26
   5   1   0   15.64    1.31
   6  -1   0   71.11    2.82
   6   1   0   71.79    2.86
   0  -2   0  895.34   20.14
  -1  -2   0   50.72    1.15
   1  -2   0   47.91    1.20
   1  -2   0   50.32    1.20
   1   2   0   51.60    1.23
   1   2   0   53.79    1.12
   2  -2   0    1.13    0.31
   2  -2   0    0.74    0.26
   2   2   0    0.53    0.27
   3  -2   0  124.76    2.98
   3  -2   0  126.58    3.10
   3   2   0  119.59    3.08
   4  -2   0   45.42    1.71
   4  -2   0   44.18    1.62
   4   2   0   45.81    1.74
   5  -2   0   44.20    1.96
   5   2   0   48.87    2.03
   6  -2   0   12.11    1.37
   6   2   0   14.18    1.49
   0  -3   0   -0.39    0.11
   1  -3   0   72.70    1.65
   1  -3   0   71.78    1.65
  -1  -3   0   74.75    1.61
   1   3   0   72.48    1.68
   1   3   0   74.35    1.59
  -2  -3   0  163.92    3.43
   2  -3   0  161.18    3.52
   2  -3   0  162.05    3.61
   2   3   0  164.73    3.65
  -3  -3   0  259.21    5.48
   3  -3   0  270.38    5.65
   3  -3   0  264.73    5.83
   3   3   0  262.22    5.86
   4  -3   0    5.43    0.75
  -4  -3   0    5.45    0.60
   4  -3   0    5.45    0.74
   4   3   0    4.84    0.71
   5  -3   0    8.34    1.02
   5   3   0    7.48    1.00
   6  -3   0   68.31    2.78
   6   3   0   73.19    2.90
   0  -4   0  396.61    7.76
   1  -4   0  154.17    3.25
  -1  -4   0  157.39    3.21
   1  -4   0  152.32    3.26
   1   4   0  158.65    3.25
   2  -4   0   22.50    0.89
  -2  -4   0   22.91    0.78
   2  -4   0   20.99    0.83
   2   4   0   23.03    0.67
   2   4   0   24.66    0.90
   3  -4   0  107.28    2.75
   3  -4   0  105.03    2.68
  -3  -4   0  108.59    2.54
   3   4   0  105.90    2.78
  -4  -4   0   19.09    0.95
   4  -4   0   20.21    1.18
   4  -4   0   18.65    1.13
   4   4   0   18.98    1.15
   5  -4   0   26.97    1.53
   5   4   0   25.10    1.57
   6  -4   0   13.96    1.48
   6   4   0   13.83    1.43
   0  -5   0   -1.05    0.18
   1  -5   0   88.77    2.07
  -1  -5   0   89.39    2.02
   1  -5   0   86.19    2.00
   1   5   0   95.93    2.05
   1   5   0   94.69    2.08
  -2  -5   0  293.99    5.97
   2  -5   0  300.48    6.09
   2  -5   0  289.39    6.17
   2   5   0  283.68    6.02
   2   5   0  303.61    6.27
  -3  -5   0  365.09    7.42
   3  -5   0  365.97    7.58
   3  -5   0  359.90    7.77
   3   5   0  363.29    7.84
   4  -5   0    1.52    0.54
   4  -5   0    0.74    0.48
  -4  -5   0    1.33    0.41
   4   5   0    1.92    0.58
   5  -5   0   11.83    1.21
   5   5   0   12.22    1.26
   6  -5   0   65.79    2.65
   6   5   0   60.53    2.65
   0  -6   0  329.39    6.61
   1  -6   0  160.80    3.43
   1  -6   0  159.58    3.37
  -1  -6   0  156.27    3.36
   1   6   0  164.35    3.44
   1   6   0  157.24    3.43
   2  -6   0    4.34    0.51
  -2  -6   0    5.50    0.47
   2  -6   0    4.58    0.43
   2   6   0    3.58    0.33
   2   6   0    5.25    0.49
   3  -6   0  196.79    4.52
  -3  -6   0  194.75    4.29
   3  -6   0  199.50    4.47
   3   6   0  197.59    4.60
   4  -6   0   15.71    1.09
  -4  -6   0   14.78    0.88
   4  -6   0   15.16    1.04
   4   6   0   17.57    1.15
   5  -6   0   27.78    1.55
   5   6   0   29.41    1.67
   6  -6   0   15.35    1.53
   6   6   0   13.76    1.50
   0  -7   0   -0.24    0.23
   1  -7   0  252.94    5.21
  -1  -7   0  255.43    5.20
   1  -7   0  250.31    5.23
   2  -7   0  167.10    3.77
  -2  -7   0  171.28    3.71
   2  -7   0  169.77    3.82
   2   7   0  173.28    3.87
   2   7   0  171.92    3.71
   3  -7   0  411.67    8.58
  -3  -7   0  409.48    8.25
   3  -7   0  397.14    8.41
   3   7   0  399.34    8.29
   3   7   0  401.23    8.63
   4  -7   0    4.73    0.76
  -4  -7   0    3.92    0.55
   4  -7   0    4.17    0.68
   4   7   0    3.84    0.68
   5  -7   0    7.98    0.99
   5   7   0    8.11    1.07
   6  -7   0   49.67    2.27
   6   7   0   51.20    2.44
   0  -8   0  676.30   13.29
  -1  -8   0  195.95    4.12
   1  -8   0  192.19    4.15
   1  -8   0  191.04    4.06
   2  -8   0   53.37    1.58
   2  -8   0   50.68    1.44
  -2  -8   0   52.57    1.47
   2   8   0   50.80    1.52
   2   8   0   49.96    1.40
   3  -8   0   77.91    2.26
   3  -8   0   76.51    2.15
  -3  -8   0   76.87    2.06
   3   8   0   76.56    1.94
   3   8   0   75.41    2.23
  -4  -8   0   22.68    1.09
   4  -8   0   24.48    1.33
   4  -8   0   25.00    1.27
   4   8   0   24.91    1.34
   5  -8   0   50.23    2.07
   5   8   0   49.51    2.17
   6  -8   0    7.43    1.09
   6   8   0    8.41    1.21
   0  -9   0   -0.58    0.25
   1  -9   0   47.44    1.42
   1  -9   0   46.56    1.24
  -1  -9   0   48.28    1.38
   2  -9   0   40.25    1.39
   2  -9   0   41.04    1.26
  -2  -9   0   42.82    1.32
   2   9   0   42.38    1.35
   3  -9   0  119.17    3.07
  -3  -9   0  117.54    2.90
   3  -9   0  116.24    2.98
   3   9   0  117.75    3.07
   4  -9   0    8.99    0.94
   4  -9   0   11.71    0.97
  -4  -9   0   10.30    0.83
   4   9   0   11.63    1.03
   5  -9   0   12.49    1.17
   5   9   0   13.96    1.30
   6  -9   0   54.73    2.41
   6   9   0   54.24    2.53
   0 -10   0  803.47   15.83
   1 -10   0   40.53    1.14
  -1 -10   0   41.73    1.30
   1 -10   0   41.49    1.35
   2 -10   0    4.12    0.57
  -2 -10   0    5.80    0.58
   2 -10   0    4.26    0.44
   2  10   0    6.29    0.61
   3 -10   0   59.35    1.92
   3 -10   0   55.11    1.76
  -3 -10   0   55.81    1.74
   3  10   0   55.52    1.85
  -4 -10   0   32.02    1.37
   4 -10   0   33.22    1.59
   4 -10   0   33.69    1.48
   4  10   0   34.80    1.57
   5 -10   0   59.52    2.29
   5  10   0   59.63    2.39
   6 -10   0   10.57    1.31
   6  10   0   10.58    1.37
   0 -11   0    0.41    0.32
  -1 -11   0   74.44    2.01
   1 -11   0   72.98    2.04
   1 -11   0   74.23    1.81
   2 -11   0   84.28    2.34
  -2 -11   0   82.23    2.22
   2 -11   0   84.22    2.13
  -3 -11   0  151.23    3.63
   3 -11   0  154.82    3.80
   3 -11   0  152.79    3.68
   3  11   0  147.57    3.77
  -4 -11   0   29.77    1.35
   4 -11   0   34.50    1.61
   4 -11   0   32.45    1.45
   4  11   0   29.84    1.51
   5 -11   0   10.84    1.12
   5  11   0   10.05    1.17
   6 -11   0   41.83    2.12
   6  11   0   45.69    2.45
   0 -12   0  769.56   15.33
   1 -12   0   48.47    1.35
   1 -12   0   50.35    1.63
  -1 -12   0   49.90    1.58
   2 -12   0   29.28    1.06
   2 -12   0   28.33    1.30
  -2 -12   0   30.22    1.19
   3 -12   0   76.75    2.39
  -3 -12   0   76.71    2.22
   3 -12   0   74.86    2.17
   3  12   0   75.87    2.28
  -4 -12   0   39.30    1.56
   4 -12   0   39.31    1.60
   4 -12   0   38.70    1.77
   4  12   0   36.91    1.68
   5 -12   0   34.55    1.74
   5  12   0   36.81    1.88
   6 -12   0    9.28    1.22
   0 -13   0    0.51    0.35
  -1 -13   0   35.64    1.35
   1 -13   0   34.48    1.37
   1 -13   0   35.16    1.09
   2 -13   0  144.83    3.67
  -2 -13   0  147.24    3.56
   2 -13   0  146.59    3.41
   3 -13   0  116.77    3.03
  -3 -13   0  120.51    3.11
   3 -13   0  117.73    3.27
  -4 -13   0   37.38    1.57
   4 -13   0   36.71    1.76
   4 -13   0   36.97    1.57
   4  13   0   36.70    1.67
   5 -13   0    4.81    0.83
   5  13   0    3.76    0.82
   0 -14   0  283.97    6.26
  -1 -14   0   52.39    1.74
   1 -14   0   49.53    1.41
   1 -14   0   48.18    1.72
   2 -14   0   55.25    1.94
  -2 -14   0   55.93    1.83
   2 -14   0   55.79    1.63
   3 -14   0   51.22    1.71
   3 -14   0   52.74    2.00
  -3 -14   0   52.74    1.83
   4 -14   0   24.36    1.52
   4 -14   0   21.61    1.21
  -4 -14   0   21.29    1.27
   0 -15   0    0.06    0.37
   1 -15   0   67.08    1.75
   1 -15   0   63.11    2.10
  -1 -15   0   65.45    2.09
   2 -15   0   67.86    2.23
   2 -15   0   67.25    1.89
  -2 -15   0   69.25    2.16
   3 -15   0  124.82    3.22
   3 -15   0  126.42    3.54
  -3 -15   0  125.29    3.35
   4 -15   0   22.09    1.52
   4 -15   0   23.54    1.30
  -4 -15   0   23.96    1.34
   0 -16   0   98.68    2.81
   1 -16   0   39.35    1.27
  -1 -16   0   42.51    1.64
   1 -16   0   41.40    1.67
   2 -16   0   28.67    1.47
  -2 -16   0   30.80    1.39
   2 -16   0   27.34    1.09
   3 -16   0   50.49    1.79
  -3 -16   0   52.26    1.94
   3 -16   0   55.47    2.15
  -4 -16   0   13.44    1.13
   4 -16   0   15.44    1.34
   0 -17   0    0.29    0.44
  -1 -17   0   37.94    1.60
   1 -17   0   36.49    1.63
   1 -17   0   37.02    1.22
  -2 -17   0   63.28    2.17
   2 -17   0   62.13    2.25
  -3 -17   0   92.67    2.85
   3 -17   0   96.67    3.04
   4 -17   0    0.56    0.70
  -4 -17   0    2.48    0.65
   0 -18   0  363.12    8.06
   1 -18   0   70.56    2.37
  -1 -18   0   67.07    2.32
   2 -18   0   16.79    1.27
  -2 -18   0   17.11    1.16
   3 -18   0   34.76    1.81
  -3 -18   0   36.31    1.69
   4 -18   0    9.50    1.20
  -4 -18   0   12.73    1.20
   0 -19   0    1.16    0.56
  -1 -19   0   89.02    2.81
   1 -19   0   86.09    2.79
  -2 -19   0   29.64    1.52
   2 -19   0   27.20    1.59
  -3 -19   0   79.80    2.73
   3 -19   0   82.77    2.88
   4 -19   0   24.57    1.69
  -4 -19   0   26.01    1.55
   0 -20   0  153.80    4.17
   1 -20   0   57.35    2.25
  -1 -20   0   60.72    2.28
  -2 -20   0   19.33    1.31
   2 -20   0   19.31    1.42
  -3 -20   0   28.64    1.61
   3 -20   0   27.06    1.73
   4 -20   0   15.97    1.56
  -4 -20   0   17.80    1.39
   0 -21   0   -0.09    0.49
   1 -21   0   45.55    2.02
  -1 -21   0   45.93    2.02
   2 -21   0   15.91    1.35
  -2 -21   0   13.86    1.34
  -3 -21   0   45.32    2.05
   3 -21   0   42.26    2.13
  -4 -21   0   27.90    1.68
   4 -21   0   26.75    1.81
   0 -22   0  125.91    3.76
   1 -22   0   24.01    1.56
  -1 -22   0   22.86    1.49
  -2 -22   0   18.30    1.38
   2 -22   0   18.18    1.49
   3 -22   0   15.42    1.56
  -3 -22   0   16.60    1.35
   4 -22   0   13.20    1.49
  -4 -22   0   12.44    1.34
   0 -23   0    0.39    0.62
   1 -23   0   25.63    1.64
  -1 -23   0   23.57    1.57
  -2 -23   0   29.52    1.74
   2 -23   0   31.72    1.87
  -3 -23   0   40.97    2.08
   3 -23   0   41.57    2.21
   4 -23   0   32.55    2.06
  -4 -23   0   33.14    1.90
   0 -24   0   61.88    2.55
  -1 -24   0   14.79    1.37
   1 -24   0   14.91    1.50
   2 -24   0   30.64    1.92
  -2 -24   0   29.32    1.80
   3 -24   0   31.14    2.05
  -3 -24   0   35.88    1.97
   0 -25   0    0.39    0.63
   1 -25   0   33.01    1.96
  -1 -25   0   32.20    1.91
   2 -25   0   32.09    2.03
  -2 -25   0   34.68    1.97
  -3 -25   0   68.82    2.83
   3 -25   0   67.90    2.96
   0 -26   0   62.85    2.74
  -1 -26   0   34.58    2.04
   1 -26   0   35.84    2.09
   2 -26   0   69.06    2.93
  -2 -26   0   62.76    2.72
   0 -27   0    1.41    0.77
  -1 -27   0   29.88    1.96
   1 -27   0   31.25    2.01
   6   0  -1    0.03    0.63
   5   0  -1   15.29    1.25
   4   0  -1   38.39    1.54
   3   0  -1   10.77    0.71
   2   0  -1  794.91   15.92
   1   0  -1   65.94    1.51
   0   0   1   10.02    0.42
   1   0   1  262.23    5.38
   1   0   1  263.45    5.43
   2   0   1  371.33    7.67
   2   0   1  360.35    7.53
   3   0   1   14.13    0.89
   3   0   1   13.45    0.98
   4   0   1    0.59    0.54
   4   0   1    0.92    0.63
   5   0   1   29.29    1.70
   5   0   1   29.68    1.68
   6   0   1    1.28    0.79
   6  -1  -1    1.58    0.75
   6   1  -1    1.41    0.75
   5  -1  -1  163.24    4.35
   5   1  -1  161.03    4.36
   4  -1  -1  121.83    3.27
   4   1  -1  123.26    3.29
   3  -1  -1   13.11    0.78
   3   1  -1   12.90    0.78
   2  -1  -1  118.30    2.68
   2   1  -1  111.98    2.66
   1  -1  -1  433.62    8.57
   1   1  -1  420.76    8.53
   0  -1   1   94.22    1.99
   0   1   1   92.54    1.99
   1  -1   1  188.09    3.90
   1  -1   1  187.95    3.87
   1   1   1  183.83    3.91
   1   1   1  175.99    3.87
   2  -1   1    5.97    0.62
   2  -1   1    5.20    0.49
   2   1   1    4.99    0.52
   2   1   1    5.95    0.60
   3  -1   1   26.25    1.18
   3  -1   1   24.95    1.24
   3   1   1   26.04    1.26
   3   1   1   25.76    1.17
   4  -1   1  257.51    5.93
   4  -1   1  256.75    6.02
   4   1   1  259.20    6.08
   4   1   1  247.40    5.87
   5  -1   1   37.27    1.86
   5  -1   1   38.12    1.91
   5   1   1   33.79    1.81
   6  -1   1    1.02    0.77
   6   1   1    1.20    0.82
   6  -2  -1    1.03    0.72
   6   2  -1   -0.05    0.65
   5  -2  -1    5.15    0.87
   5   2  -1    3.41    0.78
   4  -2  -1   56.98    1.95
   4   2  -1   56.72    1.96
   4   2  -1   55.68    1.56
   3  -2  -1    1.31    0.39
   3   2  -1    1.58    0.39
   3   2  -1    1.88    0.29
   2  -2  -1  361.04    7.54
   2   2  -1  367.71    7.53
   1  -2  -1  284.36    5.88
   1   2  -1  293.01    5.83
   0  -2   1   47.78    1.14
   0  -2  -1   46.19    1.08
   1  -2   1  560.66   11.52
   1  -2   1  575.79   11.35
   1   2   1  585.74   11.36
   1   2   1  589.21   11.61
   2  -2   1  257.71    5.57
   2  -2   1  265.08    5.61
   2   2   1  260.11    5.57
   2   2   1  263.91    5.65
   3  -2   1   42.47    1.51
   3  -2   1   43.55    1.64
   3   2   1   41.71    1.53
   3   2   1   41.25    1.56
   4  -2   1    8.84    0.98
   4  -2   1   13.83    1.23
   4   2   1    9.59    1.00
   4   2   1    9.51    1.02
  -5  -2  -1   22.67    1.29
   5  -2   1   21.14    1.58
   5  -2   1   23.08    1.54
   5   2   1   24.38    1.56
   6  -2   1   15.04    1.53
   6   2   1   16.41    1.68
   6  -3  -1    0.88    0.71
   6   3  -1    0.05    0.69
   5  -3  -1   63.13    2.35
   5   3  -1   67.80    2.40
   4  -3  -1  107.84    2.99
  -4  -3   1  106.25    2.51
   4   3  -1  109.96    3.02
   4   3  -1  107.22    2.59
  -3  -3   1   12.03    0.54
   3  -3  -1   12.54    0.76
   3   3  -1   12.32    0.77
   3   3  -1   11.50    0.58
   2  -3  -1  129.04    2.84
   2   3  -1  122.82    2.80
   2   3  -1  113.65    2.69
   1  -3  -1  363.46    7.27
  -1  -3   1  374.32    7.29
   1  -3  -1  386.93    7.60
   1   3  -1  379.40    7.57
   1   3  -1  373.04    7.59
   0  -3  -1    2.34    0.24
   0  -3   1    3.25    0.31
   0   3  -1    1.56    0.21
   1  -3   1  332.47    7.32
   1  -3   1  387.31    7.36
   1   3   1  372.00    7.45
   2  -3   1   15.55    0.74
   2  -3   1   15.86    0.87
   2   3   1   15.16    0.83
   2   3   1   16.03    0.80
   3  -3   1   15.91    1.06
   3  -3   1   16.55    0.95
   3   3   1   17.66    0.98
   4  -3   1  192.49    4.72
   4  -3   1  185.30    4.69
   4   3   1  188.59    4.74
   5  -3   1   16.60    1.34
   5  -3   1   15.54    1.44
  -5  -3  -1   16.13    1.14
   5   3   1   17.47    1.41
   6  -3   1    2.62    0.87
   6   3   1    1.87    0.87
   6  -4  -1    0.63    0.66
   6   4  -1    0.75    0.72
   5  -4  -1    8.37    1.04
   5   4  -1    7.11    0.94
   4  -4  -1   41.68    1.62
  -4  -4   1   40.63    1.26
   4   4  -1   44.45    1.69
   3  -4  -1   18.10    0.92
  -3  -4   1   17.74    0.68
   3   4  -1   17.49    0.72
   3   4  -1   18.87    0.93
  -2  -4   1  407.20    8.22
   2  -4  -1  426.38    8.67
   2   4  -1  432.09    8.63
   2   4  -1  417.03    8.56
  -1  -4   1   59.86    1.34
   1  -4  -1   56.88    1.31
   1  -4  -1   59.60    1.42
   1   4  -1   53.20    1.31
   1   4  -1   55.41    1.39
   0  -4   1   36.89    1.02
   0   4  -1   36.13    0.96
   1  -4   1  532.64   10.60
  -1  -4  -1  531.91   10.43
   1  -4   1  530.33   10.54
   2  -4   1  335.91    6.97
  -2  -4  -1  328.59    6.79
   2  -4   1  329.67    6.95
   2   4   1  335.37    7.08
   3  -4   1    8.12    0.74
  -3  -4  -1    7.32    0.66
   3  -4   1   10.06    0.91
   3   4   1    8.13    0.78
  -4  -4  -1    8.93    0.83
   4  -4   1    7.44    1.00
   4  -4   1    8.38    0.92
   4   4   1    8.01    0.92
   5  -4   1   10.43    1.16
   5  -4   1   12.50    1.33
  -5  -4  -1   11.11    1.02
   5   4   1   13.56    1.38
   6  -4   1   16.21    1.60
   6   4   1   18.98    1.69
   6  -5  -1    0.35    0.64
   6   5  -1   -0.11    0.67
   5  -5  -1   72.71    2.54
   5   5  -1   76.12    2.63
   4  -5  -1  149.88    3.84
  -4  -5   1  153.42    3.39
   4   5  -1  144.33    3.44
   4   5  -1  157.40    3.89
  -3  -5   1   12.96    0.62
   3  -5  -1   12.49    0.80
   3   5  -1   13.72    0.64
   3   5  -1   13.78    0.83
   2  -5  -1   77.45    1.98
   2  -5  -1   77.56    1.82
  -2  -5   1   78.66    1.80
   2   5  -1   81.64    1.96
   2   5  -1   75.90    1.89
  -1  -5   1  271.57    5.45
   1  -5  -1  277.52    5.63
   1  -5  -1  265.94    5.43
   1   5  -1  268.51    5.50
   1   5  -1  275.53    5.63
   0  -5  -1   36.45    1.00
   0  -5   1   37.25    1.07
   0   5  -1   38.58    1.03
   1  -5   1  242.61    5.10
   1  -5   1  250.63    5.25
  -1  -5  -1  257.28    5.14
   2  -5   1   13.84    0.84
  -2  -5  -1   13.35    0.71
   2  -5   1   13.89    0.68
   2   5   1   14.97    0.80
   3  -5   1   21.06    1.21
  -3  -5  -1   21.74    1.01
   3  -5   1   21.04    1.05
   3   5   1   23.07    1.12
  -4  -5  -1  183.01    4.32
   4  -5   1  181.21    4.59
   4  -5   1  182.45    4.53
   4   5   1  177.75    4.62
   5  -5   1   24.70    1.52
  -5  -5  -1   25.47    1.38
   5  -5   1   29.62    1.79
   5   5   1   26.64    1.66
   6  -5   1    3.34    0.91
   6   5   1    2.02    0.92
   6  -6  -1    0.04    0.65
   6   6  -1    0.50    0.71
   5  -6  -1    6.76    0.94
   5   6  -1    6.18    0.93
  -4  -6   1   45.13    1.39
   4  -6  -1   44.46    1.70
   4   6  -1   44.03    1.38
   4   6  -1   47.99    1.77
   3  -6  -1   13.98    0.83
   3  -6  -1   12.63    0.77
  -3  -6   1   12.68    0.63
   3   6  -1   12.89    0.64
   3   6  -1   13.10    0.81
  -2  -6   1  479.84    9.60
   2  -6  -1  496.69   10.00
   2  -6  -1  484.50    9.63
   2   6  -1  480.80    9.92
   2   6  -1  495.44    9.94
   1  -6  -1   87.85    2.00
  -1  -6   1   86.98    2.01
   1  -6  -1   87.62    2.04
   1   6  -1   87.25    2.05
   1   6  -1   84.78    1.91
   0  -6   1   46.28    1.26
   0  -6  -1   45.36    1.19
   0   6  -1   43.82    1.20
  -1  -6  -1  738.38   14.39
   1  -6   1  736.09   14.52
   1  -6   1  737.82   14.59
   2  -6   1  179.63    3.91
  -2  -6  -1  173.10    3.87
   2  -6   1  171.06    4.05
   2   6   1  179.76    4.08
   3  -6   1   16.82    0.95
  -3  -6  -1   15.71    0.90
   3  -6   1   17.74    1.14
   3   6   1   18.12    1.03
   4  -6   1    0.19    0.62
  -4  -6  -1    0.32    0.48
   4  -6   1    0.02    0.43
   4   6   1    0.46    0.48
  -5  -6  -1   27.72    1.44
   5  -6   1   28.48    1.61
   5  -6   1   29.25    1.82
   5   6   1   27.94    1.71
   6  -6   1    6.25    1.10
   6   6   1    8.33    1.31
   6  -7  -1    2.08    0.80
   6   7  -1    3.34    0.94
   5  -7  -1  101.61    3.19
   5   7  -1  109.61    3.31
   4  -7  -1   99.74    2.86
   4  -7  -1   99.06    2.65
  -4  -7   1  102.79    2.50
   4   7  -1   99.61    2.51
   4   7  -1  103.15    2.90
   3  -7  -1   25.68    1.03
  -3  -7   1   24.39    0.92
   3  -7  -1   25.93    1.10
   3   7  -1   24.59    0.92
   3   7  -1   26.57    1.12
   2  -7  -1   64.95    1.77
  -2  -7   1   65.07    1.65
   2  -7  -1   64.66    1.69
   2   7  -1   67.11    1.72
   2   7  -1   66.89    1.71
   1  -7  -1  419.81    8.72
  -1  -7   1  428.56    8.55
   1  -7  -1  436.52    8.54
   1   7  -1  432.13    8.78
   1   7  -1  426.27    8.59
   0  -7   1   64.05    1.66
   0  -7  -1   65.94    1.61
   0   7  -1   63.40    1.63
   1  -7   1  352.07    7.26
  -1  -7  -1  356.59    7.15
   1  -7   1  350.43    7.10
   2  -7   1   14.14    0.69
  -2  -7  -1   14.26    0.76
   2  -7   1   14.99    0.90
   2   7   1   15.11    0.81
   3  -7   1   10.50    0.80
  -3  -7  -1    9.17    0.75
   3  -7   1   12.41    1.02
   3   7   1   11.12    0.89
   4  -7   1  116.66    3.23
   4  -7   1  119.32    3.40
  -4  -7  -1  113.63    3.05
   4   7   1  114.93    3.37
  -5  -7  -1   34.83    1.63
   5  -7   1   36.27    1.83
   5  -7   1   39.89    2.07
   5   7   1   37.41    1.97
   6  -7   1    1.53    0.75
   6   7   1    1.36    0.85
   6  -8  -1    5.27    1.02
   6   8  -1    4.25    0.96
   5  -8  -1    2.94    0.73
   5   8  -1    2.94    0.78
   4  -8  -1   60.01    1.99
  -4  -8   1   57.00    1.65
   4  -8  -1   57.33    1.82
   4   8  -1   51.25    1.93
   4   8  -1   49.43    1.59
  -3  -8   1   11.78    0.69
   3  -8  -1   13.61    0.84
   3  -8  -1   12.41    0.80
   3   8  -1   11.43    0.66
   3   8  -1   13.18    0.82
   2  -8  -1  317.21    6.59
   2  -8  -1  309.53    6.37
  -2  -8   1  305.68    6.35
   2   8  -1  304.84    6.52
   2   8  -1  311.41    6.51
   1  -8  -1   85.14    2.02
   1  -8  -1   82.96    1.99
  -1  -8   1   83.86    2.03
   1   8  -1   76.55    1.84
   1   8  -1   80.55    2.03
   0  -8   1   59.01    1.60
   0  -8  -1   56.42    1.53
   0   8  -1   60.15    1.56
   1  -8   1  331.18    6.98
  -1  -8  -1  340.15    6.88
   2  -8   1  161.98    3.88
   2  -8   1  164.67    3.66
  -2  -8  -1  164.56    3.71
   3  -8   1   15.30    0.90
  -3  -8  -1   15.71    0.92
   3  -8   1   15.39    1.13
   3   8   1   16.21    1.03
   4  -8   1   17.39    1.41
   4  -8   1   18.61    1.19
  -4  -8  -1   18.47    1.10
   4   8   1   18.00    1.29
   5  -8   1   22.02    1.48
  -5  -8  -1   24.26    1.35
   5  -8   1   25.62    1.79
   5   8   1   24.86    1.67
   6  -8   1   11.06    1.33
   6  -9  -1    3.92    0.89
   6   9  -1    4.27    0.94
   5  -9  -1   96.15    3.05
   5   9  -1   98.08    3.12
   4  -9  -1   55.80    1.87
  -4  -9   1   55.96    1.71
   4  -9  -1   57.99    2.01
   4   9  -1   55.77    1.70
   4   9  -1   58.84    2.04
  -3  -9   1    9.50    0.66
   3  -9  -1   10.11    0.77
   3  -9  -1   11.48    0.80
   3   9  -1    8.35    0.73
   3   9  -1    8.35    0.61
   2  -9  -1   85.31    2.19
   2  -9  -1   86.28    2.23
  -2  -9   1   85.62    2.17
   2   9  -1   90.49    2.22
   1  -9  -1  315.63    6.59
   1  -9  -1  313.80    6.52
  -1  -9   1  316.45    6.55
   1   9  -1  317.48    6.67
   0  -9   1   27.33    1.01
   0  -9  -1   24.49    0.93
   0   9  -1   26.50    0.94
   1  -9   1   78.40    2.13
  -1  -9  -1   78.99    2.03
  -2  -9  -1   16.95    0.85
   2  -9   1   16.36    0.74
   2  -9   1   16.88    0.99
  -3  -9  -1   33.76    1.31
   3  -9   1   32.05    1.28
   3  -9   1   32.11    1.52
   3   9   1   30.69    1.39
   4  -9   1  211.46    5.05
   4  -9   1  205.32    5.20
  -4  -9  -1  205.22    4.84
   4   9   1  203.40    5.20
   5  -9   1   29.90    1.90
   5  -9   1   29.20    1.66
  -5  -9  -1   32.54    1.55
   5   9   1   34.98    1.92
   6  -9   1    2.20    0.81
   6 -10  -1    3.71    0.89
   6  10  -1    3.45    0.92
   5 -10  -1    4.14    0.81
   5  10  -1    6.06    0.91
   4 -10  -1   22.90    1.26
  -4 -10   1   22.22    1.07
   4 -10  -1   23.59    1.24
   4  10  -1   25.57    1.33
   4  10  -1   25.89    1.07
  -3 -10   1    6.86    0.64
   3 -10  -1    6.24    0.66
   3 -10  -1    6.84    0.71
   3  10  -1    7.15    0.70
   3  10  -1    6.42    0.58
  -2 -10   1  202.86    4.48
   2 -10  -1  203.09    4.47
   2 -10  -1  203.70    4.54
   2  10  -1  202.03    4.46
   2  10  -1  202.99    4.54
   1 -10  -1  100.43    2.43
  -1 -10   1  101.74    2.52
   1 -10  -1   99.25    2.49
   1  10  -1  104.51    2.52
   0 -10   1   97.18    2.48
   0 -10  -1  100.63    2.43
  -1 -10  -1  207.98    4.61
   1 -10   1  216.57    4.78
  -2 -10  -1  117.91    2.93
   2 -10   1  116.81    3.10
   2 -10   1  120.14    2.78
  -3 -10  -1   21.85    1.08
   3 -10   1   20.61    1.30
   3 -10   1   18.71    0.98
   4 -10   1    0.88    0.67
  -4 -10  -1    0.84    0.50
   4 -10   1    0.29    0.47
   4  10   1    1.44    0.62
   5 -10   1   28.55    1.61
  -5 -10  -1   29.65    1.51
   5 -10   1   27.33    1.86
   5  10   1   29.08    1.82
   6 -11  -1    2.75    0.81
   6  11  -1    3.40    0.92
   5 -11  -1  116.55    3.48
   5  11  -1  115.61    3.52
   4 -11  -1   57.86    2.00
   4 -11  -1   52.13    1.92
  -4 -11   1   55.14    1.77
   4  11  -1   56.16    2.00
   4  11  -1   54.50    1.72
  -3 -11   1    3.96    0.55
   3 -11  -1    4.61    0.59
   3 -11  -1    4.27    0.61
   3  11  -1    6.49    0.66
   3  11  -1    5.79    0.58
  -2 -11   1   65.46    1.92
   2 -11  -1   68.13    1.91
   2 -11  -1   68.91    1.94
   2  11  -1   68.10    1.83
   2  11  -1   69.11    1.92
   1 -11  -1  318.74    6.70
  -1 -11   1  316.05    6.72
   1 -11  -1  314.41    6.69
   1  11  -1  322.60    6.82
   0 -11  -1   47.03    1.46
   0 -11   1   46.68    1.52
   1 -11   1  158.67    3.77
  -1 -11  -1  155.53    3.62
   2 -11   1    6.29    0.52
  -2 -11  -1    7.47    0.72
   2 -11   1    6.67    0.80
   3 -11   1    5.90    0.88
  -3 -11  -1    6.38    0.73
   3 -11   1    5.52    0.62
   4 -11   1  115.22    3.22
   4 -11   1  119.32    3.50
  -4 -11  -1  116.34    3.19
   5 -11   1   31.55    1.93
  -5 -11  -1   26.94    1.50
   5  11   1   28.99    1.75
   6 -12  -1    7.99    1.17
   6  12  -1    7.90    1.13
   5 -12  -1   10.57    1.13
   5  12  -1    9.16    1.06
  -4 -12   1   31.80    1.32
   4 -12  -1   27.55    1.47
   4 -12  -1   32.65    1.48
   4  12  -1   30.34    1.46
   4  12  -1   31.58    1.25
  -3 -12   1   14.11    0.88
   3 -12  -1   16.01    0.93
   3 -12  -1   13.09    0.95
   3  12  -1   14.33    0.83
   3  12  -1   13.57    0.88
  -2 -12   1  266.69    5.87
   2 -12  -1  269.59    5.84
   2 -12  -1  268.10    5.88
   2  12  -1  270.20    5.93
  -1 -12   1   70.55    2.02
   1 -12  -1   68.92    1.87
   1 -12  -1   68.69    2.01
   1  12  -1   72.49    1.99
   0 -12  -1   41.63    1.41
   0 -12   1   41.56    1.46
  -1 -12  -1  249.74    5.45
   1 -12   1  249.27    5.58
   2 -12   1  117.64    2.79
   2 -12   1  116.14    3.21
  -2 -12  -1  122.96    3.04
   3 -12   1   18.69    1.29
  -3 -12  -1   16.81    1.07
   3 -12   1   17.69    0.93
  -4 -12  -1    0.67    0.52
   4 -12   1    0.72    0.68
   4 -12   1   -0.23    0.38
   5 -12   1   21.18    1.72
  -5 -12  -1   20.34    1.35
   6 -13  -1    7.63    1.14
   6  13  -1    4.71    0.99
   5 -13  -1   74.06    2.61
   5  13  -1   72.41    2.63
   4 -13  -1   92.34    2.78
   4 -13  -1   85.60    2.75
  -4 -13   1   91.56    2.59
   4  13  -1   92.67    2.56
   4  13  -1   94.20    2.79
   3 -13  -1   32.99    1.41
   3 -13  -1   33.27    1.35
  -3 -13   1   32.56    1.35
   3  13  -1   34.93    1.31
   3  13  -1   32.22    1.31
   2 -13  -1   46.37    1.62
  -2 -13   1   47.90    1.63
   2 -13  -1   48.42    1.54
   2  13  -1   46.53    1.56
   1 -13  -1  130.79    3.26
   1 -13  -1  133.40    3.12
  -1 -13   1  129.61    3.27
   0 -13  -1   23.95    1.11
   0 -13   1   26.98    1.19
  -1 -13  -1  110.43    2.83
   1 -13   1  110.32    2.97
   2 -13   1   37.59    1.19
  -2 -13  -1   36.38    1.44
   2 -13   1   38.27    1.61
   3 -13   1   15.09    1.22
  -3 -13  -1   15.54    1.06
   3 -13   1   15.27    0.91
  -4 -13  -1  149.29    3.90
   4 -13   1  148.84    4.19
  -5 -13  -1   16.94    1.26
   5 -13   1   16.23    1.57
   6 -14  -1    2.76    0.83
   5 -14  -1    8.77    1.06
   5  14  -1   10.11    1.08
   4 -14  -1   32.94    1.53
   4 -14  -1   26.16    1.63
  -4 -14   1   30.06    1.39
   4  14  -1   31.00    1.46
   4  14  -1   30.16    1.30
  -3 -14   1   13.30    0.92
   3 -14  -1   12.70    0.91
   3 -14  -1   12.30    1.01
   3  14  -1   12.41    0.83
   3  14  -1   13.89    0.87
   2 -14  -1  185.68    4.31
   2 -14  -1  187.54    4.39
  -2 -14   1  183.61    4.41
   2  14  -1  186.10    4.40
   1 -14  -1   81.10    2.34
   1 -14  -1   80.30    2.15
  -1 -14   1   81.37    2.35
   0 -14  -1   66.52    2.04
   0 -14   1   63.78    2.04
  -1 -14  -1  184.46    4.33
   1 -14   1  185.06    4.48
  -2 -14  -1  159.90    3.89
   2 -14   1  155.62    4.05
   3 -14   1   14.98    1.24
  -3 -14  -1   13.05    1.03
   4 -14   1    1.41    0.77
  -4 -14  -1    1.67    0.61
  -5 -14  -1   11.64    1.18
   5 -14   1   10.43    1.35
   5 -15  -1   19.03    1.36
   5  15  -1   17.44    1.36
  -4 -15   1   60.35    2.10
   4 -15  -1   60.01    2.17
   4  15  -1   61.16    2.14
   3 -15  -1   51.66    1.92
   3 -15  -1   54.53    1.82
  -3 -15   1   51.65    1.87
  -2 -15   1   30.67    1.36
   2 -15  -1   28.84    1.19
   2 -15  -1   29.07    1.35
   1 -15  -1  104.22    2.85
  -1 -15   1  103.02    2.86
   1 -15  -1  103.25    2.63
   0 -15   1    1.12    0.45
   0 -15  -1    1.14    0.48
  -1 -15  -1  107.78    2.90
   1 -15   1  106.61    3.02
  -2 -15  -1   34.15    1.47
   2 -15   1   34.40    1.60
  -3 -15  -1   11.87    1.05
   3 -15   1   13.21    1.20
  -4 -15  -1   75.41    2.51
   4 -15   1   73.83    2.78
  -5 -15  -1    5.98    0.93
   5 -15   1    5.45    1.28
   5 -16  -1    6.95    0.97
   4 -16  -1   31.72    1.55
  -4 -16   1   33.31    1.53
  -3 -16   1    9.11    0.94
   3 -16  -1    9.02    0.83
   3 -16  -1    9.24    0.96
  -2 -16   1  137.61    3.60
   2 -16  -1  137.40    3.57
   2 -16  -1  134.91    3.39
   1 -16  -1   18.86    0.91
   1 -16  -1   18.88    1.14
  -1 -16   1   17.01    1.08
   0 -16  -1   30.70    1.41
   0 -16   1   32.95    1.46
   1 -16   1  169.31    4.30
  -1 -16  -1  168.49    4.17
  -2 -16  -1  110.63    3.08
   2 -16   1  110.21    3.23
  -3 -16  -1   27.91    1.48
   3 -16   1   31.22    1.68
   4 -16   1    0.37    0.70
  -4 -16  -1    0.40    0.57
  -5 -16  -1   15.14    1.42
   4 -17  -1   67.20    2.31
  -4 -17   1   62.83    2.29
  -3 -17   1   34.88    1.58
   3 -17  -1   31.63    1.59
   3 -17  -1   33.89    1.44
  -2 -17   1   33.50    1.52
   2 -17  -1   32.40    1.30
   2 -17  -1   32.71    1.53
   1 -17  -1   58.05    1.80
  -1 -17   1   59.59    2.08
   1 -17  -1   62.57    2.13
   0 -17  -1   11.09    0.98
   0 -17   1   11.35    0.99
  -1 -17  -1   37.60    1.60
   1 -17   1   36.15    1.67
  -2 -17  -1   31.85    1.50
   2 -17   1   31.68    1.65
  -3 -17  -1   27.48    1.50
   3 -17   1   28.76    1.70
  -4 -17  -1   79.30    2.68
   4 -17   1   74.30    2.88
  -5 -17  -1   28.47    1.69
  -4 -18   1   15.68    1.18
  -3 -18   1    4.73    0.75
   3 -18  -1    6.05    0.72
   3 -18  -1    6.07    0.88
   2 -18  -1  189.23    4.45
   2 -18  -1  183.72    4.66
  -2 -18   1  185.87    4.72
   1 -18  -1   17.71    1.23
   1 -18  -1   17.27    0.92
  -1 -18   1   15.05    1.10
   0 -18  -1   44.91    1.85
   0 -18   1   46.19    1.85
   1 -18   1   87.19    2.81
  -1 -18  -1   88.45    2.74
  -2 -18  -1   84.85    2.67
   2 -18   1   82.86    2.80
  -3 -18  -1   19.07    1.33
   3 -18   1   18.23    1.48
   4 -18   1    2.27    0.86
  -4 -18  -1    1.00    0.61
  -5 -18  -1   29.90    1.76
  -4 -19   1   31.40    1.65
  -3 -19   1   40.01    1.79
   3 -19  -1   36.04    1.80
   2 -19  -1   29.19    1.55
  -2 -19   1   28.65    1.50
   2 -19  -1   28.41    1.25
   1 -19  -1  100.84    3.08
  -1 -19   1  102.53    3.07
   1 -19  -1  101.00    2.72
   0 -19   1   20.35    1.32
   0 -19  -1   21.30    1.34
  -1 -19  -1   46.95    1.95
   1 -19   1   45.47    1.99
   2 -19   1   20.37    1.46
  -2 -19  -1   17.77    1.29
  -3 -19  -1   18.30    1.36
   3 -19   1   21.14    1.59
   4 -19   1   59.95    2.69
  -4 -19  -1   63.50    2.45
  -4 -20   1   21.45    1.47
  -3 -20   1    6.46    0.94
   3 -20  -1    6.31    0.98
   2 -20  -1   77.34    2.66
  -2 -20   1   79.29    2.67
  -1 -20   1   55.18    2.16
   1 -20  -1   57.28    1.84
   1 -20  -1   55.87    2.21
   0 -20   1   58.82    2.25
   0 -20  -1   56.48    2.21
  -1 -20  -1   91.70    2.98
   1 -20   1   93.09    3.05
   2 -20   1   41.89    2.01
  -2 -20  -1   38.60    1.85
  -3 -20  -1   28.75    1.64
   3 -20   1   27.78    1.82
  -4 -20  -1   -0.21    0.53
   4 -20   1    0.83    0.85
  -3 -21   1   21.88    1.45
   3 -21  -1   20.50    1.54
   2 -21  -1   13.71    1.25
  -2 -21   1   13.42    1.19
  -1 -21   1   87.16    2.94
   1 -21  -1   94.18    3.02
   0 -21  -1   14.15    1.27
   0 -21   1   12.33    1.20
  -1 -21  -1   37.92    1.85
   1 -21   1   36.60    1.91
  -2 -21  -1   22.77    1.54
   2 -21   1   25.82    1.70
   3 -21   1   17.33    1.73
  -3 -21  -1   18.58    1.44
  -4 -21  -1   64.44    2.57
   4 -21   1   57.08    2.74
   3 -22  -1    2.53    0.85
  -3 -22   1    2.07    0.69
   2 -22  -1   46.41    2.12
  -2 -22   1   47.60    2.10
  -1 -22   1   33.97    1.78
   1 -22  -1   32.79    1.80
   0 -22   1   54.24    2.26
   0 -22  -1   49.86    2.21
   1 -22   1   55.97    2.41
  -1 -22  -1   56.75    2.35
  -2 -22  -1   30.18    1.77
   2 -22   1   32.98    1.92
  -3 -22  -1   16.43    1.42
   3 -22   1   13.42    1.55
   4 -22   1    1.10    0.93
  -3 -23   1   22.23    1.53
   3 -23  -1   21.21    1.65
  -2 -23   1   20.68    1.48
   2 -23  -1   26.58    1.67
  -1 -23   1   62.38    2.51
   1 -23  -1   63.83    2.55
   0 -23  -1   12.45    1.31
   0 -23   1   11.39    1.25
  -1 -23  -1   39.84    2.06
   1 -23   1   43.63    2.17
  -2 -23  -1   17.96    1.48
   2 -23   1   19.15    1.64
  -3 -23  -1   11.19    1.33
   3 -23   1   10.86    1.50
  -3 -24   1    7.41    1.11
   3 -24  -1   10.07    1.35
   2 -24  -1   63.73    2.60
  -2 -24   1   59.28    2.51
  -1 -24   1   24.97    1.71
   1 -24  -1   28.02    1.80
   0 -24   1   47.66    2.27
   0 -24  -1   48.92    2.30
   1 -24   1   78.47    3.02
  -1 -24  -1   77.64    2.96
   2 -24   1   28.62    1.93
  -2 -24  -1   23.23    1.69
  -3 -24  -1   13.93    1.51
   3 -24   1   13.79    1.69
  -3 -25   1   50.00    2.34
   3 -25  -1   51.78    2.48
   2 -25  -1    8.49    1.20
  -2 -25   1   10.92    1.30
   1 -25  -1   35.84    2.05
  -1 -25   1   34.61    2.00
   0 -25   1   11.78    1.39
   0 -25  -1   10.09    1.30
  -1 -25  -1   39.75    2.13
   1 -25   1   36.90    2.15
  -2 -25  -1   33.17    1.98
   2 -25   1   32.56    2.10
   3 -26  -1   10.55    1.47
   2 -26  -1   53.74    2.54
  -2 -26   1   58.71    2.59
   1 -26  -1    9.75    1.33
  -1 -26   1   11.97    1.35
   0 -26   1   44.85    2.33
   0 -26  -1   51.11    2.46
   1 -26   1   30.76    2.03
  -1 -26  -1   29.50    1.94
   2 -27  -1   20.34    1.84
  -1 -27   1   19.47    1.70
   1 -27  -1   21.86    1.75
   0 -27   1    1.98    0.86
   0 -27  -1    2.69    0.93
   6   0  -2   69.36    2.73
   5   0  -2    3.78    0.80
   4   0  -2   34.22    1.45
   3   0  -2   -0.26    0.35
   2   0  -2   15.58    0.73
   1   0  -2  782.17   15.55
   0   0   2 1000.00   19.34
   1   0   2    7.75    0.69
   2   0   2   18.10    1.04
   2   0   2   18.84    0.91
   3   0   2  173.05    4.27
   3   0   2  166.92    4.19
   4   0   2    4.19    0.77
   4   0   2    4.63    0.97
   5   0   2   48.60    2.31
   5   0   2   57.82    2.45
   6   0   2    1.56    0.97
   6  -1  -2   32.79    1.93
   6   1  -2   28.07    1.82
   5  -1  -2    2.51    0.68
   5   1  -2    1.45    0.66
   4  -1  -2   36.88    1.52
   4   1  -2   38.28    1.55
   3  -1  -2  231.75    5.18
   3   1  -2  229.91    5.17
   2  -1  -2   21.77    0.85
   2   1  -2   21.70    0.84
   1  -1  -2   27.63    0.87
   1   1  -2   27.59    0.83
   0  -1   2  265.26    5.52
   0   1   2  274.80    5.52
   1  -1   2    0.04    0.33
   1   1   2    0.08    0.35
   2  -1   2  158.18    3.74
   2  -1   2  162.57    3.88
   2   1   2  159.62    3.77
   2   1   2  158.52    3.81
   3  -1   2   39.63    1.74
   3  -1   2   38.76    1.57
   3   1   2   42.15    1.63
   3   1   2   41.11    1.77
   4  -1   2    4.76    0.82
   4  -1   2    4.84    0.97
   4   1   2    6.62    1.03
   4   1   2    6.20    0.90
   5  -1   2   87.48    3.20
   5  -1   2   88.96    3.12
   5   1   2   87.12    3.14
   6  -1   2   43.26    2.39
   6  -2  -2   65.37    2.61
   6   2  -2   55.68    2.47
   5  -2  -2    3.70    0.78
   5   2  -2    5.04    0.86
   4  -2  -2   51.63    1.83
   4   2  -2   53.24    1.86
   4   2  -2   49.03    1.59
   3  -2  -2   20.70    1.01
   3   2  -2   22.63    1.03
   2  -2  -2   17.45    0.79
   2   2  -2   18.42    0.77
   1  -2  -2  522.04   10.40
   1   2  -2  508.40   10.30
   0  -2   2  361.10    7.08
   0   2   2  344.31    7.06
   0   2  -2  347.16    7.14
   1  -2   2   28.60    1.13
   1   2   2   29.37    1.13
   2  -2   2   48.26    1.52
   2  -2   2   54.04    1.74
   2   2   2   50.14    1.74
   2   2   2   48.04    1.58
   3  -2   2  179.68    4.45
   3  -2   2  185.90    4.61
   3   2   2  192.43    4.62
   3   2   2  180.68    4.54
   4  -2   2   -0.54    0.69
   4  -2   2    0.34    0.52
   4   2   2    0.63    0.56
   4   2   2   -0.81    0.64
   5  -2   2   50.55    2.28
   5  -2   2   49.73    2.37
   5   2   2   45.46    2.29
   6  -2   2    1.03    0.87
   6  -3  -2   31.17    1.87
   6   3  -2   31.85    1.87
   5  -3  -2    0.99    0.61
   5   3  -2    0.62    0.64
   4  -3  -2   50.68    1.84
   4   3  -2   54.59    1.87
   4   3  -2   50.60    1.62
   3  -3  -2  353.72    7.61
   3   3  -2  349.98    7.45
   3   3  -2  357.57    7.57
   2  -3  -2   47.36    1.41
   2   3  -2   47.85    1.36
   1  -3  -2   23.26    0.82
  -1  -3   2   24.41    0.73
   1  -3  -2   23.10    0.66
   1   3  -2   23.53    0.71
   1   3  -2   23.39    0.82
   0  -3   2  115.52    2.68
   0   3  -2  120.30    2.64
  -1   3  -2    3.73    0.32
   1   3   2    4.48    0.53
   2  -3   2  254.52    5.51
   2  -3   2  253.08    5.64
   2   3   2  249.10    5.59
   3  -3   2   36.85    1.47
   3  -3   2   39.69    1.76
   3   3   2   38.93    1.65
   3   3   2   35.27    1.53
   4  -3   2    2.71    0.90
   4  -3   2    3.15    0.70
   4   3   2    1.66    0.67
  -5  -3  -2   44.53    1.94
   5  -3   2   47.50    2.20
   5  -3   2   46.42    2.33
   5   3   2   47.66    2.25
   6  -3   2   27.81    1.97
   6  -4  -2   39.58    2.07
   6   4  -2   41.73    2.09
   5  -4  -2   22.65    1.41
   5   4  -2   20.06    1.39
   4  -4  -2   54.77    1.92
   4   4  -2   54.73    1.91
   4   4  -2   55.74    1.72
   3  -4  -2    5.91    0.63
   3   4  -2    5.85    0.55
   3   4  -2    5.71    0.62
   2  -4  -2   15.45    0.76
   2   4  -2   16.60    0.72
   2   4  -2   16.04    0.74
  -1  -4   2  282.65    5.69
   1  -4  -2  279.80    5.92
   1   4  -2  282.07    5.74
   1   4  -2  287.48    5.94
   0  -4   2  378.70    7.70
   0  -4  -2  383.01    7.59
   0   4  -2  380.67    7.79
   1  -4   2   14.08    0.82
  -1   4  -2   12.94    0.53
   2  -4   2   59.25    1.91
   2  -4   2   52.59    1.60
   3  -4   2  130.42    3.33
   3  -4   2  130.29    3.53
   3   4   2  123.78    3.43
   4  -4   2    4.54    1.01
   4  -4   2    4.65    0.78
  -4  -4  -2    5.03    0.81
   4   4   2    4.05    0.79
   5  -4   2   13.76    1.38
   5  -4   2   17.51    1.66
  -5  -4  -2   14.20    1.27
   5   4   2   15.94    1.52
   6  -4   2    1.82    0.87
   6  -5  -2   21.20    1.62
   6   5  -2   20.23    1.56
   5  -5  -2    1.96    0.66
   5   5  -2    2.66    0.74
   4  -5  -2   99.97    2.91
   4   5  -2  103.35    2.90
   4   5  -2  103.20    2.67
   3  -5  -2  348.97    7.56
   3   5  -2  349.23    7.48
   3   5  -2  351.53    7.43
   2  -5  -2    1.57    0.34
   2   5  -2    1.47    0.29
   2   5  -2    1.11    0.30
   1  -5  -2   20.09    0.77
  -1  -5   2   19.62    0.71
   1  -5  -2   18.76    0.64
   1   5  -2   18.27    0.77
   1   5  -2   17.44    0.57
   0  -5  -2   86.60    2.03
   0  -5   2   85.71    2.13
   0   5  -2   87.21    2.07
   1  -5   2    9.90    0.75
  -1  -5  -2    9.90    0.61
  -1   5  -2    9.90    0.50
  -2  -5  -2  376.71    7.92
   2  -5   2  380.05    8.16
   2  -5   2  392.72    8.04
   3  -5   2   39.09    1.73
  -3  -5  -2   36.12    1.43
   3  -5   2   38.34    1.49
   3   5   2   39.35    1.60
   4  -5   2    2.19    0.62
  -4  -5  -2    1.67    0.63
   4  -5   2    1.68    0.83
   4   5   2    1.45    0.67
   5  -5   2   37.24    1.93
   5  -5   2   37.74    2.17
  -5  -5  -2   36.40    1.80
   5   5   2   42.03    2.20
   6  -5   2   69.53    2.92
   6  -6  -2   38.47    2.04
   6   6  -2   38.87    2.05
   5  -6  -2    2.76    0.71
   5   6  -2    2.89    0.75
   4  -6  -2  112.28    3.16
   4   6  -2  114.45    2.91
   4   6  -2  116.42    3.14
   3  -6  -2    0.72    0.40
   3   6  -2    0.66    0.33
   3   6  -2    0.33    0.36
  -2  -6   2    6.24    0.42
   2  -6  -2    6.59    0.56
   2   6  -2    6.99    0.56
   2   6  -2    6.32    0.47
   1  -6  -2  155.19    3.45
   1  -6  -2  149.87    3.24
  -1  -6   2  151.75    3.33
   1   6  -2  155.99    3.46
   0  -6   2  235.14    5.07
   0  -6  -2  235.55    4.93
   0   6  -2  243.38    5.07
   1  -6   2    6.77    0.68
  -1  -6  -2    6.12    0.56
   1  -6   2    4.37    0.34
  -1   6  -2    5.62    0.43
  -2  -6  -2   56.88    1.72
   2  -6   2   58.97    1.94
   2  -6   2   57.36    1.63
   3  -6   2  202.37    4.86
   3  -6   2  211.60    5.14
  -3  -6  -2  208.49    4.78
   4  -6   2    0.27    0.73
   4  -6   2    1.09    0.54
  -4  -6  -2    1.60    0.60
   4   6   2    0.34    0.56
   5  -6   2   20.66    1.83
   5  -6   2   22.18    1.55
  -5  -6  -2   20.21    1.43
   5   6   2   20.43    1.65
   6  -7  -2   25.35    1.72
   6   7  -2   21.13    1.59
   5  -7  -2    6.46    0.92
   5   7  -2    8.24    0.99
   4  -7  -2   80.37    2.45
   4   7  -2   73.43    2.15
   4   7  -2   76.69    2.38
   3  -7  -2  313.75    6.91
   3   7  -2  317.20    6.80
   3   7  -2  312.82    6.78
  -2  -7   2   16.02    0.68
   2  -7  -2   16.81    0.82
   2   7  -2   18.26    0.72
   2   7  -2   17.11    0.80
  -1  -7   2   24.82    0.90
   1  -7  -2   25.25    0.93
   1  -7  -2   24.65    0.84
   1   7  -2   24.59    0.93
   0  -7  -2  151.44    3.33
   0  -7   2  155.10    3.48
   0   7  -2  148.48    3.41
  -1  -7  -2   41.35    1.32
   1  -7   2   45.35    1.52
  -1   7  -2   42.23    1.24
   2  -7   2  294.73    6.51
  -2  -7  -2  286.88    6.24
   2  -7   2  296.80    6.24
  -3  -7  -2   52.73    1.80
   3  -7   2   54.78    2.13
   3  -7   2   56.13    1.82
  -4  -7  -2   10.87    1.06
   4  -7   2    7.76    0.95
   4  -7   2    8.11    1.15
  -5  -7  -2   49.90    2.11
   5  -7   2   50.29    2.22
   5  -7   2   52.51    2.56
   6  -8  -2   39.86    2.09
   6   8  -2   36.99    2.02
   5  -8  -2   25.10    1.50
   5   8  -2   23.25    1.47
   4  -8  -2   37.04    1.59
   4   8  -2   38.25    1.43
   4   8  -2   39.34    1.59
  -3  -8   2    4.29    0.45
   3  -8  -2    5.44    0.63
   3   8  -2    5.19    0.57
   3   8  -2    5.78    0.62
   2  -8  -2   17.13    0.84
  -2  -8   2   16.96    0.74
   2  -8  -2   17.25    0.73
   2   8  -2   15.71    0.68
   2   8  -2   15.90    0.81
  -1  -8   2  242.51    5.18
   1  -8  -2  238.66    5.09
   1  -8  -2  242.79    5.30
   1   8  -2  256.51    5.34
   0  -8   2  373.34    7.69
   0  -8  -2  371.10    7.56
   0   8  -2  371.37    7.77
  -1  -8  -2   12.43    0.73
   1  -8   2   11.61    0.83
  -1   8  -2   11.75    0.64
   2  -8   2   54.46    1.66
  -2  -8  -2   67.29    1.89
   2  -8   2   65.60    2.12
  -3  -8  -2   97.18    2.69
   3  -8   2   97.34    3.00
   3  -8   2   98.66    2.68
   4  -8   2    1.62    0.59
  -4  -8  -2    2.98    0.69
   4  -8   2    1.41    0.79
   5  -8   2   19.77    1.85
  -5  -8  -2   20.82    1.42
   6  -9  -2   18.37    1.58
   6   9  -2   19.26    1.58
   5  -9  -2    9.55    1.10
   5   9  -2   10.88    1.13
   4  -9  -2   34.49    1.53
   4   9  -2   32.88    1.46
   4   9  -2   30.16    1.27
   3  -9  -2  207.20    4.56
  -3  -9   2  206.45    4.60
   3  -9  -2  215.53    4.95
   3   9  -2  214.81    4.80
   3   9  -2  217.38    4.85
  -2  -9   2    7.08    0.56
   2  -9  -2    6.83    0.63
   2  -9  -2    7.07    0.57
   2   9  -2    8.38    0.66
   2   9  -2    7.82    0.51
  -1  -9   2   19.39    0.87
   1  -9  -2   20.22    0.83
   1   9  -2   19.23    0.86
   0  -9   2  131.04    3.18
   0  -9  -2  131.83    3.05
   0   9  -2  132.66    3.12
   1  -9   2    1.79    0.47
  -1  -9  -2    1.91    0.40
  -1   9  -2    1.25    0.31
  -2  -9  -2  175.40    4.04
   2  -9   2  178.17    4.34
   2  -9   2  167.46    3.87
   3  -9   2   16.03    1.28
  -3  -9  -2   15.68    1.03
   3  -9   2   15.43    0.95
  -4  -9  -2   12.08    1.07
   4  -9   2   13.66    1.40
   4  -9   2   11.51    1.06
   5  -9   2   42.34    2.38
  -5  -9  -2   43.20    1.95
   6 -10  -2   49.74    2.32
   6  10  -2   47.05    2.28
   5 -10  -2   16.13    1.31
   5  10  -2   14.18    1.28
   4 -10  -2   25.01    1.33
   4  10  -2   24.22    1.14
   4  10  -2   22.68    1.24
   3 -10  -2    7.99    0.71
  -3 -10   2    6.90    0.62
   3 -10  -2    7.92    0.75
   3  10  -2    8.86    0.71
   3  10  -2    8.02    0.73
   2 -10  -2   10.59    0.69
  -2 -10   2   10.61    0.69
   2 -10  -2   11.63    0.76
   2  10  -2   10.35    0.58
   2  10  -2   10.39    0.73
  -1 -10   2  289.97    6.16
   1 -10  -2  291.60    6.08
   1  10  -2  288.11    6.28
   0 -10  -2  294.75    6.18
   0 -10   2  303.06    6.34
   0  10  -2  284.19    6.32
   1 -10   2   21.31    1.14
  -1 -10  -2   23.44    1.02
   2 -10   2   18.34    0.83
  -2 -10  -2   25.00    1.11
   2 -10   2   22.65    1.30
   3 -10   2  114.26    3.02
   3 -10   2   92.63    3.08
  -3 -10  -2  102.99    2.86
  -4 -10  -2    1.62    0.62
   4 -10   2    1.27    0.82
  -5 -10  -2   27.28    1.56
   5 -10   2   27.85    2.03
   6 -11  -2   28.66    1.83
   6  11  -2   26.97    1.78
   5 -11  -2    3.15    0.80
   5  11  -2    2.64    0.72
   4 -11  -2   52.28    1.98
   4  11  -2   53.08    1.80
   4  11  -2   55.01    1.93
   3 -11  -2  161.46    3.97
   3 -11  -2  153.78    3.69
  -3 -11   2  159.06    3.75
   3  11  -2  164.31    3.89
   3  11  -2  160.29    3.79
  -2 -11   2   15.63    0.85
   2 -11  -2   15.69    0.85
   2 -11  -2   16.06    0.89
   2  11  -2   14.76    0.67
   2  11  -2   15.58    0.87
  -1 -11   2   20.12    0.96
   1 -11  -2   20.35    0.97
   1  11  -2   19.79    0.93
   0 -11  -2   93.21    2.41
   0 -11   2   91.91    2.55
   0  11  -2   95.07    2.45
   1 -11   2   10.52    0.90
  -1 -11  -2   10.41    0.78
  -2 -11  -2   87.24    2.44
   2 -11   2   87.16    2.68
  -3 -11  -2   56.57    1.95
   3 -11   2   56.24    2.23
   4 -11   2    8.73    1.22
  -4 -11  -2    7.18    0.92
   5 -11   2   54.94    2.67
  -5 -11  -2   55.11    2.21
   6 -12  -2   42.44    2.18
   6  12  -2   42.15    2.17
   5 -12  -2    0.12    0.53
   5  12  -2    1.14    0.57
   4 -12  -2   75.66    2.47
   4  12  -2   73.11    2.32
   4  12  -2   74.80    2.28
   3 -12  -2    3.41    0.57
   3 -12  -2    2.28    0.52
  -3 -12   2    2.97    0.50
   3  12  -2    3.53    0.55
   3  12  -2    2.96    0.46
  -2 -12   2   18.83    0.97
   2 -12  -2   18.57    0.98
   2 -12  -2   19.78    0.98
   2  12  -2   20.13    0.79
   2  12  -2   20.03    0.99
   1 -12  -2  264.12    5.78
   1 -12  -2  268.20    5.86
  -1 -12   2  269.08    5.83
   1  12  -2  263.52    5.91
   0 -12  -2  208.65    4.62
   0 -12   2  210.16    4.79
   0  12  -2  196.72    4.67
   1 -12   2   39.83    1.61
  -1 -12  -2   40.72    1.47
   2 -12   2   17.55    1.27
  -2 -12  -2   19.73    1.09
   3 -12   2  142.47    4.01
  -3 -12  -2  140.88    3.66
   4 -12   2    1.07    0.79
  -4 -12  -2    0.38    0.59
  -5 -12  -2   26.57    1.60
   5 -12   2   26.06    2.01
   6 -13  -2   16.35    1.53
   6  13  -2   17.63    1.54
   5 -13  -2    9.26    1.09
   5  13  -2   10.39    1.08
   4 -13  -2   46.57    1.89
   4  13  -2   45.75    1.76
   4  13  -2   49.38    1.76
   3 -13  -2  139.95    3.64
   3 -13  -2  137.11    3.45
  -3 -13   2  142.58    3.52
   3  13  -2  144.79    3.62
   3  13  -2  140.74    3.44
   2 -13  -2   20.65    1.05
   2 -13  -2   20.57    1.04
  -2 -13   2   19.85    1.03
   2  13  -2   20.54    1.04
   1 -13  -2   16.19    0.89
   1 -13  -2   16.81    1.00
  -1 -13   2   16.16    0.95
   1  13  -2   17.78    0.93
   0 -13   2   67.87    2.12
   0 -13  -2   64.51    1.96
   0  13  -2   65.19    1.97
  -1 -13  -2    8.49    0.79
   1 -13   2    7.77    0.88
  -2 -13  -2  119.14    3.19
   2 -13   2  122.29    3.45
   3 -13   2   29.85    1.71
  -3 -13  -2   31.37    1.50
  -4 -13  -2   19.65    1.34
   4 -13   2   21.87    1.68
   5 -13   2   31.60    2.13
  -5 -13  -2   32.92    1.76
   6  14  -2   30.75    1.85
   5 -14  -2    2.34    0.73
   5  14  -2    3.14    0.71
   4 -14  -2   35.34    1.65
   4  14  -2   34.39    1.50
   4  14  -2   37.96    1.54
   3 -14  -2   21.45    1.15
   3 -14  -2   19.90    1.15
  -3 -14   2   21.33    1.12
   3  14  -2   20.26    1.12
   3  14  -2   20.19    1.01
   2 -14  -2   30.55    1.31
   2 -14  -2   31.31    1.30
  -2 -14   2   30.36    1.31
   2  14  -2   30.83    1.30
  -1 -14   2  182.48    4.28
   1 -14  -2  182.28    4.26
   1 -14  -2  175.76    4.18
   1  14  -2  169.90    4.24
   0 -14   2  152.29    3.82
   0 -14  -2  146.22    3.65
   1 -14   2   58.92    2.07
  -1 -14  -2   56.86    1.91
  -2 -14  -2   31.54    1.44
   2 -14   2   29.61    1.58
   3 -14   2   85.47    2.95
  -3 -14  -2   83.75    2.66
  -4 -14  -2    2.24    0.69
   4 -14   2    2.06    0.87
  -5 -14  -2   21.26    1.54
   5 -14   2   17.39    1.75
   5 -15  -2   13.55    1.26
   5  15  -2   10.61    1.09
   4 -15  -2   38.38    1.75
   4  15  -2   40.26    1.68
   4  15  -2   39.95    1.63
   3 -15  -2  159.00    4.07
   3 -15  -2  156.54    3.94
  -3 -15   2  163.24    4.02
   3  15  -2  159.49    4.05
   2 -15  -2   23.74    1.16
   2 -15  -2   25.09    1.23
  -2 -15   2   25.75    1.24
   2  15  -2   22.30    1.15
  -1 -15   2   32.28    1.41
   1 -15  -2   34.79    1.33
   1 -15  -2   30.98    1.43
   1  15  -2   32.79    1.36
   0 -15  -2   34.71    1.47
   0 -15   2   37.02    1.60
   1 -15   2    3.42    0.70
  -1 -15  -2    3.98    0.66
  -2 -15  -2  109.31    3.04
   2 -15   2  106.08    3.27
   3 -15   2   30.57    1.78
  -3 -15  -2   25.78    1.48
   4 -15   2   12.70    1.40
  -4 -15  -2   14.60    1.27
  -5 -15  -2   21.12    1.53
   5 -15   2   20.91    1.94
   5 -16  -2    5.15    0.90
   4 -16  -2   39.62    1.77
   4  16  -2   41.03    1.68
   3 -16  -2    4.31    0.69
   3 -16  -2    4.93    0.71
  -3 -16   2    3.94    0.65
   3  16  -2    4.45    0.65
  -2 -16   2   33.53    1.48
   2 -16  -2   35.33    1.51
   2 -16  -2   34.25    1.41
   2  16  -2   32.61    1.42
   1 -16  -2   98.51    2.82
  -1 -16   2   95.28    2.79
   1 -16  -2   95.06    2.64
   1  16  -2   97.92    2.77
   0 -16  -2   95.11    2.77
   0 -16   2   96.92    2.90
   1 -16   2   35.06    1.66
  -1 -16  -2   34.80    1.53
   2 -16   2   26.02    1.59
  -2 -16  -2   22.18    1.32
   3 -16   2   58.51    2.49
  -3 -16  -2   58.56    2.20
  -4 -16  -2    0.49    0.59
   4 -16   2    1.44    0.83
   5 -17  -2    8.22    1.09
   4 -17  -2   29.57    1.54
   4  17  -2   27.40    1.42
   3 -17  -2  116.43    3.22
  -3 -17   2  113.53    3.22
   3 -17  -2  111.18    3.16
   3  17  -2  111.41    3.21
   2 -17  -2   17.99    1.06
  -2 -17   2   18.44    1.16
   2 -17  -2   17.09    1.16
   2  17  -2   18.01    1.10
  -1 -17   2   28.89    1.43
   1 -17  -2   27.74    1.44
   1 -17  -2   27.63    1.25
   0 -17  -2   71.78    2.40
   0 -17   2   76.15    2.52
   1 -17   2    2.02    0.65
  -1 -17  -2    3.36    0.68
  -2 -17  -2  111.72    3.19
   2 -17   2  103.85    3.39
   3 -17   2   13.35    1.43
  -3 -17  -2   14.10    1.24
  -4 -17  -2    8.34    1.12
   4 -17   2    8.71    1.30
   5 -18  -2    4.32    0.89
   4 -18  -2   25.28    1.47
   4  18  -2   22.90    1.35
   3 -18  -2    1.10    0.50
   3 -18  -2    1.07    0.54
  -3 -18   2    0.26    0.42
   3  18  -2    1.24    0.46
  -2 -18   2   27.77    1.43
   2 -18  -2   26.08    1.44
   2 -18  -2   27.54    1.33
   2  18  -2   26.40    1.36
  -1 -18   2   90.53    2.79
   1 -18  -2   89.18    2.78
   1 -18  -2   85.94    2.56
   0 -18   2  164.13    4.42
   0 -18  -2  170.59    4.36
  -1 -18  -2   26.03    1.45
   1 -18   2   24.96    1.53
  -2 -18  -2   19.05    1.36
   2 -18   2   19.45    1.55
   3 -18   2   51.25    2.38
  -3 -18  -2   49.22    2.11
   4 -18   2    2.15    0.91
  -4 -18  -2    3.43    0.85
   5 -19  -2   18.73    1.58
   4 -19  -2   19.59    1.35
   3 -19  -2   75.19    2.58
   3 -19  -2   79.92    2.55
  -3 -19   2   79.36    2.64
   2 -19  -2   14.73    1.03
   2 -19  -2   14.67    1.21
  -2 -19   2   15.30    1.16
   1 -19  -2   38.27    1.81
  -1 -19   2   41.80    1.84
   1 -19  -2   39.40    1.60
   0 -19   2   50.74    2.16
   0 -19  -2   56.46    2.19
   1 -19   2    9.11    1.11
  -1 -19  -2   11.87    1.15
   2 -19   2   68.38    2.72
  -2 -19  -2   66.08    2.43
  -3 -19  -2   15.24    1.36
   3 -19   2   13.02    1.45
  -4 -19  -2   31.64    1.82
   4 -19   2   26.55    1.96
   4 -20  -2   26.73    1.55
   3 -20  -2    1.48    0.55
   3 -20  -2    0.71    0.60
  -3 -20   2    1.00    0.56
   2 -20  -2   20.96    1.22
  -2 -20   2   22.73    1.42
   2 -20  -2   25.68    1.51
   1 -20  -2   86.86    2.85
  -1 -20   2   83.00    2.83
   1 -20  -2   84.43    2.58
   0 -20  -2   87.60    2.90
   0 -20   2   84.88    2.94
  -1 -20  -2   37.62    1.84
   1 -20   2   34.98    1.87
   2 -20   2   15.34    1.54
  -2 -20  -2   14.39    1.30
  -3 -20  -2   48.40    2.20
   3 -20   2   50.15    2.45
   3 -21  -2   68.91    2.37
  -3 -21   2   67.32    2.51
   3 -21  -2   65.20    2.51
  -2 -21   2   21.12    1.44
   2 -21  -2   23.38    1.28
   2 -21  -2   20.18    1.48
   1 -21  -2   27.20    1.62
   1 -21  -2   29.18    1.39
  -1 -21   2   26.51    1.64
   0 -21   2   38.07    1.94
   0 -21  -2   37.45    1.91
   1 -21   2    7.76    1.11
  -1 -21  -2    8.30    1.11
  -2 -21  -2   53.30    2.26
   2 -21   2   53.44    2.53
  -3 -21  -2   12.52    1.33
   3 -21   2   10.11    1.39
  -3 -22   2    2.06    0.68
   3 -22  -2    2.47    0.78
   2 -22  -2   23.63    1.61
  -2 -22   2   22.48    1.50
   2 -22  -2   22.85    1.30
  -1 -22   2   73.42    2.74
   1 -22  -2   73.35    2.40
   1 -22  -2   69.54    2.66
   0 -22   2   65.57    2.64
   0 -22  -2   66.98    2.62
   1 -22   2   45.14    2.22
  -1 -22  -2   42.59    2.14
  -2 -22  -2    8.38    1.16
   2 -22   2    4.39    1.03
  -3 -22  -2   34.25    1.95
   3 -22   2   31.82    2.11
  -3 -23   2   43.23    2.09
   3 -23  -2   43.03    2.24
  -2 -23   2   11.08    1.22
   2 -23  -2   13.99    1.40
   1 -23  -2   22.36    1.63
   1 -23  -2   21.77    1.27
  -1 -23   2   19.57    1.58
   0 -23  -2   13.10    1.39
   0 -23   2   11.05    1.34
  -1 -23  -2    7.93    1.20
   1 -23   2    5.89    1.06
   2 -23   2   38.45    2.28
  -2 -23  -2   37.70    2.05
  -3 -24   2    5.56    1.01
  -2 -24   2   15.03    1.42
   2 -24  -2   20.49    1.59
   1 -24  -2   49.20    2.29
  -1 -24   2   43.32    2.25
   0 -24   2   24.33    1.79
   0 -24  -2   22.34    1.70
  -1 -24  -2   40.12    2.15
   1 -24   2   38.66    2.22
   2 -24   2   14.20    1.63
  -3 -25   2   51.42    2.42
   2 -25  -2   18.96    1.63
  -2 -25   2   21.34    1.62
  -1 -25   2   16.14    1.61
   1 -25  -2   16.92    1.64
   0 -25   2   18.66    1.78
   0 -25  -2   15.99    1.55
  -1 -25  -2    9.82    1.35
   1 -25   2    9.39    1.33
   2 -26  -2   27.63    1.90
  -2 -26   2   26.54    1.86
  -1 -26   2   38.46    2.21
   1 -26  -2   36.20    2.15
   0 -26  -2   42.50    2.28
   0 -26   2   38.53    2.30
  -1 -26  -2   41.44    2.54
   1 -26   2   46.77    2.74
   1 -27  -2   21.68    1.86
   6   0  -3    3.63    0.93
   5   0  -3   12.32    1.23
   4   0  -3   16.08    1.08
   3   0  -3   69.72    2.05
   2   0  -3  165.37    3.78
   1   0  -3    0.00    0.24
  -1   0   3   -0.02    0.25
   0   0   3   59.30    1.72
  -1   0  -3  310.12    6.59
   1   0   3  333.21    6.96
   2   0   3   49.51    1.90
   3   0   3   11.83    1.27
   4   0   3   49.27    2.35
   5   0   3    3.13    1.08
   6  -1  -3   11.86    1.38
   6   1  -3   14.93    1.43
   5  -1  -3  118.59    3.51
   5   1  -3  119.58    3.52
   5   1  -3  117.49    3.21
   4  -1  -3    8.98    0.92
   4   1  -3    7.84    0.85
   3  -1  -3    8.09    0.75
   3   1  -3    8.13    0.74
   2  -1  -3  285.88    6.22
   2   1  -3  293.14    6.19
  -1  -1   3  115.32    2.64
   1  -1  -3  117.89    2.75
  -1   1   3  118.91    2.63
   1   1  -3  116.27    2.69
   0  -1   3   71.26    1.97
   0   1   3   73.29    1.97
   1  -1   3    3.47    0.65
  -1   1  -3    2.79    0.35
   1   1   3    3.74    0.63
   2  -1   3   24.84    1.37
   2   1   3   23.80    1.37
   3  -1   3  156.26    4.23
   3   1   3  149.91    4.19
   4  -1   3  128.44    4.02
   4  -1   3  128.80    3.81
   4   1   3  130.48    3.98
   5  -1   3    0.82    0.94
   6  -2  -3    5.44    1.05
   6   2  -3    3.44    0.87
   5  -2  -3   28.92    1.63
   5   2  -3   30.29    1.39
   5   2  -3   31.29    1.65
   4  -2  -3   57.51    2.04
   4   2  -3   61.19    2.05
   3  -2  -3   66.43    2.03
   3   2  -3   67.75    1.99
   2  -2  -3  140.57    3.32
   2   2  -3  139.23    3.23
   1  -2  -3    5.46    0.51
  -1  -2   3    5.43    0.46
   1   2  -3    5.60    0.44
   0  -2   3  123.58    3.03
   0   2  -3  128.05    2.93
   0   2   3  132.86    3.07
   1  -2   3  374.27    7.80
   1   2   3  370.11    7.80
  -1   2  -3  355.02    7.51
   2  -2   3   27.87    1.49
   2   2   3   29.24    1.49
   3  -2   3   11.36    1.26
   3   2   3   12.76    1.23
   4  -2   3   32.41    1.98
   4  -2   3   34.34    1.79
   4   2   3   31.46    1.90
   5  -2   3    6.32    1.13
   5  -2   3    7.09    1.37
   6  -3  -3    5.38    0.98
   6   3  -3    6.82    1.12
   5  -3  -3  102.87    3.22
   5   3  -3  103.86    2.92
   5   3  -3  103.69    3.19
   4  -3  -3   30.56    1.43
   4   3  -3   30.84    1.32
   4   3  -3   29.33    1.41
   3  -3  -3   10.97    0.83
   3   3  -3    9.48    0.81
   2  -3  -3  196.83    4.38
   2   3  -3  187.84    4.24
  -1  -3   3   35.91    1.14
   1  -3  -3   37.62    1.21
   1  -3  -3   39.80    1.07
   1   3  -3   38.49    1.09
   1   3  -3   37.46    1.21
   0  -3   3   81.70    2.14
   0   3   3   76.79    2.06
   0   3  -3   74.32    1.95
   1  -3   3   11.81    0.93
  -1   3  -3    6.56    0.54
   1   3   3    8.86    0.85
   2  -3   3   17.59    1.23
   2   3   3   17.06    1.20
   3  -3   3   53.89    2.27
   3   3   3   54.07    2.16
   4  -3   3   57.14    2.33
   4  -3   3   57.52    2.55
  -5  -3  -3    0.40    0.71
   5  -3   3    0.05    0.74
   5  -3   3   -0.25    0.87
   6  -4  -3    4.56    0.97
   6   4  -3    3.25    0.87
   5  -4  -3   11.97    1.25
   5   4  -3   10.61    0.97
   5   4  -3   12.78    1.21
   4  -4  -3   39.47    1.65
   4   4  -3   38.87    1.62
   4   4  -3   39.91    1.52
   3  -4  -3   89.22    2.51
   3   4  -3   93.05    2.46
   3   4  -3   90.18    2.45
   2  -4  -3   95.36    2.49
   2   4  -3   95.00    2.33
   2   4  -3   94.54    2.45
  -1  -4   3   16.35    0.75
   1  -4  -3   15.83    0.64
   1  -4  -3   14.58    0.77
   1   4  -3   17.43    0.81
   0  -4   3   43.90    1.47
   0   4  -3   44.24    1.34
   1  -4   3  398.03    8.31
  -1   4  -3  381.69    8.02
   2  -4   3   14.26    1.14
   2   4   3   14.27    1.12
   3  -4   3    1.78    0.78
   3  -4   3    2.39    0.54
   4  -4   3   25.13    1.54
   4  -4   3   24.69    1.88
  -4  -4  -3   26.77    1.55
   5  -4   3    5.12    1.23
   5  -4   3    4.45    1.04
  -5  -4  -3    4.23    0.94
   6  -5  -3   10.95    1.26
   6   5  -3   11.60    1.30
   5  -5  -3   82.65    2.83
   5   5  -3   83.92    2.54
   5   5  -3   83.14    2.77
   4  -5  -3   14.69    1.09
   4   5  -3   14.85    1.09
   4   5  -3   14.32    0.98
   3  -5  -3    5.65    0.67
   3   5  -3    5.71    0.65
   3   5  -3    5.24    0.59
   2  -5  -3  204.76    4.61
   2   5  -3  199.04    4.56
   2   5  -3  200.07    4.38
  -1  -5   3   98.85    2.43
   1  -5  -3  101.54    2.30
   1   5  -3   99.20    2.25
   1   5  -3  101.74    2.52
   0  -5  -3   70.63    1.88
   0  -5   3   71.26    2.04
   0   5  -3   75.59    1.93
   1  -5   3    2.19    0.59
  -1  -5  -3    1.87    0.43
  -1   5  -3    1.33    0.34
   2  -5   3   14.60    1.21
   3  -5   3   57.58    2.00
   3  -5   3   62.06    2.43
  -3  -5  -3   60.04    2.06
   4  -5   3   94.02    3.40
  -4  -5  -3   95.26    3.03
   4  -5   3   93.30    3.01
   5  -5   3    1.16    0.99
  -5  -5  -3    1.09    0.79
   6  -6  -3    3.25    0.89
   6   6  -3    3.65    0.90
   5  -6  -3   19.86    1.41
   5   6  -3   17.62    1.34
   5   6  -3   18.45    1.15
   4  -6  -3   51.18    1.94
   4   6  -3   54.39    1.92
   4   6  -3   51.21    1.80
   3  -6  -3   64.67    2.06
   3   6  -3   67.58    1.94
   3   6  -3   64.79    1.98
   2  -6  -3  136.44    3.34
   2   6  -3  137.90    3.33
   2   6  -3  135.89    3.11
  -1  -6   3    4.93    0.52
   1  -6  -3    3.78    0.39
   1   6  -3    5.25    0.55
   0  -6   3  111.28    2.79
   0  -6  -3  103.49    2.58
   0   6  -3  110.27    2.65
  -1  -6  -3  588.94   11.93
   1  -6   3  601.91   12.20
  -1   6  -3  589.46   12.07
  -2  -6  -3   19.54    1.05
   2  -6   3   20.47    1.34
   3  -6   3    7.58    1.14
   3  -6   3    6.64    0.73
  -3  -6  -3    8.06    0.89
  -4  -6  -3   26.42    1.57
   4  -6   3   26.14    1.92
   5  -6   3    6.30    1.28
  -5  -6  -3    8.16    1.22
   6  -7  -3    9.34    1.22
   6   7  -3    8.19    1.15
   5  -7  -3   75.59    2.67
   5   7  -3   72.43    2.34
   5   7  -3   73.36    2.56
   4  -7  -3   14.67    1.08
   4   7  -3   14.63    1.08
   4   7  -3   13.89    0.98
   3  -7  -3   37.32    1.48
   3   7  -3   36.18    1.33
   3   7  -3   36.05    1.40
  -2  -7   3  192.70    4.16
   2  -7  -3  195.89    4.50
   2   7  -3  197.49    4.50
   2   7  -3  190.35    4.20
   1  -7  -3   91.84    2.19
  -1  -7   3   88.32    2.30
   1   7  -3   89.67    2.36
   0  -7   3  106.34    2.79
   0  -7  -3  105.77    2.59
   0   7  -3  107.17    2.65
   1  -7   3    5.07    0.73
  -1  -7  -3    4.42    0.60
  -1   7  -3    3.70    0.47
  -2  -7  -3   29.37    1.31
   2  -7   3   33.40    1.62
   3  -7   3   56.87    2.35
   3  -7   3   60.91    2.09
  -3  -7  -3   56.98    2.07
   4  -7   3   74.47    3.02
  -4  -7  -3   78.80    2.66
  -5  -7  -3    8.77    1.19
   5  -7   3    7.59    1.39
   6  -8  -3    2.21    0.79
   6   8  -3    1.11    0.71
   5  -8  -3   11.91    1.22
   5   8  -3    9.88    0.95
   5   8  -3    9.41    1.02
   4  -8  -3   21.28    1.26
   4   8  -3   22.21    1.16
   4   8  -3   19.43    1.18
   3  -8  -3   35.81    1.48
   3   8  -3   36.69    1.32
   3   8  -3   37.72    1.44
   2  -8  -3  108.69    2.57
  -2  -8   3  114.10    2.66
   2  -8  -3  112.49    2.88
   2   8  -3  113.73    2.88
   2   8  -3  106.60    2.56
   1  -8  -3   12.24    0.69
  -1  -8   3   12.69    0.80
   1   8  -3   11.60    0.78
   0  -8   3   75.73    2.18
   0  -8  -3   70.92    1.95
   0   8  -3   71.73    2.00
  -1  -8  -3  163.25    3.91
   1  -8   3  174.20    4.22
  -1   8  -3  171.01    3.88
   2  -8   3   22.74    1.40
  -2  -8  -3   21.76    1.12
   3  -8   3   15.30    1.53
  -3  -8  -3   13.89    1.08
  -4  -8  -3   29.72    1.65
   4  -8   3   28.94    1.97
   5  -8   3    8.63    1.50
  -5  -8  -3    5.45    1.02
   6  -9  -3   14.61    1.45
   6   9  -3   14.00    1.42
   5  -9  -3  101.66    3.26
   5   9  -3   99.76    2.93
   5   9  -3   97.59    3.06
   4  -9  -3    5.41    0.80
   4   9  -3    4.46    0.67
   4   9  -3    3.38    0.59
   3  -9  -3   28.20    1.33
   3   9  -3   32.46    1.33
   3   9  -3   30.79    1.17
   2  -9  -3  208.72    4.59
   2  -9  -3  212.09    4.93
  -2  -9   3  217.10    4.68
   2   9  -3  204.65    4.55
   2   9  -3  227.58    4.96
   1  -9  -3   78.25    2.02
  -1  -9   3   76.30    2.16
   1   9  -3   76.27    2.17
   0  -9   3   66.33    2.07
   0  -9  -3   64.88    1.87
   0   9  -3   69.01    1.94
  -1  -9  -3    4.69    0.64
   1  -9   3    3.59    0.68
  -1   9  -3    3.54    0.48
   2  -9   3   14.95    1.25
  -2  -9  -3   16.33    1.01
  -3  -9  -3   61.71    2.13
   3  -9   3   58.95    2.47
  -4  -9  -3  100.43    3.14
   4  -9   3  101.75    3.56
   5  -9   3    3.25    1.17
  -5  -9  -3    7.42    1.14
   6 -10  -3    6.91    1.10
   6  10  -3    7.73    1.14
   5 -10  -3    9.79    1.14
   5  10  -3   10.07    0.96
   5  10  -3    7.71    0.97
   4 -10  -3   19.73    1.26
   4  10  -3   18.50    1.11
   4  10  -3   19.84    1.16
   3 -10  -3   28.95    1.33
   3  10  -3   24.26    1.06
   3  10  -3   25.53    1.25
  -2 -10   3  104.18    2.66
   2 -10  -3  103.46    2.57
   2 -10  -3  105.08    2.81
   2  10  -3  104.28    2.80
   1 -10  -3   63.42    1.81
  -1 -10   3   65.00    1.95
   1  10  -3   63.24    1.93
   0 -10   3   61.05    1.98
   0 -10  -3   60.17    1.80
   0  10  -3   57.45    1.79
  -1 -10  -3  103.69    2.79
   1 -10   3  111.54    3.12
  -1  10  -3  109.62    2.76
   2 -10   3   14.64    1.25
  -2 -10  -3   13.80    0.99
  -3 -10  -3   12.08    1.11
   3 -10   3   11.86    1.35
  -4 -10  -3   27.37    1.58
   4 -10   3   24.37    1.85
  -5 -10  -3    4.81    0.98
   5 -10   3    3.69    1.23
   6 -11  -3   12.99    1.44
   6  11  -3   13.02    1.33
   5 -11  -3   63.60    2.49
   5  11  -3   66.44    2.35
   5  11  -3   59.50    2.17
   4 -11  -3    9.74    1.02
   4  11  -3    7.60    0.80
   4  11  -3    7.37    0.85
   3 -11  -3    6.50    0.77
   3  11  -3    6.36    0.72
   3  11  -3    6.12    0.58
  -2 -11   3  171.96    3.98
   2 -11  -3  167.61    4.14
   2 -11  -3  171.99    3.90
   2  11  -3  167.65    4.12
   1 -11  -3   50.68    1.62
  -1 -11   3   51.35    1.74
   1  11  -3   52.60    1.72
   0 -11  -3   67.00    1.99
   0 -11   3   64.86    2.16
   0  11  -3   69.24    2.03
   1 -11   3    3.47    0.70
  -1 -11  -3    3.00    0.57
  -1  11  -3    3.27    0.50
  -2 -11  -3    9.69    0.91
   2 -11   3   13.07    1.30
  -3 -11  -3   65.65    2.30
   3 -11   3   70.30    2.71
  -4 -11  -3   69.00    2.53
   4 -11   3   63.66    2.82
   5 -11   3    1.17    1.14
   6  12  -3   10.69    1.24
   5 -12  -3   13.80    1.33
   5  12  -3   14.35    1.27
   5  12  -3   15.45    1.13
   4 -12  -3   28.40    1.51
   4  12  -3   28.64    1.35
   4  12  -3   28.31    1.39
   3 -12  -3   38.75    1.64
   3  12  -3   40.79    1.61
  -2 -12   3   94.19    2.55
   2 -12  -3   90.08    2.61
   2 -12  -3   91.44    2.45
   2  12  -3   90.55    2.61
   1 -12  -3   22.15    1.08
  -1 -12   3   20.37    1.14
   1  12  -3   18.98    1.04
   0 -12   3   49.18    1.87
   0 -12  -3   50.77    1.70
   0  12  -3   50.49    1.69
   1 -12   3  272.79    6.34
  -1 -12  -3  268.90    6.03
  -1  12  -3  270.39    6.06
   2 -12   3   25.34    1.58
  -2 -12  -3   24.59    1.28
  -3 -12  -3   11.02    1.10
   3 -12   3    9.26    1.27
   4 -12   3   27.79    2.01
  -4 -12  -3   28.93    1.66
   5 -13  -3   64.21    2.54
   5  13  -3   68.77    2.38
   4 -13  -3   11.41    1.12
   4  13  -3   11.29    0.98
   3 -13  -3    9.18    0.93
   3  13  -3    8.41    0.87
   2 -13  -3  131.76    3.34
   2 -13  -3  133.23    3.52
  -2 -13   3  142.80    3.49
   2  13  -3  134.19    3.53
   1 -13  -3   43.78    1.59
  -1 -13   3   46.46    1.72
   1  13  -3   43.70    1.64
   0 -13  -3   64.38    2.03
   0 -13   3   63.56    2.21
   0  13  -3   63.18    2.02
  -1 -13  -3    3.11    0.63
   1 -13   3    2.37    0.70
   2 -13   3   31.95    1.74
  -2 -13  -3   29.80    1.46
   3 -13   3   57.08    2.49
  -3 -13  -3   62.03    2.22
   4 -13   3   71.96    3.07
  -4 -13  -3   72.75    2.64
   5 -14  -3    8.19    1.09
   5  14  -3    9.67    1.02
   4 -14  -3   28.57    1.54
   4  14  -3   25.25    1.39
   3 -14  -3   69.31    2.30
   3  14  -3   64.63    2.22
  -2 -14   3   46.66    1.70
   2 -14  -3   42.71    1.68
   2 -14  -3   44.39    1.62
   2  14  -3   42.84    1.69
  -1 -14   3   45.82    1.77
   1 -14  -3   45.34    1.67
   1  14  -3   43.89    1.67
   0 -14   3   73.49    2.45
   0 -14  -3   73.35    2.27
   0  14  -3   75.51    2.29
   1 -14   3  226.70    5.63
  -1 -14  -3  234.17    5.38
  -2 -14  -3   20.85    1.28
   2 -14   3   19.95    1.51
  -3 -14  -3   13.73    1.20
   3 -14   3   13.06    1.49
  -4 -14  -3   11.22    1.20
   4 -14   3    9.63    1.43
   5 -15  -3   52.11    2.28
   5  15  -3   51.26    2.23
   4 -15  -3   17.43    1.29
   4  15  -3   17.65    1.22
   3 -15  -3   23.09    1.34
   3  15  -3   22.45    1.32
   2 -15  -3   58.53    1.97
  -2 -15   3   59.55    2.03
   2 -15  -3   57.92    2.03
   2  15  -3   56.16    2.03
  -1 -15   3   11.83    1.06
   1 -15  -3   13.81    1.04
   1  15  -3   12.84    0.97
   0 -15   3   26.41    1.48
   0 -15  -3   25.31    1.37
   0  15  -3   24.13    1.26
  -1 -15  -3    2.29    0.62
   1 -15   3    2.92    0.75
  -2 -15  -3   21.54    1.35
   2 -15   3   22.40    1.61
   3 -15   3   19.19    1.60
  -3 -15  -3   17.54    1.33
   4 -15   3   12.61    1.63
  -4 -15  -3   16.68    1.45
   5 -16  -3   10.49    1.20
   4 -16  -3   31.27    1.65
   4  16  -3   30.37    1.57
   3 -16  -3   48.52    1.95
   3  16  -3   49.11    1.94
   2 -16  -3   36.24    1.57
  -2 -16   3   38.60    1.64
   2 -16  -3   37.11    1.60
   2  16  -3   37.76    1.62
   1 -16  -3    2.26    0.67
  -1 -16   3    1.90    0.63
   1 -16  -3    1.77    0.56
   1  16  -3    2.78    0.60
   0 -16   3   26.03    1.52
   0 -16  -3   27.41    1.43
   0  16  -3   23.76    1.30
   1 -16   3  185.11    4.91
  -1 -16  -3  184.14    4.60
   2 -16   3   15.58    1.55
  -2 -16  -3   12.22    1.14
   3 -16   3    4.25    1.04
  -3 -16  -3    6.95    1.04
   4 -16   3   10.27    1.48
  -4 -16  -3    9.53    1.20
   5 -17  -3   55.25    2.39
   4 -17  -3   21.06    1.42
   4  17  -3   19.10    1.30
   3 -17  -3   32.31    1.61
   3  17  -3   33.61    1.61
  -2 -17   3   59.45    2.16
   2 -17  -3   56.67    2.07
   2 -17  -3   61.12    2.12
   2  17  -3   59.76    2.16
   1 -17  -3   35.68    1.56
  -1 -17   3   35.14    1.72
   1 -17  -3   36.79    1.68
   1  17  -3   36.06    1.61
   0 -17  -3   32.18    1.59
   0 -17   3   34.82    1.77
  -1 -17  -3   -0.15    0.53
   1 -17   3    0.42    0.63
   2 -17   3   27.16    1.76
  -2 -17  -3   22.80    1.44
   3 -17   3   37.57    2.17
  -3 -17  -3   38.96    1.88
   5 -18  -3    4.82    0.91
   4 -18  -3    6.75    0.97
   4  18  -3    6.74    0.89
   3 -18  -3   30.16    1.58
   3  18  -3   31.20    1.59
  -2 -18   3   50.97    2.03
   2 -18  -3   52.64    1.96
   2 -18  -3   52.48    2.00
   2  18  -3   46.03    1.95
   1 -18  -3   16.21    1.13
   1 -18  -3   15.07    1.26
  -1 -18   3   16.99    1.33
   1  18  -3   18.05    1.21
   0 -18  -3   31.75    1.62
   0 -18   3   31.47    1.76
   1 -18   3  118.49    3.70
  -1 -18  -3  111.34    3.35
  -2 -18  -3   15.81    1.28
   2 -18   3   17.27    1.53
  -3 -18  -3   14.48    1.41
   3 -18   3   10.57    1.44
   4 -19  -3    8.69    1.08
   4  19  -3    6.91    0.88
   3 -19  -3   29.31    1.58
   3  19  -3   28.27    1.55
   2 -19  -3   86.15    2.75
   2 -19  -3   85.05    2.78
  -2 -19   3   92.07    2.94
   2  19  -3   86.11    2.84
   1 -19  -3   34.76    1.76
  -1 -19   3   34.28    1.82
   1 -19  -3   36.74    1.65
   1  19  -3   36.05    1.71
   0 -19   3   38.56    1.96
   0 -19  -3   38.34    1.85
   1 -19   3    1.45    0.80
  -1 -19  -3    0.44    0.63
   2 -19   3   25.19    1.80
  -2 -19  -3   26.27    1.60
   3 -19   3   36.78    2.23
  -3 -19  -3   41.51    2.01
   4 -20  -3   15.75    1.33
   4  20  -3   15.20    1.26
   3 -20  -3   14.72    1.22
   3  20  -3   14.68    1.23
  -2 -20   3   48.44    2.13
   2 -20  -3   48.67    2.06
   2 -20  -3   45.19    1.91
   2  20  -3   47.53    2.02
   1 -20  -3   47.97    2.14
  -1 -20   3   46.86    2.16
   1 -20  -3   47.91    1.95
   0 -20  -3   45.58    2.05
   0 -20   3   42.80    2.14
   1 -20   3   63.33    2.68
  -1 -20  -3   57.53    2.34
   2 -20   3   19.92    1.72
  -2 -20  -3   23.76    1.56
   3 -20   3   24.52    1.94
  -3 -20  -3   23.91    1.65
   4 -21  -3   13.78    1.30
   4  21  -3   13.88    1.28
   3 -21  -3   16.87    1.32
   3  21  -3   18.80    1.38
   2 -21  -3   58.66    2.39
   2 -21  -3   65.28    2.35
  -2 -21   3   64.57    2.54
   1 -21  -3   11.45    1.17
   1 -21  -3   10.81    1.27
  -1 -21   3   10.46    1.25
   0 -21   3   53.27    2.40
   0 -21  -3   48.25    2.24
  -1 -21  -3    0.08    0.67
   1 -21   3   -0.09    0.67
  -2 -21  -3   24.73    1.64
   2 -21   3   21.06    1.78
   4 -22  -3    6.74    1.04
   3 -22  -3   11.94    1.30
  -2 -22   3   26.30    1.73
   2 -22  -3   27.77    1.71
   2 -22  -3   24.87    1.49
  -1 -22   3   42.57    2.16
   1 -22  -3   41.67    1.90
   1 -22  -3   41.26    2.09
   0 -22   3   21.48    1.73
   0 -22  -3   18.60    1.59
  -1 -22  -3   33.21    1.93
   1 -22   3   36.57    2.19
   2 -22   3    8.46    1.35
  -2 -22  -3    9.67    1.28
   3 -23  -3   16.18    1.34
   2 -23  -3   51.93    2.32
   2 -23  -3   50.47    2.14
  -2 -23   3   48.84    2.36
   1 -23  -3    9.43    1.07
  -1 -23   3   10.05    1.30
   1 -23  -3   11.46    1.35
   0 -23   3   24.55    1.88
   0 -23  -3   26.72    1.80
  -1 -23  -3    1.33    0.83
   1 -23   3    0.95    0.87
   2 -24  -3   27.31    1.63
   2 -24  -3   28.50    1.86
  -2 -24   3   29.41    1.92
  -1 -24   3   24.63    1.86
   1 -24  -3   25.46    1.81
   1 -24  -3   26.54    1.58
   0 -24  -3   31.24    2.01
   0 -24   3   34.24    2.12
   1 -24   3  106.49    3.93
  -1 -24  -3  109.97    3.75
   2 -25  -3   29.22    1.94
  -2 -25   3   28.25    1.97
   1 -25  -3    5.98    0.93
  -1 -25   3    6.96    1.27
   1 -25  -3    6.41    1.15
   0 -25   3   35.49    2.29
   0 -25  -3   38.89    2.27
  -2 -26   3   12.15    1.66
   2 -26  -3   11.91    1.45
  -1 -26   3   22.37    2.08
   1 -26  -3   17.69    1.73
   6   0  -4   27.67    1.79
   5   0  -4   -0.02    0.55
   4   0  -4    1.24    0.61
   3   0  -4   38.69    1.54
   2   0  -4   69.35    2.01
   1   0  -4  453.89    9.42
  -1   0   4  451.40    9.21
   0   0   4   21.59    1.14
  -1   0  -4    1.70    0.34
   1   0   4    2.48    0.69
   2   0   4  140.15    3.94
   3   0   4   49.50    2.36
   4   0   4   11.76    1.61
   6  -1  -4    0.71    0.74
   6   1  -4    1.45    0.80
   5  -1  -4    1.41    0.68
   5   1  -4    1.12    0.62
   4  -1  -4   64.00    2.29
   4   1  -4   71.23    2.34
   3  -1  -4  149.01    3.77
   3   1  -4  152.84    3.77
   2  -1  -4   11.96    0.84
   2   1  -4   11.49    0.79
  -1  -1   4   37.89    1.32
   1  -1  -4   39.50    1.35
  -1   1   4   37.79    1.31
   1   1  -4   37.02    1.28
   0  -1   4   82.49    2.37
   0   1   4   80.28    2.36
   1  -1   4   13.88    1.17
  -1   1  -4   14.48    0.72
   1   1   4   14.72    1.19
   2  -1   4   81.98    2.80
   2   1   4   81.22    2.79
   3  -1   4    4.80    1.07
   3   1   4    5.29    1.13
   4  -1   4    8.53    1.42
   4   1   4   10.70    1.45
   6  -2  -4   33.72    1.97
   6   2  -4   36.11    1.98
   5  -2  -4    3.47    0.85
   5   2  -4    4.13    0.75
   5   2  -4    4.27    0.84
   4  -2  -4   11.91    1.10
   4   2  -4   12.46    1.12
   3  -2  -4   34.09    1.44
   3   2  -4   31.70    1.37
   2  -2  -4   12.51    0.87
   2   2  -4   13.11    0.80
  -1  -2   4  238.62    5.16
   1  -2  -4  231.54    5.26
   1   2  -4  242.72    5.17
   0  -2   4   24.71    1.24
   0   2  -4   23.53    1.00
   0   2   4   25.37    1.24
   1  -2   4    0.51    0.59
  -1   2  -4    0.53    0.30
   1   2   4    0.61    0.60
   2  -2   4  109.15    3.37
   2   2   4  107.69    3.31
   3  -2   4   62.05    2.57
   3   2   4   56.77    2.48
   4  -2   4    9.76    1.51
   6  -3  -4    1.91    0.84
   6   3  -4    1.40    0.80
   5  -3  -4    0.73    0.61
   5   3  -4    1.69    0.60
   5   3  -4    0.73    0.63
   4  -3  -4  104.73    3.07
   4   3  -4  100.50    2.98
   4   3  -4  103.11    2.97
   3  -3  -4   68.43    2.20
   3   3  -4   70.62    2.12
   2  -3  -4    8.34    0.76
   2   3  -4    7.70    0.66
  -1  -3   4   37.00    1.32
   1  -3  -4   37.13    1.35
   1  -3  -4   36.66    1.17
   1   3  -4   38.08    1.36
   1   3  -4   36.56    1.19
   0  -3   4  102.00    2.77
   0   3  -4  102.31    2.60
   1  -3   4   16.11    1.24
  -1   3  -4   18.66    0.84
   1   3   4   21.84    1.30
   2  -3   4   57.53    2.34
   2   3   4   59.59    2.27
   3  -3   4    0.64    0.83
   3   3   4   -0.01    0.70
   4  -3   4   13.29    1.66
   6  -4  -4   34.11    1.96
   6   4  -4   29.46    1.87
   5  -4  -4   -0.09    0.59
   5   4  -4    0.86    0.58
   5   4  -4    0.03    0.48
   4  -4  -4    4.10    0.80
   4   4  -4    3.65    0.70
   4   4  -4    4.05    0.66
   3  -4  -4   24.43    1.29
   3   4  -4   27.70    1.21
   3   4  -4   26.42    1.26
   2  -4  -4    1.98    0.46
   2   4  -4    1.19    0.42
   2   4  -4    1.77    0.40
   1  -4  -4  184.34    4.02
  -1  -4   4  180.44    4.16
   1   4  -4  187.02    4.29
   0  -4   4   41.82    1.59
   0   4  -4   38.67    1.39
   1  -4   4    3.64    0.78
  -1   4  -4    3.84    0.46
   2  -4   4  111.40    3.45
   3  -4   4   53.91    2.48
  -4  -4  -4   12.16    1.40
   4  -4   4   12.57    1.59
   6  -5  -4   -0.03    0.69
   6   5  -4    0.28    0.74
   5  -5  -4    0.12    0.61
   5   5  -4    0.22    0.50
   5   5  -4    0.78    0.58
   4  -5  -4  206.63    5.19
   4   5  -4  210.08    5.05
   4   5  -4  208.31    5.09
   3  -5  -4   60.80    2.05
   3   5  -4   61.08    1.90
   3   5  -4   59.47    2.00
   2  -5  -4    3.34    0.54
   2   5  -4    3.01    0.44
   2   5  -4    2.49    0.54
   1  -5  -4   14.65    0.78
  -1  -5   4   14.10    0.93
   1   5  -4   15.33    0.94
   0  -5   4  103.81    2.89
   0  -5  -4  103.00    2.64
   0   5  -4  106.18    2.69
   1  -5   4   68.77    2.34
  -1   5  -4   64.90    1.85
   2  -5   4   68.48    2.56
   3  -5   4    3.00    1.04
  -3  -5  -4    1.76    0.68
   4  -5   4    8.23    1.42
  -4  -5  -4    7.26    1.16
   6  -6  -4   48.37    2.34
   6   6  -4   45.36    2.20
   5  -6  -4    7.13    1.02
   5   6  -4    7.07    0.95
   5   6  -4    6.91    0.89
   4  -6  -4   27.14    1.53
   4   6  -4   26.86    1.41
   4   6  -4   26.99    1.42
   3  -6  -4   13.55    1.03
   3   6  -4   11.73    0.96
   3   6  -4   11.61    0.86
   2  -6  -4    5.95    0.68
   2   6  -4    5.71    0.65
   2   6  -4    4.70    0.51
  -1  -6   4  200.58    4.60
   1  -6  -4  206.12    4.45
   1   6  -4  205.76    4.75
   0  -6  -4   44.87    1.51
   0  -6   4   44.53    1.72
   0   6  -4   45.19    1.53
  -1  -6  -4    2.32    0.56
   1  -6   4    1.67    0.70
  -1   6  -4    2.04    0.41
   2  -6   4  111.01    3.43
  -2  -6  -4  110.24    3.05
  -3  -6  -4   47.09    2.01
   3  -6   4   45.58    2.33
  -4  -6  -4    6.32    1.14
   4  -6   4    7.62    1.40
   6  -7  -4    0.87    0.79
   6   7  -4    1.06    0.72
   5  -7  -4    7.46    1.07
   5   7  -4    7.08    0.90
   5   7  -4    6.30    0.91
   4  -7  -4  149.78    4.11
   4   7  -4  152.23    3.91
   4   7  -4  151.87    4.00
   3  -7  -4   43.81    1.73
   3   7  -4   43.19    1.68
   3   7  -4   42.68    1.49
  -2  -7   4   16.29    0.85
   2  -7  -4   14.38    0.97
   2   7  -4   15.64    0.98
   1  -7  -4   30.88    1.16
  -1  -7   4   33.16    1.35
   1   7  -4   32.69    1.34
   0  -7  -4  131.51    3.24
   0  -7   4  136.49    3.50
   0   7  -4  132.91    3.32
   1  -7   4   39.40    1.82
  -1  -7  -4   40.11    1.53
  -1   7  -4   40.20    1.38
   2  -7   4   79.68    2.81
  -2  -7  -4   75.50    2.44
   3  -7   4    2.44    0.95
  -3  -7  -4    2.76    0.76
  -4  -7  -4   11.18    1.39
   4  -7   4   10.83    1.59
   6  -8  -4   38.46    2.28
   6   8  -4   36.64    1.96
   5  -8  -4    4.00    0.86
   5   8  -4    2.47    0.72
   5   8  -4    2.80    0.66
   4  -8  -4    6.44    0.92
   4   8  -4    5.86    0.77
   4   8  -4    5.55    0.77
   3  -8  -4   16.80    1.13
   3   8  -4   15.14    1.08
   3   8  -4   16.12    0.92
  -2  -8   4   19.11    0.97
   2  -8  -4   17.53    1.06
   2  -8  -4   19.24    0.87
   2   8  -4   19.55    1.08
   1  -8  -4  149.38    3.46
  -1  -8   4  139.71    3.60
   1   8  -4  153.89    3.71
   0  -8   4   66.40    2.20
   0  -8  -4   64.26    1.96
   0   8  -4   65.50    2.00
  -1  -8  -4   11.59    0.92
   1  -8   4   13.17    1.19
  -1   8  -4   11.24    0.79
   2  -8   4  100.93    3.35
  -2  -8  -4  107.02    3.08
   3  -8   4   33.57    2.04
  -3  -8  -4   34.40    1.70
   4  -8   4    9.16    1.54
  -4  -8  -4    7.18    1.11
   6   9  -4    0.23    0.64
   5  -9  -4    4.77    0.92
   5   9  -4    3.04    0.73
   5   9  -4    3.70    0.70
   4  -9  -4   62.03    2.29
   4   9  -4   56.67    2.10
   4   9  -4   58.90    2.05
   3  -9  -4   70.04    2.31
   3   9  -4   66.66    2.23
   2  -9  -4    9.71    0.71
  -2  -9   4   10.43    0.81
   2  -9  -4   11.09    0.91
   2   9  -4   11.47    0.93
   1  -9  -4   16.96    0.93
  -1  -9   4   14.17    1.05
   1   9  -4   14.78    1.01
   0  -9  -4   77.63    2.26
   0  -9   4   81.22    2.53
   0   9  -4   81.13    2.32
  -1  -9  -4    1.97    0.59
   1  -9   4    2.44    0.75
  -1   9  -4    1.47    0.43
  -2  -9  -4   66.60    2.26
   2  -9   4   60.66    2.53
   3  -9   4   11.40    1.40
  -3  -9  -4    8.80    1.05
   4  -9   4    2.78    1.12
  -4  -9  -4    4.14    0.88
   5 -10  -4    4.20    0.91
   5  10  -4    1.77    0.60
   4 -10  -4    3.89    0.79
   4  10  -4    3.62    0.70
   3 -10  -4   17.69    1.21
   3  10  -4   18.94    1.21
   2 -10  -4   21.53    0.99
   2 -10  -4   21.47    1.20
  -2 -10   4   22.00    1.08
   2  10  -4   21.31    1.19
   1 -10  -4  145.08    3.46
  -1 -10   4  141.23    3.66
   1  10  -4  144.67    3.68
   0 -10  -4   21.48    1.12
   0 -10   4   21.17    1.34
   0  10  -4   19.94    1.11
  -1 -10  -4   19.07    1.14
   1 -10   4   18.94    1.41
  -1  10  -4   18.10    1.00
  -2 -10  -4   86.51    2.68
   2 -10   4   88.11    3.09
   3 -10   4   31.83    2.03
  -3 -10  -4   31.86    1.65
  -4 -10  -4    7.29    1.09
   4 -10   4    4.65    1.22
   5 -11  -4    2.35    0.79
   5  11  -4    2.49    0.68
   4 -11  -4   54.19    2.14
   4  11  -4   48.41    1.98
   3 -11  -4   72.66    2.42
   3  11  -4   71.33    2.39
   2 -11  -4    9.80    0.79
  -2 -11   4   10.53    0.88
   2 -11  -4    8.88    0.88
   2  11  -4   10.99    0.98
   1 -11  -4   40.77    1.51
  -1 -11   4   39.41    1.67
   1  11  -4   42.73    1.63
   0 -11  -4   63.68    2.09
   0 -11   4   66.25    2.37
   0  11  -4   71.77    2.17
   1 -11   4    8.36    1.08
  -1 -11  -4   10.32    1.05
  -1  11  -4    8.41    0.80
   2 -11   4   49.18    2.29
  -2 -11  -4   50.41    1.96
   3 -11   4   10.03    1.40
  -3 -11  -4    9.96    1.17
  -4 -11  -4   11.63    1.38
   5 -12  -4    6.95    1.04
   5  12  -4    7.18    0.91
   4 -12  -4   15.46    1.29
   4  12  -4   14.20    1.15
   3 -12  -4   20.27    1.30
   3  12  -4   17.09    1.23
   2 -12  -4   19.97    1.20
   2 -12  -4   18.63    1.06
  -2 -12   4   18.87    1.11
   2  12  -4   17.51    1.16
   1 -12  -4  221.73    4.99
  -1 -12   4  214.84    5.18
   1  12  -4  216.56    5.22
   0 -12  -4   15.59    1.09
   0 -12   4   16.05    1.29
   0  12  -4   15.54    1.07
  -1 -12  -4   20.02    1.23
   1 -12   4   22.05    1.55
  -1  12  -4   21.84    1.15
  -2 -12  -4   78.37    2.55
   2 -12   4   75.09    2.88
  -3 -12  -4   34.65    1.75
   3 -12   4   33.13    2.12
   5 -13  -4   13.54    1.37
   5  13  -4   14.34    1.22
   4 -13  -4   91.28    3.02
   4  13  -4   92.91    2.92
   3 -13  -4   71.42    2.48
   3  13  -4   73.27    2.45
   2 -13  -4   17.33    1.06
  -2 -13   4   18.41    1.15
   2 -13  -4   15.50    1.15
   2  13  -4   19.96    1.23
  -1 -13   4   11.52    1.09
   1 -13  -4   12.58    1.01
   1  13  -4   13.09    1.07
   0 -13   4   39.86    1.87
   0 -13  -4   38.01    1.61
   0  13  -4   38.64    1.62
   1 -13   4   22.69    1.61
  -1 -13  -4   22.05    1.31
  -1  13  -4   24.02    1.25
   2 -13   4   42.34    2.16
  -2 -13  -4   41.30    1.80
  -3 -13  -4   10.96    1.19
   3 -13   4    8.80    1.41
   5 -14  -4    6.60    1.05
   5  14  -4    6.59    0.96
   4 -14  -4    2.80    0.72
   4  14  -4    3.32    0.69
   3 -14  -4   36.70    1.72
   3  14  -4   33.47    1.67
   2 -14  -4    6.29    0.78
   2 -14  -4    7.12    0.88
  -2 -14   4    9.10    0.98
   2  14  -4    8.22    0.91
  -1 -14   4  125.59    3.60
   1 -14  -4  130.52    3.41
   1  14  -4  132.80    3.59
   0 -14   4   19.04    1.41
   0 -14  -4   18.00    1.20
   0  14  -4   18.53    1.18
  -1 -14  -4   29.89    1.51
   1 -14   4   27.04    1.74
   2 -14   4   56.20    2.54
  -2 -14  -4   58.56    2.22
  -3 -14  -4   42.41    1.96
   3 -14   4   38.24    2.33
   5 -15  -4   11.23    1.28
   5  15  -4   11.91    1.22
   4 -15  -4   64.90    2.51
   4  15  -4   68.39    2.50
   3 -15  -4   29.38    1.58
   3  15  -4   30.55    1.59
   2 -15  -4   16.25    1.21
   2 -15  -4   18.42    1.21
  -2 -15   4   18.14    1.22
   2  15  -4   15.55    1.22
   1 -15  -4   24.35    1.34
  -1 -15   4   24.46    1.49
   1  15  -4   22.31    1.36
   0 -15  -4   48.57    1.90
   0 -15   4   47.61    2.13
   0  15  -4   45.76    1.86
   1 -15   4   17.01    1.53
  -1 -15  -4   16.74    1.24
  -2 -15  -4   21.00    1.41
   2 -15   4   19.60    1.68
   3 -15   4   12.25    1.61
  -3 -15  -4   10.47    1.22
   5  16  -4    7.75    1.04
   4 -16  -4   14.86    1.32
   4  16  -4   12.82    1.24
   3 -16  -4    8.28    0.99
   3  16  -4   12.15    1.15
   2 -16  -4    1.08    0.56
  -2 -16   4    0.26    0.53
   2  16  -4    1.27    0.60
   1 -16  -4   82.19    2.68
  -1 -16   4   78.28    2.73
   1 -16  -4   78.73    2.54
   1  16  -4   79.68    2.63
   0 -16   4   33.84    1.86
   0 -16  -4   30.64    1.62
   0  16  -4   34.91    1.63
   1 -16   4   11.55    1.31
  -1 -16  -4   13.18    1.17
  -2 -16  -4   42.82    1.96
   2 -16   4   41.28    2.24
  -3 -16  -4   28.37    1.70
   3 -16   4   26.20    2.05
   5  17  -4    3.56    0.78
   4 -17  -4   56.88    2.37
   4  17  -4   58.76    2.35
   3 -17  -4   34.47    1.75
   3  17  -4   33.69    1.76
  -2 -17   4   21.02    1.39
   2 -17  -4   21.44    1.40
   2  17  -4   18.99    1.37
   1 -17  -4   11.85    1.16
  -1 -17   4   12.92    1.28
   1 -17  -4   12.83    1.18
   1  17  -4   14.29    1.19
   0 -17   4   43.46    2.13
   0 -17  -4   45.18    1.95
   0  17  -4   41.97    1.87
   1 -17   4   19.96    1.66
  -1 -17  -4   20.10    1.40
   2 -17   4   32.06    2.05
  -2 -17  -4   29.84    1.70
   3 -17   4    1.38    0.97
  -3 -17  -4    2.72    0.86
   4 -18  -4    9.77    1.14
   4  18  -4    7.26    0.97
   3 -18  -4    9.76    1.11
   3  18  -4   10.40    1.13
   2 -18  -4   19.28    1.38
  -2 -18   4   20.43    1.43
   2  18  -4   20.62    1.42
   1 -18  -4  115.39    3.45
  -1 -18   4  112.18    3.57
   1 -18  -4  112.49    3.38
   1  18  -4  113.82    3.43
   0 -18  -4   27.76    1.64
   0 -18   4   29.69    1.85
   0  18  -4   27.23    1.56
   1 -18   4   12.98    1.51
  -1 -18  -4   15.43    1.41
  -2 -18  -4   57.06    2.33
   2 -18   4   53.78    2.63
   4 -19  -4   43.44    2.09
   4  19  -4   42.07    2.05
   3 -19  -4   26.82    1.62
   3  19  -4   26.88    1.67
   2 -19  -4   46.48    2.04
  -2 -19   4   43.03    2.05
   2  19  -4   42.69    2.02
   1 -19  -4   12.71    1.22
  -1 -19   4   12.02    1.31
   1 -19  -4   11.66    1.23
   1  19  -4   11.84    1.23
   0 -19  -4   41.20    1.98
   0 -19   4   39.31    2.15
   1 -19   4   11.31    1.44
  -1 -19  -4   15.76    1.50
   2 -19   4   32.78    2.15
  -2 -19  -4   34.27    1.85
   4 -20  -4   12.28    1.33
   3 -20  -4   14.08    1.31
   3  20  -4   15.23    1.37
   2 -20  -4   19.65    1.41
  -2 -20   4   18.67    1.51
   2  20  -4   18.47    1.42
   1 -20  -4   64.02    2.49
  -1 -20   4   60.93    2.64
   1 -20  -4   63.44    2.54
   1  20  -4   65.87    2.51
   0 -20   4   25.75    1.86
   0 -20  -4   24.44    1.67
   1 -20   4   23.20    1.85
  -1 -20  -4   26.25    1.67
   2 -20   4   28.83    2.06
  -2 -20  -4   31.19    1.84
   3 -21  -4   21.92    1.56
   3  21  -4   23.63    1.63
  -2 -21   4   33.71    1.99
   2 -21  -4   35.74    1.86
   2  21  -4   33.34    1.85
  -1 -21   4    8.11    1.18
   1 -21  -4    9.79    1.23
   1 -21  -4   10.59    1.25
   0 -21  -4   31.42    1.92
   0 -21   4   31.38    2.09
   1 -21   4    0.72    0.79
  -1 -21  -4    1.65    0.81
   3 -22  -4    7.91    1.11
   2 -22  -4    4.37    0.84
   2  22  -4    5.97    0.96
   1 -22  -4   43.11    2.23
  -1 -22   4   40.39    2.25
   1 -22  -4   41.30    2.06
   0 -22   4    9.13    1.35
   0 -22  -4    8.49    1.22
  -1 -22  -4   24.76    1.80
   1 -22   4   27.05    2.03
   2 -23  -4   16.20    1.40
   1 -23  -4   14.58    1.55
   1 -23  -4   17.29    1.48
  -1 -23   4   13.34    1.56
   0 -23  -4   15.51    1.60
   0 -23   4   15.78    1.75
   2 -24  -4    4.25    0.92
   1 -24  -4   56.70    2.66
   1 -24  -4   55.57    2.48
  -1 -24   4   55.43    2.73
   0 -24  -4   11.92    1.54
   1 -25  -4   11.22    1.57
   6   0  -5   -0.40    0.68
   6   0  -5    0.87    0.66
   5   0  -5   34.06    1.85
   4   0  -5    2.81    0.73
   3   0  -5   96.73    2.82
   2   0  -5    0.98    0.47
   1   0  -5    1.79    0.48
  -1   0   5    1.43    0.50
   0   0   5  109.10    3.13
   1   0   5   93.34    3.07
   2   0   5    1.13    0.86
   3   0   5   10.17    1.47
   6  -1  -5   25.16    1.77
   6   1  -5   21.69    1.71
   6   1  -5   24.70    1.65
   5  -1  -5   30.24    1.79
   5   1  -5   32.34    1.74
   5   1  -5   29.76    1.75
   4  -1  -5    1.87    0.66
   4   1  -5    1.11    0.61
   3  -1  -5   63.15    2.16
   3   1  -5   60.14    2.07
   2  -1  -5  118.16    3.12
   2   1  -5  112.58    3.02
  -1  -1   5    4.58    0.67
   1  -1  -5    4.28    0.63
   1   1  -5    4.44    0.60
   0  -1   5    8.52    0.98
   0   1   5    9.66    1.05
   1  -1   5   27.75    1.64
   1   1   5   23.70    1.62
   2  -1   5    2.23    0.91
   2   1   5    1.42    0.87
   3  -1   5   89.36    3.44
   3   1   5   85.95    3.31
   6  -2  -5    2.51    0.90
   6   2  -5    4.10    0.86
   6   2  -5    4.46    0.96
   5  -2  -5   50.06    2.25
   5   2  -5   50.40    2.13
   5   2  -5   48.29    2.15
   4  -2  -5    9.24    1.03
   4   2  -5    9.40    1.01
   4   2  -5    9.18    1.02
   3  -2  -5   41.56    1.77
   3   2  -5   44.12    1.72
   2  -2  -5    4.96    0.70
   2   2  -5    5.40    0.65
  -1  -2   5    3.34    0.59
   1  -2  -5    3.20    0.60
   1   2  -5    2.70    0.54
   1   2  -5    2.97    0.52
   0  -2   5  111.97    3.19
   0   2  -5  108.86    2.91
   0   2   5  113.64    3.12
   1  -2   5  111.05    3.36
   1   2   5  100.78    3.23
   2  -2   5    0.43    0.74
   2   2   5    0.38    0.73
   3  -2   5   13.62    1.61
   3   2   5   13.97    1.62
   6   3  -5   17.97    1.53
   6   3  -5   18.82    1.51
   5  -3  -5   25.32    1.68
   5   3  -5   24.97    1.54
   5   3  -5   22.25    1.53
   4  -3  -5    2.89    0.76
   4   3  -5    3.02    0.71
   4   3  -5    2.33    0.73
   3  -3  -5   46.04    1.83
   3   3  -5   44.87    1.86
   3   3  -5   37.53    1.60
   2  -3  -5  128.44    3.37
   2   3  -5  124.10    3.39
   2   3  -5  128.85    3.21
   1  -3  -5    2.70    0.58
  -1  -3   5    1.88    0.55
   1  -3  -5    2.44    0.49
   1   3  -5    2.43    0.57
   1   3  -5    1.44    0.44
   0  -3   5   23.49    1.39
   0   3  -5   20.22    1.13
   1  -3   5   31.90    1.80
   2  -3   5    0.95    0.83
   3  -3   5   62.86    2.88
   6   4  -5    7.33    1.08
   6   4  -5    7.26    1.09
   5  -4  -5   29.46    1.79
   5   4  -5   27.91    1.65
   5   4  -5   31.49    1.71
   4  -4  -5    0.34    0.61
   4   4  -5    0.21    0.55
   4   4  -5    0.35    0.56
   3  -4  -5   33.95    1.63
   3   4  -5   38.33    1.54
   3   4  -5   39.20    1.71
   2  -4  -5    5.39    0.73
   2   4  -5    4.61    0.61
   2   4  -5    5.20    0.72
  -1  -4   5    2.30    0.58
   1  -4  -5    2.21    0.56
   1  -4  -5    2.64    0.49
   1   4  -5    2.38    0.58
   0  -4  -5  130.81    3.32
   0  -4   5  130.69    3.61
   0   4  -5  132.10    3.37
   1  -4   5  108.44    3.42
   2  -4   5    0.48    0.82
   3  -4   5    6.43    1.28
  -3  -4  -5    8.21    1.13
   6   5  -5   32.18    1.90
   6   5  -5   32.10    1.83
   5  -5  -5   25.72    1.70
   5   5  -5   24.27    1.57
   5   5  -5   23.32    1.52
   4  -5  -5    1.59    0.69
   4   5  -5    1.14    0.56
   4   5  -5    2.09    0.68
   3  -5  -5   24.44    1.40
   3   5  -5   22.37    1.19
   3   5  -5   27.91    1.47
   2  -5  -5  127.71    3.42
   2   5  -5  126.94    3.42
  -1  -5   5    1.17    0.50
   1  -5  -5    0.32    0.38
   1  -5  -5    0.22    0.47
   1   5  -5    0.68    0.47
   0  -5   5    6.03    0.89
   0  -5  -5    7.53    0.81
   0   5  -5    5.72    0.72
  -1  -5  -5   36.02    1.69
   1  -5   5   29.56    1.77
  -2  -5  -5    0.30    0.60
   2  -5   5    1.29    0.85
   3  -5   5   44.48    2.52
  -3  -5  -5   54.43    2.32
   6   6  -5    1.15    0.65
   5  -6  -5   35.71    1.94
   5   6  -5   26.64    1.67
   5   6  -5   31.79    1.73
   4  -6  -5    1.15    0.64
   4   6  -5    1.25    0.62
   3  -6  -5   48.54    1.95
   3   6  -5   45.84    1.90
   2  -6  -5    3.45    0.66
   2   6  -5    3.15    0.71
   1  -6  -5    1.82    0.49
   1  -6  -5    2.02    0.58
  -1  -6   5    1.20    0.52
   1   6  -5    1.60    0.53
   0  -6   5  131.38    3.61
   0  -6  -5  128.83    3.33
   0   6  -5  129.41    3.37
  -1  -6  -5  102.59    3.03
   1  -6   5   91.72    3.13
   2  -6   5    7.88    1.31
  -2  -6  -5    6.91    1.08
   3  -6   5    6.82    1.34
  -3  -6  -5    5.52    1.01
   6   7  -5   28.40    1.72
   5  -7  -5   17.14    1.54
   5   7  -5   18.48    1.41
   4  -7  -5    4.04    0.83
   4   7  -5    4.80    0.83
   3  -7  -5   44.17    1.89
   3   7  -5   45.68    1.89
   2  -7  -5  126.39    3.47
   2   7  -5  123.60    3.44
   1  -7  -5    3.27    0.56
  -1  -7   5    3.81    0.69
   1   7  -5    4.23    0.67
   0  -7   5   13.61    1.23
   0  -7  -5   11.74    1.00
   0   7  -5   15.08    1.06
   1  -7   5   21.05    1.55
  -1  -7  -5   20.82    1.36
   2  -7   5    4.46    1.06
  -2  -7  -5    4.70    0.87
  -3  -7  -5   59.45    2.48
   5  -8  -5   30.40    1.87
   5   8  -5   26.65    1.62
   4  -8  -5    2.54    0.74
   4   8  -5    2.78    0.71
   3  -8  -5   48.83    1.97
   3   8  -5   42.30    1.85
   2  -8  -5   12.62    1.11
   2   8  -5   14.59    1.14
   1  -8  -5    0.38    0.40
  -1  -8   5    0.45    0.50
   1   8  -5    0.85    0.49
   0  -8   5  100.40    3.17
   0  -8  -5  107.60    2.95
   0   8  -5  104.32    2.93
   1  -8   5   54.65    2.36
  -1  -8  -5   57.70    2.15
   2  -8   5   14.79    1.60
  -2  -8  -5   13.93    1.26
  -3  -8  -5    8.17    1.23
   3  -8   5    4.74    1.15
   5  -9  -5   23.58    1.71
   5   9  -5   22.57    1.53
   4  -9  -5    3.59    0.83
   4   9  -5    4.04    0.78
   3  -9  -5   36.99    1.77
   3   9  -5   38.46    1.74
   2  -9  -5  132.09    3.65
   2   9  -5  129.23    3.60
  -1  -9   5   11.07    1.04
   1  -9  -5   11.17    0.89
   1   9  -5   11.61    1.05
   0  -9  -5    4.45    0.73
   0  -9   5    4.99    0.93
   0   9  -5    5.60    0.75
   1  -9   5   13.36    1.41
  -1  -9  -5   15.03    1.22
   2  -9   5    2.86    0.99
  -2  -9  -5    2.68    0.78
  -3  -9  -5   64.96    2.66
   5 -10  -5   29.80    1.87
   5  10  -5   27.69    1.68
   4 -10  -5    5.97    0.95
   4  10  -5    6.01    0.89
   3 -10  -5   42.26    1.90
   3  10  -5   41.87    1.84
   2 -10  -5    2.10    0.64
   2  10  -5    2.67    0.67
  -1 -10   5   11.15    1.08
   1 -10  -5   11.37    0.95
   1  10  -5   11.74    1.07
   0 -10  -5   75.82    2.40
   0 -10   5   76.13    2.70
   0  10  -5   81.22    2.49
   1 -10   5   41.11    2.13
  -1 -10  -5   44.57    1.86
  -2 -10  -5    6.46    1.01
   2 -10   5    4.15    1.02
  -3 -10  -5    9.67    1.22
   5 -11  -5   18.61    1.60
   5  11  -5   14.63    1.38
   4 -11  -5    3.57    0.83
   4  11  -5    3.38    0.77
   3 -11  -5   55.56    2.19
   3  11  -5   50.33    2.08
   2 -11  -5   89.09    2.83
   2  11  -5   86.56    2.79
  -1 -11   5    5.48    0.84
   1 -11  -5    5.13    0.74
   1  11  -5    7.39    0.89
   0 -11  -5   14.29    1.12
   0 -11   5   13.53    1.34
   0  11  -5   14.70    1.13
   1 -11   5   14.90    1.55
  -1 -11  -5   14.06    1.16
  -2 -11  -5    0.19    0.62
   2 -11   5    0.41    0.78
  -3 -11  -5   53.97    2.32
   5 -12  -5   26.17    1.84
   5  12  -5   28.16    1.70
   4 -12  -5    0.43    0.64
   4  12  -5   -0.56    0.51
   3 -12  -5   45.81    2.05
   3  12  -5   46.87    2.00
   2 -12  -5    1.80    0.67
   2  12  -5    3.52    0.71
  -1 -12   5   13.35    1.23
   1 -12  -5   14.00    1.09
   1  12  -5   15.40    1.19
   0 -12  -5   69.72    2.37
   0 -12   5   69.44    2.63
   0  12  -5   71.80    2.43
   1 -12   5   66.95    2.74
  -1 -12  -5   66.31    2.37
  -2 -12  -5    2.82    0.82
   2 -12   5    2.25    0.99
  -3 -12  -5    9.90    1.29
   5  13  -5   16.65    1.41
   4 -13  -5    6.63    1.04
   4  13  -5    8.28    1.05
   3 -13  -5   20.16    1.45
   3  13  -5   18.00    1.34
   2 -13  -5   67.93    2.48
   2  13  -5   67.56    2.42
  -1 -13   5    7.50    1.02
   1 -13  -5    8.98    1.05
   1 -13  -5    8.09    0.90
   1  13  -5   10.03    1.10
   0 -13  -5    9.55    1.04
   0 -13   5   12.88    1.36
   0  13  -5   10.52    1.10
  -1 -13  -5   22.06    1.41
   1 -13   5   18.68    1.62
   2 -13   5   -0.34    0.78
  -2 -13  -5    0.56    0.65
   4 -14  -5   -0.01    0.61
   4  14  -5    0.14    0.58
   3 -14  -5   25.85    1.63
   3  14  -5   24.25    1.52
   2 -14  -5    1.12    0.66
   2  14  -5    1.19    0.64
   1 -14  -5   17.93    1.40
   1 -14  -5   19.54    1.30
  -1 -14   5   20.95    1.52
   1  14  -5   19.09    1.39
   0 -14   5   75.94    2.88
   0 -14  -5   77.37    2.58
   0  14  -5   79.16    2.62
  -1 -14  -5   79.67    2.71
   1 -14   5   77.49    3.03
   2 -14   5    6.47    1.25
  -2 -14  -5    6.22    0.99
   4 -15  -5    8.92    1.16
   4  15  -5    9.93    1.14
   3 -15  -5   21.18    1.56
   3  15  -5   23.97    1.52
   2 -15  -5   56.43    2.33
   2  15  -5   59.24    2.31
   1 -15  -5    5.42    0.86
   1 -15  -5    4.91    0.88
  -1 -15   5    4.04    0.90
   1  15  -5    5.38    0.89
   0 -15  -5   13.01    1.22
   0 -15   5   14.23    1.46
   0  15  -5   11.98    1.16
   1 -15   5   25.66    1.87
  -1 -15  -5   24.31    1.56
   2 -15   5    1.05    0.91
  -2 -15  -5    1.31    0.73
   4 -16  -5    1.14    0.69
   4  16  -5    2.62    0.78
   3 -16  -5   21.38    1.56
   3  16  -5   20.92    1.49
   2 -16  -5    2.41    0.75
   2  16  -5    1.82    0.70
   1 -16  -5    8.27    1.05
  -1 -16   5    8.58    1.16
   1 -16  -5    9.61    1.13
   1  16  -5    7.56    1.01
   0 -16   5   68.02    2.82
   0 -16  -5   66.48    2.47
   0  16  -5   67.59    2.50
  -1 -16  -5   53.65    2.25
   1 -16   5   57.01    2.65
   2 -16   5   18.90    1.94
  -2 -16  -5   16.08    1.45
   3 -17  -5   30.50    1.80
   3  17  -5   28.68    1.76
   2 -17  -5   46.10    2.17
   2  17  -5   48.03    2.15
   1 -17  -5    5.51    0.94
   1 -17  -5    4.56    0.89
  -1 -17   5    5.28    1.03
   1  17  -5    4.06    0.90
   0 -17  -5    8.88    1.13
   0 -17   5    9.91    1.34
   0  17  -5   13.21    1.31
   1 -17   5    7.94    1.32
  -1 -17  -5    8.77    1.15
   3 -18  -5   42.47    2.15
   3  18  -5   43.40    2.11
   2 -18  -5    1.65    0.72
   2  18  -5    0.31    0.64
   1 -18  -5    6.05    1.00
  -1 -18   5    7.88    1.17
   1 -18  -5    6.37    1.03
   1  18  -5    7.01    1.01
   0 -18   5   59.79    2.75
   0 -18  -5   58.72    2.42
   0  18  -5   60.24    2.44
   1 -18   5   23.46    1.92
  -1 -18  -5   26.85    1.73
   3 -19  -5   21.37    1.62
   3  19  -5   22.51    1.68
   2 -19  -5   50.83    2.35
   2  19  -5   51.56    2.33
   1 -19  -5    4.35    0.92
  -1 -19   5    3.28    0.99
   1 -19  -5    3.15    0.92
   1  19  -5    4.34    0.93
   0 -19  -5    7.19    1.11
   0 -19   5    7.35    1.31
  -1 -19  -5    9.42    1.26
   1 -19   5   10.72    1.49
   2 -20  -5    6.54    1.05
   2  20  -5    5.85    1.02
   1 -20  -5   13.00    1.49
  -1 -20   5   12.79    1.54
   1 -20  -5   10.50    1.31
   1  20  -5   10.49    1.24
   0 -20   5   29.72    2.17
   0 -20  -5   33.77    1.99
  -1 -21   5    8.78    1.40
   1 -21  -5   10.36    1.31
   1  21  -5    8.82    1.21
   0 -21  -5   18.82    1.65
   0 -21   5   13.33    1.64
  -1 -22   5   23.32    2.04
   5   0  -6    2.23    0.87
   5   0  -6    0.80    0.74
   4   0  -6   12.81    1.27
   3   0  -6   18.01    1.29
   2   0  -6   82.52    2.56
   1   0  -6   52.81    1.90
   0   0  -6    0.28    0.46
   0   0   6    0.28    0.65
   1   0   6   16.55    1.64
   2   0   6  124.88    4.18
   5  -1  -6    6.12    1.08
   5   1  -6    7.70    1.08
   5   1  -6    5.81    1.08
   4  -1  -6   52.36    2.24
   4   1  -6   53.89    2.23
   4   1  -6   61.17    2.45
   3  -1  -6    8.18    0.98
   3   1  -6    7.07    0.91
   2  -1  -6    5.67    0.82
   2   1  -6    5.93    0.76
   1  -1  -6   60.05    2.07
   0  -1   6   11.69    1.26
   0   1   6   12.36    1.21
   0   1  -6   10.63    1.02
   1  -1   6   17.98    1.73
   1   1   6   14.65    1.46
   2  -1   6    4.52    1.19
   5  -2  -6    1.73    0.82
   5   2  -6    2.31    0.82
   5   2  -6    2.21    0.79
   4  -2  -6    2.50    0.81
   4   2  -6    2.58    0.77
   4   2  -6    2.92    0.80
   3  -2  -6   10.65    1.11
   3   2  -6   10.11    1.12
   2  -2  -6   45.75    1.90
   2   2  -6   51.35    2.10
   1  -2  -6   35.32    1.61
   1   2  -6   37.02    1.67
   0  -2   6    0.79    0.68
   0   2  -6    0.34    0.47
   1  -2   6   17.34    1.70
   2  -2   6   61.06    2.87
   5  -3  -6   10.24    1.26
   5   3  -6   10.25    1.27
   4  -3  -6   73.35    2.75
   4   3  -6   77.08    2.82
   3  -3  -6    6.20    0.94
   3   3  -6    5.93    0.93
   2  -3  -6    6.81    0.87
   2   3  -6    8.66    1.02
   1  -3  -6   66.20    2.29
   1   3  -6   64.22    2.24
   0  -3   6   11.31    1.25
   0  -3  -6   11.58    1.25
   0   3  -6   12.17    1.07
   1  -3   6   18.41    1.62
   2  -3   6    1.22    0.92
   5  -4  -6    1.53    0.79
   5   4  -6    3.04    0.90
   4  -4  -6   10.57    1.23
   4   4  -6   14.90    1.40
   3  -4  -6   12.36    1.23
   3   4  -6   13.67    1.31
   2  -4  -6   22.74    1.39
   2   4  -6   25.31    1.53
   1  -4  -6   52.22    2.03
   1   4  -6   52.66    2.01
   0  -4   6    0.40    0.66
   0  -4  -6    0.82    0.51
   0   4  -6    0.32    0.44
   1  -4   6   25.38    1.81
  -1  -4  -6   28.98    1.72
   2  -4   6   49.65    2.61
  -2  -4  -6   61.39    2.61
   5  -5  -6   18.88    1.64
   5   5  -6   22.46    1.69
   4  -5  -6   69.27    2.63
   4   5  -6   67.50    2.63
   3  -5  -6    5.93    0.92
   3   5  -6    5.41    0.92
   2  -5  -6    3.05    0.71
   2   5  -6    3.63    0.78
   1  -5  -6   54.94    2.12
   1   5  -6   56.82    2.19
   0  -5   6   10.32    1.24
   0  -5  -6   11.51    1.08
   0   5  -6   12.95    1.06
   1  -5   6   40.94    2.22
  -2  -5  -6    2.68    0.90
   2  -5   6    2.46    0.99
   5  -6  -6    4.65    1.00
   5   6  -6    7.34    1.10
   4  -6  -6    7.34    1.06
   4   6  -6    5.74    0.97
   3  -6  -6    7.05    1.03
   3   6  -6    6.15    0.97
   2  -6  -6   15.10    1.22
   2   6  -6   14.99    1.28
   1  -6  -6   52.28    2.06
   1   6  -6   52.16    2.07
   0  -6   6    2.99    0.90
   0  -6  -6    3.56    0.73
   0   6  -6    2.67    0.62
   1  -6   6   24.35    1.84
  -1  -6  -6   27.55    1.67
   2  -6   6   68.29    3.06
   5  -7  -6   24.78    1.90
   4  -7  -6   51.14    2.32
   4   7  -6   50.15    2.25
   3  -7  -6    3.86    0.83
   3   7  -6    3.96    0.80
   2  -7  -6    1.01    0.62
   2   7  -6    0.63    0.58
   1  -7  -6   79.39    2.66
   1   7  -6   77.92    2.63
   0  -7  -6   22.17    1.32
   0  -7   6   18.95    1.56
   0   7  -6   19.91    1.29
  -1  -7  -6   42.37    2.02
   1  -7   6   33.83    2.13
   2  -7   6    6.08    1.27
   4  -8  -6    6.97    1.09
   4   8  -6    4.88    0.94
   3  -8  -6    7.52    1.04
   3   8  -6    9.54    1.10
   2  -8  -6   31.77    1.71
   2   8  -6   31.50    1.67
   1  -8  -6   41.67    1.90
   1   8  -6   40.12    1.81
   0  -8   6   17.11    1.58
   0  -8  -6   13.85    1.14
   0   8  -6   16.52    1.24
   1  -8   6   25.66    1.90
  -1  -8  -6   25.09    1.59
   2  -8   6   62.49    3.00
  -2  -8  -6   66.14    2.65
   4  -9  -6   48.10    2.26
   4   9  -6   45.22    2.15
   3  -9  -6    8.91    1.13
   3   9  -6   10.73    1.15
   2  -9  -6    2.22    0.75
   2   9  -6    2.99    0.73
   1  -9  -6   37.80    1.82
   1   9  -6   38.90    1.81
   0  -9  -6    4.91    0.86
   0  -9   6    5.83    1.03
   0   9  -6    4.19    0.75
  -1  -9  -6   16.16    1.38
   1  -9   6   17.48    1.75
   2  -9   6    0.65    0.89
  -2  -9  -6    1.07    0.73
   4 -10  -6    2.18    0.79
   4  10  -6    2.15    0.76
   3 -10  -6    5.92    0.98
   3  10  -6    6.29    0.97
   2 -10  -6   40.74    1.98
   2  10  -6   42.73    1.91
   1 -10  -6   24.83    1.54
   1  10  -6   26.74    1.56
   0 -10  -6    1.65    0.66
   0 -10   6    2.41    0.87
   0  10  -6    2.76    0.69
  -1 -10  -6   12.73    1.28
   1 -10   6   11.64    1.47
   2 -10   6   60.94    3.00
  -2 -10  -6   60.75    2.51
   4 -11  -6   40.90    2.18
   4  11  -6   41.29    2.06
   3 -11  -6    4.25    0.93
   3  11  -6    4.98    0.91
   2 -11  -6   10.52    1.21
   2  11  -6   10.82    1.15
   1 -11  -6   50.72    2.20
   1  11  -6   51.85    2.12
   0 -11   6   16.74    1.56
   0 -11  -6   16.08    1.28
   0  11  -6   17.84    1.35
  -1 -11  -6   12.51    1.27
   1 -11   6   14.25    1.62
  -2 -11  -6    5.59    1.15
   4 -12  -6    4.46    0.96
   4  12  -6    4.26    0.92
   3 -12  -6    5.79    1.00
   3  12  -6    6.97    1.05
   2 -12  -6   39.16    1.98
   2  12  -6   36.96    1.87
   1 -12  -6   30.30    1.74
   1  12  -6   30.51    1.70
   0 -12   6    5.06    1.05
   0 -12  -6    4.85    0.87
   0  12  -6    4.73    0.82
  -1 -12  -6   14.16    1.30
   1 -12   6   13.80    1.63
   3 -13  -6    6.37    1.06
   3  13  -6    5.19    0.95
   2 -13  -6   11.89    1.31
   2  13  -6   13.59    1.30
   1 -13  -6   32.71    1.85
   1  13  -6   30.93    1.78
   0 -13  -6    6.34    0.98
   0 -13   6    6.68    1.23
   0  13  -6    6.14    0.93
  -1 -13  -6   16.47    1.38
   1 -13   6   18.76    1.86
   3 -14  -6    8.07    1.16
   3  14  -6    9.15    1.14
   2 -14  -6   25.47    1.73
   2  14  -6   24.40    1.62
   1 -14  -6   28.05    1.78
   1  14  -6   28.48    1.77
   0 -14   6    8.31    1.34
   0 -14  -6    9.22    1.12
   0  14  -6   10.25    1.19
   1 -14   6   17.75    1.85
  -1 -14  -6   18.68    1.46
   3 -15  -6    6.50    1.09
   3  15  -6    6.44    1.04
   2 -15  -6    7.97    1.14
   2  15  -6   11.19    1.26
   1 -15  -6   42.26    2.17
   1  15  -6   40.77    2.07
   0 -15  -6    3.12    0.80
   0 -15   6    3.87    1.07
   0  15  -6    5.05    0.86
   1 -15   6   19.38    1.93
  -1 -15  -6   17.58    1.51
   2 -16  -6   13.30    1.44
   2  16  -6   12.79    1.33
   1 -16  -6   24.05    1.77
   1  16  -6   25.24    1.69
   0 -16   6   14.17    1.65
   0 -16  -6   15.16    1.41
   0  16  -6   12.94    1.35
   2  17  -6    2.29    0.84
   1  17  -6   25.35    1.76
   0 -17  -6    1.02    0.71
   0 -17   6    1.84    1.03
   0  17  -6    1.34    0.75
   1  18  -6   31.50    1.90
   0 -18   6    7.29    1.36
   0 -18  -6    7.74    1.15
   0  18  -6    8.06    1.12
   2   0  -7    2.94    0.83
   1   0  -7    0.96    0.66
   3   1  -7   67.49    2.85
   2   1  -7   25.23    1.70
   1  -1  -7    0.51    0.67
   1   1  -7    1.15    0.69
   1  -1   7   11.80    1.48
   4  -2  -7    1.14    0.76
   3  -2  -7    2.54    0.84
   3   2  -7    1.82    0.79
   1   2  -7    6.64    0.98
   1  -2   7    8.86    1.42
   4  -3  -7    1.85    0.84
   3  -3  -7   35.27    1.93
   3   3  -7   37.46    2.07
   2  -3  -7   22.87    1.59
   2   3  -7   25.53    1.74
   1   3  -7    1.59    0.68
   1  -3   7   15.61    1.75
   4  -4  -7    1.95    0.84
   3  -4  -7    4.52    0.93
   3   4  -7    4.19    0.98
   2  -4  -7    4.70    0.89
   2   4  -7    5.45    0.95
   1  -4  -7   12.39    1.24
   1   4  -7   10.59    1.17
   1  -4   7    7.56    1.36
   4  -5  -7    0.64    0.73
   3  -5  -7   31.66    1.88
   3   5  -7   33.56    1.95
   2  -5  -7   27.72    1.70
   2   5  -7   29.66    1.78
   1  -5  -7    3.68    0.86
   1   5  -7    4.90    0.91
  -1  -5  -7   16.19    1.52
   4  -6  -7    2.28    0.86
   3  -6  -7    5.66    1.01
   3   6  -7    7.69    1.18
   2  -6  -7    4.03    0.86
   2   6  -7    3.40    0.86
   1  -6  -7   23.14    1.62
   1   6  -7   20.87    1.45
   1  -6   7    4.64    1.18
  -1  -6  -7    8.12    1.26
   3  -7  -7   55.96    2.47
   3   7  -7   58.27    2.51
   2  -7  -7   25.76    1.66
   2   7  -7   24.74    1.66
   1  -7  -7    7.85    1.11
   1   7  -7   10.83    1.16
  -1  -7  -7   14.07    1.51
   3  -8  -7    5.52    1.00
   3   8  -7    5.91    1.00
   2  -8  -7    8.68    1.09
   2   8  -7    7.67    1.08
   1  -8  -7    5.83    1.02
   1   8  -7    6.58    0.98
  -1  -8  -7    5.07    1.07
   1  -8   7    3.48    1.18
   3  -9  -7   53.01    2.42
   3   9  -7   47.20    2.40
   2  -9  -7   10.95    1.22
   2   9  -7   10.61    1.19
   1  -9  -7    3.07    0.88
   1   9  -7    1.12    0.66
   3 -10  -7    4.41    1.04
   2 -10  -7    3.69    0.88
   2  10  -7    3.19    0.85
   1 -10  -7    1.44    0.78
   1  10  -7    1.33    0.68
   2 -11  -7   18.53    1.57
   2  11  -7   17.20    1.49
   1 -11  -7    3.33    0.95
   1  11  -7    3.33    0.80
   2  12  -7    3.75    0.90
   1  12  -7    6.01    1.02
   1  13  -7   11.52    1.34
   0   0   0    0.00    0.00
;
_shelx_hkl_checksum              95477
#END Tags that were not found in dictionaries
loop_
_space_group_symop_operation_xyz
'x, y, z'
'-x, y+1/2, -z'
loop_
_atom_site_type_symbol
_atom_site_label
_atom_site_fract_x
_atom_site_fract_y
_atom_site_fract_z
_atom_site_U_iso_or_equiv
_atom_site_adp_type
_atom_site_calc_flag
_atom_site_refinement_flags_adp
_atom_site_refinement_flags_posn
_atom_site_occupancy
Ag Ag1 0.21400(8) 0.85797(2) 0.42537(7) 0.01395(10) Uani d . . 1
Ag Ag2 -0.44183(8) 0.86665(2) -0.00906(7) 0.01502(10) Uani d . . 1
C C1 -0.0237(12) 0.7561(3) 0.0222(10) 0.0124(11) Uani d . . 1
C C2 0.1412(13) 0.6940(3) 0.1422(11) 0.0130(11) Uani d . . 1
H H2A 0.0172 0.6539 0.1016 0.016 Uiso calc U R 1
H H2B 0.31 0.6872 0.0704 0.016 Uiso calc U R 1
C C3 0.2393(11) 0.7005(3) 0.4242(10) 0.0099(11) Uani d . . 1
H H3 0.0677 0.7047 0.4969 0.012 Uiso calc U R 1
C C4 0.4050(11) 0.6373(3) 0.5296(10) 0.0099(10) Uani d . . 1
C C5 0.3906(12) 0.5248(3) 0.6968(11) 0.0118(10) Uani d . . 1
H H5 0.5705 0.5204 0.6362 0.014 Uiso calc U R 1
C C6 0.4728(13) 0.5255(3) 0.9815(11) 0.0138(12) Uani d . . 1
H H6A 0.5867 0.5662 1.04 0.017 Uiso calc U R 1
H H6B 0.2977 0.527 1.0471 0.017 Uiso calc U R 1
C C7 0.1979(11) 0.4653(3) 0.5932(10) 0.0102(10) Uani d . . 1
N N1 0.4207(10) 0.7606(2) 0.4920(9) 0.0113(9) Uani d . . 1
H H1A 0.5736 0.759 0.3984 0.014 Uiso calc U R 1
H H1B 0.5144 0.7576 0.6722 0.014 Uiso calc U R 1
N N2 0.2534(9) 0.5880(2) 0.5981(9) 0.0110(9) Uani d . . 1
H H2 0.0687 0.5933 0.5841 0.013 Uiso calc U R 1
N N3 0.6403(11) 0.4654(3) 1.0789(10) 0.0147(10) Uani d . . 1
H H3A 0.7061 0.4708 1.2624 0.018 Uiso calc U R 1
H H3B 0.813 0.4652 1.0096 0.018 Uiso calc U R 1
O O1 0.0593(9) 0.7890(2) -0.1367(8) 0.0229(10) Uani d . . 1
O O2 -0.2467(9) 0.7703(2) 0.1020(9) 0.0208(10) Uani d . . 1
O O3 0.6646(8) 0.6332(2) 0.5419(9) 0.0206(9) Uani d . . 1
O O4 0.2658(10) 0.4293(3) 0.4316(9) 0.0281(11) Uani d . . 1
O O5 -0.0192(8) 0.4563(2) 0.6805(8) 0.0168(9) Uani d . . 1
loop_
_atom_site_aniso_label
_atom_site_aniso_U_11
_atom_site_aniso_U_22
_atom_site_aniso_U_33
_atom_site_aniso_U_12
_atom_site_aniso_U_13
_atom_site_aniso_U_23
Ag1 0.01447(17) 0.00805(19) 0.0177(2) 0.00273(16) 0.00041(14) -0.00125(16)
Ag2 0.01633(18) 0.0110(2) 0.01658(19) 0.00337(17) 0.00148(14) -0.00167(17)
C1 0.011(2) 0.014(3) 0.011(3) 0.000(2) 0.000(2) -0.004(2)
C2 0.014(3) 0.010(3) 0.015(3) 0.004(2) 0.001(2) -0.002(2)
C3 0.006(2) 0.010(3) 0.015(3) 0.0018(18) 0.005(2) 0.0022(19)
C4 0.008(2) 0.008(2) 0.014(2) 0.0030(19) 0.004(2) 0.0020(19)
C5 0.010(2) 0.008(3) 0.018(3) 0.001(2) 0.005(2) 0.002(2)
C6 0.014(2) 0.011(3) 0.016(3) 0.001(2) 0.001(2) -0.001(2)
C7 0.008(2) 0.007(2) 0.015(3) -0.0003(19) 0.001(2) 0.000(2)
N1 0.010(2) 0.007(2) 0.016(2) -0.0006(18) 0.0001(18) -0.0005(18)
N2 0.0063(18) 0.010(2) 0.018(2) 0.0037(16) 0.0056(18) 0.0071(17)
N3 0.015(2) 0.014(2) 0.015(2) 0.001(2) 0.003(2) 0.0029(19)
O1 0.022(2) 0.030(3) 0.019(2) 0.0084(19) 0.0101(19) 0.0085(19)
O2 0.017(2) 0.015(2) 0.034(3) 0.0052(18) 0.013(2) 0.0098(19)
O3 0.0070(18) 0.011(2) 0.046(3) 0.0040(15) 0.0114(19) 0.0099(19)
O4 0.023(2) 0.035(3) 0.030(3) -0.007(2) 0.013(2) -0.015(2)
O5 0.0119(18) 0.015(2) 0.026(2) -0.0042(17) 0.0084(18) -0.0044(18)
loop_
_atom_type_symbol
_atom_type_description
_atom_type_scat_dispersion_real
_atom_type_scat_dispersion_imag
_atom_type_scat_source
C C 0.0033 0.0016 'International Tables Vol C Tables 4.2.6.8 and 6.1.1.4'
H H 0.0000 0.0000 'International Tables Vol C Tables 4.2.6.8 and 6.1.1.4'
N N 0.0061 0.0033 'International Tables Vol C Tables 4.2.6.8 and 6.1.1.4'
O O 0.0106 0.0060 'International Tables Vol C Tables 4.2.6.8 and 6.1.1.4'
Ag Ag -0.8971 1.1015 'International Tables Vol C Tables 4.2.6.8 and 6.1.1.4'
loop_
_geom_angle_atom_site_label_1
_geom_angle_atom_site_label_2
_geom_angle_atom_site_label_3
_geom_angle_site_symmetry_1
_geom_angle_site_symmetry_3
_geom_angle
N1 Ag1 O5 . 2_556 173.80(17)
N1 Ag1 Ag2 . 1_656 76.61(13)
O5 Ag1 Ag2 2_556 1_656 107.82(12)
N1 Ag1 Ag2 . 1_655 83.03(13)
O5 Ag1 Ag2 2_556 1_655 90.96(10)
Ag2 Ag1 Ag2 1_656 1_655 118.938(18)
O2 Ag2 N3 . 2_556 173.80(19)
O2 Ag2 Ag1 . 1_454 108.83(13)
N3 Ag2 Ag1 2_556 1_454 76.62(14)
O2 Ag2 Ag1 . 1_455 90.41(11)
N3 Ag2 Ag1 2_556 1_455 84.22(13)
Ag1 Ag2 Ag1 1_454 1_455 118.938(17)
O1 C1 O2 . . 124.1(6)
O1 C1 C2 . . 121.0(5)
O2 C1 C2 . . 115.0(5)
C3 C2 C1 . . 112.2(5)
C3 C2 H2A . . 109.2
C1 C2 H2A . . 109.2
C3 C2 H2B . . 109.2
C1 C2 H2B . . 109.2
H2A C2 H2B . . 107.9
N1 C3 C2 . . 110.7(4)
N1 C3 C4 . . 110.2(4)
C2 C3 C4 . . 109.2(4)
N1 C3 H3 . . 108.9
C2 C3 H3 . . 108.9
C4 C3 H3 . . 108.9
O3 C4 N2 . . 123.2(5)
O3 C4 C3 . . 120.4(5)
N2 C4 C3 . . 116.4(4)
N2 C5 C6 . . 111.1(5)
N2 C5 C7 . . 110.2(5)
C6 C5 C7 . . 112.3(5)
N2 C5 H5 . . 107.7
C6 C5 H5 . . 107.7
C7 C5 H5 . . 107.7
N3 C6 C5 . . 110.9(5)
N3 C6 H6A . . 109.5
C5 C6 H6A . . 109.5
N3 C6 H6B . . 109.5
C5 C6 H6B . . 109.5
H6A C6 H6B . . 108.1
O4 C7 O5 . . 124.6(5)
O4 C7 C5 . . 118.5(5)
O5 C7 C5 . . 116.9(5)
C3 N1 Ag1 . . 117.4(3)
C3 N1 H1A . . 107.9
Ag1 N1 H1A . . 107.9
C3 N1 H1B . . 107.9
Ag1 N1 H1B . . 107.9
H1A N1 H1B . . 107.2
C4 N2 C5 . . 120.7(4)
C4 N2 H2 . . 119.7
C5 N2 H2 . . 119.7
C6 N3 Ag2 . 2_546 119.3(4)
C6 N3 H3A . . 107.5
Ag2 N3 H3A 2_546 . 107.5
C6 N3 H3B . . 107.5
Ag2 N3 H3B 2_546 . 107.5
H3A N3 H3B . . 107.0
C1 O2 Ag2 . . 116.3(4)
C7 O5 Ag1 . 2_546 111.5(4)
loop_
_geom_bond_atom_site_label_1
_geom_bond_atom_site_label_2
_geom_bond_site_symmetry_2
_geom_bond_distance
Ag1 N1 . 2.172(5)
Ag1 O5 2_556 2.191(4)
Ag1 Ag2 1_656 3.1694(6)
Ag1 Ag2 1_655 3.2073(6)
Ag2 O2 . 2.161(5)
Ag2 N3 2_556 2.181(5)
Ag2 Ag1 1_454 3.1694(6)
Ag2 Ag1 1_455 3.2073(6)
C1 O1 . 1.229(7)
C1 O2 . 1.281(7)
C1 C2 . 1.534(8)
C2 C3 . 1.517(8)
C2 H2A . 0.99
C2 H2B . 0.99
C3 N1 . 1.478(7)
C3 C4 . 1.530(8)
C3 H3 . 1.0
C4 O3 . 1.238(6)
C4 N2 . 1.329(7)
C5 N2 . 1.465(7)
C5 C6 . 1.522(8)
C5 C7 . 1.532(8)
C5 H5 . 1.0
C6 N3 . 1.473(8)
C6 H6A . 0.99
C6 H6B . 0.99
C7 O4 . 1.242(7)
C7 O5 . 1.259(6)
N1 H1A . 0.99
N1 H1B . 0.99
N2 H2 . 0.88
N3 Ag2 2_546 2.181(5)
N3 H3A . 0.99
N3 H3B . 0.99
O5 Ag1 2_546 2.191(4)
