#------------------------------------------------------------------------------
#$Date: 2016-03-24 14:28:49 +0200 (Thu, 24 Mar 2016) $
#$Revision: 179665 $
#$URL: svn://www.crystallography.net/cod/cif/4/51/18/4511812.cif $
#------------------------------------------------------------------------------
#
# This file is available in the Crystallography Open Database (COD),
# http://www.crystallography.net/
#
# All data on this site have been placed in the public domain by the
# contributors.
#
data_4511812
loop_
_publ_author_name
'Emami, Seyedali'
'Paz, Filipe A. Almeida'
'Mendes, Ad\'elio'
'Gales, Lu\'is'
_publ_section_title
;
 Toward the Construction of 3D Dipeptide--Metal Frameworks
;
_journal_issue                   9
_journal_name_full               'Crystal Growth &amp; Design'
_journal_page_first              4777
_journal_paper_doi               10.1021/cg500925x
_journal_volume                  14
_journal_year                    2014
_chemical_absolute_configuration rm
_chemical_formula_moiety         'C6 H8 N2 O5 Zn, H2 O'
_chemical_formula_sum            'C6 H10 N2 O6 Zn'
_chemical_formula_weight         271.53
_chemical_name_systematic
;
 ?
;
_space_group_crystal_system      monoclinic
_space_group_IT_number           4
_space_group_name_Hall           'P 2yb'
_space_group_name_H-M_alt        'P 1 21 1'
_symmetry_space_group_name_Hall  'P 2yb'
_symmetry_space_group_name_H-M   'P 1 21 1'
_atom_sites_solution_hydrogens   mixed
_audit_creation_date             '09 June 2014'
_audit_creation_method           'SHELXL-2014, manual editing plus enCIFer'
_cell_angle_alpha                90
_cell_angle_beta                 95.763(4)
_cell_angle_gamma                90
_cell_formula_units_Z            2
_cell_length_a                   4.8075(2)
_cell_length_b                   9.4727(5)
_cell_length_c                   9.7014(4)
_cell_measurement_reflns_used    9999
_cell_measurement_temperature    100(2)
_cell_measurement_theta_max      25.0
_cell_measurement_theta_min      1.0
_cell_volume                     439.57(3)
_computing_cell_refinement       'Crysalis v. 171.36.20 (Agilent, 2012)'
_computing_data_collection       'Pylatus control software (SNBL, 2012)'
_computing_data_reduction        'Crysalis v. 171.36.20 (Agilent, 2012)'
_computing_molecular_graphics    'DIAMOND (Brandenburg, 2009)'
_computing_publication_material  'SHELXTL (Sheldrick, 2014)'
_computing_structure_refinement  'SHELXTL (Sheldrick, 2014)'
_computing_structure_solution    'SHELXTL (Sheldrick, 2014)'
_diffrn_ambient_temperature      100(2)
_diffrn_detector_area_resol_mean '172 \mm'
_diffrn_measured_fraction_theta_full 0.944
_diffrn_measured_fraction_theta_max 0.941
_diffrn_measurement_device_type  PILATUS2M
_diffrn_measurement_method       \f-scan
_diffrn_radiation_monochromator  'Si (111)'
_diffrn_radiation_source         'Beamline BM1A, SNBL, ESRF, Grenoble, France'
_diffrn_radiation_type           synchrotron
_diffrn_radiation_wavelength     0.68239
_diffrn_reflns_av_R_equivalents  0.0805
_diffrn_reflns_av_unetI/netI     0.0783
_diffrn_reflns_Laue_measured_fraction_full 0.944
_diffrn_reflns_Laue_measured_fraction_max 0.941
_diffrn_reflns_limit_h_max       5
_diffrn_reflns_limit_h_min       -5
_diffrn_reflns_limit_k_max       9
_diffrn_reflns_limit_k_min       -9
_diffrn_reflns_limit_l_max       11
_diffrn_reflns_limit_l_min       -11
_diffrn_reflns_number            3828
_diffrn_reflns_point_group_measured_fraction_full 0.940
_diffrn_reflns_point_group_measured_fraction_max 0.936
_diffrn_reflns_theta_full        25.242
_diffrn_reflns_theta_max         25.328
_diffrn_reflns_theta_min         4.223
_diffrn_standards_interval_count 0
_diffrn_standards_interval_time  0
_diffrn_standards_number         0
_exptl_absorpt_coefficient_mu    2.808
_exptl_absorpt_correction_type   multi-scan
_exptl_absorpt_process_details
; 
'SADABS V2012/1 (Bruker AXS Inc.)' 
;
_exptl_crystal_colour            Colourless
_exptl_crystal_density_diffrn    2.052
_exptl_crystal_description       Plate
_exptl_crystal_F_000             276
_exptl_crystal_size_max          0.030
_exptl_crystal_size_mid          0.010
_exptl_crystal_size_min          0.010
_refine_diff_density_max         2.140
_refine_diff_density_min         -0.963
_refine_diff_density_rms         0.202
_refine_ls_abs_structure_details
;
 Flack x determined using 659 quotients [(I+)-(I-)]/[(I+)+(I-)]
 (Parsons, Flack and Wagner, Acta Cryst. B69 (2013) 249-259).
;
_refine_ls_abs_structure_Flack   0.05(2)
_refine_ls_extinction_method     none
_refine_ls_goodness_of_fit_ref   1.071
_refine_ls_hydrogen_treatment    mixed
_refine_ls_matrix_type           full
_refine_ls_number_parameters     148
_refine_ls_number_reflns         1513
_refine_ls_number_restraints     14
_refine_ls_restrained_S_all      1.068
_refine_ls_R_factor_all          0.0676
_refine_ls_R_factor_gt           0.0668
_refine_ls_shift/su_max          0.000
_refine_ls_shift/su_mean         0.000
_refine_ls_structure_factor_coef Fsqd
_refine_ls_weighting_details
'w=1/[\s^2^(Fo^2^)+(0.1221P)^2^] where P=(Fo^2^+2Fc^2^)/3'
_refine_ls_weighting_scheme      calc
_refine_ls_wR_factor_gt          0.1682
_refine_ls_wR_factor_ref         0.1694
_reflns_Friedel_coverage         0.870
_reflns_Friedel_fraction_full    0.936
_reflns_Friedel_fraction_max     0.931
_reflns_number_gt                1481
_reflns_number_total             1513
_reflns_threshold_expression     'I > 2\s(I)'
_cod_data_source_file            cg500925x_si_006.cif
_cod_data_source_block           Compound_1_Zn
_cod_depositor_comments
;
The following automatic conversions were performed:

'_space_group_crystal_system' value 'Monoclinic' changed to
'monoclinic' according to
/home/saulius/struct/COD-crude-data--automatic-downloads/rss-feeds/ACS/lib/dictionaries/cif_core.dic
dictionary named 'cif_core.dic' version 2.4.2 from
2011-04-26.

'_exptl_absorpt_correction_type' value 'Multi-scan'
changed to 'multi-scan' according to
/home/saulius/struct/COD-crude-data--automatic-downloads/rss-feeds/ACS/lib/dictionaries/cif_core.dic
dictionary named 'cif_core.dic' version 2.4.2 from 2011-04-26.

Automatic conversion script
Id: cif_fix_values 2281 2013-09-26 08:29:07Z andrius 

 Adding full bibliography for 4511807--4511812.cif.
;
_cod_database_code               4511812
#BEGIN Tags that were not found in dictionaries:
_shelx_space_group_comment
;
The symmetry employed for this shelxl refinement is uniquely defined
by the following loop, which should always be used as a source of
symmetry information in preference to the above space-group names.
They are only intended as comments.
;
_shelx_estimated_absorpt_t_min   0.921
_shelx_estimated_absorpt_t_max   0.972
_shelxl_version_number           2014-3
_shelx_res_file
;
TITL Compound_1 in P 21
CELL  0.68239   4.8070   9.4720   9.7010   90.000   95.760   90.000
ZERR     2.00   0.0000   0.0000   0.0000    0.000    0.000    0.000
LATT  -1

SYMM  - X, 1/2 + Y, - Z

SFAC  C    N    O    ZN   H
UNIT  12   4   12     2   20
LIST 4 ! automatically inserted. Change 6 to 4 for CHECKCIF!!

FMAP   2
PLAN   -5

BOND
ACTA
CONF
WPDB

SHEl 5.8 0.83
SIZE 0.03 0.01 0.01

DFIX 0.95 0.01 N1 H1A  N1 H1B
DFIX 1.55 0.01 H1A H1B
DFIX 0.95 0.01 O1W H1X  O1W H1Y
DFIX 1.55 0.01 H1X H1Y
DFIX -2.3 0.01 H1B Zn1

EQIV $1 -x+2, y-1/2, -z+1
EQIV $2 -x+1, y-1/2, -z+1
EQIV $3 -x+1, y-1/2, -z+2
EQIV $4 x-1, y, z
EQIV $5 x+1, y, z
EQIV $6 -x+2, y+1/2, -z+2

HTAB N1 O5_$1
HTAB N1 O1W_$2
HTAB C1 O3_$3
HTAB C1 O1W
HTAB N3 O5_$4
HTAB C3 O2_$5
HTAB C5 O1_$6
HTAB O1W O4_$1
HTAB O1W O5
HTAB

ISOR 0.005 C1

L.S.   12
WGHT    0.122100
FVAR       1.43993
ZN1   4    0.799428   -0.004464    0.781541    11.00000    0.01844    0.02090 =
         0.03433    0.00050    0.00276    0.00103
N1    2    0.584776    0.088422    0.609165    11.00000    0.01433    0.03850 =
         0.03760   -0.00351    0.00286   -0.00406
H1A   5    0.694603    0.112659    0.536741    11.00000   -1.50000
H1B   5    0.485282    0.003936    0.586801    11.00000   -1.50000

C1    1    0.442303    0.213314    0.650767    11.00000    0.02544    0.01598 =
         0.03461   -0.00144   -0.00099   -0.00665
AFIX  23
H1C   5    0.265148    0.187209    0.683430    11.00000   -1.20000
H1D   5    0.404787    0.276164    0.572155    11.00000   -1.20000
AFIX   0
C2    1    0.626627    0.288825    0.767023    11.00000    0.02264    0.00980 =
         0.03785    0.00278    0.00588   -0.00130
O1    3    0.826851    0.222223    0.828908    11.00000    0.02362    0.01944 =
         0.05050   -0.00104    0.00058    0.00089
N3    2    0.573419    0.419022    0.794576    11.00000    0.01736    0.01921 =
         0.04025   -0.00046   -0.00293    0.00092
AFIX  43
H3    5    0.436311    0.461987    0.748644    11.00000   -1.20000
AFIX   0
C3    1    0.748674    0.493694    0.905088    11.00000    0.01825    0.01799 =
         0.03573    0.00825    0.00378    0.00704
AFIX  13
H3A   5    0.937379    0.453407    0.912885    11.00000   -1.20000
AFIX   0
C4    1    0.630396    0.480926    1.044300    11.00000    0.02127    0.03596 =
         0.03119    0.00011    0.00732    0.00931
O2    3    0.372084    0.462929    1.043158    11.00000    0.01646    0.02999 =
         0.03500   -0.00365    0.00539   -0.00732
O3    3    0.790787    0.486498    1.156575    11.00000    0.01813    0.02718 =
         0.03423   -0.01189    0.00491   -0.00427
C5    1    0.765683    0.650089    0.870322    11.00000    0.02605    0.01436 =
         0.03730   -0.00002    0.00163    0.00488
AFIX  23
H5A   5    0.577805    0.688652    0.860207    11.00000   -1.20000
H5B   5    0.869052    0.698004    0.947657    11.00000   -1.20000
AFIX   0
C6    1    0.902569    0.682368    0.740379    11.00000    0.01606    0.01294 =
         0.04599   -0.00316   -0.00047    0.00559
O4    3    0.843877    0.804365    0.686462    11.00000    0.02448    0.02820 =
         0.03629    0.00026    0.00615    0.00122
O5    3    1.066289    0.598438    0.692901    11.00000    0.02460    0.02794 =
         0.03801    0.00019    0.00055   -0.00306
O1W   3    0.830498    0.388563    0.511258    11.00000    0.03140    0.02739 =
         0.03878   -0.00531    0.01044    0.00322
H1X   5    0.893630    0.352010    0.428896    11.00000   -1.50000
H1Y   5    0.935114    0.470856    0.538556    11.00000   -1.50000

HKLF    4

REM  Compound_1 in P 21
REM R1 =  0.0668 for    1481 Fo > 4sig(Fo)  and  0.0676 for all    1513 data
REM    148 parameters refined using     14 restraints

END

WGHT      0.1221      0.0000

REM Instructions for potential hydrogen bonds
HTAB N1 O5_$1
HTAB N1 O1W_$2
HTAB C1 O3_$3
HTAB C1 O1W
HTAB N3 O5_$4
HTAB C3 O2_$5
HTAB C5 O1_$6
HTAB O1W O4_$1
HTAB O1W O5

REM Highest difference peak  2.140,  deepest hole -0.963,  1-sigma level  0.202
Q1    1   0.7790 -0.0033  0.6929  11.00000  0.05    2.14
Q2    1   0.8177 -0.0041  0.8680  11.00000  0.05    2.06
Q3    1   0.8026  0.2234  0.7454  11.00000  0.05    1.01
Q4    1   0.6705 -0.0627  0.7888  11.00000  0.05    0.79
Q5    1   0.8265 -0.2217  0.7419  11.00000  0.05    0.76
;
_shelx_res_checksum              68466
_shelx_hkl_file
;
   0   0  -1 1453.85 122.332   1
   0   0   1 1516.92 121.874   1
   0   0  -1 1560.35 122.852   1
   0   0   1 1429.57 122.835   1
   0   0   2 11309.5 922.309   1
   0   0  -2 11587.9 923.543   1
   0   0   3 2209.13 208.134   1
   0   0  -3 2550.20 206.871   1
   0   0   3 2472.11 207.066   1
   0   0  -3 2315.01 208.880   1
   0   0  -4 1349.35 144.099   1
   0   0  -4 1561.12 141.947   1
   0   0   4 1735.71 148.198   1
   0   0   4 1485.14 142.071   1
   0   0  -5 860.430 80.1689   1
   0   0   5 723.494 81.1738   1
   0   0   6 7.94183 8.47491   1
   0   0  -6 20.1385 13.4115   1
   0   0   6 19.5625 11.8610   1
   0   0  -6 13.4379 8.83680   1
   0   0  -7 1429.49 154.438   1
   0   0   7 1638.58 159.419   1
   0   0   7 1878.26 164.484   1
   0   0  -7 1372.48 159.354   1
   0   0  -8 55.7639 20.9752   1
   0   0   8 30.2836 15.6262   1
   0   0  -9 322.263 50.2239   1
   0   0   9 369.566 49.6749   1
   0   0 -11 773.760 85.6668   1
   0   0  11 538.999 71.7249   1
   0   0 -12 145.291 32.8920   1
   0   0  12 132.610 28.6288   1
   0   1   1 6414.56 469.449   1
   0   1  -1 5739.81 470.027   1
   0   1   1 5841.67 469.704   1
   0  -1   1 5448.09 471.157   1
   0  -1   1 5209.53 469.944   1
   0  -1  -1 5939.75 470.029   1
   0  -1  -1 5757.67 468.895   1
   0   1  -1 5660.48 471.276   1
   0  -1   2 688.296 56.5572   1
   0  -1  -2 599.314 57.6425   1
   0   1   2 543.580 56.6083   1
   0   1  -2 655.994 59.5167   1
   0   1  -3 492.005 49.2386   1
   0   1   3 263.834 43.2666   1
   0  -1  -3 391.074 44.2236   1
   0   1  -3 325.058 42.6852   1
   0  -1  -3 336.188 44.1816   1
   0  -1   3 532.975 49.5612   1
   0   1   3 235.471 41.2857   1
   0  -1   3 529.777 46.7766   1
   0  -1  -4 4079.86 342.452   1
   0  -1  -4 3547.35 343.794   1
   0   1   4 3656.63 345.579   1
   0  -1   4 3164.60 344.631   1
   0   1  -4 4447.19 349.621   1
   0   1  -4 4058.49 343.636   1
   0   1   4 4652.53 344.441   1
   0  -1   4 4016.34 343.264   1
   0  -1   5 752.876 69.9038   1
   0  -1   5 565.503 62.6298   1
   0   1   5 580.232 66.2890   1
   0   1  -5 440.115 61.8775   1
   0   1  -5 483.902 60.0667   1
   0  -1  -5 624.282 62.6505   1
   0   1   6 4893.27 390.761   1
   0  -1   6 4672.23 391.222   1
   0   1  -6 4383.61 394.536   1
   0  -1   6 4133.56 390.549   1
   0   1  -6 4162.33 386.101   1
   0  -1  -6 4874.11 396.720   1
   0  -1  -6 3628.50 384.069   1
   0   1   6 4787.91 394.514   1
   0   1   7 25.8071 11.0248   1
   0   1   7 29.8206 10.8572   1
   0  -1  -7 24.7523 13.9287   1
   0   1  -7 50.3638 16.7668   1
   0  -1  -7 34.4894 13.3544   1
   0  -1   7 30.2992 13.8593   1
   0   1  -7 35.8565 13.2536   1
   0  -1   7 35.1584 13.4380   1
   0  -1  -8 93.5844 26.6518   1
   0   1   8 219.204 34.3302   1
   0  -1   8 176.858 31.2998   1
   0  -1  -8 129.227 25.4264   1
   0   1  -8 214.720 36.9945   1
   0   1   8 165.326 30.3140   1
   0  -1   9 11.8080 10.9399   1
   0  -1  -9 26.9202 15.7016   1
   0   1  -9 13.9063 11.0226   1
   0   1   9 29.9361 15.6048   1
   0  -1  10 368.607 50.3095   1
   0   1 -10 374.195 55.6693   1
   0  -1  11 60.2001 19.7128   1
   0   1  11 14.8137 9.93149   1
   0  -1 -11 69.8480 21.0219   1
   0   1 -11 12.1676 14.7674   1
   0  -1  12 168.425 32.4557   1
   0   1  12 190.374 33.6447   1
   0   1 -12 194.945 39.5104   1
   0   2  -1 4045.51 321.107   1
   0  -2   1 3911.57 320.774   1
   0   2  -1 3766.35 322.552   1
   0  -2   1 4077.78 322.506   1
   0  -2  -1 4037.46 320.080   1
   0  -2  -1 4171.14 321.010   1
   0   2   1 3962.41 320.539   1
   0   2   1 3808.96 319.226   1
   0   2  -2 821.723 61.9791   1
   0  -2   2 581.081 57.7901   1
   0  -2  -2 391.843 53.7525   1
   0  -2   2 634.530 57.3628   1
   0   2   2 675.564 55.1123   1
   0   2  -2 801.195 58.3216   1
   0   2   2 715.168 58.2083   1
   0  -2  -2 460.576 53.3917   1
   0  -2  -3 2244.40 205.454   1
   0  -2   3 2396.07 206.150   1
   0   2   3 2191.96 204.760   1
   0   2   3 2089.67 203.981   1
   0   2  -3 2305.20 207.443   1
   0   2  -3 2615.11 204.817   1
   0  -2  -3 2582.31 204.036   1
   0  -2   3 2480.31 205.593   1
   0   2   4 2478.29 249.434   1
   0   2  -4 2486.86 250.447   1
   0  -2  -4 3091.09 252.242   1
   0   2   4 2153.01 250.146   1
   0  -2   4 2792.99 255.013   1
   0  -2   4 3240.51 255.604   1
   0   2  -4 2581.86 255.390   1
   0  -2  -4 3271.16 255.634   1
   0  -2  -5 1573.32 178.198   1
   0  -2   5 2091.84 181.215   1
   0   2  -5 2178.18 185.804   1
   0  -2  -5 2163.91 178.593   1
   0   2   5 1608.62 177.223   1
   0  -2  -6 555.032 58.2623   1
   0   2   6 437.983 55.8424   1
   0   2  -6 599.316 66.5098   1
   0  -2  -6 561.643 64.2317   1
   0  -2   6 560.171 61.7871   1
   0   2   6 444.272 58.1011   1
   0   2  -6 420.338 54.2619   1
   0  -2   6 491.697 61.3224   1
   0  -2  -7 1778.41 165.051   1
   0  -2   7 2228.41 172.921   1
   0   2   7 1974.76 168.626   1
   0  -2  -7 1725.35 170.457   1
   0   2  -7 1549.83 169.257   1
   0  -2   7 1653.94 168.415   1
   0   2   7 1804.33 169.399   1
   0   2  -7 1477.08 161.572   1
   0   2  -8 25.0512 12.1807   1
   0  -2   8 41.0461 13.6737   1
   0   2   8 40.6145 17.5451   1
   0  -2  -8 49.0205 16.2659   1
   0  -2   9 285.404 41.9055   1
   0   2   9 300.172 43.6657   1
   0   2  -9 256.814 45.3946   1
   0   2 -10 150.024 32.6000   1
   0  -2  10 129.020 27.1219   1
   0  -2 -10 84.9036 25.1187   1
   0  -2 -11 324.476 51.3695   1
   0   2 -11 346.237 53.6825   1
   0   2  11 296.890 45.6594   1
   0  -2  11 321.001 45.6373   1
   0  -2  12 242.473 40.3321   1
   0  -2 -12 268.470 46.5766   1
   0   2  12 294.427 43.1940   1
   0   2 -12 251.623 45.8222   1
   0   3  -1 8867.25 723.355   1
   0  -3   1 8993.89 725.141   1
   0  -3  -1 9172.68 722.127   1
   0   3   1 6390.02 722.070   1
   0  -3  -1 7873.08 722.813   1
   0   3   1 9268.67 721.903   1
   0   3   2 4985.27 389.881   1
   0   3  -2 4215.56 391.720   1
   0  -3   2 4807.95 392.030   1
   0  -3   2 4530.10 389.611   1
   0   3  -2 4652.39 389.823   1
   0  -3  -2 4752.75 390.943   1
   0   3  -3 2277.37 181.547   1
   0  -3   3 2344.75 177.388   1
   0   3   3 1860.42 175.714   1
   0   3  -3 2104.29 175.513   1
   0  -3   3 2139.41 178.467   1
   0  -3  -3 2001.90 176.781   1
   0   3   3 2018.26 176.762   1
   0  -3  -3 2079.61 175.162   1
   0  -3  -4 2136.43 197.573   1
   0   3  -4 2112.40 195.048   1
   0   3  -4 2154.66 199.832   1
   0  -3  -4 2476.91 197.049   1
   0  -3   4 2281.06 199.924   1
   0   3   4 1986.09 193.182   1
   0  -3   4 2268.80 196.963   1
   0   3   4 1830.10 193.936   1
   0  -3   5 1878.10 157.676   1
   0   3  -5 1599.39 158.911   1
   0   3   5 1883.09 156.398   1
   0   3   5 1509.02 153.797   1
   0  -3  -6 1555.13 157.731   1
   0  -3  -6 1653.24 164.038   1
   0   3  -6 1638.61 158.188   1
   0  -3   6 1655.97 160.519   1
   0  -3   6 1962.99 167.204   1
   0   3  -6 1499.42 163.677   1
   0   3  -7 128.411 28.5893   1
   0  -3  -7 127.104 27.1557   1
   0  -3  -7 145.130 25.6292   1
   0   3   7 197.832 30.6929   1
   0  -3   7 141.845 26.6666   1
   0   3  -7 160.315 25.9953   1
   0  -3   7 119.453 26.6758   1
   0   3   7 135.626 26.9734   1
   0   3  -8 360.093 49.7370   1
   0  -3  -8 252.468 39.0848   1
   0   3   8 235.605 39.0700   1
   0  -3   8 228.961 36.3041   1
   0   3  -9 115.457 30.1379   1
   0  -3  -9 130.348 30.0473   1
   0  -3   9 120.690 25.6912   1
   0   3   9 152.456 29.6984   1
   0   3  10 437.601 57.5246   1
   0  -3 -10 444.576 62.6668   1
   0   3 -10 458.413 64.5523   1
   0  -3  10 463.978 57.3581   1
   0  -3 -11 90.4190 25.7869   1
   0  -3  11 71.1001 20.3715   1
   0   3 -11 128.578 30.9801   1
   0   3  11 107.144 24.2587   1
   0  -3  12 181.178 34.7794   1
   0   3 -12 287.967 47.1756   1
   0   3  12 227.578 37.4136   1
   0  -3 -12 184.185 39.4534   1
   0   4   0 9930.44 802.164   1
   0   4   0 10096.0 799.925   1
   0  -4  -1 5017.13 513.944   1
   0   4  -1 6616.58 515.876   1
   0  -4  -1 6669.07 513.574   1
   0   4   2 4729.59 339.285   1
   0   4  -2 3880.21 337.539   1
   0  -4   2 3921.73 338.930   1
   0   4  -2 4079.35 341.349   1
   0  -4  -2 4347.71 340.567   1
   0  -4   2 3896.97 339.733   1
   0  -4  -3 2020.11 172.121   1
   0   4  -3 1915.64 169.063   1
   0   4   3 1609.51 167.794   1
   0  -4  -3 1762.04 166.600   1
   0   4  -3 2100.34 174.590   1
   0   4   3 1634.31 165.471   1
   0  -4   3 2244.63 171.049   1
   0  -4   3 1897.73 170.848   1
   0  -4   4 611.876 64.5051   1
   0   4  -4 522.564 62.3495   1
   0  -4  -4 511.906 59.8477   1
   0   4  -4 553.609 59.9516   1
   0  -4  -4 644.957 62.5582   1
   0   4   4 640.975 64.6743   1
   0  -4   4 690.116 62.7705   1
   0   4   4 466.807 57.5197   1
   0   4  -5 2329.08 223.781   1
   0   4   5 2111.26 218.309   1
   0  -4  -5 2695.71 222.229   1
   0   4   5 2065.17 215.599   1
   0  -4  -5 1950.24 216.857   1
   0   4  -5 2401.10 218.834   1
   0  -4   5 2698.66 220.813   1
   0  -4   5 2366.33 222.705   1
   0  -4  -6 244.786 37.0411   1
   0  -4   6 254.240 36.6233   1
   0   4  -6 206.716 35.8950   1
   0   4   6 175.058 31.0373   1
   0  -4  -6 230.050 32.9540   1
   0  -4   6 239.855 33.7241   1
   0   4  -6 182.373 29.8115   1
   0   4   6 195.909 30.4647   1
   0   4   7 959.919 103.113   1
   0   4  -7 895.684 100.093   1
   0  -4  -7 1125.87 105.893   1
   0  -4   7 1023.28 107.143   1
   0  -4  -7 968.464 105.728   1
   0   4   7 829.994 102.159   1
   0  -4   7 1226.17 107.740   1
   0   4  -7 872.024 106.899   1
   0  -4   8 55.8327 16.1912   1
   0  -4  -8 84.3914 22.5904   1
   0   4  -8 73.8466 22.7376   1
   0   4   8 48.8772 19.7815   1
   0  -4  -9 419.325 59.1463   1
   0  -4   9 336.828 51.0718   1
   0   4   9 556.045 61.7947   1
   0   4  -9 468.580 63.9212   1
   0   4 -10 108.632 28.3235   1
   0  -4 -10 65.3408 21.4312   1
   0   4  10 57.6277 19.3539   1
   0  -4  10 52.7609 17.3893   1
   0  -4 -11 106.508 25.8960   1
   0   4  11 119.688 26.6922   1
   0  -4 -12 61.0012 19.1737   1
   0   4  12 59.6884 20.5123   1
   0   4 -12 67.8772 20.8821   1
   0   5   0 3.90270 2.93980   1
   0  -5   0 1.89334 2.82540   1
   0  -5   0 0.05794 2.23775   1
   0   5   0 3.44176 2.54314   1
   0   5  -1 9581.37 744.768   1
   0  -5   1 8521.94 743.532   1
   0   5  -2 433.984 42.5764   1
   0   5   2 442.181 42.8955   1
   0  -5   2 488.435 45.4997   1
   0  -5   2 538.855 46.1306   1
   0  -5  -2 389.046 43.2168   1
   0   5  -2 426.983 43.6807   1
   0   5   3 1992.33 185.419   1
   0   5  -3 2162.22 187.893   1
   0  -5   3 2280.07 191.824   1
   0  -5  -3 1473.16 182.280   1
   0  -5  -3 1877.06 185.644   1
   0   5   3 1430.75 180.061   1
   0  -5   3 2399.20 189.841   1
   0   5  -3 2395.96 193.736   1
   0  -5   4 516.154 56.9590   1
   0  -5  -4 574.549 58.4674   1
   0  -5  -4 401.891 51.6512   1
   0   5   4 564.275 54.6644   1
   0   5   4 582.478 54.8176   1
   0   5  -4 573.567 55.9013   1
   0   5  -5 203.090 34.6752   1
   0   5   5 159.887 29.5226   1
   0  -5   5 229.812 31.0642   1
   0   5   5 115.274 22.9561   1
   0  -5   5 228.139 33.1269   1
   0  -5  -5 176.378 29.0330   1
   0  -5  -5 299.475 38.9829   1
   0   5  -5 170.818 28.4044   1
   0  -5   6 847.873 89.5701   1
   0   5   6 722.162 83.8148   1
   0   5  -6 709.261 82.3168   1
   0  -5   6 804.824 85.4939   1
   0   5   6 904.300 86.8255   1
   0  -5  -6 822.537 88.1607   1
   0  -5  -6 783.742 87.6938   1
   0   5  -6 937.104 95.7969   1
   0  -5  -7 678.190 77.4797   1
   0  -5   7 761.054 79.5291   1
   0   5   7 640.504 77.1843   1
   0  -5  -7 682.955 79.1413   1
   0   5   7 646.447 73.4125   1
   0   5  -7 732.264 74.8382   1
   0  -5   8 313.632 46.0674   1
   0  -5  -8 329.707 50.7237   1
   0   5   8 322.491 49.7751   1
   0  -5   9 49.3405 15.8197   1
   0  -5  -9 39.8503 15.1391   1
   0   5   9 35.4178 11.5304   1
   0  -5  10 366.489 49.2519   1
   0  -5 -10 264.825 47.1878   1
   0   5  10 263.815 43.3555   1
   0   5 -10 341.740 53.8045   1
   0   5 -11 113.628 28.3108   1
   0  -5  11 81.5153 22.1387   1
   0  -5 -11 97.2160 26.3578   1
   0   5  11 100.101 24.1607   1
   0  -5 -12 143.593 35.4122   1
   0   5  12 125.220 27.6175   1
   0  -6   0 3012.24 267.741   1
   0  -6   0 3325.99 266.579   1
   0   6   0 3276.11 267.785   1
   0   6   0 3483.19 265.755   1
   0   6  -1 1597.42 157.189   1
   0  -6   1 1923.77 158.042   1
   0  -6   2 1468.28 120.820   1
   0  -6  -2 952.501 115.155   1
   0   6   2 960.990 114.181   1
   0  -6  -2 1370.54 115.733   1
   0   6  -2 1434.49 119.673   1
   0   6  -2 1548.61 124.284   1
   0   6   2 1143.34 113.899   1
   0  -6   2 1706.69 125.028   1
   0   6   3 443.978 51.9161   1
   0   6   3 762.669 61.1312   1
   0  -6   3 615.198 62.6298   1
   0  -6  -3 360.278 52.5557   1
   0   6  -3 678.696 63.4856   1
   0  -6   3 645.568 62.7247   1
   0  -6  -3 529.036 58.2340   1
   0   6  -3 692.219 60.3214   1
   0  -6  -4 447.710 49.4424   1
   0   6  -4 588.289 53.7426   1
   0   6   4 374.514 44.7154   1
   0   6   4 280.255 42.4073   1
   0  -6   4 464.173 51.4019   1
   0  -6  -4 489.196 53.0807   1
   0  -6   5 281.443 37.5014   1
   0   6   5 266.342 34.3104   1
   0  -6  -5 254.610 35.9451   1
   0   6  -5 353.590 45.1065   1
   0   6  -5 245.128 34.2283   1
   0  -6   5 318.271 42.0145   1
   0  -6  -5 243.756 35.1226   1
   0   6   5 293.309 36.3744   1
   0   6   6 215.144 33.9395   1
   0   6  -6 293.894 37.8401   1
   0   6  -6 306.191 44.2993   1
   0  -6   6 276.372 40.0871   1
   0  -6   6 332.046 41.1586   1
   0  -6  -6 242.577 37.0818   1
   0   6   7 307.867 42.7106   1
   0  -6  -7 268.438 42.9668   1
   0   6   7 249.764 39.8053   1
   0  -6  -7 320.503 46.1791   1
   0   6  -7 320.293 46.3398   1
   0  -6   7 257.261 39.4877   1
   0  -6  -8 47.8732 19.3486   1
   0   6   8 55.2122 19.0237   1
   0   6  -8 55.2633 21.0012   1
   0  -6   8 41.7645 16.5224   1
   0   6   8 40.4672 19.3979   1
   0  -6  -8 69.3857 22.2488   1
   0  -6   9 386.157 52.6751   1
   0   6  -9 390.521 58.8437   1
   0  -6  -9 382.941 55.5705   1
   0   6   9 307.849 48.2695   1
   0   6 -10 29.2456 19.2749   1
   0  -6 -10 22.3733 16.6954   1
   0  -6  10 10.4896 8.64124   1
   0   6  10 15.4889 13.0679   1
   0   6 -11 271.889 46.4846   1
   0   6  11 206.658 36.4935   1
   0  -6  11 243.306 40.4140   1
   0  -6 -11 260.189 46.3410   1
   0   7  -1 1819.06 163.904   1
   0  -7   1 1978.62 163.449   1
   0   7  -2 501.803 49.2310   1
   0   7  -2 382.465 48.9949   1
   0  -7   2 524.600 52.7303   1
   0  -7   2 589.548 53.0401   1
   0  -7   3 2020.61 163.920   1
   0  -7  -3 1415.03 152.366   1
   0   7  -3 1867.62 158.240   1
   0  -7   3 1807.73 158.602   1
   0   7  -3 1776.17 160.862   1
   0   7   4 499.010 66.6520   1
   0  -7  -4 855.246 77.2044   1
   0  -7  -4 614.392 70.3647   1
   0   7  -4 738.016 76.9090   1
   0  -7   4 811.401 75.4585   1
   0   7   4 930.580 75.9890   1
   0   7   5 810.950 87.2761   1
   0  -7   5 943.274 89.3625   1
   0  -7  -5 700.348 86.0810   1
   0   7  -5 834.170 86.2457   1
   0   7   5 719.678 83.1042   1
   0  -7  -5 919.502 90.5455   1
   0   7  -5 1040.37 98.1070   1
   0  -7   5 911.828 91.8125   1
   0   7   6 1023.89 99.6466   1
   0   7  -6 974.498 105.200   1
   0  -7   6 959.704 102.714   1
   0   7  -6 1085.82 100.818   1
   0  -7   6 948.363 99.3436   1
   0  -7  -6 867.103 99.4969   1
   0   7   7 22.5650 12.3390   1
   0  -7   7 46.3315 14.6431   1
   0  -7  -7 21.7805 13.4351   1
   0   7   7 29.6064 10.8163   1
   0   7  -7 60.9033 20.2355   1
   0  -7  -7 34.6001 15.4880   1
   0   7   8 301.033 49.1656   1
   0   7  -8 400.127 54.2793   1
   0  -7  -8 276.341 46.7446   1
   0  -7  -8 239.010 42.9803   1
   0  -7   8 354.027 48.0792   1
   0   7   8 262.725 41.0704   1
   0  -7   9 49.9655 18.0392   1
   0  -7  -9 52.5420 21.6903   1
   0   7   9 54.9199 20.1311   1
   0   7  -9 57.8589 19.0770   1
   0   7 -10 273.480 45.5550   1
   0  -7  10 259.585 42.5747   1
   0  -7  11 48.9452 18.4757   1
   0   7 -11 76.5362 24.5960   1
   0   8  -1 135.083 14.2579   1
   0  -8   1 121.524 15.0859   1
   0  -8   2 263.040 30.4415   1
   0   8  -2 227.834 25.4943   1
   0  -8   2 179.334 25.7542   1
   0   8  -2 223.444 25.6404   1
   0  -8   3 688.440 76.2705   1
   0   8  -3 950.888 80.2434   1
   0   8  -3 755.316 79.5161   1
   0  -8   3 658.843 78.3699   1
   0  -8  -4 150.976 21.6564   1
   0   8  -4 241.042 32.8336   1
   0  -8   4 167.585 23.8097   1
   0   8   4 220.277 22.4706   1
   0  -8  -4 91.6084 16.0109   1
   0   8   4 104.245 15.7191   1
   0   8  -5 259.130 36.8450   1
   0  -8  -5 187.019 30.0753   1
   0  -8   5 384.335 47.3398   1
   0   8   5 273.778 32.6511   1
   0  -8  -5 319.973 38.0644   1
   0   8  -5 376.304 47.3996   1
   0   8   5 179.025 31.9100   1
   0  -8   5 303.056 39.4364   1
   0   8  -6 48.2328 13.4458   1
   0   8   6 59.5500 19.0479   1
   0  -8   6 25.2875 13.5910   1
   0  -8   6 33.6576 14.3254   1
   0   8  -6 71.9048 23.3314   1
   0  -8  -6 55.7192 17.8461   1
   0  -8   7 363.659 47.7889   1
   0   8   7 460.689 55.3761   1
   0   8   7 367.023 44.8007   1
   0   8  -7 375.007 51.8601   1
   0  -8   8 65.5062 18.9099   1
   0   8  -8 67.2777 23.9786   1
   0   8  -9 242.435 42.2768   1
   0  -8   9 147.218 30.4401   1
   0   8 -10 46.5798 19.2197   1
   0   8 -11 94.0121 24.3290   1
   0  -9   2 266.108 27.5936   1
   0   9  -2 205.645 23.8460   1
   0  -9   2 228.909 25.9460   1
   0   9  -2 199.866 25.9091   1
   0  -9   3 421.318 46.0700   1
   0   9  -3 409.771 45.8440   1
   0   9  -3 447.679 44.1488   1
   0  -9   3 273.715 40.7119   1
   0   9  -4 607.125 68.7847   1
   0  -9   4 704.457 69.4510   1
   0   9  -5 36.1297 15.0001   1
   0  -9   5 27.3906 11.9442   1
   0  -9   5 23.5383 14.5970   1
   0   9  -5 15.7103 9.49090   1
   0  -9   6 639.258 72.2251   1
   0   9  -6 666.436 72.6950   1
   0  -9   7 35.5972 16.3352   1
   0   9  -7 7.04565 8.29718   1
   1   0 -12 92.9847 26.1289   1
  -1   0  12 62.4274 20.8804   1
  -1   0  11 187.269 33.3622   1
   1   0 -11 167.608 36.2169   1
  -1   0   9 14.3373 12.7311   1
   1   0  -9-11.8634 10.9457   1
  -1   0   8 1816.80 161.956   1
   1   0  -8 1462.36 162.995   1
   1   0  -7 28.3824 14.0906   1
  -1   0   7 21.9601 10.4650   1
   1   0  -7 15.3824 10.8209   1
  -1   0   7 26.5487 13.0548   1
   1   0  -6 2296.72 231.188   1
  -1   0   6 2574.08 228.650   1
   1   0  -6 2759.20 228.970   1
  -1   0   6 2554.46 232.547   1
  -1   0   5 211.326 31.6469   1
   1   0  -5 252.071 31.9661   1
   1   0  -5 168.816 29.0941   1
  -1   0   5 174.008 27.6541   1
  -1   0   4 469.597 47.1762   1
   1   0  -4 343.424 46.2618   1
   1   0  -4 419.866 45.6264   1
  -1   0   4 344.815 45.6888   1
   1   0  -3 4873.35 424.494   1
  -1   0   3 5327.38 425.072   1
   1   0  -3 5106.84 427.716   1
  -1   0   3 5300.50 429.258   1
   1   0  -2 36.5003 10.0295   1
  -1   0   2 37.7104 11.2776   1
   1   0  -2 50.4207 11.0114   1
  -1   0   2 27.7307 8.54995   1
  -1   0   1 14556.0 1155.59   1
   1   0  -1 14351.5 1156.84   1
   1   0   0 126.829 17.6581   1
  -1   0   0 134.207 17.9358   1
  -1   0  -1 24186.2 1920.47   1
   1   0   1 24464.4 1921.34   1
  -1   0  -1 23779.0 1919.54   1
   1   0   1 24220.8 1919.86   1
   1   0   2 9696.61 768.851   1
  -1   0  -2 9751.37 769.931   1
  -1   0  -2 9298.08 767.984   1
   1   0   2 7603.76 767.364   1
  -1   0  -3 301.972 43.4496   1
   1   0   3 399.218 44.8652   1
   1   0   3 479.228 50.3364   1
  -1   0  -3 418.947 52.4136   1
  -1   0  -4 2815.99 270.814   1
  -1   0  -4 3315.35 271.474   1
   1   0   4 3232.41 272.213   1
   1   0   4 3128.35 266.599   1
   1   0   5 3111.98 267.951   1
  -1   0  -5 3356.94 274.341   1
  -1   0  -5 3091.23 273.166   1
   1   0   5 3223.70 274.928   1
  -1   0  -6 649.350 75.2405   1
   1   0   6 667.992 75.1911   1
  -1   0  -6 600.478 70.3676   1
   1   0   6 723.093 73.1736   1
  -1   0  -7 187.450 33.3504   1
   1   0   7 192.363 34.1833   1
   1   0   7 212.086 32.8905   1
  -1   0  -8 967.585 102.514   1
   1   0   8 794.586 93.6738   1
  -1   0  -9 134.187 32.4506   1
   1   0   9 126.264 26.6414   1
  -1   0 -10 217.379 41.0370   1
   1   0  10 135.369 30.6422   1
   1   0  11 278.661 44.4569   1
  -1   0 -11 281.711 49.6589   1
   1   0  12 165.574 35.4996   1
  -1   0 -12 241.113 42.9541   1
   1   1 -12 193.718 37.4783   1
   1  -1 -12 177.826 37.1541   1
  -1   1  12 154.981 31.1757   1
  -1  -1  12 164.540 32.5601   1
  -1  -1  11 224.783 39.0563   1
  -1   1  11 258.267 41.0869   1
   1   1 -11 289.360 46.9757   1
   1  -1 -10 45.5536 17.3025   1
  -1   1  10 36.3235 14.2947   1
   1   1 -10 42.3586 17.3975   1
  -1  -1  10 29.7757 14.6545   1
   1  -1  -9 935.293 105.096   1
   1   1  -9 831.990 102.688   1
  -1  -1   9 924.323 99.6066   1
  -1   1   9 1057.66 102.056   1
  -1  -1   8 94.3537 21.7680   1
   1  -1  -8 104.339 21.8744   1
   1   1  -8 111.487 25.3963   1
  -1   1   8 82.6713 22.9702   1
  -1  -1   7 657.848 85.1154   1
   1   1  -7 655.875 81.5246   1
   1  -1  -7 859.003 86.6089   1
  -1  -1   7 736.731 85.2410   1
  -1   1   7 1072.63 91.9261   1
  -1   1   7 811.361 89.2238   1
   1   1  -7 819.532 91.3186   1
   1  -1  -7 775.664 90.0280   1
  -1   1   6 1000.87 93.0516   1
  -1  -1   6 873.710 91.3881   1
  -1  -1   6 780.033 85.5354   1
   1   1  -6 691.165 82.8535   1
   1   1  -6 722.637 89.0148   1
   1  -1  -6 814.098 89.5390   1
   1  -1  -6 757.430 83.4826   1
  -1   1   6 1031.82 90.0208   1
  -1   1   5 3354.07 307.797   1
   1  -1  -5 3386.10 302.943   1
   1   1  -5 3713.14 310.085   1
  -1  -1   5 3694.80 305.528   1
   1   1  -4 9110.49 780.792   1
   1  -1  -4 10021.5 778.250   1
  -1  -1   4 9217.72 781.052   1
  -1   1   4 10469.1 782.989   1
   1   1  -4 9741.74 777.751   1
  -1   1   4 10182.7 777.865   1
   1  -1  -4 9352.72 779.853   1
  -1  -1   4 9609.88 778.083   1
  -1   1   3 6607.22 549.781   1
   1   1  -3 6561.76 548.046   1
  -1  -1   3 7100.19 548.046   1
   1   1  -3 6326.44 550.001   1
   1  -1  -3 6785.11 549.238   1
   1  -1  -3 6679.82 545.851   1
  -1  -1   3 6891.38 552.284   1
  -1   1   3 6988.52 546.359   1
   1  -1  -2 12424.2 1015.84   1
  -1   1   2 12712.2 1018.14   1
  -1   1   2 13241.1 1016.07   1
  -1  -1   2 11418.8 1016.90   1
  -1  -1   2 11893.3 1019.36   1
   1   1  -2 13159.0 1017.48   1
   1   1  -2 12226.5 1019.11   1
   1  -1  -2 12001.5 1017.19   1
   1   1  -1 2749.00 227.069   1
   1   1  -1 2344.84 225.433   1
  -1   1   1 2526.22 223.556   1
   1  -1  -1 2937.33 225.507   1
  -1  -1   1 2671.21 225.578   1
  -1  -1   1 2681.07 226.649   1
  -1   1   0 1372.17 117.339   1
   1   1   0 1374.02 117.377   1
  -1  -1   0 1103.65 117.956   1
  -1  -1   0 1374.10 117.914   1
   1  -1   0 1028.27 115.587   1
   1   1   0 1541.79 119.449   1
  -1   1   0 1359.97 118.541   1
  -1  -1  -1 4249.03 355.123   1
  -1  -1  -1 4436.51 354.372   1
   1   1   1 3886.35 351.720   1
   1  -1   1 4254.51 353.558   1
   1   1   1 4130.28 354.478   1
   1  -1   1 4437.56 353.157   1
  -1   1  -1 4288.79 353.888   1
  -1   1  -1 4395.24 352.269   1
   1  -1   2 4179.42 312.329   1
  -1  -1  -2 3907.39 316.575   1
  -1  -1  -2 3970.29 313.077   1
  -1   1  -2 2834.29 310.215   1
   1   1   2 3258.47 313.236   1
  -1   1  -2 2597.68 307.943   1
   1  -1   2 2711.54 308.851   1
   1   1   2 3859.85 314.025   1
   1   1   3 1426.33 116.478   1
   1  -1   3 1257.32 112.884   1
   1   1   3 1267.20 117.318   1
  -1  -1  -3 1313.21 116.653   1
  -1   1  -3 1097.03 116.054   1
  -1   1  -3 1129.42 113.486   1
  -1  -1  -3 1042.82 115.532   1
   1   1   4 16.1575 12.4376   1
   1  -1   4 57.1555 12.8729   1
  -1  -1  -4 43.0774 13.5120   1
   1   1   4 12.2435 9.42056   1
  -1  -1  -4 45.9781 15.4935   1
  -1   1  -4 5.00482 9.89272   1
   1  -1   4 51.0551 15.1267   1
  -1  -1  -5 1579.05 173.801   1
  -1   1  -5 2027.97 179.244   1
   1   1   5 1929.75 174.722   1
   1  -1   5 1602.79 175.060   1
   1   1   5 1868.54 178.326   1
  -1   1  -5 2214.05 178.267   1
   1  -1   5 2229.08 175.870   1
  -1  -1  -5 1490.98 175.385   1
   1  -1   6 57.1336 19.1791   1
  -1   1  -6 85.8343 22.0314   1
  -1  -1  -6 67.2362 21.5065   1
  -1  -1  -6 66.2154 19.5732   1
   1   1   6 92.6616 20.0191   1
   1   1   6 96.3897 22.6698   1
   1  -1   6 85.6490 20.4346   1
  -1   1  -6 89.8534 23.2641   1
  -1  -1  -7 1366.16 125.957   1
   1  -1   7 961.196 116.990   1
   1   1   7 1373.53 126.102   1
  -1  -1  -7 927.993 117.273   1
   1   1   7 1216.56 119.603   1
   1  -1   7 977.446 113.189   1
  -1   1  -7 1175.42 118.400   1
  -1   1  -7 1021.69 118.120   1
   1  -1   8 690.251 70.3306   1
   1   1   8 475.805 62.3286   1
  -1  -1  -8 478.711 66.0140   1
  -1   1  -8 513.119 69.1814   1
   1   1   9 347.766 48.4993   1
  -1  -1  -9 327.042 50.6121   1
  -1   1  -9 302.028 50.6213   1
   1  -1   9 340.331 47.6665   1
  -1   1 -10 228.987 43.1474   1
   1   1  10 215.034 38.7353   1
  -1  -1 -10 245.615 44.5899   1
   1  -1  10 271.636 41.3528   1
  -1  -1 -11 169.817 36.2281   1
  -1   1 -11 171.507 36.5725   1
   1  -1  11 159.812 32.6507   1
   1   1  11 154.911 32.0309   1
  -1   1 -12 222.823 44.7976   1
   1   1  12 204.609 39.3257   1
   1  -1  12 259.789 42.3775   1
  -1  -1 -12 246.174 44.7952   1
   1  -2 -13 46.3435 17.6289   1
  -1   2  13 44.9263 18.0054   1
   1  -2 -12 12.6796 12.4369   1
  -1  -2  12 34.9307 13.7561   1
   1   2 -12 45.2778 18.6765   1
  -1   2  12 55.0721 18.9153   1
  -1   2  11 172.459 32.8880   1
   1  -2 -11 159.857 35.8645   1
   1   2 -11 203.672 38.3655   1
  -1  -2  11 180.554 32.9576   1
  -1   2  10 380.281 52.2882   1
   1  -2 -10 391.286 57.8639   1
   1   2 -10 442.591 60.9851   1
  -1  -2  10 417.651 54.9188   1
   1  -2  -9 80.1282 22.1830   1
  -1  -2   9 67.7311 20.2824   1
   1   2  -9 69.3568 20.8659   1
  -1   2   9 89.8921 23.0341   1
  -1   2   8 1096.24 108.003   1
   1   2  -8 936.858 106.449   1
  -1  -2   8 1004.92 102.767   1
  -1   2   7 683.295 81.6402   1
  -1  -2   7 695.660 79.5158   1
   1   2  -7 735.965 85.6291   1
   1   2  -7 635.139 76.4191   1
  -1  -2   7 817.813 84.3909   1
  -1   2   7 886.368 83.3492   1
   1  -2  -7 816.302 86.1318   1
   1  -2  -7 622.588 75.9309   1
   1  -2  -6 2170.15 197.813   1
  -1   2   6 1633.07 191.027   1
   1  -2  -6 2029.40 191.194   1
  -1   2   6 2374.60 194.738   1
  -1  -2   6 2003.38 197.691   1
  -1  -2   6 1938.46 193.087   1
   1   2  -6 2256.84 200.607   1
   1   2  -6 1769.87 190.376   1
  -1  -2   5 2131.45 207.858   1
  -1   2   5 1878.14 200.426   1
  -1   2   5 2317.76 208.192   1
  -1  -2   5 2552.69 207.374   1
   1  -2  -5 2548.73 204.732   1
   1   2  -5 1823.82 205.359   1
   1   2  -5 1902.35 202.319   1
   1  -2  -5 2046.00 205.617   1
   1   2  -4 334.959 43.4382   1
   1   2  -4 392.386 48.8382   1
   1  -2  -4 437.066 47.8322   1
  -1  -2   4 339.527 43.2621   1
  -1   2   4 466.889 49.1713   1
  -1  -2   4 356.445 47.0517   1
  -1   2   4 416.272 44.8961   1
   1  -2  -4 476.648 46.1882   1
   1  -2  -3 2502.53 205.125   1
  -1   2   3 1953.00 204.662   1
  -1  -2   3 2628.75 211.381   1
  -1  -2   3 2538.56 207.390   1
   1   2  -3 2396.54 206.730   1
   1   2  -3 2228.57 208.850   1
   1  -2  -3 2696.65 207.597   1
  -1   2   3 2412.61 203.597   1
   1   2  -2 437.191 52.7808   1
   1  -2  -2 397.110 49.3878   1
  -1  -2   2 561.813 55.2471   1
   1   2  -2 601.138 53.6978   1
   1   2  -1 974.096 71.7338   1
  -1  -2   1 522.618 65.4512   1
  -1  -2   1 571.262 67.2529   1
   1   2  -1 1072.87 73.1124   1
  -1   2   1 603.458 64.2372   1
  -1   2   0 252.113 24.6813   1
  -1  -2   0 136.168 22.8485   1
   1   2   0 246.918 26.2503   1
  -1  -2   0 192.333 24.7369   1
   1   2   0 347.971 29.5303   1
   1  -2   0 80.1932 19.9715   1
  -1  -2  -1 4638.38 369.979   1
  -1   2  -1 3998.93 365.336   1
  -1  -2  -1 4702.90 371.299   1
   1  -2   1 4010.86 366.658   1
   1   2   1 4224.90 369.413   1
   1   2   1 4331.15 368.284   1
  -1   2  -2 3551.10 328.434   1
   1   2   2 4645.17 332.153   1
   1   2   2 3912.21 331.052   1
   1  -2   2 3469.46 326.436   1
   1  -2   2 3370.39 323.083   1
  -1  -2  -2 3031.22 325.708   1
  -1   2  -2 3850.01 326.642   1
  -1  -2  -2 3444.96 330.073   1
   1   2   3 198.990 34.2717   1
   1   2   3 247.479 34.8553   1
   1  -2   3 392.941 38.0149   1
  -1  -2  -3 267.624 36.5751   1
   1  -2   3 363.134 41.3404   1
  -1  -2  -3 302.532 40.2982   1
  -1   2  -3 166.134 32.3194   1
  -1   2  -3 240.911 34.9837   1
  -1   2  -4 1528.48 137.255   1
  -1   2  -4 1543.29 140.757   1
  -1  -2  -4 1238.45 134.762   1
   1  -2   4 1307.40 132.830   1
   1   2   4 1894.36 139.594   1
   1  -2   4 1081.56 133.115   1
   1   2   4 1564.28 140.084   1
  -1  -2  -4 992.182 134.078   1
  -1   2  -5 1215.03 124.738   1
  -1  -2  -5 1124.04 126.266   1
  -1  -2  -5 1253.72 133.128   1
   1   2   5 1484.67 128.048   1
   1   2   5 1514.00 132.880   1
   1  -2   5 1046.47 126.070   1
  -1   2  -5 1351.10 131.637   1
   1  -2   5 1166.91 124.724   1
  -1   2  -6 1912.40 189.848   1
  -1  -2  -6 1919.35 197.681   1
   1  -2   6 1722.06 188.103   1
  -1   2  -6 1667.50 191.571   1
   1  -2   6 2070.38 195.238   1
   1   2   6 2456.10 195.701   1
  -1  -2  -6 2053.24 196.409   1
   1   2   6 1761.00 192.552   1
   1   2   7 121.475 28.5740   1
   1  -2   7 152.507 30.5811   1
   1   2   7 141.035 27.1393   1
  -1   2  -7 128.531 25.8941   1
  -1  -2  -7 133.597 30.7728   1
  -1  -2  -7 169.546 32.2778   1
   1  -2   8 1939.65 168.609   1
   1   2   8 1575.36 162.730   1
  -1  -2  -8 1714.60 169.961   1
  -1   2  -8 1945.60 177.482   1
  -1  -2  -9 454.396 65.4859   1
   1   2   9 575.421 66.4986   1
  -1   2  -9 614.461 74.3222   1
   1  -2   9 465.536 62.7505   1
   1   2  10 213.402 38.1760   1
   1  -2  10 248.639 39.9507   1
  -1   2 -10 245.889 43.6297   1
  -1  -2 -11 296.107 50.1759   1
   1   2  11 284.137 44.2306   1
   1  -2  12 66.7265 21.7237   1
   1   2  12 64.8575 21.9467   1
  -1  -2 -12 52.7245 21.0780   1
  -1   2 -12 66.6769 24.0686   1
   1  -3 -13 54.7676 23.1559   1
  -1   3  13 37.9638 17.2676   1
  -1  -3  12 150.605 30.7925   1
   1   3 -12 183.650 36.6871   1
  -1   3  12 125.891 28.0285   1
   1  -3 -12 164.847 36.9298   1
   1  -3 -11 316.718 51.2771   1
  -1  -3  11 385.354 50.0123   1
  -1   3  11 301.361 46.3437   1
   1   3 -11 331.726 52.4751   1
   1  -3 -10 20.6078 12.6295   1
   1   3 -10 44.5482 17.0069   1
  -1  -3  10 49.0498 16.5191   1
  -1   3  10-4.16065 10.9514   1
  -1   3   9 689.401 82.6758   1
  -1  -3   9 862.438 87.8900   1
   1   3  -9 818.924 92.0924   1
   1  -3  -9 734.878 88.3439   1
   1  -3  -8 441.013 57.4296   1
   1   3  -8 591.354 70.6192   1
  -1   3   8 466.678 62.3724   1
  -1  -3   8 506.712 62.6095   1
   1  -3  -8 506.403 64.7449   1
  -1   3   8 632.794 65.4951   1
  -1  -3   7 856.214 90.4887   1
   1  -3  -7 716.992 87.5538   1
  -1  -3   7 868.917 88.2985   1
  -1   3   7 872.717 90.5687   1
   1   3  -7 790.160 91.1064   1
   1   3  -7 629.074 81.2985   1
   1  -3  -7 815.633 85.4102   1
  -1   3   7 942.798 88.0532   1
  -1   3   6 649.458 74.0277   1
  -1  -3   6 784.658 76.6783   1
   1  -3  -6 646.167 70.7277   1
  -1  -3   6 757.135 80.1606   1
   1   3  -6 655.115 77.3509   1
   1   3  -6 611.601 71.6030   1
  -1   3   6 848.578 76.1925   1
   1  -3  -6 676.818 75.3292   1
  -1  -3   5 2509.23 210.853   1
   1   3  -5 2128.49 208.892   1
  -1  -3   5 2243.04 213.075   1
   1   3  -5 1899.42 210.743   1
   1  -3  -5 2645.55 209.468   1
  -1   3   5 1925.59 204.520   1
   1  -3  -5 2267.32 210.021   1
  -1   3   4 6085.53 502.681   1
   1  -3  -4 5921.95 501.680   1
  -1  -3   4 6315.77 506.914   1
   1  -3  -4 5755.67 498.290   1
  -1   3   4 6376.10 499.102   1
   1   3  -4 5997.08 501.313   1
  -1   3   3 19.2715 6.82235   1
  -1   3   3 28.1641 10.6985   1
   1   3  -3 21.6096 8.39137   1
  -1  -3   3 42.1162 13.3021   1
  -1  -3   3 19.0145 9.39848   1
   1   3  -3 22.8932 10.0266   1
  -1  -3   2 2389.70 190.145   1
   1   3  -2 2185.18 185.703   1
  -1  -3   2 2118.83 188.744   1
   1  -3  -2 2061.69 182.330   1
   1   3  -2 2288.88 189.239   1
   1  -3  -1 364.627 53.9557   1
   1  -3  -1 531.949 54.5464   1
  -1  -3   1 713.193 62.8440   1
  -1   3   1 619.542 56.3767   1
  -1  -3   1 747.612 63.2196   1
  -1   3   1 363.069 53.7305   1
   1   3  -1 729.100 63.2339   1
  -1  -3   0 3721.94 292.901   1
   1   3   0 4012.00 295.833   1
   1  -3   0 2742.48 286.462   1
   1   3   0 3806.89 292.946   1
  -1  -3   0 3548.96 293.355   1
  -1   3   0 3323.79 288.761   1
   1   3   1 4069.49 334.552   1
   1   3   1 3812.72 336.669   1
  -1  -3  -1 4415.33 338.266   1
  -1  -3  -1 4360.82 337.256   1
   1  -3   1 3791.11 329.858   1
  -1  -3  -2 2485.58 232.757   1
   1   3   2 2565.96 232.473   1
  -1   3  -2 2683.79 233.838   1
  -1   3  -2 2261.21 229.180   1
   1  -3   2 2578.61 230.660   1
   1  -3   2 2943.78 229.214   1
  -1  -3  -2 2429.72 233.785   1
   1   3   2 2870.40 236.821   1
   1  -3   3 3636.72 284.583   1
  -1   3  -3 3086.17 286.001   1
  -1  -3  -3 3130.61 291.167   1
   1   3   3 2997.33 288.273   1
  -1  -3  -3 3103.64 287.646   1
   1  -3   3 3231.19 286.251   1
  -1   3  -3 3070.86 286.870   1
   1   3   3 3624.45 289.369   1
   1   3   4 1408.30 142.701   1
  -1   3  -4 1592.64 140.686   1
   1   3   4 1362.65 137.959   1
  -1  -3  -4 1629.53 144.262   1
   1  -3   4 1262.26 139.035   1
  -1  -3  -4 1244.82 142.632   1
  -1   3  -5 1022.91 127.849   1
  -1  -3  -5 1411.25 138.958   1
  -1   3  -5 1268.68 128.398   1
   1   3   5 1544.61 132.649   1
  -1  -3  -5 1495.29 136.247   1
   1  -3   5 1457.47 134.007   1
   1  -3   5 1154.69 125.921   1
   1   3   5 1186.36 131.760   1
   1  -3   6 278.679 41.1486   1
  -1   3  -6 365.557 48.9525   1
  -1   3  -6 305.378 42.3526   1
   1   3   6 273.311 43.6588   1
   1  -3   6 328.734 45.4670   1
  -1  -3  -6 245.190 43.1097   1
  -1  -3  -6 373.522 48.0783   1
   1   3   6 308.261 43.0789   1
   1   3   7 1671.32 188.220   1
  -1   3  -7 1914.55 189.444   1
   1  -3   7 2087.04 195.466   1
   1   3   7 2299.08 199.420   1
   1   3   8 19.1452 11.1981   1
  -1  -3  -8 7.86961 6.88215   1
   1  -3   8 17.1988 8.88230   1
  -1   3  -8 5.27409 9.15965   1
   1  -3   9 556.698 72.9473   1
  -1  -3  -9 617.645 78.8101   1
   1   3   9 765.856 79.2929   1
  -1   3  -9 667.400 81.3595   1
   1  -3  10 55.5185 18.9270   1
   1   3  10 104.816 24.4598   1
  -1  -3 -10 40.3851 19.1718   1
  -1   3 -10 114.503 28.2651   1
  -1   3 -11 236.251 43.7016   1
   1   3  11 230.570 39.8894   1
  -1  -3 -11 200.373 40.8303   1
   1  -3  11 234.891 39.7582   1
  -1  -3 -12 194.740 38.5603   1
   1   3  12 153.289 32.9573   1
  -1   3 -12 201.955 39.7770   1
   1  -3  12 165.924 32.7222   1
  -1   4  13 30.8976 13.0490   1
   1  -4 -13 18.9292 8.94560   1
  -1  -4  12 101.736 25.8968   1
   1   4 -12 165.044 35.0521   1
  -1   4  12 130.910 29.3944   1
  -1   4  11 87.6645 22.1500   1
   1  -4 -11 93.4304 26.7466   1
  -1  -4  10 441.111 58.7189   1
   1  -4 -10 471.381 64.2920   1
  -1   4  10 457.622 58.3990   1
   1   4 -10 534.263 67.3540   1
   1  -4  -9 63.8348 19.8424   1
  -1  -4   9 53.7880 17.3655   1
   1   4  -9 47.3775 17.6840   1
  -1   4   9 73.8047 19.8960   1
  -1   4   8 1022.67 99.7204   1
   1   4  -8 983.740 101.516   1
  -1   4   8 935.402 92.4198   1
  -1  -4   8 849.669 91.7573   1
   1  -4  -8 758.400 92.6418   1
   1  -4  -8 783.488 87.9679   1
   1  -4  -7 163.682 26.6471   1
  -1   4   7 161.120 28.8334   1
   1  -4  -7 130.016 26.8737   1
  -1  -4   7 162.814 29.9666   1
  -1   4   7 141.287 25.5480   1
   1   4  -7 138.335 25.6671   1
   1  -4  -6 743.892 85.7457   1
  -1  -4   6 838.110 87.0191   1
   1   4  -6 1037.70 97.4464   1
   1   4  -6 829.212 85.7546   1
  -1   4   6 826.430 84.0565   1
  -1  -4   6 850.999 91.3133   1
  -1  -4   5 3938.28 298.710   1
   1   4  -5 3085.98 294.485   1
  -1  -4   5 3303.34 300.098   1
   1  -4  -5 3378.55 296.514   1
  -1   4   5 2766.65 290.519   1
   1   4  -5 2801.02 297.108   1
   1  -4  -5 3482.56 293.134   1
  -1   4   5 3203.76 295.503   1
   1   4  -4 670.552 64.4882   1
  -1   4   4 386.500 51.3230   1
   1  -4  -4 423.687 51.4792   1
  -1  -4   4 601.523 58.4005   1
   1  -4  -4 529.603 50.9694   1
  -1   4   4 349.697 47.6420   1
   1   4  -3 7020.05 565.956   1
  -1   4   3 6587.04 559.963   1
  -1  -4   3 8105.42 573.904   1
  -1  -4   3 8042.69 568.310   1
   1   4  -3 7476.62 571.164   1
   1  -4  -3 5991.09 560.722   1
  -1   4   3 6298.07 560.865   1
   1  -4  -3 6656.50 559.216   1
  -1  -4   2 1019.54 96.2592   1
  -1  -4   2 1155.77 97.9605   1
   1   4  -2 1041.67 94.4046   1
  -1   4   2 897.324 89.0005   1
   1  -4  -2 878.017 87.5681   1
   1   4  -2 888.805 95.4424   1
  -1  -4   1 5030.91 414.909   1
   1  -4  -1 3829.91 407.076   1
   1  -4  -1 3005.64 405.001   1
   1   4  -1 5378.86 418.798   1
   1   4  -1 5349.85 414.054   1
  -1   4   1 3583.38 405.781   1
  -1  -4   1 5034.78 415.972   1
  -1   4   1 1520.30 404.238   1
   1   4   0 148.490 16.8773   1
  -1   4   0 94.1965 11.2506   1
  -1  -4   0 52.9853 11.8409   1
   1   4   0 125.885 16.2668   1
  -1  -4   0 82.9568 12.3826   1
   1  -4   0 26.2934 7.76831   1
   1  -4   0 86.4143 9.57988   1
  -1   4   0 106.536 10.8533   1
   1   4   1 3106.41 266.280   1
  -1  -4  -1 3284.90 267.122   1
   1  -4   1 2831.37 258.528   1
   1   4   1 3223.35 264.118   1
  -1   4  -1 3137.96 261.340   1
  -1  -4  -1 3572.45 267.228   1
   1  -4   2 2687.13 235.425   1
   1   4   2 3010.34 244.139   1
   1   4   2 2910.84 241.116   1
   1  -4   2 2765.01 238.612   1
  -1  -4  -3 845.935 82.5512   1
  -1  -4  -3 575.527 71.5615   1
   1  -4   3 746.616 74.7861   1
   1  -4   3 756.520 72.5866   1
  -1  -4  -4 409.899 51.6397   1
  -1  -4  -4 441.716 50.3458   1
   1  -4   4 356.759 46.6026   1
   1   4   4 282.990 43.8980   1
   1  -4   5 33.5593 11.9021   1
   1   4   5 17.7249 14.1595   1
   1   4   5 42.8697 13.7989   1
   1  -4   5 30.6418 13.7653   1
  -1  -4  -5 29.8669 17.6085   1
  -1  -4  -5 31.8473 13.6900   1
   1   4   6 1722.41 171.975   1
  -1  -4  -6 1942.95 180.614   1
  -1  -4  -6 1541.33 177.300   1
   1  -4   6 1960.48 176.612   1
   1   4   6 1982.97 180.469   1
   1  -4   6 1892.37 173.086   1
   1   4   7 12.2916 11.7761   1
  -1  -4  -7 24.1623 15.0490   1
  -1  -4  -7 12.3987 11.6561   1
   1   4   7 13.8211 13.8503   1
   1  -4   7 36.5608 16.1294   1
   1  -4   7-2.49485 6.74418   1
  -1  -4  -8 744.232 87.8198   1
   1   4   8 693.495 81.7589   1
   1  -4   8 894.661 89.1925   1
  -1  -4  -9 305.801 50.8849   1
   1   4   9 400.756 52.2084   1
   1  -4  10 159.146 30.7800   1
  -1  -4 -10 116.485 30.8342   1
   1   4  10 88.3853 25.2395   1
  -1   4 -10 128.433 30.4825   1
   1  -4  11 66.0458 18.6446   1
   1   4  11 74.3775 23.3130   1
  -1   4 -11 57.3750 20.9914   1
  -1  -4 -11 59.1700 24.7840   1
   1   4  12 37.4283 15.6704   1
  -1  -4 -12 57.2398 19.2620   1
  -1   5  12 20.8877 13.4292   1
   1   5 -11 431.356 60.3598   1
  -1  -5  11 385.834 53.7022   1
   1  -5 -11 473.975 62.7192   1
  -1   5  11 335.854 52.3347   1
  -1  -5  10 20.3206 13.6006   1
   1   5 -10 63.0165 22.1394   1
   1  -5 -10 48.3192 18.3019   1
  -1   5  10 37.0368 14.1291   1
   1  -5  -9 537.595 65.8743   1
  -1   5   9 466.036 60.3142   1
  -1  -5   8 34.5279 14.3067   1
  -1   5   8 42.0382 12.6068   1
   1  -5  -8 34.0461 10.2235   1
   1   5  -8 33.7726 17.9749   1
   1  -5  -8 6.43791 12.7520   1
  -1   5   8 6.47080 12.4428   1
   1  -5  -7 825.533 85.5176   1
  -1  -5   7 1045.29 93.7877   1
  -1   5   7 683.496 84.8645   1
   1   5  -7 912.838 96.4268   1
   1  -5  -7 652.039 86.5355   1
  -1   5   7 643.602 82.3513   1
  -1   5   6 4.71068 9.74246   1
  -1  -5   6 37.2111 14.3780   1
   1   5  -6 10.0467 8.85908   1
   1  -5  -6 60.2563 17.0048   1
  -1  -5   6 53.8696 17.1768   1
   1   5  -6 22.8245 13.7882   1
  -1  -5   5 1048.54 102.993   1
  -1   5   5 806.431 93.7824   1
   1  -5  -5 723.126 91.1988   1
   1  -5  -5 805.339 90.1418   1
   1   5  -5 1144.27 100.167   1
  -1   5   5 667.581 88.7057   1
   1   5  -5 1155.34 106.913   1
  -1  -5   5 1058.73 98.8978   1
   1  -5  -4 3200.99 256.781   1
  -1  -5   4 3678.41 265.053   1
  -1   5   4 3076.89 259.116   1
   1   5  -4 2895.38 265.825   1
   1  -5  -4 2863.44 256.833   1
  -1   5   4 2311.76 252.492   1
   1   5  -3 505.115 53.5073   1
  -1  -5   3 529.677 51.4408   1
   1   5  -3 614.734 50.7945   1
   1  -5  -2 1064.93 99.6637   1
   1  -5  -2 668.633 99.6396   1
   1   5  -2 1997.07 116.575   1
   1   5  -2 1711.36 117.351   1
  -1  -5   2 1397.52 112.708   1
  -1  -5   2 1672.59 117.787   1
   1   5  -1 1539.74 136.603   1
   1   5  -1 1470.26 139.996   1
  -1  -5   1 1556.58 138.950   1
  -1  -5   1 1636.31 138.665   1
   1   5   0 2568.29 214.880   1
   1   5   0 2745.70 219.568   1
  -1  -5   0 2624.18 216.512   1
  -1  -5   0 2381.21 215.471   1
   1   5   1 734.870 68.2245   1
  -1  -5  -1 860.036 73.2739   1
  -1   5  -1 466.653 61.9602   1
  -1  -5  -1 675.851 70.0554   1
   1  -5   1 467.832 60.6331   1
   1   5   1 779.307 73.1938   1
  -1   5  -2 1598.60 183.725   1
  -1   5  -2 1780.04 184.341   1
   1   5   2 2677.12 192.556   1
   1   5   2 2395.24 191.494   1
  -1  -5  -2 2007.68 190.506   1
  -1  -5  -2 2030.12 186.934   1
   1  -5   2 2025.51 186.041   1
   1  -5   2 1832.44 182.015   1
  -1   5  -3 1717.39 178.407   1
  -1   5  -3 1669.99 177.535   1
   1   5   3 2182.19 179.876   1
  -1  -5  -3 1637.43 181.015   1
   1  -5   3 1920.32 179.337   1
  -1  -5  -3 1602.65 176.165   1
   1  -5   3 1807.69 174.472   1
   1   5   4 714.241 73.1352   1
  -1   5  -4 688.984 70.0977   1
   1  -5   4 632.609 70.3261   1
  -1  -5  -4 710.840 74.5866   1
   1   5   5 731.014 74.2524   1
  -1   5  -5 629.309 70.1688   1
  -1  -5  -5 558.615 71.6525   1
  -1   5  -5 646.409 76.3446   1
   1  -5   5 554.253 71.4422   1
  -1  -5  -5 623.718 76.9321   1
   1  -5   5 763.424 73.7222   1
   1   5   5 622.710 72.2054   1
  -1  -5  -6 9.04899 8.93316   1
   1   5   6 16.1484 11.2797   1
   1  -5   6 25.4644 11.6390   1
   1   5   6 17.4246 15.6433   1
   1  -5   6 22.3956 12.2652   1
  -1   5  -6 57.7241 16.8055   1
  -1  -5  -6 34.9609 18.3161   1
  -1   5  -6 21.2224 10.2190   1
  -1   5  -7 896.794 107.611   1
   1   5   7 776.964 103.594   1
  -1  -5  -7 1210.10 113.660   1
   1   5   7 864.722 101.862   1
  -1  -5  -7 953.462 111.076   1
   1  -5   7 1011.21 104.453   1
   1   5   8 117.323 26.5620   1
  -1   5  -8 150.086 32.8694   1
   1  -5   8 155.815 31.5340   1
  -1  -5  -8 146.978 29.6890   1
  -1  -5  -9 128.669 30.4652   1
   1   5   9 148.947 30.2317   1
  -1   5  -9 129.656 32.1740   1
   1  -5   9 127.482 27.6097   1
  -1  -5 -10 291.743 47.6298   1
   1   5  10 222.023 38.4719   1
   1  -5  10 206.998 38.1716   1
  -1   5 -10 238.012 44.0289   1
  -1   5 -11 87.9153 27.0161   1
   1  -5  11 73.3604 19.9680   1
   1   5  11 81.7953 22.3899   1
  -1  -5 -11 82.0936 26.3540   1
  -1  -5 -12 448.702 63.9228   1
   1   5  12 322.901 54.0540   1
   1   6 -11 80.4123 20.8077   1
  -1  -6  11 74.1422 21.5319   1
  -1   6  10 548.705 69.1231   1
   1  -6 -10 584.501 74.3626   1
   1   6 -10 546.484 72.9908   1
  -1  -6  10 638.843 71.2996   1
  -1  -6   9 35.1375 14.3884   1
  -1   6   9 26.3202 16.1720   1
   1  -6  -9 32.2257 16.5811   1
   1   6  -9 29.1431 14.5689   1
  -1   6   8 598.149 72.6003   1
   1  -6  -8 617.853 75.3769   1
   1   6  -8 588.220 73.6212   1
  -1   6   8 557.927 68.3060   1
   1  -6  -8 693.726 72.3633   1
  -1  -6   8 590.710 69.7695   1
  -1  -6   7 399.367 49.8262   1
  -1   6   7 327.079 47.3836   1
   1   6  -7 362.481 52.2770   1
   1  -6  -7 462.528 51.3304   1
  -1   6   7 394.765 48.8164   1
   1  -6  -7 314.299 47.1424   1
   1  -6  -6 271.225 34.7025   1
  -1   6   6 147.628 28.1743   1
  -1  -6   6 279.826 38.4886   1
  -1  -6   6 270.937 38.1422   1
   1   6  -6 214.160 38.7776   1
   1   6  -6 213.766 33.3039   1
  -1   6   5 1226.82 134.864   1
  -1  -6   5 1893.91 155.048   1
  -1   6   5 1596.61 141.698   1
   1   6  -5 1381.28 145.330   1
   1  -6  -5 1074.12 135.342   1
  -1  -6   5 1440.86 141.461   1
   1  -6  -5 1607.41 139.307   1
   1   6  -5 1403.57 141.072   1
   1   6  -4 33.5114 10.6391   1
   1  -6  -4 29.0880 9.06605   1
   1  -6  -4 45.8929 6.89216   1
  -1   6   4 19.5503 7.40253   1
  -1   6   4 14.9609 5.05540   1
  -1  -6   4 54.9067 16.8515   1
   1   6  -4 19.3812 9.49655   1
   1  -6  -3 1158.68 129.680   1
   1  -6  -3 1061.70 128.560   1
  -1   6   3 1310.67 129.685   1
  -1  -6   3 2394.61 153.950   1
   1   6  -3 2181.22 143.717   1
  -1   6   3 765.923 127.124   1
  -1  -6   2 294.765 39.7403   1
   1   6  -2 346.345 41.2548   1
  -1  -6   2 396.188 43.8064   1
   1   6  -2 398.331 42.5267   1
   1   6  -1 2278.15 197.643   1
  -1  -6   1 2337.06 195.453   1
   1   6  -1 2172.49 192.949   1
  -1  -6   1 2243.84 196.513   1
   1   6   0 640.141 62.5114   1
   1   6   0 665.683 60.2934   1
  -1  -6   0 605.426 61.5905   1
  -1   6  -1 2044.30 209.543   1
   1   6   1 2829.03 218.945   1
  -1  -6  -1 2752.43 219.592   1
   1   6   1 2952.70 217.676   1
   1  -6   1 1959.68 208.754   1
  -1  -6  -1 2995.70 218.283   1
   1  -6   2 1026.89 123.190   1
   1   6   2 1641.81 135.279   1
  -1   6  -2 1257.10 126.978   1
  -1  -6  -2 1460.90 131.947   1
  -1  -6  -2 1779.57 134.166   1
   1   6   2 1227.96 124.631   1
   1  -6   2 1088.82 121.668   1
  -1   6  -2 971.998 122.656   1
  -1   6  -3 413.330 60.7342   1
  -1  -6  -3 791.081 71.7642   1
   1   6   3 492.758 60.5940   1
   1  -6   3 711.667 66.6192   1
   1   6   3 540.280 64.3170   1
   1  -6   3 513.519 62.9313   1
  -1  -6  -3 558.178 64.3811   1
  -1   6  -3 452.346 62.3917   1
  -1   6  -4 488.816 57.1868   1
   1   6   4 713.736 64.4367   1
  -1  -6  -4 566.482 64.6913   1
   1  -6   4 327.666 51.3357   1
  -1  -6  -5 96.9860 23.4394   1
   1  -6   5 190.890 29.6087   1
  -1  -6  -5 180.916 33.6175   1
  -1   6  -5 116.785 23.4725   1
   1  -6   5 129.996 25.8322   1
   1   6   5 98.8215 22.5566   1
  -1   6  -5 111.762 26.4227   1
   1   6   5 118.121 25.8779   1
  -1   6  -6 547.205 69.9508   1
   1  -6   6 661.725 69.8663   1
  -1   6  -6 577.838 66.2113   1
  -1  -6  -6 463.027 64.5498   1
  -1  -6  -6 649.626 78.3447   1
   1  -6   6 458.807 64.5778   1
   1   6   6 682.786 76.5544   1
   1   6   6 490.332 62.8092   1
   1  -6   7 48.4656 15.4792   1
   1   6   7 33.1717 15.7086   1
  -1  -6  -7 58.2918 21.8529   1
  -1   6  -7 41.9400 15.8203   1
  -1  -6  -7 17.8008 14.7217   1
   1   6   7 37.3449 15.8462   1
  -1  -6  -8 955.286 97.5920   1
   1  -6   8 737.131 87.1407   1
   1   6   8 636.187 84.8274   1
  -1   6  -8 868.505 97.3025   1
  -1  -6  -9 182.921 36.8727   1
   1   6   9 161.167 32.8547   1
   1  -6   9 154.687 31.2970   1
  -1   6  -9 238.097 44.4018   1
  -1  -6 -10 276.536 46.0796   1
   1   6  10 282.591 43.6985   1
  -1   6 -10 264.808 46.6677   1
   1  -6  10 250.973 41.3819   1
   1  -6  11 76.1999 21.9066   1
  -1   6 -11 133.315 32.6225   1
   1   7 -11 126.094 29.0799   1
  -1  -7  11 96.3446 25.2512   1
  -1  -7   9 350.934 50.6041   1
   1   7  -9 428.226 58.6462   1
   1   7  -8 92.2635 24.9889   1
   1  -7  -8 63.0287 17.8636   1
   1  -7  -8 56.2589 19.5574   1
  -1   7   8 41.3064 16.6091   1
  -1   7   8 50.2253 14.8721   1
  -1  -7   8 53.4471 18.8799   1
   1  -7  -7 425.474 57.5810   1
  -1  -7   7 556.204 62.2472   1
  -1   7   7 466.922 59.0406   1
   1   7  -7 552.300 67.0716   1
   1  -7  -7 519.028 60.2386   1
  -1   7   7 389.968 52.3960   1
   1  -7  -6 297.439 40.6607   1
  -1  -7   6 421.217 51.1224   1
  -1   7   6 282.170 35.5025   1
  -1   7   6 356.398 41.0493   1
   1  -7  -6 268.296 36.6574   1
   1   7  -6 422.438 46.0018   1
  -1  -7   5 805.990 76.3986   1
  -1   7   5 427.453 54.2367   1
   1   7  -5 802.551 70.6993   1
  -1   7   5 650.642 62.7679   1
   1   7  -5 747.490 73.7470   1
   1  -7  -5 392.168 55.9065   1
  -1  -7   5 891.126 73.6717   1
   1  -7  -5 555.321 63.1880   1
  -1  -7   4 1926.92 145.329   1
  -1  -7   4 1903.68 142.689   1
   1  -7  -4 1292.38 126.407   1
  -1   7   4 1386.85 125.776   1
   1   7  -4 1475.24 137.629   1
   1   7  -4 1982.78 140.089   1
   1   7  -3 192.962 28.3382   1
  -1  -7   3 163.729 26.5784   1
  -1  -7   2 1021.45 95.6120   1
   1   7  -2 872.605 92.9535   1
   1   7  -2 924.235 91.6317   1
  -1  -7   2 1115.22 97.5815   1
   1   7  -1 139.407 21.0789   1
  -1  -7   1 209.722 27.5070   1
  -1  -7   1 166.534 24.7115   1
   1   7  -1 147.488 23.8882   1
   1   7   0 1360.40 128.255   1
  -1  -7   0 1598.44 128.723   1
  -1  -7   0 1650.82 129.014   1
  -1   7  -1 24.8348 4.74107   1
  -1  -7  -1 79.9851 15.6550   1
   1  -7   1 33.4841 5.86527   1
  -1   7  -1 41.0356 6.78728   1
  -1  -7  -1 61.1354 14.3423   1
   1   7   2 1813.04 149.803   1
  -1  -7  -2 1789.62 150.389   1
  -1  -7  -2 1839.81 150.788   1
   1  -7   2 1637.66 147.538   1
   1   7   2 1985.78 150.887   1
   1  -7   2 1477.95 143.347   1
  -1   7  -2 1806.18 147.803   1
  -1   7  -2 1448.68 146.855   1
   1  -7   3 204.791 27.0316   1
   1   7   3 293.338 35.0627   1
  -1  -7  -3 189.852 26.9246   1
   1   7   3 187.943 25.7152   1
  -1   7  -3 213.803 31.6925   1
  -1  -7  -3 249.808 34.6840   1
  -1   7  -3 211.198 31.7258   1
   1  -7   3 265.405 33.5002   1
   1   7   4 971.624 91.7163   1
  -1  -7  -4 936.874 91.2711   1
   1  -7   4 896.686 87.8687   1
  -1   7  -4 938.516 93.4027   1
   1   7   5 628.177 75.4829   1
  -1  -7  -5 833.431 84.5005   1
  -1  -7  -5 698.396 83.1455   1
  -1   7  -5 660.006 79.4139   1
   1  -7   5 668.349 77.4169   1
  -1   7  -5 606.084 77.6482   1
   1  -7   5 684.873 76.6886   1
   1   7   6 71.5397 18.7024   1
   1  -7   6 112.484 22.6228   1
   1   7   6 136.547 30.2334   1
  -1   7  -6 99.3335 23.4701   1
   1  -7   6 102.335 22.8978   1
  -1  -7  -6 114.400 29.0951   1
  -1  -7  -6 110.355 26.5992   1
   1   7   7 922.127 103.399   1
  -1  -7  -7 1021.06 109.818   1
  -1  -7  -7 811.038 98.4336   1
  -1   7  -7 1014.73 106.838   1
   1  -7   7 1052.37 101.362   1
   1   7   7 757.773 93.5778   1
   1   7   8 33.1034 14.7084   1
   1  -7   8 24.2710 12.4431   1
  -1   7  -8 27.1611 15.5134   1
  -1  -7  -8 32.3842 13.9722   1
  -1  -7  -9 500.003 65.5496   1
   1  -7   9 355.749 51.7618   1
  -1   7  -9 424.921 61.3691   1
   1   7   9 329.169 50.4827   1
   1  -7  11 128.963 27.6521   1
  -1   7 -11 140.223 35.9769   1
  -1  -8  10 170.154 32.9412   1
   1   8 -10 226.253 42.3092   1
  -1  -8   9 1.87949 7.82919   1
   1   8  -9 27.3171 16.0956   1
  -1  -8   7 240.331 39.2469   1
   1   8  -7 386.598 51.7614   1
   1   8  -6 350.952 46.5600   1
  -1   8   6 271.407 34.7920   1
   1  -8  -6 346.728 41.9324   1
  -1  -8   5 736.212 64.8939   1
  -1  -8   5 699.115 60.9965   1
   1   8  -5 547.288 52.8234   1
   1  -8  -5 257.119 36.9226   1
   1   8  -5 557.804 56.3053   1
  -1   8   5 314.240 37.7126   1
  -1  -8   4 252.477 36.8386   1
   1   8  -4 262.646 37.0421   1
  -1  -8   4 243.035 34.5381   1
   1   8  -4 233.879 32.4201   1
  -1  -8   3 1100.67 99.8230   1
   1   8  -3 881.850 95.8693   1
  -1  -8   2 168.597 24.9208   1
  -1  -8   2 192.256 27.6431   1
   1   8  -2 200.489 27.4792   1
   1   8  -2 232.123 26.9030   1
   1   8  -1 704.670 66.7377   1
   1   8  -1 647.208 71.4026   1
  -1  -8   1 706.755 72.3056   1
  -1  -8   1 744.086 72.3231   1
  -1  -8   0 222.403 27.9012   1
   1   8   0 209.725 27.5041   1
  -1  -8   0 215.638 28.1094   1
   1   8   0 244.810 29.0942   1
   1   8   1 517.492 52.5360   1
  -1  -8  -1 488.400 53.7378   1
   1  -8   2 395.964 49.8952   1
  -1   8  -2 456.458 55.1127   1
  -1  -8  -2 679.851 57.0539   1
  -1  -8  -2 795.507 63.8308   1
   1   8   2 714.607 54.6988   1
  -1   8  -2 356.120 50.0162   1
   1  -8   2 489.237 54.7772   1
   1   8   2 927.293 65.1853   1
  -1   8  -3 106.899 19.4123   1
   1   8   3 176.001 24.5007   1
  -1   8  -3 186.391 25.8693   1
  -1  -8  -3 80.8706 18.3368   1
   1  -8   3 76.7445 14.8253   1
  -1  -8  -3 127.836 23.7079   1
   1   8   3 173.773 21.8720   1
   1  -8   3 74.0372 17.5932   1
  -1  -8  -4 785.474 74.3852   1
   1  -8   4 470.908 60.0001   1
   1   8   4 414.293 55.9603   1
  -1  -8  -4 427.842 59.7334   1
  -1   8  -4 572.159 67.6947   1
   1   8   4 755.975 69.7839   1
   1  -8   5 20.3841 12.5516   1
   1   8   5 18.4738 9.41726   1
  -1   8  -5 31.3319 14.4427   1
  -1   8  -5 29.3916 17.4508   1
   1   8   5 23.2938 11.9994   1
   1  -8   5 25.2731 15.2349   1
  -1  -8  -5 19.1962 11.5343   1
  -1  -8  -5 33.2111 14.5661   1
  -1  -8  -6 282.564 42.2819   1
   1   8   6 256.214 44.6525   1
  -1  -8  -6 306.632 46.7130   1
   1   8   6 253.490 40.0958   1
   1  -8   6 395.946 51.7550   1
  -1   8  -6 286.338 45.9516   1
   1  -8   6 405.585 48.0532   1
  -1   8  -6 338.530 48.4607   1
   1  -8   7 34.5307 15.0500   1
   1   8   7 20.0440 13.2658   1
   1   8   7 48.3386 20.4863   1
  -1   8  -7 31.9916 13.6625   1
  -1  -8  -7 21.4293 11.9203   1
  -1  -8  -7 47.5825 22.3552   1
   1  -8   8 414.572 57.1739   1
  -1   8  -8 496.477 66.2663   1
  -1   8  -9 90.5368 27.3077   1
   1  -8   9 145.267 28.4954   1
  -1  -9   8 59.1448 19.4899   1
   1   9  -8 48.9639 21.0893   1
   1   9  -7 69.3140 22.7059   1
   1   9  -6 150.906 30.3111   1
  -1  -9   6 143.300 28.4771   1
  -1  -9   5 310.113 42.1210   1
   1   9  -5 305.987 45.1561   1
  -1  -9   5 321.774 43.8319   1
   1   9  -5 296.901 39.4021   1
  -1  -9   4 747.113 75.1423   1
  -1  -9   4 631.557 68.8707   1
   1   9  -4 623.083 72.3627   1
   1   9  -4 514.386 64.3879   1
  -1  -9   3 70.3943 16.5372   1
   1   9  -3 46.2196 13.5216   1
  -1  -9   2 2265.88 194.244   1
  -1  -9   2 2128.06 193.824   1
   1   9  -2 2166.24 194.724   1
   1   9  -2 2233.09 189.823   1
  -1  -9   1 276.099 34.7492   1
   1   9  -1 315.870 38.8875   1
   1   9  -1 282.878 32.4565   1
  -1  -9   1 215.626 30.3720   1
  -1  -9   0 904.291 82.8207   1
  -1  -9   0 875.824 83.6147   1
   1   9   0 715.093 76.5157   1
   1   9   0 791.124 83.0847   1
  -1  -9  -1 212.291 26.7668   1
   1   9   1 336.570 30.6964   1
  -1  -9  -1 244.750 27.2019   1
   1   9   1 313.265 31.6027   1
  -1  -9  -2 277.017 25.3122   1
   1   9   2 229.711 17.2937   1
  -1   9  -2 115.319 13.1165   1
   1   9   2 273.172 20.7778   1
  -1  -9  -2 276.111 25.7741   1
   1   9   3 379.242 42.0377   1
  -1   9  -3 366.414 45.8963   1
  -1  -9  -3 341.994 42.0580   1
   1   9   3 487.503 47.0922   1
   1  -9   3 250.293 38.6252   1
  -1  -9  -3 624.904 53.5332   1
  -1   9  -3 373.032 44.8423   1
   1  -9   3 494.077 50.0649   1
   1   9   4 36.0300 11.0371   1
  -1   9  -4 47.7534 16.0422   1
   1   9   4 43.3788 13.6497   1
   1  -9   4 38.9783 13.5069   1
  -1  -9  -4 25.5336 11.2917   1
  -1  -9  -4 16.8622 6.13184   1
   1  -9   5 783.454 77.9575   1
  -1   9  -5 589.653 76.0441   1
  -1   9  -5 616.477 73.1240   1
   1  -9   5 540.471 66.4305   1
  -1   9  -6 47.9026 17.5404   1
   2   0 -12 19.3886 12.8483   1
  -2   0  12 27.8551 13.2513   1
  -2   0  11 152.882 29.8709   1
   2   0 -11 186.203 35.1147   1
   2   0 -10-2.14338 10.4542   1
  -2   0  10 9.62215 13.2021   1
   2   0  -9 288.572 44.9770   1
  -2   0   9 283.146 41.3247   1
  -2   0   8 440.660 55.2042   1
   2   0  -8 472.510 60.6665   1
  -2   0   7 512.299 62.6133   1
  -2   0   7 541.811 67.7433   1
   2   0  -7 610.729 70.7135   1
   2   0  -7 538.317 64.0606   1
  -2   0   6 127.680 23.6750   1
   2   0  -6 92.4778 20.3484   1
   2   0  -6 120.886 25.5918   1
  -2   0   6 90.0040 21.6633   1
   2   0  -5 85.6269 19.1624   1
  -2   0   5 66.4498 18.4351   1
   2   0  -5 59.8802 14.7956   1
  -2   0   5 61.6562 15.8368   1
   2   0  -4 1035.68 101.529   1
  -2   0   3 745.313 90.4722   1
   2   0  -3 941.207 95.1516   1
   2   0  -3 918.669 91.4815   1
  -2   0   3 1059.84 97.5661   1
  -2   0   2 1739.17 155.955   1
   2   0  -2 1801.93 160.192   1
  -2   0   2 1747.66 157.397   1
  -2   0   1 11.3441 8.09197   1
  -2   0   1 3.21047 7.03259   1
   2   0  -1 14.0836 10.3728   1
   2   0  -1 17.0789 10.7401   1
   2   0   0 6627.54 528.743   1
  -2   0   0 6209.92 527.592   1
  -2   0   0 6554.75 530.046   1
   2   0   0 6318.81 525.261   1
  -2   0  -1 6086.60 506.953   1
   2   0   1 5881.22 508.402   1
  -2   0  -1 5964.67 508.007   1
   2   0   1 6325.99 506.157   1
   2   0   2 420.349 53.1803   1
  -2   0  -2 428.205 54.6913   1
  -2   0  -2 451.810 52.9909   1
   2   0   2 368.979 49.8833   1
   2   0   3 9170.62 722.845   1
  -2   0  -3 8559.28 717.316   1
   2   0   4 28.8395 15.6518   1
   2   0   4 41.6387 16.6030   1
  -2   0  -4 17.8179 12.1186   1
  -2   0  -4 37.5928 15.2986   1
  -2   0  -5 556.917 71.7913   1
  -2   0  -5 495.245 63.4076   1
   2   0   5 505.104 60.9618   1
   2   0   5 525.981 68.2414   1
   2   0   6 29.8568 18.1710   1
  -2   0  -6 18.3558 11.3514   1
   2   0   6 26.1190 13.7319   1
  -2   0  -6 22.3999 13.4620   1
   2   0   7 219.862 36.7049   1
  -2   0  -7 228.637 41.9866   1
   2   0   8 190.467 34.8551   1
  -2   0  -8 166.260 38.2291   1
  -2   0  -9 260.633 43.7586   1
   2   0   9 229.981 40.4722   1
   2   0  10 94.2452 23.0052   1
  -2   0 -10 114.028 28.4786   1
  -2   0 -11 115.228 27.8902   1
   2   0  11 108.110 26.3662   1
  -2   1  12 337.179 46.9436   1
  -2  -1  12 306.088 45.3047   1
   2   1 -12 338.508 50.6622   1
   2  -1 -12 327.253 51.5559   1
  -2  -1  11 25.3814 13.5976   1
  -2   1  11 30.4728 14.0104   1
   2  -1 -11 27.9290 16.1923   1
   2   1 -11 34.6039 15.2537   1
  -2  -1  10 539.704 63.9817   1
   2   1 -10 505.738 67.3341   1
   2  -1 -10 526.234 67.3895   1
  -2  -1   9 296.375 41.8749   1
  -2   1   9 251.280 38.4495   1
   2   1  -9 281.624 44.7991   1
   2  -1  -9 267.621 44.2014   1
  -2   1   8 651.149 71.2523   1
  -2  -1   8 695.734 72.8821   1
   2   1  -8 633.885 75.5837   1
   2  -1  -8 577.801 73.5092   1
  -2  -1   7 203.638 34.6596   1
   2   1  -7 138.748 26.8047   1
  -2   1   7 145.139 29.6449   1
   2  -1  -7 171.128 29.4311   1
  -2   1   7 123.931 24.8619   1
   2  -1  -7 155.383 29.3888   1
  -2   1   6 671.507 73.2602   1
   2   1  -6 614.941 67.9791   1
  -2   1   6 765.583 71.5782   1
   2   1  -6 606.208 72.2135   1
   2  -1  -6 551.447 68.8817   1
  -2  -1   6 568.695 67.4564   1
   2  -1  -6 582.394 67.0560   1
  -2  -1   6 719.562 76.7040   1
  -2  -1   5 1187.76 127.763   1
  -2   1   5 1261.57 127.418   1
   2   1  -5 1366.78 134.099   1
   2  -1  -5 1498.95 134.232   1
   2   1  -5 1120.30 127.814   1
   2  -1  -5 1139.32 125.310   1
  -2  -1   5 1550.49 139.143   1
  -2   1   5 1261.18 132.272   1
  -2  -1   4 241.521 37.2036   1
   2   1  -4 273.935 36.9185   1
  -2  -1   4 231.737 39.0711   1
   2   1  -4 287.033 39.8100   1
  -2   1   4 360.189 42.1789   1
   2  -1  -4 248.526 34.9404   1
   2   1  -3 5335.73 443.921   1
  -2   1   3 5333.72 442.933   1
   2  -1  -3 5292.19 444.836   1
   2  -1  -3 5318.72 441.671   1
  -2  -1   3 5225.40 447.646   1
  -2   1   3 5851.16 445.793   1
  -2  -1   2 2437.21 212.696   1
   2  -1  -2 2677.65 214.426   1
   2   1  -2 2066.97 213.623   1
  -2   1   2 2315.48 210.886   1
  -2  -1   2 2468.03 214.155   1
   2  -1  -1 7851.60 625.886   1
   2   1  -1 7655.52 627.503   1
   2  -1  -1 7341.31 623.297   1
  -2   1   1 6493.04 622.952   1
   2   1  -1 7550.67 624.544   1
  -2   1   1 7149.31 621.766   1
  -2  -1   1 7544.75 623.655   1
  -2  -1   1 8168.70 627.491   1
   2   1   0 539.995 69.0989   1
  -2   1   0 728.581 73.2288   1
  -2   1   0 495.804 70.1582   1
   2  -1   0 533.174 70.4414   1
   2   1   0 787.843 76.2293   1
  -2  -1   0 703.137 73.2399   1
  -2  -1   0 572.776 72.9219   1
   2  -1   0 758.828 72.8720   1
  -2  -1  -1 3743.93 322.181   1
   2  -1   1 3873.77 323.721   1
   2   1   1 3885.18 323.956   1
  -2  -1  -1 3857.64 324.141   1
   2  -1   1 2986.13 316.603   1
  -2   1  -1 3213.07 318.029   1
   2   1   1 3671.39 319.869   1
  -2   1  -1 3698.94 321.265   1
  -2   1  -2 8231.12 675.784   1
   2  -1   2 8798.22 675.475   1
   2   1   2 7400.45 675.148   1
   2   1   2 8370.91 672.165   1
  -2  -1  -2 8626.01 677.313   1
   2  -1   2 8325.27 673.334   1
  -2  -1  -2 6616.67 671.031   1
  -2   1  -2 8230.99 673.566   1
   2  -1   3 1675.86 200.135   1
  -2  -1  -3 2358.10 206.009   1
   2   1   3 2067.03 206.136   1
  -2   1  -3 2314.34 204.139   1
   2   1   4 2984.76 303.466   1
  -2  -1  -4 3555.05 312.600   1
  -2   1  -4 3321.07 311.648   1
   2  -1   4 3858.24 303.553   1
  -2  -1  -4 3073.58 303.901   1
  -2   1  -4 3024.71 302.607   1
   2  -1   4 3504.10 309.792   1
   2   1   4 3041.41 305.050   1
   2  -1   5 59.6290 20.3171   1
  -2   1  -5 64.2797 21.3449   1
   2  -1   5 115.144 22.7459   1
   2   1   5 71.0594 19.5790   1
   2   1   5 100.216 25.4012   1
  -2   1  -5 67.3106 21.3486   1
  -2  -1  -5 74.8777 25.0530   1
  -2  -1  -5 75.5899 21.6205   1
   2  -1   6 1660.83 138.186   1
  -2   1  -6 1157.69 138.581   1
  -2  -1  -6 1311.38 142.119   1
  -2   1  -6 1231.95 137.660   1
  -2  -1  -6 1160.68 134.951   1
   2   1   6 979.501 128.011   1
   2  -1   6 1554.18 143.263   1
   2   1   6 1031.75 133.843   1
   2  -1   7 445.907 62.5213   1
   2   1   7 508.047 63.9695   1
  -2   1  -7 632.923 75.5845   1
  -2  -1  -7 505.116 68.0924   1
   2  -1   8 67.9681 21.4585   1
   2   1   8 63.4249 20.1367   1
  -2  -1  -8 110.363 26.8791   1
  -2   1  -8 44.8649 20.7483   1
   2   1   9 501.340 67.6792   1
  -2   1  -9 476.099 70.3828   1
  -2  -1  -9 635.823 77.8937   1
   2  -1   9 605.954 70.5634   1
   2  -1  10 89.6294 22.6472   1
   2   1  10 51.5326 17.9797   1
  -2   1 -10 90.4161 25.5383   1
  -2  -1 -10 75.8359 24.7328   1
   2  -1  11 171.790 33.2568   1
  -2  -1 -11 171.827 35.9915   1
  -2   1 -11 152.937 36.6089   1
   2   1  11 182.203 32.8483   1
  -2  -2  12 80.7080 23.0339   1
  -2   2  12 85.4631 20.4638   1
   2   2 -12 83.9507 25.7319   1
   2  -2 -12 81.7444 25.6429   1
   2  -2 -11 275.558 44.6506   1
  -2   2  11 193.857 35.2014   1
  -2  -2  10 107.136 24.0454   1
   2   2 -10 111.213 28.7258   1
  -2   2   9 315.597 44.1998   1
  -2  -2   9 318.382 45.0283   1
   2   2  -9 312.198 47.7589   1
   2  -2  -9 322.095 47.9732   1
   2  -2  -8 596.513 79.7011   1
  -2  -2   8 666.715 78.3091   1
  -2   2   8 603.578 75.8665   1
   2   2  -7 156.365 32.8698   1
  -2  -2   7 242.193 36.2121   1
   2  -2  -7 236.216 38.6203   1
   2  -2  -7 208.850 33.5777   1
   2   2  -6 1097.03 138.478   1
  -2  -2   6 1144.27 135.434   1
  -2   2   6 1232.87 135.064   1
   2   2  -6 1108.87 134.506   1
  -2  -2   6 1467.06 145.088   1
   2   2  -5 12.6820 8.94335   1
   2   2  -5 10.6429 9.77673   1
   2  -2  -5 18.4020 9.99928   1
   2  -2  -5 2.10947 7.04309   1
  -2  -2   5 43.2302 14.3515   1
  -2   2   5 30.5477 13.0161   1
  -2   2   5 16.5925 8.77738   1
  -2  -2   5 4.22887 6.06711   1
  -2  -2   4 2030.24 200.734   1
  -2  -2   4 2174.47 198.885   1
   2   2  -4 2181.94 199.568   1
   2   2  -4 2415.70 198.208   1
   2  -2  -4 2289.20 194.716   1
  -2   2   4 2013.88 196.664   1
   2  -2  -3 33.7878 10.2967   1
   2   2  -3 32.5416 12.9934   1
   2  -2  -3 21.1146 8.75127   1
  -2  -2   3 27.6665 10.9666   1
   2   2  -3 40.5354 13.1834   1
  -2  -2   3 23.6769 9.82901   1
  -2   2   3 30.0138 12.0141   1
  -2   2   3 38.5170 11.9545   1
  -2   2   2 3859.89 305.874   1
  -2  -2   2 3695.27 308.566   1
   2  -2  -2 3416.98 307.234   1
   2   2  -2 3686.23 312.730   1
  -2  -2   2 3133.64 307.449   1
   2  -2  -1 1099.72 95.5834   1
   2   2  -1 767.976 93.2952   1
  -2   2   1 685.538 89.4230   1
   2  -2  -1 803.050 89.9851   1
  -2   2   1 696.607 88.5554   1
  -2  -2   1 954.897 96.6911   1
   2   2  -1 786.555 92.6820   1
  -2  -2   1 1094.47 94.8678   1
  -2   2   0 3795.86 338.611   1
   2   2   0 3966.70 343.184   1
   2   2   0 3988.92 340.181   1
  -2  -2   0 4165.54 341.634   1
  -2   2   0 4095.00 341.293   1
  -2  -2   0 4314.13 345.631   1
   2  -2   0 3970.05 337.462   1
  -2   2  -1 1029.26 88.4806   1
  -2  -2  -1 681.048 82.6252   1
   2  -2   1 781.460 86.2080   1
   2   2   1 1021.32 90.6295   1
  -2   2  -1 842.633 84.9708   1
   2  -2   1 359.341 74.7373   1
  -2  -2  -1 578.565 82.0390   1
   2   2   1 958.019 86.6516   1
   2  -2   2 1102.20 113.123   1
  -2   2  -2 1161.33 116.281   1
   2   2   2 1019.58 110.634   1
  -2  -2  -2 1289.40 118.152   1
   2  -2   2 1124.57 114.744   1
  -2   2  -2 1195.24 113.062   1
   2  -2   3 3861.82 322.077   1
   2   2   3 4239.85 328.400   1
   2   2   3 3766.02 327.323   1
  -2  -2  -3 2973.54 324.508   1
  -2   2  -3 3513.30 321.734   1
  -2  -2  -3 3068.82 321.538   1
   2  -2   4 212.988 32.5859   1
   2  -2   4 203.169 36.6598   1
  -2   2  -4 164.259 32.5866   1
  -2   2  -4 239.753 41.0610   1
   2   2   4 178.949 32.0277   1
  -2  -2  -4 288.598 40.8996   1
   2   2   4 252.446 39.8369   1
  -2  -2  -4 223.715 38.3375   1
   2  -2   5 1911.27 201.545   1
   2   2   5 2842.52 211.830   1
  -2   2  -5 1987.58 209.734   1
  -2  -2  -5 2022.98 212.006   1
  -2   2  -5 1869.87 206.416   1
  -2  -2  -5 1830.52 204.103   1
   2  -2   5 2421.83 213.067   1
   2   2   5 2614.22 216.426   1
   2   2   6 133.330 30.2669   1
   2  -2   6 91.4994 24.4327   1
   2  -2   6 61.3831 17.9358   1
  -2   2  -6 92.5033 24.0897   1
  -2  -2  -6 81.9490 25.2089   1
   2   2   7 1555.82 142.546   1
  -2   2  -7 1248.20 144.095   1
  -2  -2  -7 1282.75 144.721   1
   2  -2   7 1394.17 139.315   1
  -2   2  -8 284.826 48.3500   1
  -2  -2  -8 322.827 49.7278   1
   2  -2   8 236.969 41.0179   1
   2   2   8 263.816 42.6129   1
   2   2   9 237.828 43.5077   1
  -2   2  -9 303.179 48.9221   1
  -2  -2  -9 240.010 45.2950   1
   2  -2   9 275.154 41.5617   1
  -2  -2 -10 184.703 38.8680   1
  -2   2 -10 206.998 40.4388   1
   2  -2  10 247.209 39.0799   1
   2   2  10 172.516 33.8404   1
   2  -2  11 29.4685 16.2822   1
   2   2  11 33.2195 15.4975   1
  -2   2 -11 30.0207 17.9499   1
   2   3 -12 350.702 51.2964   1
   2  -3 -12 262.917 45.9771   1
  -2   3  12 232.965 40.6808   1
  -2  -3  12 288.054 43.7338   1
  -2  -3  11 26.5227 12.5444   1
  -2   3  11 39.0413 16.8570   1
   2   3 -11 46.5811 19.3878   1
   2  -3 -11 58.0296 20.0143   1
  -2  -3  10 390.332 54.4370   1
   2   3 -10 496.737 63.5780   1
   2  -3  -9 170.572 32.0891   1
  -2   3   9 189.595 31.7425   1
  -2   3   8 122.960 25.0815   1
  -2  -3   8 141.460 26.5726   1
   2   3  -8 149.657 31.7008   1
   2  -3  -8 106.189 26.0124   1
  -2   3   7 509.123 65.5021   1
   2   3  -7 468.862 65.4062   1
   2  -3  -7 568.715 68.4637   1
  -2   3   7 635.934 65.9636   1
  -2  -3   7 564.060 64.8215   1
   2  -3  -7 548.281 62.3204   1
   2   3  -6 115.355 24.4994   1
  -2  -3   6 193.934 32.6400   1
  -2  -3   6 164.525 27.4509   1
  -2   3   6 132.720 25.2619   1
  -2   3   6 111.189 21.9780   1
   2   3  -6 164.338 31.1814   1
   2  -3  -6 170.473 27.8730   1
   2  -3  -6 198.108 28.6578   1
   2   3  -5 1164.10 150.536   1
   2  -3  -5 1389.96 150.036   1
  -2   3   5 1139.27 144.440   1
   2   3  -5 1251.56 148.423   1
  -2   3   4 2147.10 179.177   1
  -2   3   4 1584.16 171.320   1
  -2  -3   4 1844.03 177.532   1
   2  -3  -4 1628.69 172.198   1
   2   3  -4 1772.69 177.746   1
  -2  -3   4 1893.54 180.179   1
   2   3  -4 2089.04 178.057   1
   2  -3  -4 1951.08 172.472   1
  -2   3   3 2920.47 258.431   1
  -2   3   3 2865.24 255.462   1
   2  -3  -3 3259.90 260.049   1
   2   3  -3 3136.37 263.725   1
  -2  -3   3 3074.93 261.255   1
   2  -3  -3 2948.71 254.939   1
   2  -3  -2 229.555 30.6772   1
   2  -3  -2 229.284 28.7221   1
  -2  -3   2 232.357 32.9975   1
   2   3  -2 268.286 32.7537   1
   2  -3  -1 2924.97 238.906   1
   2   3  -1 2816.52 242.838   1
   2   3  -1 2644.28 239.738   1
  -2   3   1 2801.66 237.536   1
  -2  -3   1 2856.11 244.365   1
   2  -3  -1 2483.43 234.242   1
  -2  -3   1 2933.37 240.114   1
  -2   3   0 318.552 36.4088   1
   2   3   0 251.844 34.2950   1
   2   3   0 281.348 37.9133   1
  -2  -3   0 277.802 36.9953   1
  -2  -3   0 266.032 38.3689   1
  -2   3   0 148.962 29.6453   1
  -2  -3  -1 2610.44 228.435   1
   2  -3   1 2596.93 227.493   1
   2   3   1 2384.55 228.185   1
   2  -3   1 1835.16 218.729   1
  -2   3  -1 2313.64 223.631   1
  -2  -3  -1 2773.78 232.205   1
  -2   3  -1 2497.98 224.692   1
   2   3   1 2629.51 226.182   1
   2  -3   2 2044.75 209.448   1
   2  -3   2 1705.53 206.659   1
   2   3   2 2213.06 216.174   1
  -2   3  -2 2470.04 214.695   1
  -2  -3  -2 2246.69 216.345   1
   2   3   2 2246.96 212.101   1
  -2   3  -2 2408.51 212.092   1
  -2  -3  -2 2691.39 218.515   1
   2  -3   3 133.651 23.2180   1
  -2   3  -3 114.670 23.8157   1
   2  -3   3 94.9777 23.2499   1
   2   3   3 146.656 27.8052   1
   2   3   3 134.292 28.7445   1
  -2   3  -3 125.878 26.0777   1
  -2  -3  -3 115.929 28.3701   1
  -2  -3  -3 85.9320 23.2469   1
   2  -3   4 3815.90 362.647   1
   2   3   4 5022.84 377.821   1
   2   3   4 3907.66 372.313   1
  -2   3  -4 3944.16 372.024   1
  -2   3  -4 3563.66 365.512   1
   2  -3   4 3829.91 369.430   1
  -2  -3  -4 4677.61 374.568   1
  -2  -3  -4 4187.29 378.330   1
   2   3   5 720.558 77.7597   1
   2  -3   5 552.286 64.3608   1
   2   3   5 675.947 70.2827   1
  -2   3  -5 427.846 66.0077   1
  -2  -3  -5 488.034 71.2224   1
  -2   3  -5 439.236 66.8299   1
  -2  -3  -5 503.389 67.6302   1
   2  -3   5 682.718 73.9129   1
  -2  -3  -6 1491.76 166.184   1
  -2   3  -6 1692.48 162.322   1
   2  -3   6 1700.27 160.593   1
   2   3   6 1650.37 163.710   1
   2   3   7 274.304 41.0532   1
  -2   3  -7 193.217 38.7203   1
   2  -3   7 159.659 32.3808   1
  -2  -3  -7 172.014 38.0954   1
   2  -3   8 372.863 52.9092   1
  -2   3  -8 475.529 62.7028   1
  -2  -3  -9 27.8794 17.5969   1
   2  -3   9 38.1822 16.9896   1
   2   3   9 29.0266 15.2187   1
  -2   3  -9 50.5834 20.1177   1
   2  -3  10 93.2011 22.8171   1
   2   3  10 104.723 25.2228   1
  -2   3 -10 129.912 32.3831   1
  -2  -3 -10 83.1985 27.4803   1
   2  -3  11 125.977 28.7662   1
   2   3  11 137.661 29.9895   1
  -2   3 -11 187.677 36.7371   1
  -2  -3 -11 112.870 30.4959   1
  -2   4  12 24.6222 12.9061   1
   2  -4 -12 15.4814 13.1404   1
   2  -4 -11 165.258 32.6237   1
  -2  -4  11 243.477 38.2577   1
  -2   4  11 185.517 33.6067   1
   2   4 -11 222.372 41.8229   1
  -2  -4  10 32.8721 14.7994   1
   2   4 -10 43.3228 19.1948   1
   2  -4 -10 32.6116 14.4176   1
  -2   4  10 43.1966 16.8457   1
   2   4  -9 629.160 73.9768   1
   2  -4  -9 501.037 68.9029   1
  -2  -4   9 610.119 68.4670   1
  -2   4   9 476.972 62.6368   1
  -2  -4   8 45.2114 16.7055   1
   2   4  -8 53.5675 18.7485   1
   2  -4  -8 27.1298 12.9438   1
  -2   4   8 13.5402 11.6229   1
  -2   4   7 527.375 62.3836   1
  -2   4   7 536.936 57.9272   1
   2   4  -7 592.790 67.9790   1
   2  -4  -7 429.532 57.4841   1
  -2  -4   7 458.144 56.7193   1
   2  -4  -7 421.603 53.0689   1
  -2   4   6 943.435 93.5775   1
   2  -4  -6 932.244 94.2797   1
  -2   4   6 825.831 86.7110   1
   2  -4  -6 827.420 86.7737   1
   2   4  -6 849.326 90.6070   1
  -2  -4   6 935.107 97.2599   1
  -2   4   5 435.212 55.2923   1
   2   4  -5 592.838 65.7996   1
   2   4  -5 461.590 56.4225   1
   2  -4  -5 461.950 54.2160   1
  -2  -4   5 554.872 65.5789   1
  -2  -4   4 1308.71 118.015   1
   2  -4  -4 1008.74 109.121   1
   2   4  -4 978.305 114.692   1
   2   4  -4 998.206 111.231   1
  -2  -4   4 1383.06 122.312   1
   2  -4  -4 1053.63 107.480   1
  -2   4   4 688.913 103.052   1
  -2   4   4 1225.33 113.516   1
   2   4  -3 37.1801 12.5027   1
   2  -4  -3 31.7495 8.86704   1
  -2  -4   3 34.7717 13.6829   1
  -2   4   3 28.2149 11.3255   1
  -2   4   3 24.7370 8.90040   1
  -2  -4   3 29.3053 13.5539   1
   2   4  -3 49.1740 16.3016   1
   2  -4  -3 27.0962 10.9284   1
  -2  -4   2 3085.88 254.235   1
   2  -4  -2 2743.03 249.555   1
   2   4  -2 3016.28 257.674   1
  -2   4   2 3166.98 248.289   1
  -2   4   2 2942.84 248.763   1
   2  -4  -2 2870.26 246.394   1
  -2   4   1 306.351 40.0099   1
  -2   4   1 323.738 43.1934   1
   2  -4  -1 240.984 36.9933   1
   2  -4  -1 342.673 39.1598   1
   2  -4   0 5156.77 397.341   1
   2   4   0 4795.85 396.411   1
  -2   4   0 4542.04 392.213   1
  -2  -4   0 4842.51 400.860   1
  -2   4   0 4963.75 393.637   1
   2  -4   0 3635.37 386.045   1
   2  -4   1 4499.76 435.190   1
  -2   4  -1 5374.92 437.749   1
   2  -4   1 4882.53 433.702   1
  -2  -4  -1 5635.21 444.707   1
  -2   4  -1 4082.91 431.872   1
   2   4   1 5079.04 436.962   1
   2   4   2 2665.04 247.796   1
   2  -4   2 2306.50 238.563   1
   2  -4   2 2859.09 238.629   1
  -2   4  -2 2709.40 243.991   1
  -2   4  -2 2349.96 237.906   1
  -2  -4  -2 3020.27 248.530   1
   2   4   3 2192.69 199.824   1
  -2   4  -3 1874.15 194.816   1
   2   4   3 2445.03 200.944   1
   2  -4   3 1827.56 191.779   1
   2  -4   4 116.307 22.7210   1
  -2   4  -4 77.3768 21.6870   1
   2  -4   4 79.2451 22.9023   1
  -2   4  -4 135.289 28.7946   1
  -2  -4  -4 112.781 27.0537   1
   2  -4   5 1087.42 110.855   1
  -2   4  -5 803.465 111.289   1
  -2   4  -5 1110.71 118.308   1
  -2  -4  -5 1208.19 126.787   1
  -2  -4  -5 905.720 111.555   1
   2   4   5 992.801 115.679   1
   2   4   5 1236.07 116.255   1
   2  -4   5 1243.82 118.123   1
   2  -4   6 93.9778 23.4636   1
  -2   4  -6 105.051 27.5774   1
  -2  -4  -6 101.597 28.6941   1
   2   4   6 113.553 30.0335   1
   2   4   7 359.129 49.6424   1
  -2   4  -7 278.297 48.3964   1
  -2  -4  -7 335.592 52.3599   1
   2  -4   7 306.135 44.5930   1
  -2   4  -8 392.129 54.8467   1
  -2  -4  -8 345.873 52.8852   1
   2   4   8 280.770 45.6426   1
   2  -4   8 254.488 43.1983   1
   2  -4   9 29.5537 15.1188   1
   2   4   9 42.1319 17.8171   1
  -2   4  -9 37.8378 18.2814   1
  -2  -4  -9 42.3384 16.5163   1
  -2  -4 -10 187.614 38.8775   1
   2   4  10 202.064 37.3293   1
   2  -4  11 54.5597 16.9320   1
  -2   4 -11 51.1073 22.2135   1
  -2  -4 -11 44.1123 19.0459   1
   2   4  11 23.9170 14.9074   1
  -2   5  11 66.9591 20.8750   1
  -2  -5  11 56.4247 18.5630   1
   2  -5 -11 47.5094 21.6689   1
   2  -5 -10 246.591 43.6244   1
  -2  -5  10 233.526 38.4323   1
  -2   5  10 210.883 36.6506   1
   2  -5  -9 149.214 33.1034   1
  -2   5   9 187.019 32.1587   1
   2   5  -8 60.6282 19.7297   1
  -2   5   8 56.7639 20.9155   1
   2  -5  -8 80.7845 19.9838   1
  -2   5   7 518.693 62.1576   1
   2   5  -7 502.069 63.1367   1
   2  -5  -7 513.659 60.9711   1
  -2   5   7 382.875 51.8764   1
   2  -5  -7 476.658 55.6338   1
  -2   5   6 323.378 42.5910   1
   2  -5  -6 292.078 41.7312   1
   2   5  -6 383.123 50.1901   1
   2  -5  -6 359.881 41.1898   1
  -2   5   5 718.947 76.7903   1
  -2   5   5 765.603 77.3041   1
   2  -5  -5 655.257 75.1393   1
   2   5  -5 803.993 85.2255   1
   2   5  -5 799.011 79.8660   1
   2  -5  -5 863.718 76.0639   1
   2   5  -4 378.629 45.6441   1
  -2   5   4 247.751 35.4866   1
   2  -5  -4 379.570 43.4246   1
   2  -5  -4 389.881 39.6172   1
  -2   5   4 299.307 40.7105   1
   2  -5  -3 1805.27 185.668   1
  -2  -5   3 2222.56 195.387   1
  -2   5   3 1710.26 182.378   1
   2  -5  -3 2042.23 183.669   1
  -2   5   3 1835.51 184.573   1
   2  -5  -2 56.8759 9.24987   1
  -2  -5   2 80.3484 18.5700   1
  -2   5   2 48.9189 12.6046   1
  -2   5   2 34.7276 8.88443   1
   2  -5  -2 61.9181 12.6340   1
   2  -5  -1 644.986 100.920   1
   2   5  -1 1360.37 120.382   1
  -2   5   1 1121.42 105.860   1
  -2  -5   1 1274.39 114.503   1
  -2   5   1 612.056 100.327   1
   2  -5   0 2324.27 201.968   1
   2  -5   0 2369.36 206.843   1
  -2  -5   0 2582.02 212.794   1
   2   5   0 2548.78 214.953   1
  -2   5   0 1833.63 201.101   1
  -2  -5   0 2453.26 213.312   1
  -2   5   0 1821.79 200.123   1
   2  -5   1 3260.37 268.132   1
   2   5   1 3418.13 281.538   1
  -2   5  -1 1939.31 263.495   1
  -2   5  -1 2502.78 266.602   1
   2  -5   1 2603.08 266.536   1
  -2  -5  -1 3404.64 279.584   1
   2  -5   2 1125.02 123.769   1
   2  -5   2 1171.17 128.962   1
   2   5   2 1632.85 144.186   1
  -2   5  -2 962.893 126.054   1
  -2   5  -2 868.504 122.433   1
  -2  -5  -2 1490.26 139.181   1
   2   5   2 1428.74 133.128   1
  -2  -5  -2 1606.53 140.826   1
  -2   5  -3 256.599 38.4058   1
   2   5   3 191.525 34.3688   1
   2  -5   3 166.960 30.1021   1
  -2  -5  -3 173.926 31.3914   1
  -2  -5  -3 196.361 35.4219   1
   2   5   3 203.054 33.6506   1
   2  -5   4 2094.07 186.039   1
   2   5   4 1911.06 193.807   1
  -2   5  -4 1721.31 187.633   1
   2   5   4 1863.42 191.469   1
  -2  -5  -4 1722.82 192.053   1
  -2   5  -4 2379.36 199.594   1
  -2  -5  -4 2247.16 198.124   1
   2  -5   4 1724.13 186.867   1
   2  -5   5 2.87444 7.47812   1
   2  -5   5 21.7970 12.1900   1
   2   5   5 11.4955 9.41059   1
   2   5   5 21.6925 14.5818   1
  -2  -5  -5 24.5968 15.1282   1
  -2   5  -5 21.0507 13.3070   1
  -2  -5  -5 40.6777 22.6683   1
  -2   5  -5 21.0894 13.1806   1
   2   5   6 500.792 63.4434   1
  -2   5  -6 605.254 72.3333   1
  -2  -5  -6 453.860 64.6577   1
   2  -5   6 580.138 68.6176   1
   2   5   7 397.731 53.0360   1
  -2   5  -7 434.263 58.5909   1
  -2  -5  -7 357.270 54.6832   1
   2  -5   7 330.344 49.1157   1
   2  -5   8 119.365 27.3417   1
  -2  -5  -8 162.115 33.3817   1
   2   5   8 135.221 28.8389   1
  -2   5  -8 119.007 32.0405   1
   2  -5   9 57.3659 20.7413   1
   2   5   9 75.4883 23.2228   1
  -2   5  -9 99.2679 28.2569   1
  -2  -5  -9 99.9844 25.6542   1
   2  -5  10 30.6872 13.6400   1
   2   5  10 23.9859 14.4366   1
  -2   5 -10 55.0477 22.9528   1
  -2  -5 -10 39.9304 18.7572   1
  -2   5 -11 233.498 43.6208   1
  -2  -5 -11 178.970 38.5744   1
   2  -5  11 181.573 35.6925   1
   2   5  11 229.577 38.6725   1
  -2  -6  11 339.797 48.8541   1
   2   6 -11 375.725 54.6190   1
   2   6 -10 53.0241 18.6077   1
  -2   6   9 399.556 58.9346   1
  -2  -6   9 685.019 70.6499   1
   2   6  -9 611.828 73.0470   1
   2  -6  -9 505.628 67.0898   1
  -2   6   8 107.495 24.3563   1
   2  -6  -8 121.864 27.5337   1
   2  -6  -8 104.672 21.6425   1
  -2   6   8 92.8491 21.5791   1
  -2   6   7 96.8951 24.9581   1
   2  -6  -7 94.8074 21.5276   1
   2   6  -7 144.995 29.7178   1
   2  -6  -7 115.781 21.1981   1
  -2   6   6 419.084 53.1811   1
  -2  -6   6 552.629 64.5291   1
   2  -6  -6 412.740 53.4771   1
   2   6  -6 572.021 66.1633   1
   2  -6  -5 22.8577 7.51127   1
   2   6  -5 3.31945 13.4015   1
   2   6  -5 40.7065 12.8573   1
   2  -6  -5 27.4390 11.1076   1
  -2  -6   5 69.3601 20.4784   1
  -2   6   5 24.9103 10.9701   1
  -2  -6   5 54.7065 15.8625   1
  -2   6   5 18.3239 12.0784   1
  -2   6   4 233.634 30.5282   1
  -2   6   4 343.377 36.4665   1
   2   6  -4 314.002 43.8651   1
  -2  -6   4 311.670 43.2185   1
   2  -6  -4 223.621 30.2283   1
   2   6  -4 432.704 45.5623   1
   2  -6  -4 163.744 28.0386   1
  -2  -6   4 262.193 41.6415   1
  -2  -6   3 33.0558 12.6098   1
   2  -6  -3 29.8482 7.35637   1
   2   6  -3 31.4084 17.2722   1
  -2  -6   3 25.1510 10.8643   1
   2   6  -3 30.4925 11.4078   1
  -2   6   3 31.9947 9.62035   1
   2  -6  -3 25.7959 8.07977   1
  -2   6   3 20.8637 6.31098   1
   2  -6  -2 1604.63 133.736   1
   2   6  -2 1533.85 147.171   1
  -2  -6   2 1650.01 145.742   1
  -2   6   2 1286.14 130.259   1
   2   6  -2 1598.86 140.320   1
  -2  -6   2 1617.50 143.051   1
   2  -6  -1 453.211 89.0567   1
   2   6  -1 1116.35 112.079   1
   2   6  -1 1106.80 103.542   1
  -2  -6   1 1152.39 107.482   1
  -2   6   1 501.659 87.3475   1
  -2  -6   1 999.928 105.232   1
   2  -6   0 3598.18 351.718   1
  -2  -6   0 4651.86 369.604   1
   2  -6   0 3674.64 353.940   1
   2   6   0 4376.80 370.436   1
  -2   6   0 4476.09 356.418   1
  -2   6   0 3371.63 355.152   1
   2  -6   1 3120.74 265.663   1
  -2  -6  -1 3739.57 281.891   1
   2   6   1 3894.24 286.450   1
  -2   6  -1 2754.22 266.733   1
  -2   6  -1 2815.74 269.966   1
   2  -6   1 2815.51 266.858   1
   2   6   2 1739.14 146.708   1
   2  -6   2 1291.13 135.872   1
   2  -6   2 1058.51 133.896   1
   2   6   2 1929.90 157.558   1
  -2   6  -2 1431.40 141.770   1
  -2   6  -2 1284.44 141.804   1
  -2  -6  -2 1983.52 157.294   1
  -2  -6  -2 1635.46 149.385   1
   2  -6   3 1556.71 151.489   1
   2   6   3 1703.99 159.709   1
  -2   6  -3 1270.92 148.410   1
  -2  -6  -3 1632.70 157.069   1
  -2  -6  -3 1734.99 157.704   1
   2   6   3 1688.07 152.903   1
   2  -6   4 9.15832 8.98089   1
   2  -6   4 16.8203 10.8461   1
  -2   6  -4 11.5549 13.0541   1
  -2  -6  -4-5.01055 9.53551   1
   2   6   4 10.6793 14.9980   1
  -2  -6  -4 5.78902 12.6992   1
  -2   6  -4 11.5550 11.9949   1
   2   6   5 881.550 87.3721   1
  -2   6  -5 823.094 89.9646   1
   2   6   5 849.451 90.3433   1
  -2  -6  -5 813.202 93.5816   1
  -2  -6  -5 683.287 84.0500   1
  -2   6  -5 870.030 91.5077   1
   2  -6   5 775.738 87.0312   1
   2  -6   5 691.018 79.7474   1
   2  -6   6 123.151 25.0769   1
  -2  -6  -6 102.262 26.3072   1
   2   6   6 118.853 24.5590   1
  -2   6  -6 101.065 26.7734   1
   2   6   7 373.166 51.2605   1
  -2   6  -7 396.467 59.0372   1
  -2  -6  -7 352.459 55.2637   1
   2  -6   7 361.975 50.1570   1
  -2  -6  -8 147.150 33.9382   1
   2   6   8 134.736 30.2099   1
   2  -6   9 97.3124 24.4313   1
   2   6   9 113.327 25.9960   1
  -2   6  -9 123.632 29.1412   1
  -2  -6  -9 92.2239 24.6821   1
  -2   6 -10 402.614 57.3768   1
   2  -6  10 251.851 45.4648   1
   2   6  11 25.2354 11.6151   1
  -2  -6 -11 32.1139 12.6117   1
   2   7 -10 185.711 38.0838   1
  -2  -7  10 201.806 35.1764   1
   2   7  -9 41.1503 16.7648   1
   2   7  -8 115.381 27.4181   1
   2  -7  -7 123.538 26.5789   1
  -2   7   7 159.929 28.0538   1
   2  -7  -7 131.970 23.5683   1
  -2  -7   7 174.273 31.7891   1
   2   7  -7 193.087 35.2720   1
  -2   7   7 157.343 26.6155   1
   2   7  -6 97.0953 23.8954   1
  -2   7   6 85.6119 20.4496   1
   2  -7  -6 69.2835 14.1690   1
  -2  -7   6 131.068 28.0450   1
   2  -7  -5 587.312 60.6708   1
  -2   7   5 413.148 55.9621   1
  -2   7   5 738.594 66.6908   1
   2  -7  -5 567.409 63.2351   1
   2   7  -5 691.188 76.1533   1
  -2  -7   5 626.044 70.6045   1
   2   7  -5 663.844 69.4003   1
  -2  -7   5 664.653 75.1130   1
  -2   7   4 86.1624 13.3492   1
   2   7  -4 110.886 25.5873   1
   2   7  -4 111.256 22.0137   1
  -2  -7   4 96.1810 21.6006   1
   2  -7  -4 61.7238 11.5717   1
  -2  -7   4 98.8722 22.6122   1
   2  -7  -4 64.8731 14.4358   1
  -2   7   4 84.4230 14.7138   1
   2  -7  -3 433.711 39.6473   1
  -2  -7   3 740.437 62.1882   1
   2  -7  -3 476.457 43.2505   1
   2   7  -3 793.335 62.2671   1
   2   7  -3 751.514 66.8462   1
  -2  -7   3 885.760 72.2133   1
  -2   7   3 308.418 39.2781   1
  -2  -7   2 78.3650 18.3833   1
  -2  -7   2 82.7378 20.4729   1
   2   7  -2 44.3070 14.6331   1
   2   7  -2 41.6479 14.6837   1
   2   7  -1 804.816 88.7387   1
   2   7  -1 850.327 85.3397   1
  -2  -7   1 923.016 89.2888   1
  -2  -7   1 804.121 87.9141   1
  -2  -7   0 358.654 36.4474   1
  -2  -7   0 366.940 41.7885   1
  -2   7  -1 374.588 57.8877   1
   2   7   1 944.210 86.1818   1
  -2   7  -1 316.773 56.6880   1
  -2  -7  -1 786.057 76.2767   1
   2  -7   1 495.161 60.3965   1
   2   7   1 725.100 71.3679   1
   2  -7   1 391.750 55.4224   1
  -2  -7  -1 1122.68 86.2239   1
   2  -7   2 131.444 20.0402   1
   2   7   2 137.522 27.7440   1
   2  -7   2 126.701 21.2417   1
  -2   7  -2 75.3279 17.6431   1
  -2   7  -2 102.126 22.0308   1
   2   7   2 143.295 26.0560   1
   2   7   3 399.095 53.0976   1
  -2   7  -3 281.277 43.4615   1
   2  -7   3 255.958 38.9524   1
  -2  -7  -3 319.481 45.9994   1
  -2  -7  -3 318.365 45.8232   1
   2   7   3 318.299 42.3270   1
  -2   7  -4 729.371 84.4305   1
   2   7   4 920.487 88.6069   1
  -2   7  -4 734.933 86.3914   1
  -2  -7  -4 954.543 94.0398   1
  -2  -7  -4 824.674 88.1836   1
   2   7   4 781.819 85.5939   1
   2  -7   4 820.362 84.6788   1
   2  -7   4 675.830 78.7968   1
   2  -7   5 37.4385 12.6640   1
   2  -7   5 88.7036 23.4530   1
  -2  -7  -5 61.5299 21.0056   1
   2   7   5 82.8782 20.2126   1
  -2   7  -5 88.4134 23.2118   1
  -2   7  -5 78.9190 23.6550   1
  -2  -7  -5 58.2693 20.4139   1
   2   7   5 56.0830 16.7693   1
  -2   7  -6 1180.49 116.356   1
   2   7   6 963.625 105.264   1
  -2  -7  -6 932.922 112.597   1
   2  -7   6 1088.17 108.462   1
  -2  -7  -7 94.5083 25.4855   1
   2  -7   7 85.0757 20.6638   1
   2   7   7 74.6827 22.0242   1
  -2   7  -7 83.9379 23.6511   1
  -2   7  -8 238.916 45.0671   1
   2  -7   8 176.859 34.9667   1
   2  -7   9 37.4479 13.3665   1
   2   7   9 29.5818 12.7374   1
  -2   7  -9 35.9278 17.7525   1
  -2  -7  -9 16.8645 16.6328   1
   2  -7  10 32.3334 19.4260   1
  -2   7 -10 21.2814 17.4893   1
   2   8 -10-0.45565 10.3987   1
  -2  -8  10 21.1187 11.4444   1
  -2  -8   8 228.102 41.1655   1
   2   8  -8 203.303 40.2934   1
  -2  -8   7 285.627 46.1790   1
   2   8  -7 253.152 44.7809   1
   2   8  -6 755.387 89.2957   1
  -2  -8   6 833.516 89.2797   1
   2   8  -5 80.4130 24.5879   1
  -2  -8   5 109.721 24.0966   1
  -2  -8   4 1186.37 117.690   1
   2   8  -4 1226.54 125.401   1
   2   8  -4 1212.60 116.553   1
  -2  -8   4 1082.65 118.506   1
  -2  -8   3 179.348 31.8525   1
   2   8  -3 171.851 34.0142   1
   2   8  -3 230.345 33.3870   1
  -2  -8   3 190.717 30.9520   1
   2   8  -2 1565.11 178.793   1
  -2  -8   2 1861.69 179.663   1
   2   8  -2 2031.19 178.129   1
  -2  -8   2 2026.60 182.884   1
   2   8  -1 54.1022 14.7412   1
  -2  -8   1 47.7148 18.4678   1
  -2  -8   1 43.6883 14.5458   1
   2   8  -1 72.1201 19.8261   1
  -2  -8   0 2231.69 192.767   1
   2   8   0 2110.45 195.011   1
  -2  -8   0 2088.58 189.528   1
   2   8   0 1852.48 183.388   1
   2   8   1 836.112 63.8475   1
   2   8   1 915.522 73.4079   1
  -2  -8  -1 903.720 68.8199   1
  -2  -8  -1 1073.23 74.3452   1
  -2  -8  -2 129.833 27.4875   1
   2  -8   2 75.5474 15.7207   1
   2   8   2 146.240 28.3146   1
  -2   8  -2 71.1855 16.0532   1
   2   8   2 183.553 28.8547   1
  -2   8  -2 77.4798 17.6750   1
   2  -8   2 44.0723 13.3948   1
  -2  -8  -2 109.039 21.2711   1
  -2   8  -3 1173.25 106.666   1
   2  -8   3 854.700 97.5756   1
   2   8   3 1005.19 107.726   1
   2   8   3 1209.46 107.415   1
  -2   8  -3 697.126 97.6233   1
  -2  -8  -3 1409.90 116.457   1
  -2  -8  -3 1264.72 114.274   1
   2  -8   3 859.092 97.9498   1
   2  -8   4 13.2987 12.7608   1
   2   8   4 30.2008 14.7473   1
   2   8   4 50.7511 17.7912   1
  -2  -8  -4 35.2187 15.8847   1
  -2   8  -4 24.9912 13.5412   1
  -2  -8  -4 36.2944 17.8924   1
  -2   8  -4 57.3643 18.5899   1
   2  -8   4 41.6903 14.9139   1
  -2   8  -5 749.326 83.0219   1
   2   8   5 777.651 78.5175   1
  -2   8  -5 563.187 76.3785   1
  -2  -8  -5 665.639 78.3648   1
  -2  -8  -5 691.674 81.7403   1
   2   8   5 649.651 76.7717   1
   2  -8   5 651.289 78.4174   1
   2  -8   5 571.015 72.9253   1
   2   8   6 177.857 31.9001   1
  -2  -8  -6 150.703 33.3186   1
   2  -8   6 126.429 28.1033   1
  -2   8  -6 142.515 32.7002   1
   2   8   7 348.924 46.7733   1
  -2  -8  -7 309.064 49.9545   1
   2  -8   7 219.530 40.5069   1
  -2   8  -7 296.023 48.9305   1
  -2   8  -8 125.827 32.5835   1
   2   9  -9 110.312 28.6754   1
   2   9  -8 106.478 28.2639   1
  -2  -9   8 72.6139 21.7192   1
   2   9  -7 81.2707 21.1071   1
  -2  -9   7 62.4018 18.9748   1
   2   9  -6 68.8322 23.4969   1
  -2  -9   6 39.9511 15.4996   1
  -2  -9   5 329.687 48.4620   1
   2   9  -5 337.593 52.1393   1
   2   9  -4 57.9163 17.2222   1
  -2  -9   4 67.9900 19.2831   1
   2   9  -3 658.526 73.9426   1
  -2  -9   3 559.951 65.2825   1
   2   9  -3 488.914 59.5368   1
  -2  -9   3 539.310 65.9964   1
  -2  -9   2 243.679 36.3228   1
   2   9  -2 221.361 37.7942   1
  -2  -9   2 267.215 38.4809   1
   2   9  -2 241.750 33.6341   1
  -2  -9   1 1984.89 173.510   1
   2   9  -1 1816.03 175.382   1
  -2  -9   1 1828.76 171.132   1
   2   9  -1 1631.62 164.584   1
  -2  -9   0 1114.42 112.413   1
   2   9   0 1228.55 116.247   1
   2   9   0 1095.72 107.771   1
  -2  -9   0 1066.33 110.451   1
   2   9   1 356.134 45.8262   1
  -2  -9  -1 320.297 43.6320   1
   2   9   1 275.849 39.5485   1
  -2  -9  -1 344.932 45.1445   1
   2   9   2 1494.25 145.070   1
   2   9   2 1421.05 150.615   1
  -2  -9  -2 1184.80 141.785   1
  -2  -9  -2 1693.73 150.148   1
   2   9   3 237.448 35.6662   1
  -2  -9  -3 235.726 39.7647   1
   2   9   3 278.993 40.8878   1
  -2  -9  -3 365.941 48.5807   1
   2   9   4 635.751 70.1559   1
  -2  -9  -4 533.110 67.9036   1
  -2  -9  -4 703.273 77.5984   1
   2   9   4 615.646 67.2797   1
   3   0 -12 30.6103 17.6176   1
  -3   0  12 32.3037 14.8892   1
  -3   0  11 26.5035 15.1713   1
  -3   0  10 455.834 57.3004   1
   3   0 -10 431.728 59.8373   1
   3   0  -9 74.3968 20.5895   1
   3   0  -8 353.158 52.2708   1
  -3   0   7 365.131 52.1224   1
   3   0  -7 345.527 50.3995   1
   3   0  -6 181.161 30.5878   1
  -3   0   6 204.344 34.5103   1
  -3   0   6 168.727 33.0277   1
   3   0  -6 154.128 32.4503   1
   3   0  -5 415.922 50.7803   1
   3   0  -5 397.585 52.8899   1
  -3   0   5 416.857 54.3836   1
  -3   0   5 358.384 49.0577   1
  -3   0   4 193.000 32.8556   1
   3   0  -4 211.555 34.2521   1
  -3   0   4 221.222 35.3815   1
   3   0  -4 208.186 32.1767   1
  -3   0   3 3362.19 285.409   1
   3   0  -3 3336.30 289.704   1
  -3   0   3 3158.33 287.277   1
   3   0  -3 3297.14 284.536   1
   3   0  -2 1921.86 175.876   1
   3   0  -2 2009.44 178.728   1
  -3   0   2 1704.90 175.515   1
  -3   0   2 1857.92 173.625   1
   3   0  -1 131.663 24.6948   1
   3   0  -1 130.943 25.8231   1
  -3   0   1 137.797 27.7121   1
  -3   0   1 109.828 22.8524   1
   3   0   0 4288.28 363.831   1
  -3   0   0 4208.88 363.480   1
   3   0   0 4273.98 367.165   1
  -3   0   0 4393.44 369.239   1
  -3   0  -1 590.859 68.3116   1
   3   0   1 564.301 69.5251   1
  -3   0  -1 624.934 71.8812   1
   3   0   1 519.148 65.0055   1
   3   0   2 3626.81 298.897   1
  -3   0  -2 2711.92 288.531   1
   3   0   2 2837.51 285.619   1
  -3   0  -2 3502.31 294.076   1
   3   0   3 607.926 73.9295   1
   3   0   3 633.676 74.3041   1
  -3   0  -3 558.306 72.7628   1
  -3   0  -3 559.192 71.3029   1
   3   0   4 185.197 34.5422   1
   3   0   4 138.001 31.9927   1
  -3   0  -4 159.770 35.9081   1
  -3   0  -4 179.590 35.1085   1
   3   0   5 196.659 35.1938   1
  -3   0  -5 136.458 32.6403   1
  -3   0  -6 17.1661 15.0313   1
   3   0   6-1.34030 7.70074   1
   3   0   7 238.658 39.3316   1
  -3   0  -7 216.357 42.4186   1
   3   0   8 366.495 52.2162   1
  -3   0  -8 344.564 55.1157   1
   3   0   9 259.188 43.0975   1
  -3   0  -9 337.843 52.6659   1
   3   0  10 18.2425 12.7800   1
  -3   0 -10 23.5926 17.0352   1
   3  -1 -12 16.2361 10.2959   1
  -3   1  12 23.6306 13.7121   1
   3   1 -11 93.6894 25.9558   1
   3  -1 -11 111.648 26.9457   1
  -3  -1  11 101.710 24.2778   1
  -3   1  11 101.619 23.6480   1
   3   1 -10 126.581 27.4913   1
   3  -1 -10 91.4148 24.8691   1
  -3  -1  10 108.087 24.9911   1
  -3   1  10 117.342 25.8809   1
   3   1  -9 461.297 62.3207   1
   3  -1  -8 290.097 45.5156   1
   3   1  -8 290.674 45.8672   1
  -3   1   7 331.525 47.7509   1
  -3  -1   7 312.702 46.2215   1
   3  -1  -7 289.326 44.9769   1
   3   1  -7 347.021 48.6281   1
  -3  -1   6 690.312 80.9346   1
   3   1  -6 585.472 79.8779   1
   3  -1  -6 793.703 80.6223   1
  -3   1   6 827.061 87.4429   1
  -3  -1   5 643.885 74.8062   1
   3  -1  -5 593.276 75.3820   1
   3   1  -5 598.228 76.2094   1
  -3   1   5 757.581 76.9717   1
  -3  -1   5 637.081 78.0505   1
  -3   1   5 683.708 78.9451   1
   3   1  -5 648.488 73.5662   1
   3  -1  -5 830.288 77.5901   1
  -3   1   4 4672.35 390.075   1
  -3  -1   4 4269.10 389.484   1
   3  -1  -4 4229.00 391.848   1
   3   1  -4 4454.42 393.929   1
  -3  -1   4 5013.84 395.533   1
  -3   1   4 4289.95 392.204   1
   3   1  -4 4711.48 389.321   1
   3  -1  -4 4403.55 387.541   1
  -3   1   3 398.378 47.2419   1
  -3  -1   3 334.153 44.8415   1
   3  -1  -3 330.988 46.8847   1
   3   1  -3 335.376 47.8921   1
  -3  -1   3 366.169 47.8273   1
  -3   1   3 393.148 49.3162   1
   3   1  -3 346.080 43.9681   1
   3  -1  -3 340.731 44.0648   1
   3  -1  -2 2246.36 187.453   1
   3  -1  -2 2096.35 188.778   1
   3   1  -2 2030.35 189.047   1
   3   1  -2 2071.38 187.798   1
  -3   1   2 2056.47 188.219   1
  -3  -1   2 1987.28 188.259   1
  -3   1   2 1933.40 183.300   1
  -3  -1   2 1992.17 184.192   1
   3  -1  -1 2501.45 222.013   1
   3   1  -1 2445.53 222.459   1
  -3   1   1 2467.28 218.357   1
   3  -1  -1 2457.93 218.992   1
  -3   1   1 2232.21 220.069   1
  -3  -1   1 2168.31 217.323   1
  -3  -1   1 2648.98 225.370   1
   3   1  -1 2458.16 219.772   1
  -3   1   0 57.0187 18.6175   1
   3  -1   0 132.851 26.2867   1
  -3  -1   0 160.016 26.3266   1
   3   1   0 101.795 22.7405   1
   3  -1   0 121.065 25.5585   1
   3   1   0 73.7184 20.2589   1
  -3   1   0 133.091 28.2510   1
  -3  -1   0 114.333 23.2560   1
  -3   1  -1 2481.64 221.854   1
  -3  -1  -1 2441.81 222.989   1
   3  -1   1 2607.58 226.550   1
   3   1   1 2394.55 222.831   1
  -3   1  -1 2056.18 220.292   1
  -3  -1  -1 2614.32 226.104   1
   3  -1   1 1889.30 213.703   1
   3   1   1 2352.23 217.869   1
   3  -1   2 342.136 52.0901   1
   3   1   2 368.324 53.5898   1
  -3   1  -2 278.869 50.4371   1
  -3  -1  -2 412.499 55.1951   1
   3  -1   2 483.296 55.9120   1
   3   1   2 370.831 50.7153   1
  -3   1  -2 295.754 49.5255   1
  -3  -1  -2 405.341 54.3775   1
   3  -1   3 2573.71 308.035   1
   3   1   3 3726.79 316.070   1
   3  -1   3 3845.04 314.457   1
  -3   1  -3 2960.25 311.261   1
   3   1   3 2979.83 309.383   1
  -3  -1  -3 3167.69 312.618   1
  -3   1  -3 3073.08 309.820   1
  -3  -1  -3 3705.24 315.199   1
   3  -1   4 43.0550 18.9516   1
   3  -1   4 37.2363 18.0544   1
   3   1   4 60.1083 20.4720   1
  -3   1  -4 45.2092 19.4581   1
  -3   1  -4 47.5314 20.0075   1
  -3  -1  -4 47.3221 17.7793   1
   3   1   5 576.221 81.5601   1
   3  -1   5 749.139 83.5476   1
  -3   1  -5 828.580 89.1053   1
  -3  -1  -5 573.859 83.6770   1
  -3   1  -6 84.4907 25.2802   1
   3  -1   6 50.3650 18.2292   1
   3   1   6 70.9031 20.5783   1
  -3  -1  -6 32.3987 15.9250   1
   3  -1   7 553.817 71.5025   1
   3   1   7 688.627 75.8595   1
  -3   1  -7 615.081 80.1784   1
  -3  -1  -7 595.381 77.7889   1
   3  -1   8 284.291 47.1993   1
   3   1   8 382.786 51.8826   1
  -3   1  -8 312.282 53.0529   1
  -3  -1  -8 379.826 57.8971   1
  -3   1  -9 60.3670 22.3936   1
  -3  -1  -9 86.8064 25.6745   1
   3  -1   9 58.8074 18.4226   1
   3   1   9 54.1508 19.3904   1
   3  -1  10 283.047 43.9479   1
   3   1  10 199.047 38.3844   1
  -3   1 -10 284.328 47.1401   1
  -3  -1 -10 269.875 47.5957   1
   3  -2 -12 108.218 26.5315   1
  -3   2  12 87.9069 23.1085   1
   3   2 -11 37.4846 16.7837   1
  -3  -2  11 42.8316 15.5663   1
   3   2 -10 246.674 42.1228   1
   3  -2 -10 228.234 41.1869   1
  -3  -2  10 259.806 40.8688   1
  -3   2  10 266.810 40.1132   1
   3   2  -9 170.494 33.9224   1
   3  -2  -9 170.134 33.8850   1
   3   2  -8 123.267 29.6636   1
  -3   2   8 107.977 26.5599   1
   3  -2  -8 136.589 29.0194   1
  -3  -2   8 88.9653 24.4353   1
  -3   2   7 950.398 100.754   1
  -3  -2   7 1053.30 105.035   1
   3  -2  -7 895.064 100.064   1
   3   2  -7 936.275 102.459   1
  -3  -2   6 168.740 31.5721   1
   3   2  -6 140.748 30.5365   1
   3  -2  -6 162.146 27.9143   1
  -3   2   6 131.820 30.4629   1
  -3   2   6 126.322 27.5564   1
   3  -2  -6 202.326 33.6171   1
   3  -2  -5 2774.02 270.102   1
  -3   2   5 3126.06 270.540   1
  -3  -2   5 2765.16 273.482   1
  -3   2   5 3503.03 277.079   1
   3   2  -5 2570.52 266.154   1
   3  -2  -5 2884.58 267.823   1
  -3  -2   4 284.181 40.6472   1
   3  -2  -4 327.311 44.5359   1
   3   2  -4 286.420 42.6122   1
  -3  -2   4 306.231 44.2687   1
   3   2  -4 229.648 36.8323   1
   3  -2  -4 304.422 39.0178   1
  -3   2   3 5002.72 432.900   1
  -3  -2   3 4917.17 434.269   1
   3   2  -3 5077.04 439.552   1
  -3  -2   3 5285.65 439.312   1
  -3   2   3 5243.04 438.139   1
   3   2  -3 5307.09 435.218   1
   3  -2  -2 790.315 90.1192   1
   3   2  -2 716.938 89.0043   1
   3  -2  -2 954.466 95.4155   1
   3   2  -2 737.928 91.5033   1
  -3   2   2 588.378 85.8581   1
  -3  -2   2 723.115 90.0206   1
  -3   2   2 891.046 90.1501   1
  -3  -2   2 1013.08 93.3282   1
  -3   2   1 1112.24 150.239   1
   3  -2  -1 1217.73 153.765   1
   3   2  -1 1946.80 164.488   1
   3  -2  -1 1293.93 151.894   1
  -3   2   1 1285.93 155.611   1
  -3  -2   1 1524.67 158.791   1
  -3  -2   1 1607.37 156.969   1
   3   2  -1 1893.09 160.694   1
   3  -2   0 363.311 49.7307   1
  -3   2   0 499.969 58.0478   1
   3   2   0 362.011 50.6539   1
   3  -2   0 451.888 58.4798   1
  -3  -2   0 453.676 55.1953   1
   3   2   0 347.211 53.3135   1
  -3   2   0 474.041 57.8561   1
  -3  -2   0 550.685 62.1599   1
  -3  -2  -1 793.375 83.8036   1
   3  -2   1 492.939 76.3924   1
   3   2   1 766.579 85.4166   1
  -3   2  -1 483.850 76.4974   1
  -3  -2  -1 654.722 81.2120   1
   3  -2   1 583.352 75.1454   1
   3   2   1 832.562 81.6966   1
  -3   2  -1 556.545 75.9415   1
   3  -2   2 2122.02 217.136   1
   3   2   2 2697.22 229.047   1
  -3   2  -2 1960.79 216.493   1
  -3  -2  -2 2448.97 222.922   1
   3  -2   2 2377.59 217.136   1
   3   2   2 2715.27 221.590   1
  -3   2  -2 2459.19 219.650   1
  -3  -2  -2 2110.84 216.086   1
  -3  -2  -3 52.0879 18.8595   1
   3  -2   3 32.1409 17.5408   1
   3   2   3 62.8213 21.8179   1
   3  -2   3 39.7790 14.8119   1
  -3   2  -3 42.3707 16.8845   1
  -3  -2  -3 37.8621 16.5212   1
   3   2   3 59.8216 20.0093   1
  -3   2  -3 56.5093 19.2397   1
   3  -2   4 684.292 87.0939   1
   3  -2   4 997.922 98.3076   1
   3   2   4 891.002 94.1567   1
  -3   2  -4 600.310 89.0169   1
  -3  -2  -4 651.848 89.0677   1
  -3   2  -4 565.990 85.8729   1
   3  -2   5 140.464 27.7777   1
  -3   2  -5 168.048 32.2795   1
   3   2   5 56.3527 15.1879   1
  -3  -2  -5 171.425 36.7447   1
   3  -2   6 433.024 59.0490   1
   3   2   6 595.652 66.6007   1
  -3   2  -6 392.500 62.3147   1
  -3  -2  -6 425.035 62.5815   1
  -3   2  -7 153.887 35.8200   1
   3  -2   7 137.100 28.9970   1
   3  -2   8 471.407 63.4327   1
   3   2   8 464.842 65.4304   1
  -3   2  -8 645.117 76.3577   1
  -3  -2  -8 548.933 74.7419   1
   3  -2   9 427.999 58.2256   1
   3   2   9 400.055 57.5575   1
  -3   2  -9 498.270 66.2114   1
  -3  -2  -9 436.783 64.1516   1
  -3  -2 -10 93.9546 27.2076   1
   3  -2  10 92.0579 22.0014   1
   3   2  10 102.740 25.6967   1
  -3   2 -10 132.036 30.7987   1
   3  -3 -12 66.7164 24.8398   1
  -3   3  12 82.9205 22.1789   1
   3   3 -11 332.794 49.3934   1
   3  -3 -11 269.658 45.7958   1
  -3  -3  11 290.798 43.6069   1
   3  -3 -10 48.7667 16.9687   1
   3  -3  -9 170.001 35.1622   1
   3   3  -9 195.749 37.3573   1
  -3   3   8 284.209 42.6276   1
   3  -3  -8 221.972 39.5070   1
  -3   3   7 14.0260 10.5188   1
   3  -3  -7 8.86440 6.17036   1
   3   3  -7 10.6301 12.4393   1
  -3  -3   7 4.67731 9.24215   1
  -3  -3   6 315.365 45.7450   1
   3  -3  -6 262.208 43.3919   1
   3   3  -6 389.055 53.0333   1
   3  -3  -6 335.106 43.3817   1
  -3   3   6 321.266 44.8990   1
  -3   3   6 344.369 48.1318   1
  -3   3   5 163.682 31.0320   1
   3  -3  -5 212.725 34.6140   1
   3   3  -5 192.085 36.7752   1
  -3  -3   5 264.538 38.4030   1
  -3   3   5 222.707 36.0280   1
   3  -3  -5 220.276 32.9283   1
  -3   3   4 2599.96 248.334   1
  -3  -3   4 2950.33 255.162   1
   3  -3  -4 2835.57 254.496   1
   3   3  -4 2756.40 256.804   1
  -3  -3   4 2506.24 255.498   1
  -3   3   4 3228.61 258.255   1
   3   3  -4 2643.31 251.511   1
   3  -3  -4 2751.43 249.503   1
  -3  -3   3 301.615 40.4283   1
   3  -3  -3 250.483 38.0902   1
   3   3  -3 261.760 41.0002   1
  -3  -3   3 303.727 45.1101   1
  -3   3   3 219.552 36.8841   1
   3   3  -3 253.362 37.8688   1
   3  -3  -3 234.121 35.0469   1
  -3   3   3 317.439 39.6430   1
   3  -3  -2 2222.47 196.215   1
   3   3  -2 1805.21 194.400   1
   3   3  -2 1681.97 191.967   1
  -3   3   2 1451.77 185.715   1
  -3  -3   2 2050.80 196.541   1
  -3  -3   2 2349.00 195.501   1
  -3   3   1 898.379 104.926   1
   3  -3  -1 1246.39 113.036   1
   3   3  -1 1000.46 111.023   1
  -3  -3   1 1146.40 110.862   1
  -3  -3   1 956.341 110.476   1
   3   3  -1 1061.30 109.157   1
  -3   3   0 700.059 92.2083   1
   3  -3   0 626.571 91.6280   1
  -3  -3   0 977.657 98.3136   1
   3   3   0 958.375 96.7905   1
   3   3   0 805.759 95.8106   1
  -3  -3   0 1105.82 106.154   1
   3   3   1 765.066 82.5638   1
  -3  -3  -1 779.747 85.6161   1
   3  -3   1 769.160 88.1522   1
   3   3   1 960.062 93.1698   1
  -3   3  -1 540.743 79.6748   1
  -3  -3  -1 641.883 83.8789   1
   3  -3   1 504.289 75.3407   1
  -3   3  -1 595.311 80.9078   1
   3   3   2 26.0476 13.6341   1
   3  -3   2 50.5854 15.9620   1
  -3  -3  -2 49.2780 19.0173   1
   3   3   2 37.6979 17.6481   1
  -3   3  -2 20.8948 15.6197   1
   3  -3   2 78.7593 21.7719   1
  -3  -3  -2 34.9902 16.4134   1
  -3   3  -2 18.1849 12.8387   1
   3  -3   3 884.430 125.552   1
   3   3   3 1236.85 131.751   1
   3  -3   3 1055.82 124.117   1
  -3   3  -3 1332.33 134.976   1
  -3  -3  -3 1256.75 132.978   1
   3   3   3 1311.03 130.357   1
  -3   3  -3 1424.82 134.996   1
  -3  -3  -3 1351.01 133.851   1
   3  -3   4 559.347 68.2475   1
   3  -3   4 647.897 74.8767   1
   3   3   4 561.704 75.3479   1
  -3   3  -4 554.339 71.2428   1
  -3  -3  -4 595.167 73.4504   1
   3  -3   5 491.990 63.0990   1
   3   3   5 599.133 72.1589   1
  -3  -3  -5 526.312 71.0062   1
   3  -3   6 96.3527 24.7745   1
   3   3   6 154.974 30.5364   1
  -3  -3  -6 125.810 29.5232   1
   3  -3   7 323.104 48.7884   1
  -3   3  -7 359.879 55.5946   1
   3  -3   8 371.376 50.6900   1
   3   3   8 274.882 46.7865   1
  -3   3  -8 342.955 55.2308   1
   3  -3   9 91.0393 24.8495   1
  -3   3  -9 114.882 29.4074   1
   3   3  10 177.483 36.1599   1
  -3   3 -10 220.714 40.6684   1
  -3  -3 -10 227.851 42.9097   1
   3  -3  10 190.797 34.4992   1
   3  -4 -11 21.0282 19.1217   1
   3   4 -11 27.3994 15.7115   1
   3  -4 -10 108.624 26.0820   1
   3   4 -10 121.351 29.2554   1
  -3  -4  10 175.031 33.1537   1
  -3  -4   9 134.522 28.6527   1
   3  -4  -9 107.963 27.0540   1
   3   4  -9 130.587 29.0345   1
  -3   4   9 113.707 26.8059   1
  -3   4   8 495.467 60.6960   1
  -3  -4   8 514.538 63.9145   1
   3  -4  -8 402.003 59.3627   1
   3   4  -8 491.889 64.2686   1
  -3   4   7 423.132 60.3597   1
  -3  -4   7 643.548 69.6136   1
   3  -4  -7 484.629 60.8973   1
   3   4  -7 428.259 64.0909   1
   3  -4  -6 357.521 53.6982   1
   3   4  -6 385.513 56.3699   1
  -3   4   6 542.820 58.2524   1
   3  -4  -6 419.565 51.1871   1
  -3  -4   6 401.034 55.6949   1
  -3   4   6 394.160 55.5600   1
  -3   4   5 1819.34 162.394   1
   3  -4  -5 1257.62 157.662   1
   3   4  -5 1866.68 171.020   1
  -3  -4   5 1647.30 162.804   1
   3  -4  -5 1519.81 157.446   1
  -3   4   5 1833.49 167.492   1
   3   4  -4 67.4525 19.5338   1
   3  -4  -4 60.4325 16.1055   1
  -3  -4   4 60.9703 20.5916   1
  -3   4   4 57.9098 18.3994   1
  -3   4   4 51.7047 15.6928   1
   3  -4  -4 65.1378 19.0383   1
  -3  -4   3 1562.78 133.447   1
   3  -4  -3 1165.62 128.436   1
   3   4  -3 1211.30 132.353   1
  -3   4   3 1064.18 122.814   1
  -3  -4   3 1145.11 131.951   1
   3   4  -3 1078.90 125.496   1
   3  -4  -2 2443.54 215.090   1
  -3   4   2 2012.09 208.719   1
   3   4  -2 2429.46 219.563   1
  -3   4   2 2163.55 211.639   1
  -3  -4   2 2527.27 219.978   1
  -3  -4   2 2415.24 214.225   1
   3   4  -1 957.246 97.1572   1
   3   4  -1 835.925 96.6674   1
  -3  -4   1 755.446 91.7815   1
  -3   4   1 601.249 88.6033   1
  -3  -4   1 820.727 96.8413   1
   3  -4  -1 992.504 94.0757   1
   3  -4   0 768.232 120.257   1
  -3  -4   0 1411.05 129.783   1
   3   4   0 1275.02 129.303   1
   3   4   0 1196.18 125.129   1
  -3  -4   0 1368.08 132.673   1
  -3   4   0 862.592 119.715   1
   3  -4   1 121.168 27.7670   1
  -3   4  -1 185.070 32.5725   1
   3   4   1 248.656 36.9216   1
  -3  -4  -1 221.057 35.8763   1
   3  -4   1 229.306 36.9043   1
   3   4   1 250.725 39.6851   1
  -3   4  -1 159.978 32.4022   1
  -3  -4  -1 175.884 32.7167   1
   3  -4   2 1697.79 247.766   1
   3   4   2 2901.39 261.722   1
  -3   4  -2 1696.83 248.809   1
   3  -4   2 2588.53 253.101   1
  -3  -4  -2 2967.15 262.553   1
  -3   4  -2 1776.39 247.192   1
  -3  -4  -2 2941.19 257.903   1
   3   4   2 3168.66 257.196   1
   3  -4   3 484.621 65.4767   1
   3  -4   3 597.351 69.6714   1
  -3   4  -3 487.706 71.3455   1
  -3  -4  -3 653.293 79.0677   1
  -3   4  -3 431.888 65.2781   1
   3   4   3 762.191 78.4668   1
  -3  -4  -3 553.739 72.1301   1
   3  -4   4 309.381 46.8996   1
   3  -4   4 481.619 59.6153   1
   3   4   4 452.182 62.2507   1
  -3   4  -4 344.313 54.8188   1
  -3   4  -4 309.565 49.0308   1
  -3   4  -5 157.442 34.5420   1
  -3  -4  -5 245.624 41.5204   1
   3  -4   5 190.903 33.8898   1
   3  -4   6 481.056 65.5294   1
   3   4   6 720.459 75.3659   1
  -3   4  -6 478.124 70.9451   1
  -3  -4  -6 541.807 73.6308   1
  -3  -4  -7 30.3867 16.8117   1
   3   4   7 28.9911 15.6676   1
   3  -4   8 195.053 37.2611   1
   3   4   8 161.715 35.2824   1
  -3   4  -8 234.544 43.0158   1
  -3  -4  -8 242.256 43.5356   1
  -3  -4 -10 19.7141 13.8027   1
   3  -4  10 6.40419 7.22249   1
   3   4  10 5.92610 10.4241   1
  -3   4 -10 28.9602 15.3999   1
   3  -5 -10 96.0410 25.8210   1
   3   5 -10 124.302 29.1241   1
  -3   5  10 94.6205 27.5900   1
  -3  -5  10 114.525 26.7988   1
   3  -5  -9 120.660 28.5243   1
   3   5  -9 127.117 28.3824   1
  -3   5   9 102.997 26.9467   1
  -3  -5   9 127.367 27.7389   1
  -3   5   8 528.100 67.5981   1
  -3  -5   8 686.799 75.1487   1
   3  -5  -8 590.275 73.1666   1
   3   5  -8 483.618 69.9141   1
   3  -5  -7 148.345 30.2698   1
  -3   5   7 225.503 36.7588   1
  -3   5   7 140.232 28.0729   1
   3  -5  -7 154.047 30.2514   1
  -3   5   6 619.912 69.9345   1
  -3   5   6 433.456 60.0251   1
   3  -5  -6 442.004 61.6923   1
   3   5  -6 502.397 66.8036   1
  -3  -5   6 617.788 68.5090   1
   3  -5  -6 505.426 62.3784   1
  -3  -5   5 156.268 29.9912   1
  -3   5   5 165.855 28.7378   1
  -3   5   5 125.748 24.4334   1
   3  -5  -5 175.291 27.5360   1
   3  -5  -5 115.013 25.4750   1
   3   5  -5 145.540 30.8812   1
  -3  -5   4 2516.75 232.995   1
   3  -5  -4 2352.47 232.108   1
   3   5  -4 2752.27 238.241   1
  -3   5   4 2736.07 228.152   1
  -3   5   4 2336.27 227.918   1
   3  -5  -4 2502.13 226.295   1
  -3   5   3 1116.61 113.982   1
   3   5  -3 1221.59 118.534   1
   3  -5  -3 1167.42 110.877   1
   3   5  -2 1842.11 159.297   1
  -3   5   2 1494.24 148.793   1
   3   5  -2 1660.09 151.435   1
   3  -5  -2 1456.01 145.139   1
  -3  -5   1 3692.47 314.286   1
  -3   5   1 2876.57 305.923   1
  -3  -5   1 3726.53 317.800   1
  -3  -5   0 1283.13 121.402   1
  -3   5   0 1048.01 116.007   1
  -3  -5   0 1257.86 124.106   1
  -3  -5  -1 1555.74 157.175   1
   3  -5   1 1429.01 155.006   1
   3   5   1 1655.30 154.319   1
   3   5   1 1847.41 162.758   1
  -3  -5  -1 1673.63 159.767   1
   3  -5   2 217.577 37.0063   1
   3   5   2 339.573 48.2997   1
  -3  -5  -2 312.574 46.0450   1
   3  -5   2 217.905 37.9203   1
  -3   5  -2 231.041 39.4173   1
  -3   5  -2 211.615 38.8644   1
  -3  -5  -2 310.981 44.0456   1
   3   5   2 290.869 41.1849   1
   3  -5   3 386.648 52.6490   1
   3  -5   3 540.690 63.2569   1
  -3   5  -3 362.320 57.4417   1
  -3   5  -3 362.123 55.2031   1
  -3  -5  -3 652.360 72.6508   1
   3   5   3 526.670 62.0744   1
   3  -5   4 77.5853 22.3568   1
  -3   5  -4 94.6161 23.3750   1
   3  -5   4 75.6871 19.6803   1
   3   5   4 108.759 29.5822   1
  -3   5  -4 91.3652 25.8759   1
  -3  -5  -4 96.6855 24.3170   1
   3  -5   5 294.024 42.2145   1
  -3   5  -5 236.565 44.1126   1
  -3  -5  -5 341.952 50.1948   1
  -3   5  -6 128.191 31.6227   1
   3  -5   6 58.9056 20.1642   1
   3   5   6 149.332 30.3385   1
  -3  -5  -6 63.8236 22.7923   1
   3   5   7 222.279 38.1794   1
  -3  -5  -7 224.667 41.3152   1
   3   5   8 198.417 38.1090   1
  -3  -5  -8 248.466 43.1770   1
  -3   5  -8 157.401 36.9622   1
   3  -5   8 196.062 36.2281   1
  -3  -5  -9 24.1001 16.9647   1
   3  -5   9 23.1220 13.3181   1
   3   5   9 42.2073 17.1118   1
  -3   5  -9 32.1101 16.5096   1
  -3  -5 -10 112.772 28.8683   1
   3  -5  10 94.5666 25.7454   1
   3   5  10 87.4946 25.2532   1
  -3   5 -10 95.7862 30.1049   1
  -3  -6  10 239.149 40.4986   1
   3   6 -10 180.350 38.5447   1
   3   6  -9 138.069 33.5006   1
  -3  -6   8 255.607 40.8524   1
   3  -6  -8 208.258 38.5547   1
   3   6  -8 277.280 45.0025   1
  -3   6   8 233.934 38.7357   1
  -3   6   7 444.287 55.4843   1
  -3   6   7 353.191 49.4312   1
   3  -6  -7 302.947 47.5290   1
   3   6  -7 392.795 57.0198   1
  -3  -6   7 391.776 52.5533   1
   3  -6  -7 368.587 48.4520   1
  -3   6   6 264.903 39.9871   1
   3  -6  -6 144.928 27.1171   1
   3  -6  -6 195.088 33.5803   1
   3   6  -6 223.861 40.1122   1
  -3  -6   6 185.227 33.7994   1
  -3   6   6 138.240 27.1559   1
  -3   6   5 851.425 85.8132   1
  -3  -6   5 882.214 88.6980   1
   3  -6  -5 454.281 73.5965   1
   3   6  -5 661.089 86.0486   1
  -3   6   5 496.209 71.6107   1
   3  -6  -5 812.599 81.0155   1
   3  -6  -4 41.2905 9.89330   1
  -3   6   4 46.3234 12.6601   1
  -3  -6   4 49.5886 16.5606   1
   3   6  -4 46.3829 16.9932   1
  -3   6   3 335.098 42.3281   1
   3  -6  -3 243.206 38.5272   1
   3   6  -3 280.288 47.3654   1
  -3   6   3 396.105 45.8864   1
   3  -6  -3 356.689 41.6005   1
  -3  -6   3 290.850 43.7757   1
  -3   6   2 423.489 54.7987   1
   3  -6  -2 314.785 50.1453   1
  -3  -6   2 536.077 66.0495   1
  -3   6   2 503.627 57.5058   1
   3   6  -2 387.570 54.9657   1
   3  -6  -2 491.534 54.5063   1
   3  -6  -1 450.257 70.7259   1
   3  -6  -1 516.468 68.9858   1
   3   6  -1 708.620 87.2502   1
  -3  -6   1 923.997 87.5653   1
   3   6  -1 815.627 85.7413   1
  -3   6   1 564.135 73.3586   1
  -3  -6   1 663.504 83.8368   1
  -3   6   1 584.127 72.8010   1
   3  -6   0 1074.16 110.616   1
  -3  -6   0 1070.19 110.515   1
   3   6   0 1243.99 119.300   1
   3  -6   0 739.671 96.1407   1
  -3   6   0 727.905 98.3155   1
  -3  -6   0 1058.97 113.171   1
  -3   6   0 866.364 100.836   1
   3   6   0 1205.48 111.418   1
  -3  -6  -1 307.029 44.3855   1
   3  -6   1 213.312 35.6416   1
   3   6   1 288.952 45.8543   1
   3   6   1 303.561 43.4633   1
  -3   6  -1 219.779 37.1763   1
  -3  -6  -1 317.331 47.1098   1
   3  -6   2 1618.96 183.129   1
   3   6   2 2382.99 197.377   1
  -3   6  -2 2172.08 200.648   1
  -3   6  -2 1550.74 185.770   1
  -3  -6  -2 2535.69 206.226   1
   3  -6   2 1885.61 190.482   1
  -3  -6  -3 108.406 25.4326   1
  -3   6  -3 71.4264 21.4610   1
   3  -6   3 50.6223 15.1837   1
   3   6   3 84.3054 24.4564   1
   3  -6   3 70.7511 21.6129   1
  -3   6  -3 66.7148 22.0907   1
   3  -6   4 514.187 68.4086   1
   3  -6   4 555.294 72.8751   1
  -3   6  -4 613.282 76.4612   1
  -3   6  -4 660.469 80.1199   1
  -3  -6  -4 713.642 80.3489   1
  -3   6  -5 52.0499 20.8123   1
   3  -6   5 38.1694 15.9600   1
   3   6   5-2.44188 17.7109   1
  -3  -6  -5 55.9016 19.8784   1
   3  -6   6 434.085 62.6430   1
   3   6   6 623.206 68.9805   1
  -3   6  -6 607.454 76.0943   1
  -3  -6  -6 489.075 67.1554   1
   3  -6   7 32.0792 16.3421   1
  -3  -6  -7 42.2527 15.1463   1
   3   6   7 79.5498 22.2251   1
  -3   6  -7 65.0443 24.0612   1
   3   6   8 204.069 35.7551   1
  -3   6  -8 232.376 45.6288   1
  -3  -6  -8 205.401 39.8266   1
   3  -6   8 157.141 33.4700   1
   3   6   9 279.308 47.2443   1
  -3   6  -9 373.353 59.1094   1
  -3  -6  -9 453.328 61.7186   1
   3  -6   9 305.641 48.4698   1
   3   7  -9 70.9203 24.4217   1
  -3  -7   9 119.989 27.0299   1
  -3  -7   8 146.912 29.5947   1
   3   7  -8 100.001 27.1057   1
   3   7  -7 39.3403 16.8352   1
  -3  -7   7 59.4091 18.8963   1
   3  -7  -5 50.9067 12.2390   1
  -3   7   5 54.5433 15.4170   1
   3   7  -5 71.1649 22.3579   1
  -3  -7   5 57.7975 17.2719   1
  -3   7   4 1004.20 106.099   1
  -3  -7   4 1321.82 118.482   1
  -3   7   4 815.994 101.269   1
   3  -7  -4 938.943 103.428   1
   3   7  -4 1286.40 124.772   1
   3  -7  -4 1129.87 104.624   1
   3   7  -3 414.105 57.1477   1
   3  -7  -3 265.360 38.0034   1
  -3  -7   3 432.898 53.1270   1
   3  -7  -3 319.286 38.0367   1
  -3   7   3 259.574 38.0616   1
  -3   7   3 327.755 41.6709   1
   3  -7  -2 180.088 33.8736   1
  -3   7   2 277.311 38.6139   1
   3   7  -2 569.651 66.1508   1
   3  -7  -2 247.803 36.5674   1
  -3  -7   2 449.789 55.8829   1
  -3   7   2 446.730 46.4571   1
   3  -7  -1 480.439 54.3773   1
  -3   7   1 431.300 51.4347   1
  -3  -7   1 576.885 68.0128   1
  -3   7   1 522.303 55.9502   1
   3  -7  -1 467.500 52.4419   1
   3   7  -1 539.555 62.6509   1
  -3   7   0 103.955 19.6942   1
  -3  -7   0 88.6992 26.4282   1
   3  -7   0 110.462 21.6649   1
   3   7   0 177.604 32.3278   1
  -3   7   0 192.961 27.5402   1
   3  -7   0 67.1420 16.6015   1
   3  -7   1 248.762 35.3371   1
  -3  -7  -1 336.111 48.6846   1
   3   7   1 278.396 42.2329   1
   3  -7   2 15.8874 9.44580   1
  -3   7  -2 33.9104 14.7850   1
  -3  -7  -2 18.6652 15.0814   1
   3  -7   2 14.4281 11.5495   1
   3   7   2 13.5775 17.6092   1
  -3   7  -2 10.3012 13.6399   1
   3  -7   3 303.954 44.6285   1
   3   7   3 382.104 56.5918   1
  -3   7  -3 347.431 53.0205   1
  -3   7  -3 283.717 49.7460   1
   3  -7   3 490.844 58.1644   1
  -3  -7  -3 457.885 58.4444   1
   3  -7   4 21.6465 14.1264   1
   3   7   4 51.8045 21.9475   1
   3  -7   4 38.6476 15.6528   1
  -3   7  -4 61.8267 22.4238   1
  -3  -7  -4 39.4084 15.6389   1
  -3   7  -4 31.9392 14.5650   1
   3   7   5 556.744 64.2650   1
  -3   7  -5 436.431 62.1311   1
  -3  -7  -5 407.183 61.6603   1
   3  -7   5 392.730 56.2373   1
   3  -7   6 45.4435 13.5596   1
  -3   7  -6 100.065 28.5694   1
  -3  -7  -7 166.036 33.6178   1
   3   7   7 156.678 32.2185   1
  -3   7  -7 171.985 38.9912   1
   3  -7   7 189.773 33.4968   1
   3   7   8 195.511 36.0912   1
  -3  -7  -8 186.847 39.3152   1
  -3   7  -8 183.113 42.4826   1
   3  -7   8 165.973 32.2588   1
   3   7   9 28.2850 14.7311   1
   3   8  -9 58.8174 21.7471   1
  -3  -8   9 54.3853 17.5637   1
  -3  -8   7 379.166 55.4271   1
   3   8  -7 402.036 60.2818   1
  -3  -8   6 72.9950 21.6599   1
   3   8  -6 63.0185 22.7244   1
  -3  -8   5 1196.65 117.309   1
   3   8  -5 931.615 114.844   1
  -3  -8   4 53.7422 17.0107   1
   3   8  -4 39.5268 21.0253   1
   3   8  -3 1662.53 172.864   1
  -3  -8   3 1932.31 171.554   1
   3   8  -2 322.024 53.1258   1
  -3  -8   2 456.829 57.1745   1
   3   8  -1 1140.56 122.355   1
  -3   8   1 952.269 98.0009   1
  -3   8   1 762.978 99.9572   1
  -3  -8   0 683.713 72.9304   1
  -3   8   0 382.889 47.2839   1
   3   8   0 674.683 76.8804   1
  -3   8   0 306.900 48.1669   1
   3  -8   1 503.036 48.7268   1
  -3   8  -1 303.482 45.3035   1
   3   8   1 569.465 69.5872   1
   3  -8   1 296.758 41.4142   1
  -3  -8  -1 547.288 64.5313   1
  -3   8  -1 262.787 42.7293   1
  -3   8  -2 565.190 64.2110   1
   3   8   2 646.047 75.1071   1
  -3  -8  -2 726.210 76.3289   1
   3   8   3 48.5182 18.6767   1
  -3   8  -3 61.8239 20.2088   1
  -3  -8  -3 57.8430 25.4614   1
  -3   8  -3 47.3850 17.4861   1
  -3   8  -4 286.458 46.6726   1
   3   8   4 309.410 48.6104   1
  -3   8  -4 240.275 45.8998   1
  -3  -8  -4 348.613 53.9257   1
   3   8   5 52.4755 19.2597   1
  -3  -8  -5 63.7197 23.0070   1
   3   8   6 204.887 40.1569   1
  -3  -8  -6 302.499 46.8830   1
  -3  -9   8 176.828 36.1826   1
   3   9  -8 146.960 34.7195   1
  -3  -9   7 122.961 27.4692   1
   3   9  -7 176.573 36.8226   1
  -3  -9   6 253.528 40.5918   1
   3   9  -6 277.050 45.3955   1
  -3  -9   5 60.5181 18.4728   1
   3   9  -5 93.9162 27.7970   1
   3   9  -4 773.817 92.2357   1
  -3  -9   4 743.073 84.8112   1
   3   9  -3 196.922 38.9729   1
  -3  -9   3 199.660 34.5390   1
   3   9  -2 706.950 86.0742   1
  -3  -9   2 733.405 84.1140   1
  -3  -9   1 897.252 97.1490   1
   3   9  -1 784.353 98.8004   1
   3   9   0 207.301 40.1604   1
  -3  -9   0 177.388 34.5114   1
   3   9   1 1071.60 136.452   1
  -3  -9  -1 1436.07 141.858   1
  -3  -9  -2 20.0633 14.5074   1
   3   9   2 1.40589 9.42309   1
   3   9   3 538.670 72.7965   1
  -3  -9  -3 518.258 68.1931   1
   4   0 -10 94.3244 25.9643   1
  -4   0  10 81.6939 22.0233   1
   4   0  -8 471.581 68.7436   1
  -4   0   8 691.130 74.3072   1
  -4   0   6 707.005 76.6537   1
   4   0  -6 534.010 75.0796   1
  -4   0   5 138.158 28.5150   1
   4   0  -5 128.703 30.1196   1
  -4   0   4 128.249 26.3765   1
   4   0  -4 133.811 28.9458   1
  -4   0   3 126.975 25.7398   1
   4   0  -3 120.213 27.9771   1
   4   0  -2 382.478 52.4188   1
  -4   0   2 350.061 48.8376   1
  -4   0   1 1954.47 188.868   1
   4   0  -1 1641.78 187.204   1
  -4   0   1 2217.36 196.193   1
   4   0  -1 2116.75 189.663   1
  -4   0   0 50.5348 20.2993   1
   4   0   0 57.7488 19.6535   1
  -4   0  -1 2961.73 259.747   1
   4   0   1 2193.52 255.858   1
  -4   0  -2 12.2856 10.2047   1
   4   0   2-12.9040 10.0042   1
   4   0   3 2088.35 199.735   1
  -4   0  -3 1993.74 196.972   1
   4   0   4 1135.99 120.456   1
  -4   0  -4 867.927 109.442   1
   4   0   6 362.571 52.3332   1
  -4   0  -6 307.862 50.8106   1
  -4   0  -7 18.2013 14.7949   1
   4   0   7 27.3319 15.8496   1
   4   0   8 172.158 33.6151   1
  -4   0  -8 153.201 34.8296   1
  -4   0  -9 41.3137 19.8148   1
   4   0   9 2.15129 8.77917   1
   4  -1 -11 108.821 26.7655   1
  -4   1  11 82.3082 22.6718   1
   4  -1 -10 36.0019 15.2155   1
   4   1 -10 61.4414 19.9943   1
  -4   1  10 44.6475 19.0153   1
  -4  -1  10 53.6536 18.0647   1
   4  -1  -9 306.994 50.1171   1
   4   1  -9 281.947 47.9659   1
  -4   1   9 314.079 47.1070   1
  -4  -1   9 361.263 48.8141   1
   4  -1  -8 88.3156 24.2042   1
   4   1  -8 81.7151 24.1427   1
  -4   1   8 100.978 24.6521   1
  -4  -1   8 109.784 25.2845   1
  -4   1   7 561.167 67.3242   1
   4  -1  -7 488.355 68.0771   1
   4   1  -7 523.259 69.3587   1
  -4  -1   7 603.082 69.4136   1
  -4   1   6 285.911 43.7163   1
  -4  -1   6 346.870 48.2821   1
   4  -1  -6 306.187 48.4731   1
   4   1  -6 275.919 46.1788   1
  -4   1   5 939.837 92.3416   1
  -4  -1   5 675.244 85.7454   1
   4   1  -5 770.471 91.8651   1
  -4  -1   4 156.787 30.7048   1
   4  -1  -4 175.076 35.0258   1
   4   1  -4 250.540 39.9775   1
  -4   1   4 219.797 35.0276   1
   4  -1  -3 1328.67 151.134   1
   4   1  -3 1688.30 155.697   1
  -4   1   3 1638.71 149.191   1
  -4  -1   3 1327.11 144.492   1
   4  -1  -2 1059.30 104.219   1
   4   1  -2 894.157 103.251   1
  -4  -1   2 844.471 98.8479   1
  -4   1   2 907.901 104.264   1
   4  -1  -1 203.564 35.0662   1
  -4   1   1 289.534 43.7282   1
  -4  -1   1 199.231 34.7252   1
   4   1  -1 183.819 35.2590   1
  -4  -1   0 475.857 61.8595   1
   4  -1   0 453.240 60.9858   1
   4   1   0 493.493 64.8509   1
  -4   1   0 557.836 69.3531   1
   4  -1   1 40.5243 17.3732   1
   4   1   1 41.4444 19.0955   1
  -4   1  -1 23.5855 13.4895   1
  -4  -1  -1 51.9067 18.4938   1
   4  -1   2 696.109 90.9757   1
   4   1   2 663.578 88.9451   1
  -4   1  -2 617.690 86.7818   1
  -4  -1  -2 941.511 95.9235   1
   4  -1   3 233.167 45.7472   1
   4   1   3 255.315 45.1364   1
  -4   1  -3 291.869 48.1634   1
  -4  -1  -3 370.652 53.2783   1
   4  -1   4 1008.67 129.974   1
   4   1   4 1082.74 132.637   1
  -4   1  -4 1049.81 128.238   1
  -4  -1  -4 1452.23 137.066   1
   4  -1   6 315.732 47.7060   1
   4   1   6 315.372 49.1870   1
  -4   1  -6 278.205 46.7122   1
  -4  -1  -6 313.019 51.2874   1
   4  -1   7 270.243 41.3849   1
   4   1   7 205.468 37.3600   1
  -4   1  -7 225.873 42.8211   1
  -4  -1  -7 198.800 40.0318   1
  -4   1  -8 127.441 31.2744   1
  -4  -1  -8 88.0006 26.0421   1
   4  -1   8 73.1902 21.6568   1
   4   1   8 98.6977 24.5490   1
   4  -1   9 209.838 38.5525   1
   4   1   9 236.437 38.7470   1
  -4   1  -9 199.705 40.8169   1
  -4  -1  -9 212.244 41.0898   1
   4  -2 -11 104.852 27.4632   1
  -4   2  11 120.546 26.9447   1
   4  -2 -10 92.9869 27.2381   1
   4   2 -10 117.312 28.9531   1
  -4   2  10 104.491 26.1044   1
  -4  -2  10 90.8903 24.4650   1
   4  -2  -9 144.705 31.9819   1
  -4   2   9 210.506 36.2132   1
   4  -2  -8 920.327 100.143   1
   4   2  -8 728.144 94.3182   1
  -4   2   8 739.863 91.3569   1
  -4  -2   8 993.312 99.0102   1
   4   2  -7 30.8307 12.2596   1
  -4   2   7 25.8187 13.2676   1
  -4  -2   7 14.5163 10.0376   1
   4  -2  -7 14.8767 9.39996   1
  -4   2   6 1018.30 118.625   1
  -4  -2   6 1392.94 127.997   1
   4  -2  -6 1199.65 126.336   1
   4   2  -6 1046.77 124.742   1
  -4   2   5 286.420 42.5390   1
  -4  -2   5 277.878 43.0435   1
   4  -2  -5 298.949 46.9012   1
   4   2  -5 295.295 47.4690   1
   4  -2  -4 373.019 55.6566   1
   4   2  -4 388.178 57.8232   1
  -4   2   4 513.909 57.8079   1
  -4  -2   4 394.420 54.3103   1
  -4   2   3 200.503 36.1856   1
   4   2  -3 235.112 41.0909   1
  -4  -2   3 258.795 38.1354   1
   4  -2  -3 217.936 34.8010   1
   4  -2  -2 894.536 90.5574   1
   4  -2  -2 855.628 92.6086   1
   4   2  -2 768.108 90.9965   1
  -4   2   2 711.435 85.3223   1
  -4  -2   2 774.979 87.1239   1
  -4   2   2 650.096 86.2677   1
  -4   2   1 901.588 113.944   1
   4  -2  -1 1064.46 120.564   1
   4   2  -1 1125.02 120.147   1
  -4  -2   1 1208.58 119.837   1
  -4   2   1 1286.31 124.409   1
   4  -2  -1 1133.31 117.143   1
  -4  -2   0 295.946 44.9921   1
   4  -2   0 262.469 41.8219   1
   4   2   0 315.255 47.5050   1
  -4  -2  -1 875.551 94.2278   1
   4   2   1 853.342 94.9431   1
   4  -2   1 663.831 85.8762   1
   4   2   2 529.833 70.7285   1
  -4   2  -2 498.387 68.8612   1
  -4  -2  -2 496.836 66.3374   1
   4   2   3 1353.00 155.509   1
  -4   2  -3 1674.80 159.078   1
  -4  -2  -3 1475.39 157.707   1
   4   2   4 76.2436 22.9646   1
  -4   2  -4 113.683 30.2753   1
  -4  -2  -4 106.441 28.3249   1
   4   2   5 422.227 65.6554   1
  -4   2  -5 470.665 66.1100   1
  -4  -2  -5 492.159 65.4372   1
   4   2   6 436.572 56.4144   1
  -4   2  -6 291.755 50.8971   1
  -4  -2  -6 336.823 54.0255   1
  -4   2  -7 135.111 30.9697   1
   4   2   7 161.937 31.8683   1
  -4  -2  -7 142.480 33.9764   1
   4   2   8 357.655 51.1909   1
  -4   2  -8 360.292 57.5806   1
  -4  -2  -8 366.998 55.8728   1
   4  -2   9 49.9280 18.7325   1
   4  -3 -11 49.3274 19.0264   1
  -4   3  11 76.8633 22.9099   1
   4   3 -10 169.803 37.3658   1
  -4  -3  10 202.690 35.2814   1
   4  -3  -9 203.145 39.4265   1
   4   3  -9 201.493 39.1073   1
  -4   3   9 272.919 41.9618   1
  -4  -3   9 247.663 39.5005   1
   4  -3  -8 56.2951 19.1164   1
   4   3  -8 30.4014 16.1238   1
  -4   3   8 43.5264 17.4665   1
  -4  -3   8 74.7424 21.6789   1
  -4   3   7 844.685 82.5645   1
   4  -3  -7 550.849 78.1210   1
  -4  -3   7 677.011 79.2090   1
   4   3  -7 571.366 78.1195   1
  -4  -3   6 179.531 31.8576   1
  -4   3   6 126.739 26.7557   1
   4  -3  -6 138.703 29.8335   1
   4   3  -6 173.099 35.2580   1
  -4   3   5 149.344 27.3336   1
  -4  -3   5 90.6700 22.0928   1
   4  -3  -5 74.4943 22.0598   1
   4   3  -5 166.966 31.1494   1
   4  -3  -4 37.9372 12.8311   1
  -4   3   4 43.3018 16.8491   1
  -4  -3   4 25.3765 13.9850   1
   4   3  -4 66.0895 20.2132   1
   4  -3  -3 619.796 75.0066   1
   4   3  -3 623.277 75.6303   1
  -4   3   3 638.791 72.2637   1
  -4   3   3 658.179 74.9098   1
  -4  -3   3 587.133 70.3371   1
   4  -3  -3 575.578 69.3489   1
   4  -3  -2 649.684 69.7835   1
  -4   3   2 460.385 63.6246   1
   4  -3  -2 528.679 68.2836   1
   4   3  -2 560.990 70.4562   1
  -4  -3   2 633.146 69.9204   1
  -4   3   2 450.411 64.3712   1
  -4   3   1 253.150 40.7959   1
   4  -3  -1 186.340 38.2710   1
  -4  -3   1 262.086 39.3189   1
  -4   3   1 200.467 38.7961   1
   4  -3  -1 314.973 42.4522   1
   4   3  -1 193.098 36.7463   1
  -4   3   0 948.402 95.1594   1
  -4  -3   0 769.602 88.0579   1
   4  -3   0 712.770 91.8997   1
   4  -3   0 605.725 82.2890   1
   4   3   0 838.686 93.3582   1
  -4   3   0 850.130 94.6751   1
   4  -3   1 60.2993 18.8578   1
   4   3   1 81.2913 24.0723   1
  -4   3  -1 58.6446 21.7261   1
  -4  -3  -1 72.9500 20.8526   1
   4  -3   2 336.062 55.4219   1
   4   3   2 462.947 62.7100   1
  -4   3  -2 346.499 54.6541   1
  -4  -3  -2 472.957 60.0232   1
  -4  -3  -3 9.08587 10.5036   1
   4  -3   3 8.99917 12.6361   1
   4   3   3-4.25067 11.2751   1
  -4   3  -3 21.0326 15.3030   1
   4  -3   4 779.081 99.3610   1
   4   3   4 940.083 106.211   1
  -4   3  -4 895.106 103.376   1
  -4  -3  -4 1023.04 106.305   1
   4  -3   5 648.746 74.2380   1
   4   3   5 613.141 79.3405   1
  -4   3  -5 512.453 71.8470   1
  -4  -3  -5 600.504 77.0273   1
  -4   3  -6 84.5732 26.6618   1
   4  -3   6 63.9968 21.5156   1
   4   3   6 108.752 27.1319   1
  -4  -3  -6 67.5816 23.5534   1
   4  -3   7 423.399 61.3444   1
   4   3   7 573.904 67.7863   1
  -4  -3  -7 402.602 64.0566   1
  -4   3  -8 60.4730 21.3601   1
  -4  -3  -8 45.4176 19.2702   1
   4  -3   8 54.8141 18.1725   1
   4   3   8 62.7364 20.6898   1
   4  -4 -10 19.0941 15.1359   1
   4   4  -9 145.104 31.9908   1
  -4   4   9 142.096 30.7436   1
   4  -4  -9 176.149 35.8107   1
  -4  -4   9 194.456 34.2450   1
   4   4  -8 362.554 56.5417   1
  -4  -4   8 414.423 55.3527   1
  -4  -4   7 22.7502 13.1149   1
  -4   4   7 20.2925 13.6752   1
   4  -4  -7 16.2621 11.8097   1
   4   4  -7 23.9504 16.8791   1
  -4   4   6 649.429 76.1964   1
  -4  -4   6 723.233 80.1222   1
   4  -4  -6 664.906 82.2273   1
   4   4  -6 694.001 83.7212   1
  -4   4   5 209.054 34.0129   1
   4  -4  -5 152.351 32.1407   1
   4   4  -4 478.182 65.1998   1
  -4   4   4 451.741 59.9754   1
   4  -4  -4 481.073 58.3304   1
  -4  -4   4 485.437 60.1435   1
   4  -4  -3 252.577 43.1034   1
  -4   4   3 308.387 42.4929   1
   4   4  -3 244.240 43.1577   1
  -4  -4   3 237.982 38.2889   1
  -4   4   3 220.018 39.6205   1
   4  -4  -3 197.101 34.9155   1
  -4   4   2 876.217 117.774   1
   4  -4  -2 1303.43 130.707   1
   4   4  -2 1137.61 126.881   1
   4  -4  -2 1337.00 127.235   1
  -4  -4   2 1442.65 129.110   1
  -4   4   2 1085.11 124.174   1
  -4   4   1 623.683 74.7436   1
   4  -4  -1 459.279 70.8794   1
  -4  -4   1 717.827 76.9763   1
   4   4  -1 619.875 75.9925   1
  -4   4   1 475.223 70.3689   1
   4  -4  -1 602.382 71.3832   1
   4  -4   0 94.1327 23.0890   1
  -4   4   0 82.1761 23.9726   1
  -4  -4   0 69.4597 20.7296   1
   4  -4   0 68.3378 24.0174   1
   4   4   0 54.9102 18.1037   1
  -4   4   0 83.0622 23.6236   1
   4  -4   1 211.015 40.3027   1
  -4  -4  -1 261.527 44.8778   1
   4   4   1 437.540 57.8394   1
  -4   4  -1 417.197 57.2511   1
   4  -4   2 58.4585 22.7493   1
  -4  -4  -2 73.7611 23.7365   1
   4   4   2 58.3087 21.8356   1
  -4   4  -2 59.4807 21.6806   1
   4  -4   3 838.065 116.562   1
   4   4   3 1219.53 125.907   1
  -4   4  -3 1250.11 125.544   1
  -4  -4  -3 1209.05 123.612   1
   4  -4   4 425.472 61.9244   1
  -4   4  -4 559.609 70.1249   1
   4  -4   5 227.627 39.6672   1
   4   4   5 289.271 47.5611   1
  -4   4  -5 267.119 45.6773   1
   4  -4   6 217.088 39.6697   1
   4   4   6 321.456 47.6413   1
  -4   4  -6 231.111 46.3673   1
  -4  -4  -6 292.088 48.0531   1
  -4   4  -7 104.786 30.1135   1
   4  -4   7 87.3121 23.0825   1
  -4   4  -8 209.046 39.6032   1
   4  -4   8 130.854 30.4678   1
   4   4   8 168.290 31.4578   1
  -4  -4  -8 164.883 35.6258   1
   4   5  -9 347.063 54.5173   1
  -4  -5   9 372.143 51.5078   1
  -4  -5   8 106.826 25.5511   1
  -4   5   8 82.5887 23.1349   1
   4  -5  -8 87.4442 23.5820   1
   4   5  -8 91.5828 26.6246   1
  -4   5   7 861.371 94.7499   1
   4  -5  -7 694.273 93.9109   1
   4   5  -7 726.471 97.1116   1
  -4   5   6 22.1085 13.1666   1
   4  -5  -6 21.6374 12.5416   1
  -4  -5   6 29.7054 14.8796   1
   4   5  -6 28.2433 10.7789   1
  -4  -5   5 199.918 36.2385   1
   4   5  -5 278.638 46.5534   1
  -4   5   5 266.928 41.9948   1
   4  -5  -5 204.091 34.6085   1
   4  -5  -4 174.117 29.7584   1
   4  -5  -4 189.021 36.0647   1
  -4   5   4 204.995 36.1921   1
  -4   5   4 177.421 33.3680   1
   4   5  -4 182.475 36.8990   1
  -4  -5   4 213.993 35.5874   1
  -4   5   3 1364.19 128.546   1
   4  -5  -3 1144.05 126.686   1
   4   5  -3 1133.11 129.321   1
  -4  -5   3 1206.63 125.805   1
  -4   5   3 1232.92 128.185   1
   4  -5  -3 1318.16 126.759   1
  -4   5   2 1395.52 128.336   1
   4  -5  -2 1273.06 129.781   1
   4   5  -2 1120.66 125.736   1
  -4   5   2 974.460 119.725   1
   4  -5  -1 168.000 31.8154   1
   4  -5  -1 193.559 38.2534   1
  -4   5   1 196.859 36.5437   1
  -4   5   1 227.720 39.8341   1
   4   5  -1 217.919 38.0112   1
   4  -5   0 1176.74 152.043   1
   4  -5   0 1349.20 150.013   1
  -4   5   0 1110.37 149.505   1
  -4   5   0 1351.50 153.223   1
   4  -5   1 92.1006 26.9602   1
   4  -5   1 105.817 24.8111   1
   4   5   1 84.2073 24.2353   1
  -4  -5  -1 80.9866 22.3278   1
  -4   5  -1 85.2123 26.2860   1
  -4   5  -1 90.1983 27.1509   1
   4   5   2 1023.90 106.950   1
  -4   5  -2 872.445 100.038   1
  -4  -5  -2 1040.56 103.852   1
   4  -5   3 134.868 30.5883   1
  -4   5  -3 136.866 33.0864   1
   4   5   3 172.284 35.2007   1
  -4  -5  -3 202.636 38.6456   1
   4  -5   4 1125.44 147.430   1
   4   5   4 1754.61 167.597   1
  -4   5  -4 1225.86 150.638   1
  -4  -5  -4 1895.28 164.693   1
   4   5   5 56.8967 21.7837   1
  -4  -5  -5 83.6606 25.4171   1
   4  -5   6 139.351 29.2763   1
  -4   5  -6 82.1438 29.2740   1
   4   5   6 131.814 29.5035   1
  -4  -5  -6 104.272 27.3718   1
  -4   5  -7 134.473 31.5504   1
   4  -5   7 69.9392 21.5110   1
  -4  -5  -7 71.8740 21.8942   1
   4   5   7 76.9839 22.4288   1
  -4   5  -8 13.3715 16.9837   1
   4  -5   8 32.5535 18.2248   1
  -4  -5  -8 13.4138 9.66203   1
   4   5   8 36.6848 13.6705   1
  -4  -6   8 611.659 72.7340   1
   4   6  -8 527.996 73.3761   1
  -4  -6   6 339.601 48.2521   1
   4   6  -6 356.918 54.5814   1
  -4   6   6 304.298 46.8891   1
   4  -6  -5 46.5099 17.4544   1
  -4  -6   5 102.129 24.3554   1
  -4   6   5 73.6135 23.1258   1
   4  -6  -5 58.3276 21.9853   1
  -4   6   5 73.4679 21.2889   1
   4   6  -5 62.1792 22.7142   1
  -4   6   4 233.457 37.6441   1
   4   6  -4 286.028 45.4717   1
   4  -6  -4 119.764 28.7402   1
  -4  -6   4 172.653 33.5365   1
  -4   6   4 327.840 43.6176   1
   4  -6  -4 176.499 32.1641   1
  -4  -6   3 45.8281 16.2940   1
   4  -6  -3 49.5514 15.3602   1
  -4   6   3 81.2202 22.1302   1
  -4   6   3 55.2036 19.1277   1
   4  -6  -3 32.5497 14.1487   1
   4   6  -3 49.3405 20.4665   1
   4  -6  -2 325.820 53.1169   1
   4   6  -2 281.943 48.4275   1
  -4  -6   2 329.467 50.3182   1
  -4   6   2 400.726 51.5230   1
   4  -6  -2 225.321 40.1074   1
  -4   6   2 371.791 51.1106   1
  -4   6   1 145.047 33.1548   1
   4  -6  -1 273.783 40.2491   1
   4  -6  -1 275.977 46.7354   1
  -4   6   1 186.593 37.8327   1
  -4  -6   1 362.423 49.6346   1
   4   6  -1 211.694 39.9362   1
  -4  -6   0 293.836 43.6709   1
   4   6   0 240.369 44.4015   1
   4  -6   0 155.893 37.2886   1
  -4   6   0 252.791 44.2229   1
   4  -6   0 202.447 37.0546   1
  -4   6   0 198.798 36.5916   1
  -4  -6  -1 346.152 49.2351   1
   4  -6   1 236.478 44.2377   1
   4  -6   1 216.001 39.0225   1
   4   6   1 292.121 48.0338   1
  -4   6  -1 245.637 44.6954   1
  -4   6  -1 233.957 43.0393   1
   4  -6   2 114.512 27.9693   1
   4   6   2 150.266 34.6346   1
  -4   6  -2 103.067 30.4224   1
  -4  -6  -2 182.876 35.7993   1
   4  -6   3 717.746 80.8062   1
  -4   6  -3 719.171 84.6037   1
  -4   6  -4 139.207 32.9498   1
   4  -6   4 116.836 26.7506   1
   4   6   4 180.940 38.6177   1
  -4  -6  -4 183.160 34.3826   1
   4   6   5 240.078 44.7995   1
  -4  -6  -5 297.434 49.0227   1
  -4   6  -6 161.868 38.9269   1
   4   6   6 217.423 36.9411   1
   4  -6   6 108.652 28.8461   1
  -4  -6  -6 181.793 37.9822   1
  -4   6  -7 78.7760 24.1626   1
   4  -6   7 53.4608 17.3050   1
  -4  -6  -7 71.2951 23.6854   1
   4   6   7 106.683 25.1383   1
  -4   6  -8 210.860 43.2233   1
  -4  -6  -8 172.158 36.1855   1
   4  -6   8 166.827 35.6012   1
  -4  -7   8 37.4123 16.5912   1
   4   7  -8 28.9768 15.6036   1
  -4  -7   7 462.505 58.8998   1
   4   7  -7 364.479 58.6656   1
  -4  -7   6 31.3537 13.3236   1
   4   7  -6 53.7067 18.6602   1
   4   7  -5 201.762 38.8103   1
  -4  -7   5 183.314 34.8953   1
  -4  -7   4 169.080 33.7695   1
   4   7  -4 169.906 35.7993   1
   4   7  -3 359.695 58.7624   1
  -4  -7   3 448.450 58.8008   1
  -4   7   2 879.003 93.1717   1
  -4   7   2 603.523 83.2537   1
  -4   7   1 89.5656 20.5054   1
   4  -7  -1 77.8905 23.5518   1
  -4  -7   1 87.1838 23.9214   1
   4   7  -1 142.303 32.3319   1
  -4   7   1 143.493 28.0517   1
  -4  -7   0 550.527 68.1951   1
   4  -7   0 334.650 56.1488   1
   4   7   0 489.474 67.4560   1
  -4   7   0 528.173 63.5336   1
  -4   7   0 361.442 56.0373   1
   4  -7   0 349.764 51.1643   1
   4  -7   1 4.70422 9.66365   1
   4  -7   1 38.2906 18.1595   1
  -4   7  -1-4.24708 11.1724   1
   4   7   1 10.5933 13.3954   1
  -4  -7  -1 18.9641 14.5723   1
  -4   7  -1 19.2743 16.7180   1
  -4   7  -2 350.413 53.4750   1
   4  -7   2 226.889 41.6867   1
  -4  -7  -3 15.6251 9.23149   1
  -4   7  -3 16.2621 13.0678   1
   4  -7   3 12.2406 8.85295   1
   4  -7   4 466.814 65.3811   1
   4   7   4 747.304 84.4982   1
  -4   7  -4 425.070 69.9949   1
  -4  -7  -4 661.535 77.3329   1
   4   7   5 217.948 42.0955   1
  -4  -7  -5 365.360 54.5577   1
   4   7   6 193.130 35.6280   1
  -4  -7  -6 156.730 35.6015   1
   4   7   7 480.137 62.8084   1
  -4  -7  -7 530.269 69.4976   1
  -4  -8   7 5.54657 6.55492   1
   4   8  -7 35.2196 18.6526   1
   4   8  -6 301.106 51.2187   1
  -4  -8   6 333.526 48.2765   1
  -4  -8   5 155.971 30.9261   1
   4   8  -5 167.106 37.1421   1
   4   8  -4 247.744 47.9677   1
  -4  -8   4 340.846 49.5529   1
  -4  -8   3 207.822 38.0367   1
   4   8  -3 177.184 37.0660   1
  -4  -8   2 525.098 67.7307   1
   4   8  -2 404.145 63.3020   1
  -4  -8   1 376.688 54.4055   1
   4   8  -1 300.882 53.7624   1
  -4  -8   0 313.492 52.4391   1
   4   8   0 282.142 50.6529   1
   4   8   1 573.502 76.2881   1
  -4  -8  -1 487.810 69.1454   1
  -4  -8  -2 107.444 27.3608   1
   4   8   2 152.788 35.2581   1
   4   8   3 442.046 64.5093   1
  -4  -8  -3 452.013 63.3524   1
   4   8   4 108.724 31.1925   1
  -4  -8  -4 59.5566 20.9489   1
   4   8   5 199.449 36.8651   1
  -4  -8  -5 194.401 38.8421   1
   4   9  -7 137.360 32.6760   1
  -4  -9   7 177.450 34.9355   1
  -4  -9   6 238.934 41.1254   1
   4   9  -6 165.950 38.2788   1
   4   9  -5 436.660 65.0453   1
   4   9  -4 64.1318 24.2177   1
  -4  -9   4 29.9655 18.9322   1
   4   9  -3 730.555 93.9879   1
  -4  -9   3 834.575 93.1188   1
  -4  -9   2 369.606 54.2265   1
   4   9  -2 315.920 55.2666   1
  -4  -9   1 484.095 65.0139   1
   4   9  -1 342.018 60.1529   1
  -4  -9   0 416.458 59.9851   1
   4   9   0 282.643 53.5984   1
  -4  -9  -1 51.5412 20.5716   1
   4   9   1 51.0213 21.1448   1
   4   9   2 399.419 58.1183   1
  -4  -9  -2 339.483 55.4637   1
   5   0  -9 111.549 28.2152   1
  -5   0   9 71.2648 20.4760   1
  -5   0   8 14.1878 6.96433   1
   5   0  -8 3.17234 8.51828   1
  -5   0   7 1168.97 118.678   1
   5   0  -7 1150.62 123.772   1
  -5   0   6-3.32992 7.11147   1
   5   0  -5 842.333 96.1053   1
  -5   0   5 786.459 89.5174   1
   5   0  -4 87.3967 25.7979   1
  -5   0   4 65.4194 19.4192   1
   5   0  -3 227.032 41.4079   1
  -5   0   3 275.143 42.6335   1
   5   0   1 258.082 44.5445   1
  -5   0  -1 232.597 41.7084   1
   5   0   2 879.106 103.746   1
  -5   0  -2 824.410 98.9763   1
   5   0   3 700.275 85.9918   1
  -5   0  -3 605.725 79.7997   1
   5   0   4 275.206 49.3632   1
  -5   0  -4 257.065 44.8250   1
   5   0   6 62.4997 21.6711   1
  -5   0  -6 13.2800 10.3520   1
  -5   1   9 59.3142 20.0603   1
   5  -1  -9 4.50629 8.54446   1
  -5   1   8 100.352 25.3426   1
  -5  -1   8 166.081 30.1974   1
   5  -1  -8 139.842 32.7836   1
   5   1  -8 93.8475 27.9017   1
  -5   1   7 45.2120 16.1034   1
   5  -1  -7 28.1597 13.8221   1
   5  -1  -6 354.426 55.2703   1
   5   1  -6 370.228 55.3721   1
  -5   1   6 426.219 55.2875   1
  -5  -1   6 384.412 52.8643   1
  -5   1   5 178.176 33.1402   1
  -5  -1   5 159.550 31.4045   1
   5   1  -5 237.541 39.4069   1
   5  -1  -5 135.804 32.6970   1
   5  -1  -4 443.792 61.8981   1
   5   1  -4 360.994 56.9487   1
  -5   1   4 417.221 57.2256   1
  -5  -1   4 429.864 57.9427   1
   5   1  -3 528.229 69.6685   1
  -5  -1   3 511.289 65.4696   1
  -5   1   2 118.399 26.2405   1
  -5  -1   2 105.030 25.0428   1
   5  -1  -2 71.9935 21.9046   1
   5   1  -2 93.0056 26.5934   1
  -5  -1   1 1988.06 186.362   1
   5  -1  -1 1648.25 187.512   1
   5   1  -1 2079.51 192.709   1
  -5  -1   0 47.0144 18.4580   1
   5   1   0 43.5962 19.0124   1
  -5   1   0 35.7773 17.9281   1
   5   1   1 737.977 85.9211   1
  -5  -1  -1 538.819 75.6849   1
  -5   1  -2 148.099 33.3079   1
  -5  -1  -2 153.223 33.3276   1
   5  -1   2 115.168 32.5268   1
   5   1   2 155.795 35.5487   1
  -5  -1  -3 174.066 36.1610   1
   5  -1   3 138.264 32.2616   1
   5   1   3 154.257 33.7185   1
  -5   1  -3 112.942 29.2755   1
   5  -1   4 74.7221 23.8170   1
   5   1   4 42.8593 18.8845   1
  -5   1  -4 39.2568 16.0559   1
  -5  -1  -4 70.2765 22.4036   1
   5   1   5 91.7849 26.1945   1
  -5  -1  -5 85.0411 25.3901   1
   5  -1   6 344.981 50.7524   1
   5   1   6 373.819 53.3792   1
  -5   1  -6 333.105 53.4764   1
  -5  -1  -6 306.251 52.3757   1
  -5   2   9 86.7409 21.8712   1
   5  -2  -9 33.3291 14.3220   1
  -5   2   8 57.5896 19.9531   1
  -5  -2   8 34.8548 14.7044   1
   5  -2  -8 31.0804 18.1216   1
   5   2  -8 62.6336 19.7193   1
  -5  -2   7 359.104 48.8544   1
   5  -2  -7 260.292 46.0248   1
   5   2  -7 287.650 48.2338   1
  -5   2   7 323.136 47.1303   1
  -5   2   6 78.8345 21.8223   1
  -5  -2   6 41.3214 15.2249   1
   5  -2  -6 34.5336 17.1260   1
   5   2  -6 42.0242 15.1190   1
   5  -2  -5 372.018 57.5207   1
   5   2  -5 492.088 62.5741   1
  -5   2   5 386.963 53.5733   1
  -5  -2   5 343.898 51.9686   1
   5   2  -4 408.351 64.0279   1
  -5  -2   4 574.731 68.5914   1
   5  -2  -3 239.290 42.8211   1
   5   2  -3 220.590 41.4833   1
  -5  -2   3 247.957 40.0425   1
  -5   2   3 216.140 38.1348   1
  -5   2   2 443.260 63.2908   1
   5  -2  -2 575.755 72.0704   1
   5   2  -2 415.270 63.3679   1
  -5  -2   2 525.425 65.1030   1
  -5   2   1 310.460 49.7845   1
  -5  -2   1 306.162 47.6408   1
   5  -2  -1 411.699 57.3526   1
   5   2  -1 317.198 51.8028   1
  -5   2   0 1095.53 128.582   1
  -5  -2   0 1294.66 132.926   1
   5  -2   0 1323.91 136.769   1
   5   2   0 1287.15 135.162   1
   5   2   1 25.1138 18.0726   1
  -5  -2  -1 20.1810 15.0294   1
   5  -2   2 344.551 59.7479   1
   5   2   2 444.101 66.1441   1
  -5   2  -2 477.126 65.4508   1
  -5  -2  -2 507.754 66.4026   1
  -5  -2  -3 190.387 35.5498   1
   5  -2   3 127.836 33.3335   1
   5   2   3 134.232 32.9598   1
  -5   2  -3 191.363 35.8599   1
   5  -2   4 258.059 48.2617   1
   5   2   4 269.098 49.3291   1
  -5   2  -4 253.734 46.4779   1
  -5  -2  -4 341.648 51.1780   1
   5   2   5 318.335 52.2380   1
  -5  -2  -5 290.385 48.7691   1
   5  -2   6 81.9606 21.9114   1
  -5   2  -6 93.5770 26.0417   1
   5   2   6 144.880 30.2869   1
  -5  -2  -6 111.592 26.6810   1
  -5   3   9 51.3891 18.5849   1
   5  -3  -9 26.3250 14.9215   1
  -5  -3   8 178.285 33.1279   1
   5   3  -8 154.903 34.2040   1
  -5   3   7 33.1513 15.8836   1
  -5  -3   7 37.8513 15.9830   1
   5  -3  -7 24.8622 16.7346   1
   5   3  -7 58.7786 21.0950   1
   5  -3  -6 258.293 42.9293   1
  -5   3   6 219.682 39.0942   1
   5  -3  -5 210.517 41.1317   1
   5   3  -5 210.037 39.3251   1
  -5   3   5 221.324 38.3218   1
  -5  -3   5 210.249 36.5489   1
   5  -3  -4 198.885 38.5103   1
   5   3  -4 209.559 41.1790   1
  -5   3   4 230.577 39.4873   1
  -5  -3   4 272.642 43.3558   1
  -5   3   3 297.325 45.9403   1
   5  -3  -3 248.797 45.3749   1
   5   3  -3 312.932 49.1844   1
  -5  -3   3 324.439 46.4665   1
  -5   3   2 372.331 53.8017   1
   5  -3  -2 319.742 54.0979   1
   5   3  -2 376.045 55.3766   1
  -5  -3   2 395.262 54.3732   1
  -5   3   1 684.062 90.2772   1
  -5  -3   1 789.404 90.2345   1
   5  -3  -1 668.869 91.5056   1
   5   3  -1 853.567 95.6358   1
  -5  -3   0 96.8243 26.4336   1
  -5   3   0 94.9780 26.0243   1
   5  -3   0 95.5257 27.7479   1
   5   3   0 112.727 29.1643   1
  -5  -3  -1 579.973 71.9330   1
   5  -3   1 388.667 66.6122   1
   5   3   1 630.359 77.5890   1
  -5   3  -1 496.432 69.1422   1
   5  -3   2 236.686 48.0280   1
   5   3   2 281.290 50.6994   1
  -5   3  -2 244.597 47.9005   1
  -5  -3  -3 145.346 33.9757   1
   5  -3   3 147.273 35.3766   1
   5   3   3 118.564 30.2168   1
  -5   3  -3 117.961 30.3555   1
   5  -3   4 206.016 40.1890   1
  -5   3  -4 293.537 48.3441   1
   5   3   5 128.258 33.8921   1
  -5  -3  -5 122.353 30.7091   1
   5  -3   6 325.146 50.8113   1
   5   3   6 456.291 58.7909   1
  -5   3  -6 338.730 54.8082   1
  -5  -3  -6 422.082 58.9865   1
  -5   4   8 103.949 25.8692   1
   5  -4  -8 87.5567 26.8496   1
  -5  -4   7 234.735 38.7137   1
   5  -4  -7 238.484 43.1687   1
   5   4  -7 237.880 41.9693   1
  -5   4   7 208.705 38.2677   1
  -5   4   6 67.7649 19.2193   1
  -5  -4   6 79.0510 20.2241   1
   5  -4  -6 59.9689 21.6094   1
   5   4  -6 81.2682 25.2533   1
   5  -4  -4 383.322 59.3987   1
  -5   4   4 424.062 60.4582   1
   5   4  -4 422.613 62.7103   1
  -5  -4   4 564.310 65.4760   1
   5  -4  -3 292.488 47.0543   1
   5   4  -3 193.853 40.4357   1
  -5  -4   3 271.192 41.7474   1
  -5   4   3 179.124 37.8661   1
  -5   4   2 759.116 91.9380   1
   5  -4  -2 892.289 99.5801   1
  -5  -4   2 728.641 88.4425   1
   5   4  -2 634.262 86.8333   1
  -5  -4   1 202.082 36.3349   1
   5  -4  -1 266.516 45.5059   1
   5   4  -1 159.709 36.2811   1
  -5   4   1 216.419 39.5773   1
  -5  -4   0 1037.06 116.740   1
   5  -4   0 1119.95 124.045   1
   5   4   0 1106.35 122.168   1
  -5   4   0 1062.56 118.315   1
  -5  -4  -1 227.915 40.3174   1
   5  -4   1 194.581 41.2587   1
   5   4   1 255.274 45.3480   1
  -5   4  -1 257.097 44.3923   1
   5  -4   2 410.981 71.1451   1
   5   4   2 573.353 76.6190   1
  -5   4  -2 574.576 75.2011   1
  -5  -4  -2 679.601 78.3127   1
   5  -4   3 115.901 30.5446   1
   5   4   3 146.970 32.9681   1
  -5   4  -3 151.738 35.4897   1
  -5  -4  -3 190.419 35.4032   1
   5  -4   4 79.5626 23.4307   1
   5   4   4 85.3343 26.9367   1
  -5   4  -4 88.8887 26.8330   1
  -5  -4  -4 82.4733 23.3494   1
   5   4   5 121.029 31.3440   1
  -5   4  -6 86.9560 25.4209   1
   5  -4   6 66.3022 19.3379   1
  -5  -4  -6 75.3715 26.3302   1
  -5  -5   7 31.1829 13.8703   1
   5   5  -7 45.3365 18.4532   1
   5   5  -6 503.235 71.1586   1
  -5  -5   6 611.563 71.1461   1
  -5  -5   5 31.9397 15.6326   1
  -5   5   5 40.5955 20.6664   1
   5  -5  -5 2.81450 8.07890   1
   5   5  -5 24.1678 13.3964   1
  -5   5   4 608.893 69.7482   1
   5  -5  -4 402.030 64.3087   1
  -5   5   3 289.590 47.3524   1
   5  -5  -3 223.220 43.4248   1
   5   5  -3 269.514 46.0128   1
  -5  -5   3 268.661 43.7829   1
  -5   5   2 332.143 50.1873   1
   5  -5  -2 268.776 48.3779   1
  -5  -5   2 329.976 49.6572   1
   5   5  -2 258.139 47.4326   1
   5  -5  -1 419.763 71.2450   1
   5   5  -1 569.751 75.2330   1
  -5   5   1 702.523 80.0775   1
  -5  -5   0 162.791 33.6604   1
  -5   5   0 177.480 36.8085   1
   5  -5   0 126.579 32.4607   1
   5  -5   1 656.383 104.866   1
   5   5   1 1210.32 120.227   1
  -5   5  -1 842.208 106.408   1
  -5  -5  -1 1069.35 111.048   1
   5   5   2 303.340 51.4206   1
  -5  -5  -2 271.685 46.3774   1
   5  -5   3 285.571 52.6909   1
   5   5   3 447.934 63.3133   1
  -5   5  -3 357.203 59.5276   1
  -5  -5  -3 523.420 64.4601   1
   5  -5   4 83.2420 20.8993   1
  -5   5  -4 101.125 27.6587   1
   5   5   4 89.4532 26.7483   1
  -5  -5  -4 77.7572 24.2810   1
   5   5   5 289.426 49.4478   1
  -5  -5  -5 315.272 50.4853   1
  -5   5  -6 80.1692 25.4608   1
   5  -5   6 54.9334 18.5590   1
  -5  -6   6 65.6192 19.9226   1
   5   6  -6 50.2219 18.5937   1
  -5  -6   5 133.575 28.8532   1
   5   6  -5 150.465 34.4326   1
   5   6  -4 271.022 47.2572   1
  -5  -6   4 271.870 42.9991   1
  -5  -6   2 225.738 40.0554   1
   5   6  -2 200.487 39.9081   1
  -5   6   1 162.565 35.8440   1
  -5  -6   1 157.127 32.6497   1
   5   6  -1 140.971 32.8151   1
  -5  -6   0 508.894 64.7841   1
   5  -6   0 334.381 58.4255   1
   5   6   0 400.410 59.6264   1
  -5   6   0 352.619 56.5433   1
   5  -6   1 70.8517 24.1124   1
   5   6   1 67.7340 26.2812   1
  -5  -6  -1 92.2333 25.2257   1
  -5   6  -1 48.0828 19.8626   1
   5   6   2 543.797 75.8758   1
  -5  -6  -2 524.563 71.0328   1
   5   6   3 240.695 43.3422   1
  -5   6  -3 156.852 36.8290   1
  -5  -6  -3 246.476 41.9758   1
   5   6   4 106.341 28.3707   1
  -5  -6  -4 146.248 31.9289   1
   5   6   5 123.510 32.7663   1
  -5  -6  -5 167.427 33.3289   1
   5   7  -5 78.3994 26.1200   1
  -5  -7   5 72.4753 20.6616   1
   5   7  -4 291.010 49.7088   1
  -5  -7   4 304.232 47.9102   1
   5   7  -3 499.520 69.9583   1
  -5  -7   3 523.123 68.2320   1
  -5  -7   2 266.441 44.3042   1
   5   7  -2 271.255 48.2361   1
  -5  -7   1 712.143 82.6968   1
   5   7  -1 517.025 77.6097   1
   5   7   0 16.0948 13.4268   1
  -5  -7   0 4.61023 9.45492   1
   5   7   1 314.917 54.8086   1
  -5  -7  -1 364.336 54.8183   1
  -5  -7  -2 134.389 30.9212   1
   5   7   2 111.580 29.9517   1
   5   7   3 262.485 46.1355   1
  -5  -7  -3 200.056 38.7842   1
   5   7   4 175.042 36.8593   1
  -5  -7  -4 129.826 29.4949   1
   5   8  -4 390.522 64.0730   1
  -5  -8   4 521.951 64.3090   1
  -5  -8   3 144.281 30.3698   1
   5   8  -3 102.419 29.6979   1
  -5  -8   2 280.598 46.5806   1
   5   8  -2 271.194 49.3907   1
  -5  -8   1 84.6695 26.6265   1
   5   8  -1 81.2919 30.0056   1
  -5  -8   0 630.953 77.4660   1
   5   8   0 468.693 74.7954   1
   5   8   1 63.0977 24.4175   1
  -5  -8  -1 125.435 33.5672   1
   5   8   2 249.983 46.8275   1
  -5  -8  -2 261.635 45.4646   1
   5   8   3 166.276 37.7301   1
  -5  -8  -3 207.379 38.7801   1
  -5  -9   2 121.676 30.2925   1
   5   9  -2 150.005 35.8349   1
   6   0  -6 509.923 71.4971   1
  -6   0   6 623.434 72.6064   1
  -6   0   5 209.415 36.5753   1
   6   0  -5 161.204 34.5684   1
  -6   0   4 58.0974 20.1165   1
   6   0  -4 26.6153 14.7187   1
  -6   0   3 413.795 54.9608   1
   6   0  -3 294.659 50.6963   1
   6   0  -2 63.7871 19.0862   1
  -6   0   1 287.323 48.0248   1
   6   0   0 40.5984 17.9657   1
  -6   0   0 16.1433 15.5383   1
   6   0   1 297.152 53.8730   1
  -6   0  -1 394.509 56.8928   1
  -6   0  -2 43.4464 20.7561   1
   6   0   2 58.8264 21.7070   1
   6   0   3 70.2992 23.7124   1
  -6   0  -3 95.8978 27.9513   1
   6  -1  -6 151.635 31.4108   1
  -6   1   6 108.648 26.9247   1
   6  -1  -5 85.9155 24.6126   1
   6   1  -5 85.9961 24.8497   1
  -6   1   5 95.1272 24.0998   1
  -6  -1   5 97.2823 24.7258   1
  -6   1   4 232.690 40.8954   1
   6  -1  -4 201.246 40.8698   1
   6   1  -4 274.055 46.0137   1
  -6  -1   4 222.902 39.6680   1
  -6   1   3 33.8763 13.8882   1
  -6  -1   3 41.2865 17.9855   1
   6  -1  -3 38.4354 20.1896   1
   6   1  -3 28.9401 15.7568   1
  -6  -1   2 660.627 88.6884   1
   6  -1  -2 718.162 94.8122   1
   6   1  -2 760.456 95.5822   1
  -6  -1   1 110.388 29.0953   1
   6  -1  -1 92.7026 28.4015   1
   6   1  -1 132.223 29.8802   1
  -6   1   1 104.963 26.2406   1
  -6  -1   0 432.040 60.0949   1
   6  -1   0 302.099 55.9516   1
   6   1   0 446.462 62.6082   1
  -6   1   0 429.753 60.1250   1
   6  -1   1 240.816 46.0884   1
  -6   1  -1 157.034 36.7969   1
  -6  -1  -1 204.186 38.2064   1
   6   1   1 177.560 38.0192   1
  -6   1  -2 78.5928 23.8067   1
  -6  -1  -2 88.3151 25.1937   1
   6  -1   2 57.0388 23.4659   1
   6   1   2 79.8694 26.7876   1
   6  -1   3 99.2299 29.2800   1
  -6   1  -3 131.578 31.9825   1
   6  -2  -6 63.2277 25.7273   1
  -6   2   6 144.069 29.9546   1
   6  -2  -5 270.486 47.9359   1
  -6   2   5 355.250 50.8829   1
  -6   2   4 13.3764 9.56694   1
   6  -2  -4 9.42157 11.8758   1
   6   2  -4 13.1261 14.6689   1
  -6  -2   4 14.9586 10.2795   1
  -6   2   3 255.104 43.6194   1
  -6  -2   3 219.098 39.4200   1
   6  -2  -3 223.359 42.1911   1
   6   2  -3 233.656 42.4849   1
  -6  -2   2 23.2196 12.9573   1
   6   2  -2 14.1934 12.6757   1
  -6  -2   1 146.171 32.5327   1
   6   2  -1 219.065 40.6471   1
  -6   2   0 105.467 28.8099   1
   6  -2   0 106.134 28.9139   1
   6   2   0 75.5850 25.1190   1
  -6  -2   0 132.222 29.9288   1
  -6   2  -1 167.716 37.2704   1
   6  -2   1 185.498 39.4186   1
   6   2   1 182.335 37.2862   1
  -6  -2  -1 235.853 41.3592   1
  -6   2  -2 69.8189 23.9955   1
  -6  -2  -2 61.5890 21.1867   1
   6  -2   2 43.0145 17.8109   1
   6   2   2 67.4055 22.0947   1
   6  -2   3 244.547 45.2150   1
  -6   2  -3 226.639 41.8456   1
   6  -3  -6 297.398 49.5440   1
  -6   3   6 298.198 48.9005   1
  -6   3   5 67.4688 23.2309   1
   6  -3  -5 66.1761 24.0118   1
  -6   3   4 375.924 54.4145   1
   6  -3  -4 378.742 59.7409   1
   6   3  -4 352.147 55.5389   1
  -6  -3   4 440.833 58.0831   1
  -6  -3   3 96.4757 24.9460   1
   6   3  -3 99.6592 27.7705   1
  -6  -3   2 363.270 53.1257   1
   6   3  -2 359.897 56.1870   1
  -6  -3   1 14.1658 13.6285   1
   6   3  -1 28.8033 15.6399   1
  -6  -3   0 395.296 55.0790   1
   6   3   0 261.498 48.8514   1
  -6   3  -1 45.9433 19.3456   1
  -6  -3  -1 35.3581 14.5089   1
   6  -3   1 46.3625 20.7996   1
   6   3   1 61.9850 20.4043   1
   6  -3   2 97.6860 28.9315   1
  -6   3  -2 153.310 33.3995   1
   6  -3   3 56.8633 21.3520   1
  -6   3  -3 61.6928 22.5086   1
  -6  -4   2 86.1214 24.3388   1
   6  -4  -2 83.3851 29.4997   1
   6   4  -2 69.2008 24.5713   1
  -6   4   2 116.636 28.2417   1
  -6  -4   1 428.647 62.4594   1
   6  -4  -1 298.207 60.1971   1
   6   4  -1 496.634 66.8682   1
  -6   4   1 559.005 70.1962   1
   6   4   0 93.5933 27.6818   1
  -6  -4   0 93.1025 25.1650   1
  -6   4  -1 186.231 38.3365   1
   6  -4   1 170.815 39.4791   1
   6  -4   2 173.593 38.8906   1
  -6   4  -2 182.902 36.7797   1
   6  -4   3 116.459 31.8165   1
  -6   4  -3 268.086 43.8785   1
;
_shelx_hkl_checksum              67806
#END Tags that were not found in dictionaries
loop_
_space_group_symop_operation_xyz
'x, y, z'
'-x, y+1/2, -z'
loop_
_atom_site_label
_atom_site_type_symbol
_atom_site_fract_x
_atom_site_fract_y
_atom_site_fract_z
_atom_site_U_iso_or_equiv
_atom_site_adp_type
_atom_site_occupancy
_atom_site_site_symmetry_order
_atom_site_calc_flag
_atom_site_refinement_flags_posn
_atom_site_refinement_flags_adp
Zn1 Zn 0.7994(2) -0.00446(9) 0.78154(10) 0.0246(5) Uani 1 1 d D .
N1 N 0.5848(19) 0.0884(13) 0.6092(10) 0.030(2) Uani 1 1 d D .
H1A H 0.69(3) 0.113(13) 0.537(9) 0.045 Uiso 1 1 d D U
H1B H 0.485(17) 0.004(4) 0.587(7) 0.045 Uiso 1 1 d D U
C1 C 0.442(2) 0.2133(13) 0.6508(12) 0.026(2) Uani 1 1 d . U
H1C H 0.2651 0.1872 0.6834 0.031 Uiso 1 1 calc R U
H1D H 0.4048 0.2762 0.5722 0.031 Uiso 1 1 calc R U
C2 C 0.627(2) 0.2888(11) 0.7670(12) 0.023(2) Uani 1 1 d . .
O1 O 0.8269(18) 0.2222(9) 0.8289(10) 0.031(2) Uani 1 1 d . .
N3 N 0.573(2) 0.4190(11) 0.7946(10) 0.026(2) Uani 1 1 d . .
H3 H 0.4363 0.4620 0.7486 0.031 Uiso 1 1 calc R U
C3 C 0.7487(19) 0.4937(16) 0.9051(10) 0.024(2) Uani 1 1 d . .
H3A H 0.9374 0.4534 0.9129 0.029 Uiso 1 1 calc R U
C4 C 0.630(2) 0.4809(17) 1.0443(11) 0.029(3) Uani 1 1 d . .
O2 O 0.3721(15) 0.4629(9) 1.0432(7) 0.027(2) Uani 1 1 d . .
O3 O 0.7908(13) 0.4865(12) 1.1566(7) 0.0264(16) Uani 1 1 d . .
C5 C 0.766(3) 0.6501(13) 0.8703(12) 0.026(3) Uani 1 1 d . .
H5A H 0.5778 0.6887 0.8602 0.031 Uiso 1 1 calc R U
H5B H 0.8691 0.6980 0.9477 0.031 Uiso 1 1 calc R U
C6 C 0.903(2) 0.6824(13) 0.7404(13) 0.025(3) Uani 1 1 d . .
O4 O 0.8439(17) 0.8044(10) 0.6865(8) 0.0294(19) Uani 1 1 d . .
O5 O 1.0663(17) 0.5984(10) 0.6929(8) 0.0304(19) Uani 1 1 d . .
O1W O 0.8305(17) 0.3886(10) 0.5113(8) 0.0321(19) Uani 1 1 d D .
H1X H 0.89(3) 0.352(13) 0.429(9) 0.048 Uiso 1 1 d D U
H1Y H 0.94(3) 0.471(10) 0.539(12) 0.048 Uiso 1 1 d D U
loop_
_atom_site_aniso_label
_atom_site_aniso_U_11
_atom_site_aniso_U_22
_atom_site_aniso_U_33
_atom_site_aniso_U_23
_atom_site_aniso_U_13
_atom_site_aniso_U_12
Zn1 0.0184(7) 0.0209(8) 0.0343(7) 0.0005(5) 0.0028(4) 0.0010(5)
N1 0.014(5) 0.039(7) 0.038(5) -0.004(4) 0.003(4) -0.004(4)
C1 0.025(5) 0.016(5) 0.035(5) -0.001(4) -0.001(4) -0.007(4)
C2 0.023(6) 0.010(6) 0.038(6) 0.003(4) 0.006(5) -0.001(4)
O1 0.024(4) 0.019(5) 0.051(5) -0.001(4) 0.001(4) 0.001(3)
N3 0.017(5) 0.019(6) 0.040(5) 0.000(4) -0.003(4) 0.001(4)
C3 0.018(4) 0.018(6) 0.036(5) 0.008(6) 0.004(4) 0.007(6)
C4 0.021(5) 0.036(8) 0.031(5) 0.000(6) 0.007(4) 0.009(6)
O2 0.016(4) 0.030(6) 0.035(4) -0.004(3) 0.005(3) -0.007(3)
O3 0.018(3) 0.027(4) 0.034(3) -0.012(4) 0.005(3) -0.004(4)
C5 0.026(6) 0.014(7) 0.037(6) 0.000(5) 0.002(5) 0.005(4)
C6 0.016(6) 0.013(6) 0.046(7) -0.003(5) 0.000(5) 0.006(5)
O4 0.024(4) 0.028(6) 0.036(4) 0.000(4) 0.006(3) 0.001(4)
O5 0.025(4) 0.028(6) 0.038(4) 0.000(3) 0.001(3) -0.003(4)
O1W 0.031(5) 0.027(5) 0.039(4) -0.005(4) 0.010(3) 0.003(4)
loop_
_atom_type_symbol
_atom_type_description
_atom_type_scat_dispersion_real
_atom_type_scat_dispersion_imag
_atom_type_scat_source
C C 0.0033 0.0016 'International Tables Vol C Tables 4.2.6.8 and 6.1.1.4'
N N 0.0061 0.0033 'International Tables Vol C Tables 4.2.6.8 and 6.1.1.4'
O O 0.0106 0.0060 'International Tables Vol C Tables 4.2.6.8 and 6.1.1.4'
Zn Zn 0.2839 1.4301 'International Tables Vol C Tables 4.2.6.8 and 6.1.1.4'
H H 0.0000 0.0000 'International Tables Vol C Tables 4.2.6.8 and 6.1.1.4'
loop_
_geom_angle_atom_site_label_1
_geom_angle_atom_site_label_2
_geom_angle_atom_site_label_3
_geom_angle
_geom_angle_site_symmetry_1
_geom_angle_site_symmetry_3
O2 Zn1 O3 102.5(3) 2_647 2_747
O2 Zn1 O4 108.6(3) 2_647 1_545
O3 Zn1 O4 87.3(4) 2_747 1_545
O2 Zn1 N1 122.8(4) 2_647 .
O3 Zn1 N1 131.0(3) 2_747 .
O4 Zn1 N1 94.5(4) 1_545 .
O2 Zn1 O1 89.7(3) 2_647 .
O3 Zn1 O1 86.7(4) 2_747 .
O4 Zn1 O1 161.7(3) 1_545 .
N1 Zn1 O1 76.6(4) . .
C1 N1 Zn1 109.5(7) . .
N1 C1 C2 109.3(9) . .
O1 C2 N3 122.7(11) . .
O1 C2 C1 118.4(10) . .
N3 C2 C1 118.9(11) . .
C2 O1 Zn1 111.4(7) . .
C2 N3 C3 119.8(10) . .
N3 C3 C4 111.7(10) . .
N3 C3 C5 110.2(9) . .
C4 C3 C5 107.9(12) . .
O2 C4 O3 121.9(9) . .
O2 C4 C3 117.5(10) . .
O3 C4 C3 120.6(10) . .
C4 O2 Zn1 117.9(7) . 2_657
C4 O3 Zn1 138.8(6) . 2_757
C6 C5 C3 114.8(9) . .
O5 C6 O4 123.1(11) . .
O5 C6 C5 121.8(10) . .
O4 C6 C5 115.1(10) . .
C6 O4 Zn1 129.6(7) . 1_565
loop_
_geom_bond_atom_site_label_1
_geom_bond_atom_site_label_2
_geom_bond_distance
_geom_bond_site_symmetry_2
Zn1 O2 1.987(7) 2_647
Zn1 O3 2.003(7) 2_747
Zn1 O4 2.053(9) 1_545
Zn1 N1 2.071(11) .
Zn1 O1 2.197(9) .
N1 C1 1.445(17) .
C1 C2 1.539(16) .
C2 O1 1.253(14) .
C2 N3 1.293(17) .
N3 C3 1.476(16) .
C3 C4 1.522(14) .
C3 C5 1.52(2) .
C4 O2 1.252(14) .
C4 O3 1.271(13) .
O2 Zn1 1.987(7) 2_657
O3 Zn1 2.003(7) 2_757
C5 C6 1.511(19) .
C6 O5 1.239(14) .
C6 O4 1.288(16) .
O4 Zn1 2.053(9) 1_565
loop_
_geom_hbond_atom_site_label_D
_geom_hbond_atom_site_label_H
_geom_hbond_atom_site_label_A
_geom_hbond_distance_DH
_geom_hbond_distance_HA
_geom_hbond_distance_DA
_geom_hbond_angle_DHA
_geom_hbond_site_symmetry_A
N1 H1A O5 0.948(15) 2.61(4) 3.521(13) 161(9) 2_746
N1 H1B O1W 0.946(15) 2.03(2) 2.910(13) 154(4) 2_646
C1 H1C O3 0.97 2.49 3.128(15) 123.5 2_647
C1 H1D O1W 0.97 2.43 2.929(14) 111.4 .
N3 H3 O5 0.86 2.22 3.053(13) 162.7 1_455
C3 H3A O2 0.98 2.33 3.171(12) 143.0 1_655
C5 H5B O1 0.97 2.50 3.416(15) 157.4 2_757
O1W H1X O4 0.948(15) 1.83(6) 2.714(11) 155(12) 2_746
O1W H1Y O5 0.951(15) 1.98(6) 2.818(12) 146(9) .
loop_
_geom_torsion_atom_site_label_1
_geom_torsion_atom_site_label_2
_geom_torsion_atom_site_label_3
_geom_torsion_atom_site_label_4
_geom_torsion
_geom_torsion_site_symmetry_4
Zn1 N1 C1 C2 37.2(11) .
N1 C1 C2 O1 -15.7(15) .
N1 C1 C2 N3 162.6(10) .
N3 C2 O1 Zn1 169.1(9) .
C1 C2 O1 Zn1 -12.7(13) .
O1 C2 N3 C3 -1.4(16) .
C1 C2 N3 C3 -179.6(9) .
C2 N3 C3 C4 -91.7(13) .
C2 N3 C3 C5 148.5(10) .
N3 C3 C4 O2 -26.9(18) .
C5 C3 C4 O2 94.3(15) .
N3 C3 C4 O3 152.2(14) .
C5 C3 C4 O3 -86.6(17) .
O3 C4 O2 Zn1 17(2) 2_657
C3 C4 O2 Zn1 -164.4(10) 2_657
O2 C4 O3 Zn1 173.3(9) 2_757
C3 C4 O3 Zn1 -6(3) 2_757
N3 C3 C5 C6 -62.8(12) .
C4 C3 C5 C6 175.0(10) .
C3 C5 C6 O5 -22.8(17) .
C3 C5 C6 O4 159.5(10) .
O5 C6 O4 Zn1 -138.5(10) 1_565
C5 C6 O4 Zn1 39.2(15) 1_565
