#------------------------------------------------------------------------------
#$Date: 2016-03-24 14:28:49 +0200 (Thu, 24 Mar 2016) $
#$Revision: 179665 $
#$URL: svn://www.crystallography.net/cod/cif/4/51/18/4511883.cif $
#------------------------------------------------------------------------------
#
# This file is available in the Crystallography Open Database (COD),
# http://www.crystallography.net/
#
# All data on this site have been placed in the public domain by the
# contributors.
#
data_4511883
loop_
_publ_author_name
'Harada, Jun'
'Ogawa, Keiichiro'
_publ_section_title
;
 What Molecules Are Likely or Unlikely To Undergo Pedal Motions in
 Crystals?
;
_journal_issue                   10
_journal_name_full               'Crystal Growth &amp; Design'
_journal_page_first              5182
_journal_paper_doi               10.1021/cg500962y
_journal_volume                  14
_journal_year                    2014
_chemical_formula_moiety         'C14 H10 Cl2'
_chemical_formula_sum            'C14 H10 Cl2'
_chemical_formula_weight         249.12
_chemical_name_systematic
;
 ?
;
_space_group_crystal_system      monoclinic
_space_group_IT_number           14
_space_group_name_Hall           '-P 2yn'
_space_group_name_H-M_alt        'P 1 21/n 1'
_symmetry_space_group_name_Hall  '-P 2yn'
_symmetry_space_group_name_H-M   'P 1 21/n 1'
_atom_sites_solution_hydrogens   geom
_atom_sites_solution_primary     direct
_audit_creation_date             2014-06-26
_audit_creation_method
;
Olex2 1.2
(compiled 2014.06.23 svn.r2946 for OlexSys, GUI svn.r4855)
;
_cell_angle_alpha                90
_cell_angle_beta                 110.843(1)
_cell_angle_gamma                90
_cell_formula_units_Z            2
_cell_length_a                   5.6160(2)
_cell_length_b                   17.1845(7)
_cell_length_c                   6.2868(3)
_cell_measurement_reflns_used    7105
_cell_measurement_temperature    90
_cell_measurement_theta_max      30.003
_cell_measurement_theta_min      2.370
_cell_volume                     567.02(4)
_computing_cell_refinement       'SAINT v6.28A (Bruker, 2002)'
_computing_data_collection       'SMART v5.054 (Bruker, 1998)'
_computing_data_reduction        'SAINT v6.28A (Bruker, 2002)'
_computing_molecular_graphics    'Olex2 (Dolomanov et al., 2009)'
_computing_publication_material  'Olex2 (Dolomanov et al., 2009)'
_computing_structure_refinement  'ShelXL (Sheldrick, 2008)'
_computing_structure_solution    'ShelXS (Sheldrick, 2008)'
_diffrn_ambient_temperature      90
_diffrn_detector_area_resol_mean 8.192
_diffrn_measured_fraction_theta_full 0.999
_diffrn_measured_fraction_theta_max 0.997
_diffrn_measurement_device_type  'Bruker SMART 1000'
_diffrn_measurement_method       \w_scan
_diffrn_radiation_type           MoK\a
_diffrn_radiation_wavelength     0.71073
_diffrn_reflns_av_R_equivalents  0.0144
_diffrn_reflns_av_unetI/netI     0.0092
_diffrn_reflns_Laue_measured_fraction_full 0.999
_diffrn_reflns_Laue_measured_fraction_max 0.997
_diffrn_reflns_limit_h_max       7
_diffrn_reflns_limit_h_min       -7
_diffrn_reflns_limit_k_max       24
_diffrn_reflns_limit_k_min       -24
_diffrn_reflns_limit_l_max       8
_diffrn_reflns_limit_l_min       -8
_diffrn_reflns_number            8610
_diffrn_reflns_point_group_measured_fraction_full 0.999
_diffrn_reflns_point_group_measured_fraction_max 0.997
_diffrn_reflns_theta_full        25.242
_diffrn_reflns_theta_max         30.003
_diffrn_reflns_theta_min         2.370
_diffrn_source                   'sealed X-ray tube'
_exptl_absorpt_coefficient_mu    0.537
_exptl_absorpt_correction_T_max  1
_exptl_absorpt_correction_T_min  0.938281
_exptl_absorpt_correction_type   multi-scan
_exptl_absorpt_process_details
'SADABS v.2.03 (Bruker,200?) was used for absorption correction. R(int) was 0.0229 before and 0.0145 after correction. The Ratio of minimum to maximum transmission is 0.9383. The \l/2 correction factor is 0.0015.'
_exptl_crystal_colour            colourless
_exptl_crystal_colour_primary    colourless
_exptl_crystal_density_diffrn    1.459
_exptl_crystal_description       block
_exptl_crystal_F_000             256
_exptl_crystal_size_max          0.44
_exptl_crystal_size_mid          0.44
_exptl_crystal_size_min          0.2
_refine_diff_density_max         0.335
_refine_diff_density_min         -0.195
_refine_diff_density_rms         0.041
_refine_ls_extinction_method     none
_refine_ls_goodness_of_fit_ref   1.107
_refine_ls_hydrogen_treatment    constr
_refine_ls_matrix_type           full
_refine_ls_number_parameters     106
_refine_ls_number_reflns         1645
_refine_ls_number_restraints     251
_refine_ls_restrained_S_all      1.059
_refine_ls_R_factor_all          0.0215
_refine_ls_R_factor_gt           0.0208
_refine_ls_shift/su_max          0.000
_refine_ls_shift/su_mean         0.000
_refine_ls_structure_factor_coef Fsqd
_refine_ls_weighting_details
'w=1/[\s^2^(Fo^2^)+(0.0232P)^2^+0.1815P] where P=(Fo^2^+2Fc^2^)/3'
_refine_ls_weighting_scheme      calc
_refine_ls_wR_factor_gt          0.0532
_refine_ls_wR_factor_ref         0.0537
_reflns_Friedel_coverage         0.000
_reflns_number_gt                1591
_reflns_number_total             1645
_reflns_threshold_expression     'I > 2\s(I)'
_cod_data_source_file            cg500962y_si_001.cif
_cod_data_source_block           aaClEST90K
_cod_depositor_comments
'Adding full bibliography for 4511872--4511883.cif.'
_cod_database_code               4511883
#BEGIN Tags that were not found in dictionaries:
_shelxl_version_number           2013-4
_shelx_space_group_comment
;
The symmetry employed for this shelxl refinement is uniquely defined
by the following loop, which should always be used as a source of
symmetry information in preference to the above space-group names.
They are only intended as comments.
;
_shelx_estimated_absorpt_t_max   0.900
_shelx_estimated_absorpt_t_min   0.798
_olex2_refinement_description
;
1. Fixed Uiso
 At 1.2 times of:
  All C(H) groups
2. Restrained distances
 C7-C7_$1 \\sim C7'-C7'_$1
 with sigma of 0.02
3. Uiso/Uaniso restraints and constraints
All non-hydrogen atoms have similar U: within 1.7A with sigma of 0.04 and sigma
for terminal atoms of 0.08
4. Rigid body (RIGU) restrains
 All non-hydrogen atoms
 with sigma for 1-2 distances of 0.004 and sigma for 1-3 distances of 0.004
5. Same fragment restrains
{C1, C2, C3, C4, C5, C6, C7, Cl1}
as
{C1', C2', C3', C4', C5', C6', C7', Cl1'}
6. Others
 Sof(C1')=Sof(C2')=Sof(H2')=Sof(C3')=Sof(H3')=Sof(C4')=Sof(H4')=Sof(C5')=
 Sof(H5')=Sof(C6')=Sof(H6')=Sof(C7')=Sof(Cl1')=1-FVAR(1)
 Sof(C1)=Sof(C2)=Sof(H2)=Sof(C3)=Sof(H3)=Sof(C4)=Sof(H4)=Sof(C5)=Sof(H5)=
 Sof(C6)=Sof(H6)=Sof(C7)=Sof(Cl1)=FVAR(1)
7.a Aromatic/amide H refined with riding coordinates:
 C2(H2), C3(H3), C4(H4), C5(H5), C6(H6), C2'(H2'), C3'(H3'), C4'(H4'),
 C5'(H5'), C6'(H6')
;
_shelx_res_file
;
TITL (E)-alpha,alpha'-dichlorostilbene at 90 K in P2(1)/n
CELL 0.71073   5.6160  17.1845   6.2868  90.000 110.843  90.000
ZERR    2.00   0.0002   0.0007   0.0003   0.000   0.001   0.000
LATT 1
SYMM 0.5-X, 0.5+Y, 0.5-Z
SFAC C  H  Cl
UNIT 28 20 4
LIST 4
L.S. 6
BOND $H
CONF
FMAP 2
PLAN 20
ACTA
SIZE 0.2 0.44 0.44
TEMP -183
RIGU
SIMU
EQIV $1 1-x, 1-y, -z
SADI C7 C7_$1 C7' C7'_$1
WGHT    0.023200    0.181500
FVAR       1.15503   0.74196
PART 1
C1    1    0.544346    0.410115    0.202077    21.00000    0.01382    0.01367 =
         0.01585   -0.00003    0.00393   -0.00057
C2    1    0.436164    0.402583    0.369666    21.00000    0.01805    0.01593 =
         0.01853    0.00059    0.00935    0.00198
AFIX  43
H2    2    0.298884    0.435211    0.367810    21.00000   -1.20000
AFIX   0
C3    1    0.532741    0.346062    0.541660    21.00000    0.01769    0.01496 =
         0.01401    0.00555    0.00443    0.00207
AFIX  43
H3    2    0.463667    0.341597    0.658845    21.00000   -1.20000
AFIX   0
C4    1    0.731535    0.296149    0.540229    21.00000    0.01529    0.01478 =
         0.01927    0.00319    0.00589    0.00630
AFIX  43
H4    2    0.788072    0.255905    0.650423    21.00000   -1.20000
AFIX   0
C5    1    0.846542    0.305730    0.376128    21.00000    0.01532    0.01973 =
         0.01631   -0.00065    0.00884   -0.00001
AFIX  43
H5    2    0.987729    0.274580    0.379881    21.00000   -1.20000
AFIX   0
C6    1    0.748263    0.361975    0.208243    21.00000    0.01724    0.01727 =
         0.01579   -0.00102    0.00595   -0.00074
AFIX  43
H6    2    0.821619    0.367918    0.094372    21.00000   -1.20000
AFIX   0
C7    1    0.442340    0.467896    0.016405    21.00000    0.01222    0.01618 =
         0.01381   -0.00084    0.00303    0.00071
CL1   3    0.140083    0.445369   -0.179554    21.00000    0.00760    0.01248 =
         0.01221   -0.00054    0.00014   -0.00274
PART 2
SAME C1 > CL1
C1'   1    0.631799    0.419908    0.235814   -21.00000    0.01420
C2'   1    0.488586    0.412997    0.373087   -21.00000    0.01981
AFIX  43
H2'   2    0.364810    0.451789    0.363961   -21.00000   -1.20000
AFIX   0
C3'   1    0.516224    0.354779    0.516565   -21.00000    0.01973
AFIX  43
H3'   2    0.402576    0.349243    0.597076   -21.00000   -1.20000
AFIX   0
C4'   1    0.704193    0.303802    0.548015   -21.00000    0.01786
AFIX  43
H4'   2    0.748100    0.267922    0.670929   -21.00000   -1.20000
AFIX   0
C5'   1    0.829621    0.304162    0.403288   -21.00000    0.01509
AFIX  43
H5'   2    0.938368    0.261391    0.407456   -21.00000   -1.20000
AFIX   0
C6'   1    0.811122    0.364067    0.244206   -21.00000    0.01837
AFIX  43
H6'   2    0.912843    0.365703    0.151627   -21.00000   -1.20000
AFIX   0
C7'   1    0.599563    0.490397    0.090446   -21.00000    0.01455
CL1'  3    0.859618    0.554493    0.180343   -21.00000    0.04221
HKLF 4

REM  (E)-alpha,alpha'-dichlorostilbene at 90 K in P2(1)/n
REM R1 =  0.0208 for    1591 Fo > 4sig(Fo)  and  0.0215 for all    1645 data
REM    106 parameters refined using    251 restraints

END

WGHT      0.0232      0.1815

REM Highest difference peak  0.335,  deepest hole -0.195,  1-sigma level  0.041
Q1    1   0.5337  0.4893 -0.0256  11.00000  0.05    0.33
Q2    1   0.7960  0.3362  0.3021  11.00000  0.05    0.32
Q3    1   0.4830  0.4004  0.2774  11.00000  0.05    0.30
Q4    1   0.5141  0.4434  0.1154  11.00000  0.05    0.30
Q5    1   0.6732  0.3903  0.2268  11.00000  0.05    0.29
Q6    1   0.4573  0.3661  0.4156  11.00000  0.05    0.18
Q7    1   0.5457  0.3879  0.4760  11.00000  0.05    0.18
Q8    1   0.5953  0.3115  0.5066  11.00000  0.05    0.17
Q9    1   0.1451  0.3983 -0.1736  11.00000  0.05    0.15
Q10   1   0.8451  0.5499  0.2999  11.00000  0.05    0.15
Q11   1   0.6735  0.3373  0.5699  11.00000  0.05    0.14
Q12   1   0.6962  0.2365  0.6108  11.00000  0.05    0.12
Q13   1   0.1094  0.4449 -0.0592  11.00000  0.05    0.11
Q14   1   0.3338  0.4664 -0.0450  11.00000  0.05    0.11
Q15   1   0.9798  0.2436  0.3406  11.00000  0.05    0.10
Q16   1   0.8569  0.2796  0.7121  11.00000  0.05    0.09
Q17   1   0.8952  0.1726  0.5004  11.00000  0.05    0.08
Q18   1   0.2423  0.3814 -0.0159  11.00000  0.05    0.07
Q19   1   0.8809  0.5058  0.1648  11.00000  0.05    0.07
Q20   1   0.7671  0.2004  0.6186  11.00000  0.05    0.07
;
_shelx_res_checksum              49716
_shelx_hkl_file
;
   1   0   0    0.35    0.10   3
   2   0   0    0.65    0.17   1
   2   0   0    0.81    0.16   2
   2   0   0    0.85    0.19   4
   2   0   0    0.45    0.16   3
   3   0   0   -0.67    0.23   3
   3   0   0    0.05    0.23   2
   3   0   0   -0.67    0.24   1
   3   0   0    0.07    0.25   4
   4   0   0  255.33    4.45   2
   4   0   0  257.60    4.86   3
   4   0   0  255.88    4.61   4
   4   0   0  251.92    4.59   1
   5   0   0    0.55    0.39   1
   5   0   0   -0.03    0.34   4
   5   0   0   -0.35    0.32   2
   5   0   0   -0.27    0.32   3
   6   0   0   73.99    1.98   2
   6   0   0   71.00    2.07   1
   6   0   0   72.60    2.07   4
   0   1   0    0.02    0.02   2
   0   1   0    0.12    0.03   3
   0  -1   0    0.13    0.03   1
   1   1   0  610.26    9.39   1
   1  -1   0  619.90    9.40   1
   1   1   0  579.80   10.01   3
   1  -1   0  580.32    9.32   2
   1   1   0  589.58    9.19   2
   1  -1   0  611.47   10.04   3
   1  -1   0  578.58    9.41   4
   1   1   0  598.30    9.48   4
   2  -1   0   30.79    0.82   3
   2   1   0   30.27    0.81   3
   2  -1   0   30.80    0.82   4
   2  -1   0   28.92    0.70   2
   2   1   0   30.41    0.77   4
   2   1   0   31.70    0.78   2
   2  -1   0   31.30    0.79   1
   2   1   0   30.71    0.79   1
   3   1   0 3072.76   50.33   3
   3   1   0 3063.56   47.13   1
   3  -1   0 3075.29   47.13   1
   3  -1   0 3054.53   46.18   2
   3   1   0 3119.92   47.43   4
   3   1   0 3021.53   46.21   2
   3  -1   0 3012.57   50.33   3
   3  -1   0 3103.50   47.46   4
   4   1   0   -0.07    0.30   3
   4   1   0    1.16    0.32   2
   4  -1   0    0.18    0.33   1
   4   1   0   -0.28    0.30   1
   4  -1   0    0.34    0.30   3
   4  -1   0    0.90    0.35   4
   4   1   0    0.24    0.31   4
   4  -1   0    0.21    0.27   2
   5  -1   0   51.73    1.58   1
   5   1   0   49.17    1.52   1
   5   1   0   51.41    1.62   3
   5   1   0   52.27    1.52   2
   5  -1   0   52.74    1.59   4
  -5   1   0   52.04    1.63   3
   5  -1   0   50.99    1.44   2
   5   1   0   52.73    1.54   4
   6   1   0   -0.32    0.44   1
   6   1   0   -0.02    0.44   4
   6  -1   0   -0.64    0.42   1
   6  -1   0    0.37    0.48   4
   6   1   0   -0.49    0.43   2
   7  -1   0  517.53    9.26   1
  -7   1   0  510.51    9.34   4
   0   2   0 1677.75   29.05   3
   0  -2   0 1793.59   29.99   4
   0  -2   0 1654.66   27.15   1
   0   2   0 1777.34   27.91   2
  -1   2   0  256.00    4.41   3
   1   2   0  254.76    4.07   2
  -1  -2   0  256.79    3.65   5
  -1  -2   0  256.75    4.14   1
   1  -2   0  261.20    4.18   4
   1  -2   0  252.61    4.13   1
   1   2   0  249.75    4.39   3
   2  -2   0  582.42    9.28   1
   2  -2   0  579.12    9.36   4
   2   2   0  594.05    9.29   1
   2   2   0  584.92    9.12   2
   2  -2   0  576.84    9.01   2
   2   2   0  588.66    9.28   4
  -2   2   0  582.22    9.88   3
   2   2   0  588.72    9.89   3
   3   2   0  574.94    9.32   1
   3  -2   0  583.75    9.01   2
   3  -2   0  575.90    9.42   4
   3   2   0  579.96    9.30   4
  -3   2   0  571.37    9.90   3
   3   2   0  563.02    9.15   2
   3  -2   0  582.92    9.32   1
   3   2   0  582.62    9.90   3
   4  -2   0  792.51   13.28   4
  -4   2   0  817.12   14.00   3
   4  -2   0  832.68   12.77   2
   4   2   0  826.14   13.18   4
   4   2   0  801.56   13.17   1
   4   2   0  825.79   12.95   2
   4   2   0  810.50   14.00   3
   4  -2   0  841.04   13.20   1
   5  -2   0  390.11    6.91   1
  -5   2   0  398.09    7.30   3
   5   2   0  398.03    6.79   2
   5  -2   0  394.10    6.58   2
   5   2   0  392.60    7.30   3
   5   2   0  389.49    6.85   4
   5  -2   0  386.43    6.99   4
   5   2   0  394.47    6.93   1
   6  -2   0   22.64    1.19   4
   6   2   0   17.78    1.11   3
   6   2   0   20.86    1.13   1
   6  -2   0   19.48    1.13   1
   6   2   0   20.91    1.13   2
  -7   2   0   11.31    1.11   4
   0  -3   0   -0.11    0.07   4
   0   3   0    0.15    0.08   2
   0  -3   0    0.19    0.10   1
   0   3   0    0.06    0.10   3
   1   3   0  456.88    7.19   2
   1  -3   0  462.11    7.37   4
   1  -3   0  461.01    7.32   1
   1   3   0  466.43    7.81   3
  -1  -3   0  459.25    7.32   1
  -1   3   0  464.51    7.82   3
   2  -3   0 2011.61   31.58   4
   2  -3   0 2034.97   31.36   1
   2   3   0 2138.31   31.62   4
   2   3   0 2018.16   33.48   3
   2  -3   0 2031.24   30.94   2
  -2   3   0 1953.46   33.46   3
   2   3   0 2063.60   31.37   1
   2   3   0 2017.71   30.78   2
   3   3   0    1.28    0.32   1
   3   3   0    2.02    0.28   4
   3   3   0    2.20    0.33   2
   3  -3   0    1.84    0.29   1
   3  -3   0    2.43    0.35   4
   3  -3   0    1.87    0.24   2
   3   3   0    1.83    0.29   3
  -3   3   0    1.71    0.31   3
   4   3   0  147.63    2.96   2
   4   3   0  145.05    3.11   3
  -4   3   0  145.85    3.12   3
   4  -3   0  148.70    2.98   1
   4  -3   0  152.76    2.73   2
   4   3   0  152.10    2.88   4
   4   3   0  152.16    3.01   1
   4  -3   0  149.04    3.06   4
   5   3   0    1.72    0.49   1
   5   3   0    1.20    0.41   4
  -5   3   0    0.62    0.45   3
   5  -3   0    0.74    0.41   1
   5  -3   0    1.93    0.50   4
   5   3   0    1.13    0.44   2
   5   3   0    0.89    0.42   3
   6   3   0  422.93    7.87   3
   6  -3   0  398.59    7.43   1
   6  -3   0  412.00    7.56   4
   6   3   0  415.50    7.34   2
   0  -4   0  551.40    8.97   4
   0   4   0  557.95    9.44   3
   0  -4   0  564.91    8.85   1
   0   4   0  569.17    8.69   2
   1   4   0 8301.78  123.25   2
  -1   4   0 8387.35  134.37   3
   1  -4   0 7879.47  125.60   1
   1  -4   0 8287.29  126.56   4
  -2  -4   0  148.45    2.66   1
  -2   4   0  146.70    2.82   3
   2  -4   0  146.38    2.70   4
   2   4   0  147.07    2.65   2
  -2  -4   0  147.28    2.34   5
   2   4   0  143.74    2.79   3
   2  -4   0  145.04    2.65   1
   2   4   0  149.06    2.50   4
   3  -4   0  191.73    3.64   4
   3  -4   0  195.31    3.23   2
   3   4   0  201.30    3.77   3
  -3  -4   0  194.48    3.56   1
  -3   4   0  194.21    3.76   3
   3   4   0  200.58    3.42   4
   3  -4   0  199.10    3.57   1
  -3  -4   0  199.13    3.15   5
   3   4   0  196.38    3.55   2
  -4   4   0  242.49    4.74   3
   4  -4   0  249.06    4.51   1
   4   4   0  247.92    4.35   4
   4  -4   0  242.21    4.59   4
   4  -4   0  248.89    4.13   2
   4   4   0  252.09    4.50   2
   4   4   0  245.02    4.73   3
  -5  -4   0  365.54    5.74   5
   5  -4   0  360.36    6.49   1
  -5   4   0  359.37    6.84   3
   5  -4   0  367.42    6.64   4
  -5  -4   0  363.96    6.50   1
   5   4   0  369.17    6.46   2
   5   4   0  360.93    6.83   3
   6  -4   0    3.82    0.72   4
   6  -4   0    2.46    0.61   1
   6   4   0    4.27    0.68   2
   6   4   0    2.03    0.62   3
  -6  -4   0    2.59    0.57   5
  -6  -4   0    2.59    0.66   1
   7  -4   0    0.07    0.55   4
   7   4   0    0.54    0.60   2
   0   5   0    0.56    0.18   3
   1  -5   0  468.17    7.54   4
   1  -5   0  468.91    7.53   1
  -1  -5   0  469.15    7.53   1
   1   5   0  466.46    7.37   2
   1   5   0  477.05    8.03   3
   2   5   0 1967.96   33.40   3
  -2  -5   0 2053.02   31.31   1
  -2   5   0 2050.19   33.45   3
   2   5   0 2104.68   30.77   2
   2  -5   0 1957.68   31.29   1
  -2  -5   0 2073.64   31.67   4
   2  -5   0 1987.01   31.52   4
  -3  -5   0   60.11    1.48   1
   3   5   0   63.44    1.30   4
   3  -5   0   59.87    1.53   4
  -3   5   0   59.75    1.55   3
   3   5   0   61.67    1.54   3
   3  -5   0   60.31    1.47   1
   3   5   0   60.90    1.51   2
  -3  -5   0   60.12    1.30   5
  -4  -5   0  454.75    6.85   5
   4   5   0  458.43    7.55   4
   4  -5   0  457.93    7.90   4
  -4  -5   0  462.31    7.78   1
  -4   5   0  458.75    8.23   3
   4   5   0  451.88    8.20   3
   4  -5   0  458.85    7.76   1
   4   5   0  463.67    7.71   2
   5   5   0    0.92    0.44   2
   5   5   0    0.10    0.36   3
   5  -5   0    0.27    0.37   1
   5  -5   0    0.62    0.45   4
  -5   5   0    0.13    0.43   3
  -5  -5   0   -0.32    0.34   5
  -5  -5   0   -0.43    0.39   1
  -6  -5   0  572.33    9.99   1
   6   5   0  585.23   10.56   3
   6   5   0  576.49    9.90   2
   6  -5   0  570.31   10.15   4
  -6  -5   0  577.08    8.82   5
   6  -5   0  572.42    9.98   1
   7  -5   0    7.77    0.96   4
   7   5   0    7.68    0.95   2
   0   6   0  314.71    5.08   2
   0  -6   0  321.30    5.20   4
   0  -6   0  318.94    5.31   1
   0   6   0  337.83    5.68   3
  -1  -6   0  768.17   12.10   1
   1   6   0  769.06   12.91   3
   1  -6   0  776.56   12.11   1
   1  -6   0  758.66   12.12   4
   1   6   0  763.26   11.85   2
   2   6   0   45.12    1.20   3
   2   6   0   46.87    1.18   2
  -2  -6   0   45.08    1.17   1
  -2   6   0   44.39    1.22   3
   2  -6   0   46.52    1.19   4
   3  -6   0  401.46    6.74   1
  -3  -6   0  398.48    5.93   5
  -3   6   0  398.30    7.15   3
  -3  -6   0  397.47    6.73   1
   3   6   0  397.45    7.12   3
   3  -6   0  393.32    6.83   4
   3   6   0  404.95    6.69   2
  -3  -6   0  405.68    6.48   4
  -4  -6   0  219.09    4.14   1
  -4  -6   0  221.28    3.66   5
   4  -6   0  217.59    4.24   4
   4   6   0  223.68    4.17   2
  -4   6   0  219.24    4.37   3
   4   6   0  214.84    4.33   3
   4  -6   0  219.86    4.14   1
  -5   6   0  152.40    3.41   3
   5   6   0  150.14    3.27   2
  -5  -6   0  150.54    3.24   1
   5   6   0  146.41    3.34   3
   5  -6   0  148.47    3.34   4
   5  -6   0  146.39    3.21   1
  -5  -6   0  153.01    2.87   5
  -6  -6   0   20.34    1.13   5
   6   6   0   24.59    1.26   2
  -6  -6   0   22.94    1.30   1
   6  -6   0   22.16    1.19   1
   6   6   0   23.16    1.27   3
   6  -6   0   22.08    1.26   4
   7  -6   0    0.66    0.66   4
   7   6   0    0.37    0.62   2
   0   7   0   -0.10    0.13   2
   0  -7   0   -0.12    0.16   1
   0   7   0    0.04    0.18   3
   0  -7   0    0.14    0.14   4
   1   7   0  732.32   11.32   2
  -1  -7   0  713.75   11.57   1
   1  -7   0  733.52   11.59   1
   1  -7   0  727.76   11.57   4
   1   7   0  739.34   12.35   3
  -2  -7   0  445.32    7.26   1
   2  -7   0  438.44    7.30   4
   2   7   0  435.77    7.13   2
  -2   7   0  437.24    7.73   3
   2   7   0  442.55    7.69   3
   2  -7   0  437.63    7.25   1
  -3  -7   0  358.28    5.72   4
   3  -7   0  348.99    6.06   1
  -3  -7   0  356.03    6.07   1
  -3   7   0  346.70    6.44   3
   3  -7   0  354.28    6.16   4
   3   7   0  354.00    6.41   3
   3   7   0  354.04    6.03   2
   4   7   0   41.13    1.37   3
  -4   7   0   40.39    1.41   3
   4   7   0   42.68    1.40   2
   4  -7   0   40.24    1.39   4
  -4  -7   0   42.61    1.37   1
   4  -7   0   40.08    1.33   1
  -5   7   0   50.25    1.71   3
   5   7   0   46.64    1.61   2
   5   7   0   49.40    1.63   3
  -5  -7   0   48.25    1.42   5
   5  -7   0   48.47    1.66   4
  -5  -7   0   47.95    1.61   1
   5  -7   0   46.62    1.54   1
   6  -7   0  117.80    2.96   1
  -6  -7   0  123.59    3.03   1
   6  -7   0  120.43    3.10   4
   6   7   0  124.80    3.12   3
   6   7   0  121.59    3.06   2
   7  -7   0  288.09    6.07   4
   7   7   0  295.57    5.96   2
   0   8   0 2550.96   38.80   2
   0   8   0 2485.09   42.32   3
   0  -8   0 2656.38   39.94   4
   0  -8   0 2597.79   39.64   1
   1  -8   0  382.30    6.32   4
   1   8   0  383.47    6.21   2
   1  -8   0  382.03    6.40   1
  -1  -8   0  389.82    6.42   1
   1   8   0  388.89    6.81   3
  -1   8   0  383.21    6.83   3
  -2   8   0  160.36    3.27   3
   2  -8   0  162.73    3.08   1
   2  -8   0  160.71    3.07   4
  -2  -8   0  164.42    3.09   1
   2   8   0  165.01    3.24   3
   2   8   0  162.79    3.04   2
  -3  -8   0   56.87    1.52   1
   3  -8   0   59.04    1.55   1
   3  -8   0   56.29    1.55   4
   3   8   0   55.96    1.54   2
   3   8   0   56.61    1.57   3
  -3   8   0   55.42    1.60   3
   4  -8   0  822.75   13.68   4
   4  -8   0  833.14   13.51   1
   4   8   0  850.70   14.35   3
   4   8   0  834.02   13.38   2
  -4   8   0  799.71   14.36   3
  -4  -8   0  828.44   13.50   1
   5  -8   0   98.00    2.57   4
   5   8   0   98.24    2.53   2
   5  -8   0   96.41    2.43   1
   5   8   0  102.93    2.59   3
  -5   8   0   99.33    2.61   3
  -5  -8   0  100.76    2.50   1
   6  -8   0  233.88    4.81   1
   6  -8   0  229.08    4.94   4
   6   8   0  231.90    4.87   2
  -6  -8   0  236.82    4.83   1
  -6   8   0  235.57    5.09   3
   0  -9   0    0.07    0.15   4
   0  -9   0    0.26    0.22   1
   0   9   0    0.13    0.17   2
   1  -9   0  624.85    9.97   4
  -1   9   0  616.39   10.74   3
  -1  -9   0  617.17   10.05   1
   1  -9   0  622.03   10.05   1
   1   9   0  616.59    9.77   2
   1   9   0  626.54   10.71   3
   2  -9   0    3.17    0.40   4
  -2   9   0    6.19    0.60   3
   2   9   0    3.18    0.40   3
   3   9   0  974.65   16.40   3
   3  -9   0  951.00   15.54   4
   3  -9   0  960.52   15.43   1
  -3  -9   0  964.43   15.44   1
   3   9   0  970.44   15.22   2
  -3   9   0  951.31   16.46   3
   4  -9   0    1.49    0.49   4
  -4   9   0    2.08    0.52   3
   4   9   0    1.88    0.51   2
  -4  -9   0    1.79    0.48   1
   4  -9   0    1.67    0.43   1
   4   9   0    1.31    0.43   3
   5  -9   0   89.69    2.44   4
   5  -9   0   88.15    2.32   1
  -5  -9   0   91.17    2.37   1
   5   9   0   89.08    2.40   2
   5   9   0   90.82    2.42   3
  -5   9   0   86.68    2.46   3
   6  -9   0   47.35    1.84   4
  -6  -9   0   46.35    1.79   1
   6  -9   0   45.91    1.71   1
  -6   9   0   49.82    1.91   3
   6   9   0   49.60    1.86   2
   0 -10   0  550.67    9.00   1
   0 -10   0  558.52    8.73   4
   0  10   0  543.90    9.59   3
   0  10   0  539.24    8.58   2
   1 -10   0  144.75    2.84   1
   1  10   0  144.93    2.69   2
  -1  10   0  141.47    3.02   3
   1  10   0  144.02    3.00   3
   1 -10   0  145.07    2.68   4
  -1 -10   0  142.68    2.84   1
  -2 -10   0    4.05    0.47   1
   2  10   0    4.07    0.46   3
  -2  10   0    4.05    0.49   3
   2  10   0    4.72    0.47   2
   2 -10   0    4.66    0.47   1
   2 -10   0    4.51    0.46   4
   3  10   0   65.34    1.80   3
  -3 -10   0   66.05    1.78   1
   3 -10   0   63.75    1.75   4
   3 -10   0   67.63    1.77   1
   3  10   0   67.95    1.79   2
  -3  10   0   66.84    1.89   3
   4 -10   0  311.45    5.71   1
   4  10   0  309.21    5.70   2
   4  10   0  314.77    5.99   3
  -4  10   0  301.25    6.04   3
  -4 -10   0  309.79    5.70   1
   4 -10   0  307.82    5.78   4
  -5  10   0   41.94    1.63   3
  -5 -10   0   43.43    1.58   1
   5  10   0   44.21    1.60   3
   5  10   0   40.03    1.56   2
   5 -10   0   40.98    1.59   4
   5 -10   0   42.88    1.55   1
   6  10   0   92.99    2.70   2
  -6 -10   0   94.57    2.64   1
   6 -10   0   93.92    2.60   1
  -6  10   0   94.39    2.77   3
   6 -10   0   96.68    2.75   4
   0 -11   0    0.74    0.29   1
   0  11   0    1.04    0.34   3
   1  11   0  716.53   12.60   3
  -1  11   0  733.83   12.67   3
  -1 -11   0  733.62   11.86   1
   1  11   0  723.83   11.49   2
   1 -11   0  739.67   11.70   4
   1 -11   0  731.45   11.86   1
   2 -11   0  819.96   13.48   1
  -2  11   0  812.76   14.37   3
   2  11   0  830.23   14.32   3
   2 -11   0  834.99   13.45   4
  -2 -11   0  853.23   13.51   1
   2  11   0  844.39   13.21   2
  -3  11   0  271.59    5.42   3
   3 -11   0  272.88    5.09   4
   3 -11   0  277.60    5.08   1
  -3 -11   0  276.22    5.10   1
   3  11   0  278.17    5.35   3
   3  11   0  271.86    5.03   2
   4  11   0    1.64    0.49   2
   4 -11   0    2.13    0.47   1
  -4  11   0    1.66    0.53   3
   4 -11   0    1.91    0.52   4
   4  11   0    1.89    0.47   3
  -4 -11   0    1.42    0.50   1
  -5  11   0   49.50    1.86   3
   5 -11   0   47.79    1.76   4
   5 -11   0   49.30    1.72   1
   5  11   0   48.71    1.76   2
  -5 -11   0   51.99    1.79   1
   5  11   0   50.95    1.79   3
   6 -11   0   43.32    1.70   1
  -6  11   0   42.87    1.86   3
   6 -11   0   43.17    1.80   4
   6  11   0   44.32    1.82   2
  -6 -11   0   49.65    1.85   1
   0  12   0  476.56    8.65   3
   0 -12   0  491.10    7.76   4
   0 -12   0  474.48    8.11   1
   0  12   0  484.74    7.68   2
   1 -12   0  448.64    7.35   4
   1  12   0  430.70    8.01   3
   1 -12   0  445.04    7.57   1
  -1 -12   0  447.88    7.58   1
  -1  12   0  446.69    8.08   3
   1  12   0  440.54    7.26   2
   2 -12   0  484.27    8.17   4
  -2  12   0  482.39    8.83   3
   2  12   0  480.13    8.74   3
   2  12   0  491.64    8.07   2
  -2 -12   0  492.32    8.29   1
   2 -12   0  479.01    8.26   1
   3  12   0   43.69    1.51   3
   3  12   0   46.53    1.48   2
  -3  12   0   42.40    1.55   3
   3 -12   0   43.93    1.44   1
   3 -12   0   41.77    1.41   4
  -3 -12   0   41.83    1.44   1
  -4 -12   0  123.83    2.89   1
  -4  12   0  122.72    3.06   3
   4 -12   0  121.63    2.89   4
   4 -12   0  117.44    2.82   1
   4  12   0  119.39    2.94   3
   4  12   0  120.45    2.88   2
  -5  12   0  724.54   13.48   3
   5  12   0  761.43   13.41   3
  -5 -12   0  754.78   12.71   1
   5  12   0  744.07   12.59   2
   5 -12   0  750.57   12.67   1
   5 -12   0  741.61   12.83   4
   6  12   0    3.55    0.76   2
   6 -12   0    4.24    0.72   1
   6 -12   0    4.98    0.87   4
  -6 -12   0    3.03    0.78   1
   0  13   0    1.08    0.40   3
  -1  13   0  276.26    5.41   3
   1 -13   0  280.22    4.82   4
   1 -13   0  277.83    5.09   1
   1  13   0  276.55    5.38   3
   1  13   0  273.34    4.80   2
  -1 -13   0  273.61    5.08   1
  -2 -13   0  753.47   12.62   1
   2  13   0  766.87   13.38   3
   2 -13   0  773.07   12.64   1
  -2  13   0  773.97   13.49   3
   2  13   0  759.64   12.29   2
   2 -13   0  767.81   12.51   4
  -3  13   0   23.93    1.22   3
   3  13   0   22.31    1.07   2
  -3 -13   0   25.35    1.14   1
   3 -13   0   23.11    1.08   4
   3 -13   0   24.80    1.12   1
   3  13   0   26.17    1.19   3
   4 -13   0   32.04    1.33   1
   4  13   0   32.48    1.37   2
   4 -13   0   32.54    1.36   4
  -4  13   0   32.19    1.46   3
  -4 -13   0   34.15    1.41   1
   4  13   0   34.34    1.42   3
   5 -13   0    0.86    0.51   1
   5 -13   0    1.60    0.63   4
  -5  13   0    1.32    0.68   3
   5  13   0    1.52    0.60   2
   5  13   0    1.83    0.57   3
  -5 -13   0    0.59    0.58   1
   6 -13   0   92.76    2.71   1
   6  13   0   99.57    2.88   2
  -6  13   0   96.94    2.99   3
   6 -13   0   96.87    2.88   4
   0  14   0  109.13    2.68   3
   0 -14   0  112.00    2.56   1
   0  14   0  106.33    2.17   2
   1 -14   0   99.97    2.12   4
   1 -14   0  101.49    2.41   1
   1  14   0  101.23    2.53   3
   1  14   0  100.34    2.18   2
  -1 -14   0   97.67    2.39   1
  -1  14   0   97.25    2.54   3
   2 -14   0   96.51    2.22   4
   2  14   0   93.49    2.24   2
  -2 -14   0   96.41    2.39   1
  -2  14   0   92.49    2.54   3
   2  14   0   96.26    2.48   3
   2 -14   0   94.93    2.38   1
  -3 -14   0  377.13    6.89   1
   3  14   0  385.20    7.25   3
   3 -14   0  372.81    6.80   4
  -3  14   0  382.54    7.37   3
   3 -14   0  373.92    6.85   1
  -4  14   0   26.27    1.40   3
   4  14   0   26.88    1.28   2
   4  14   0   26.10    1.31   3
   4 -14   0   26.79    1.26   4
   4 -14   0   26.65    1.26   1
  -4 -14   0   25.32    1.25   1
   5 -14   0  265.26    5.33   1
   5 -14   0  255.61    5.36   4
  -5 -14   0  253.53    5.29   1
  -5  14   0  252.15    5.63   3
   5  14   0  264.37    5.55   3
   5  14   0  259.88    5.35   2
   6 -14   0    7.25    0.99   4
   6  14   0    6.11    0.93   2
   6 -14   0    5.36    0.82   1
  -1  15   0  462.65    8.63   3
  -1 -15   0  462.45    8.10   1
   1  15   0  457.36    8.58   3
   1 -15   0  468.66    7.75   4
   1  15   0  463.74    7.70   2
   1 -15   0  463.46    8.11   1
   2  15   0  234.42    4.77   3
   2  15   0  218.57    4.30   2
   2 -15   0  226.73    4.32   4
  -3  15   0   37.79    1.62   3
   3  15   0   38.20    1.53   3
   3 -15   0   35.23    1.41   1
   3 -15   0   35.80    1.36   4
   3  15   0   37.65    1.42   2
  -3 -15   0   37.27    1.50   1
   4 -15   0   72.96    2.17   4
  -4  15   0   74.27    2.39   3
   4  15   0   71.23    2.17   2
   4  15   0   74.36    2.28   3
   4 -15   0   73.73    2.21   1
  -4 -15   0   72.16    2.21   1
  -5  15   0    4.68    0.85   3
   5 -15   0    4.63    0.82   4
   5  15   0    4.29    0.75   3
   5  15   0    3.43    0.76   2
  -5 -15   0    5.02    0.80   1
   5 -15   0    4.40    0.75   1
   0  16   0   38.33    1.54   3
   0 -16   0   40.41    1.47   1
   1  16   0 1013.70   15.78   2
   1 -16   0  990.44   16.37   1
  -1  16   0 1006.90   17.48   3
  -1 -16   0  993.58   16.38   1
   2  16   0  495.94    9.28   3
   2  16   0  504.80    8.49   2
   2 -16   0  508.08    8.56   4
  -2 -16   0  495.96    8.81   1
  -2  16   0  492.96    9.37   3
   3 -16   0   34.71    1.36   4
   3 -16   0   35.31    1.44   1
   3  16   0   35.72    1.42   2
  -3 -16   0   37.16    1.53   1
   3  16   0   35.56    1.52   3
  -3  16   0   37.16    1.64   3
   4 -16   0  371.84    7.03   1
   4 -16   0  359.40    6.93   4
   4  16   0  364.78    6.91   2
  -4  16   0  360.04    7.48   3
  -4 -16   0  368.92    7.04   1
   4  16   0  388.63    7.40   3
  -5 -16   0   36.53    1.68   1
   5 -16   0   37.05    1.67   4
   5  16   0   36.09    1.68   2
   5  16   0   39.84    1.76   3
  -5  16   0   38.10    1.82   3
   5 -16   0   34.01    1.59   1
   0 -17   0    0.00    0.40   1
   0  17   0    0.14    0.46   3
   1  17   0  864.55   13.55   2
  -1  17   0  843.30   15.07   3
  -1 -17   0  835.01   14.13   1
   2  17   0  108.53    2.58   2
   2  17   0  109.58    2.88   3
  -2  17   0  105.62    2.92   3
   2 -17   0  104.14    2.72   1
  -2 -17   0  107.50    2.76   1
  -3  17   0   54.92    2.06   3
   3  17   0   57.44    1.97   3
   3 -17   0   53.19    1.85   1
   3  17   0   54.33    1.81   2
  -3 -17   0   59.71    2.02   1
   3 -17   0   54.88    1.77   4
   4 -17   0   53.56    1.96   1
   4  17   0   59.15    2.13   3
  -4 -17   0   57.66    2.07   1
   4  17   0   54.69    1.96   2
  -4  17   0   53.97    2.14   3
   4 -17   0   53.93    1.92   4
   5  17   0    0.45    0.61   3
  -5 -17   0    0.03    0.61   1
   5 -17   0    0.12    0.54   1
   5 -17   0    0.28    0.65   4
  -5  17   0    0.19    0.74   3
   5  17   0    0.69    0.62   2
   0  18   0    0.82    0.53   3
   0 -18   0    0.77    0.48   1
   2  18   0    0.38    0.53   3
  -2  18   0    0.51    0.57   3
   2 -18   0    0.24    0.46   1
   2  18   0    1.18    0.50   2
  -2 -18   0    0.93    0.52   1
   3 -18   0   46.04    1.64   4
   3  18   0   45.54    1.67   2
  -3  18   0   45.12    1.91   3
  -3 -18   0   49.83    1.87   1
   3 -18   0   45.39    1.74   1
   3  18   0   45.76    1.81   3
   4  18   0  421.84    8.25   3
  -4 -18   0  424.63    7.93   1
   4  18   0  405.14    7.72   2
   4 -18   0  417.29    7.88   1
   4 -18   0  412.17    7.75   4
  -4  18   0  403.69    8.40   3
   0  19   0   -0.29    0.50   3
   0 -19   0    0.66    0.50   1
   1  19   0  104.32    2.91   3
  -1 -19   0  101.17    2.76   1
  -1  19   0  105.43    2.96   3
   1 -19   0  106.01    2.80   1
  -2  19   0   89.41    2.75   3
  -2 -19   0   89.09    2.58   1
   2  19   0   92.07    2.69   3
   2  19   0   86.33    2.34   2
   2 -19   0   89.19    2.58   1
   3  19   0  184.66    4.07   2
  -3  19   0  186.88    4.53   3
  -3 -19   0  188.45    4.27   1
   3 -19   0  182.47    4.20   1
   3  19   0  184.15    4.38   3
  -4  19   0    9.51    1.14   3
   4 -19   0   10.61    1.04   4
   4  19   0    9.39    1.02   3
  -4 -19   0   11.88    1.15   1
   4 -19   0   10.54    1.07   1
   4  19   0   10.37    1.04   2
   0 -20   0  867.06   14.70   1
   0  20   0  869.24   15.63   3
   1  20   0  166.38    4.09   3
   1 -20   0  168.79    3.93   1
  -1 -20   0  172.38    3.96   1
  -1  20   0  167.42    4.15   3
  -2  20   0    6.36    0.93   3
   2  20   0    6.99    0.80   2
   2 -20   0    6.90    0.88   1
  -2 -20   0    5.24    0.81   1
   2  20   0    7.38    0.90   3
   3 -20   0    0.71    0.56   1
   3  20   0    0.15    0.55   2
  -3  20   0    2.40    0.81   3
  -3 -20   0    0.06    0.57   1
   3  20   0    1.65    0.69   3
  -4  20   0   62.43    2.48   3
  -4 -20   0   64.53    2.36   1
   4  20   0   66.64    2.43   3
   4  20   0   64.83    2.27   2
   4 -20   0   64.88    2.32   1
  -1 -21   0   15.04    1.15   1
  -1  21   0   13.70    1.22   3
   1  21   0   14.39    1.20   3
   1 -21   0   15.02    1.13   1
   2  21   0  225.92    5.08   3
  -2  21   0  213.51    5.13   3
   2 -21   0  218.25    4.86   1
  -2 -21   0  210.56    4.83   1
  -3 -21   0  242.55    5.28   1
   3  21   0  237.67    5.41   3
   3 -21   0  229.48    5.16   1
  -3  21   0  234.11    5.55   3
   3  21   0  237.07    4.98   2
   0  22   0   68.62    2.45   3
   0 -22   0   66.58    2.32   1
   1  22   0   50.64    2.08   3
   1 -22   0   49.09    1.96   1
  -1  22   0   52.48    2.15   3
  -1 -22   0   50.28    1.99   1
   2  22   0    5.78    0.90   3
  -2 -22   0    4.97    0.84   1
   2 -22   0    6.18    0.91   1
  -2  22   0    5.76    0.98   3
  -3 -22   0   29.96    1.65   1
  -3  22   0   30.97    1.83   3
   3  22   0   31.65    1.58   2
   3 -22   0   29.26    1.57   1
   3  22   0   30.65    1.69   3
   0 -23   0    0.42    0.60   1
   0  23   0    0.45    0.68   3
   1 -23   0    5.92    0.88   1
  -1  23   0    5.26    0.95   3
  -1 -23   0    6.53    0.91   1
   1  23   0    6.24    0.95   3
  -2  23   0  188.58    4.77   3
  -2 -23   0  181.22    4.47   1
   2 -23   0  187.69    4.53   1
   2  23   0  183.00    4.65   3
   0  24   0   26.62    1.67   3
   0 -24   0   27.75    1.57   1
  -7   0   1   58.97    2.04   4
   7   0  -1   57.58    2.02   1
   6   0  -1   -0.33    0.44   1
  -6   0   1    0.04    0.47   4
   6   0  -1    0.07    0.43   2
  -5   0   1 1012.70   16.59   4
   5   0  -1 1023.14   16.58   1
  -5   0   1 1020.69   17.35   3
   5   0  -1 1046.76   16.10   2
   4   0  -1    0.16    0.25   2
   4   0  -1   -0.28    0.25   1
  -4   0   1   -0.26    0.31   4
   3   0  -1  529.41    8.68   1
   3   0  -1  544.00    8.43   2
  -3   0   1  523.75    8.69   4
   3   0  -1  540.32    9.07   3
  -2   0   1    0.37    0.17   4
   2   0  -1    0.24    0.18   1
   2   0  -1    0.52    0.16   2
   1   0  -1 2802.78   42.82   2
  -1   0   1 2878.22   43.94   4
   1   0  -1 2795.66   43.62   1
   0   0   1    0.38    0.09   3
   0   0  -1    0.98    0.11   2
   0   0   1    0.19    0.09   4
   1   0   1 8490.99  128.41   1
   1   0   1 8203.35  126.14   4
  -1   0  -1 7970.29  122.92   2
   1   0   1 8065.24  133.73   3
   3   0   1   81.95    1.99   3
   3   0   1   83.59    1.87   4
   3   0   1   87.42    1.77   1
   3   0   1   84.00    1.77   2
   4   0   1   -0.39    0.33   3
   4   0   1    0.72    0.37   4
  -4   0  -1    1.25    0.34   2
   4   0   1   -0.49    0.31   1
   5   0   1  445.88    8.33   3
   5   0   1  452.71    7.81   4
   5   0   1  434.49    7.63   1
  -5   0  -1  440.92    7.51   2
   6   0   1    0.22    0.51   4
  -6   0  -1   -0.74    0.54   3
   7   1  -1   32.08    1.54   1
   7  -1  -1   35.62    1.58   1
  -7   1   1   34.10    1.60   4
  -6  -1   1  255.10    4.90   4
   6   1  -1  259.76    4.76   2
   6   1  -1  240.90    4.93   1
  -6   1   1  243.46    4.92   4
   6  -1  -1  245.87    4.95   1
  -5   1   1   78.20    2.02   3
  -5  -1   1   81.62    2.06   4
   5   1  -1   83.48    2.00   3
   5  -1  -1   84.13    2.12   1
   5   1  -1   82.70    1.99   2
   5   1  -1   79.24    2.09   1
   5  -1  -1   86.67    1.97   2
  -5   1   1   80.15    2.10   4
  -4   1   1    8.57    0.60   3
   4  -1  -1    8.95    0.57   2
   4   1  -1    8.45    0.60   3
   4   1  -1    9.16    0.60   2
   4  -1  -1    7.90    0.65   1
   4  -1  -1    9.17    0.64   4
  -4  -1   1    7.24    0.62   4
   3   1  -1   11.12    0.53   2
  -3   1   1   10.81    0.52   3
  -3  -1   1   10.69    0.54   4
   3   1  -1   10.43    0.49   3
   3  -1  -1    9.58    0.57   1
   3   1  -1   10.52    0.58   1
   3  -1  -1   11.51    0.59   4
  -2   1   1 2879.93   47.80   3
   2  -1  -1 2867.99   43.62   2
  -2  -1   1 2835.97   44.73   4
   2   1  -1 2981.71   48.07   3
   2   1  -1 2954.83   44.46   1
   2  -1  -1 2911.25   44.44   1
   2   1  -1 2926.26   43.59   2
  -2   1   1 2783.75   44.70   4
  -1   1   1 2726.38   41.19   4
   1   1  -1 2712.78   40.13   2
  -1  -1   1 2576.91   41.21   4
   1   1  -1 2676.35   40.92   1
  -1   1   1 2566.69   46.05   3
   1  -1  -1 2612.03   40.26   2
   1  -1  -1 2680.65   40.92   1
   0   1   1  288.40    4.76   4
   0   1   1  297.92    5.07   3
   0  -1  -1  295.25    4.66   2
   0   1  -1  292.65    4.65   2
   0  -1  -1  309.09    5.05   1
   0  -1   1  293.72    5.07   3
   1   1   1  412.32    7.02   3
   1  -1   1  419.71    7.02   3
  -1   1  -1  400.95    6.38   2
  -1  -1  -1  410.15    6.42   2
   1   1   1  411.84    6.52   1
   1  -1   1  401.56    6.59   4
   1  -1   1  411.66    6.52   1
   1   1   1  407.55    6.56   4
   2   1   1 1650.03   25.08   1
  -2   1  -1 1614.49   24.59   2
   2  -1   1 1590.76   25.29   4
   2  -1   1 1629.87   26.88   3
   2  -1   1 1666.88   25.08   1
   2   1   1 1584.26   24.62   2
   2   1   1 1599.24   26.85   3
   2   1   1 1638.68   25.27   4
   3   1   1    1.12    0.29   4
   3  -1   1    1.30    0.32   4
   3   1   1    1.22    0.29   2
   3  -1   1    1.17    0.26   1
   3  -1   1    0.60    0.30   3
   3   1   1    1.74    0.29   1
   3   1   1    0.61    0.30   3
  -3   1  -1    1.89    0.29   2
   4  -1   1  739.94   13.02   3
   4   1   1  757.47   12.20   4
  -4   1  -1  734.66   11.78   2
   4   1   1  755.91   11.89   2
   4  -1   1  760.25   12.06   1
   4   1   1  759.76   13.03   3
   4  -1   1  745.90   12.25   4
   4   1   1  713.46   12.01   1
   5   1   1    9.83    0.92   3
   5  -1   1   11.64    0.88   4
  -5   1  -1   10.82    0.94   3
   5   1   1    9.00    0.81   1
   5   1   1   11.13    0.81   4
   5  -1   1    9.42    0.73   1
  -5  -1  -1   10.57    0.82   2
  -6   1  -1  187.16    4.26   3
   6   1   1  179.71    3.91   4
   6   1   1  181.02    4.24   3
   6  -1   1  182.84    4.00   4
   7  -1   1    0.81    0.70   4
   7  -2  -1  245.15    5.12   1
  -7   2   1  247.06    5.16   4
   7   2  -1  241.89    5.12   1
   6   2  -1    1.51    0.56   1
  -6  -2   1    0.43    0.50   4
   6  -2  -1    0.59    0.49   1
  -6   2   1    0.95    0.55   4
   6   2  -1    1.37    0.50   2
   5  -2  -1  140.82    2.75   2
   5   2  -1  140.91    2.96   3
  -5  -2   1  135.27    2.90   4
   5  -2  -1  139.13    3.02   1
   5   2  -1  142.08    2.92   2
  -5   2   1  140.73    2.97   3
  -5   2   1  131.82    3.02   4
   4  -2  -1  663.33   10.93   1
   4  -2  -1  668.14   10.97   4
  -4   2   1  654.09   11.40   3
  -4  -2   1  646.46   10.85   4
   4   2  -1  687.35   11.42   3
   4   2  -1  670.61   10.94   1
   4  -2  -1  685.05   10.52   2
   4   2  -1  674.75   10.67   2
   3  -2  -1 1194.30   18.68   4
  -3  -2   1 1194.29   18.60   4
   3  -2  -1 1159.02   18.56   1
  -3   2   1 1180.38   19.65   3
   3  -2  -1 1181.98   18.06   2
   3   2  -1 1198.25   18.19   2
   3   2  -1 1187.30   19.65   3
   3   2  -1 1175.19   18.57   1
  -2   2   1  248.54    4.31   3
   2   2  -1  245.55    4.07   2
  -2   2   1  246.13    4.20   4
   2  -2  -1  247.57    3.96   2
   2  -2  -1  248.45    4.18   1
  -2  -2   1  252.65    4.12   4
   2   2  -1  249.39    4.18   1
   2   2  -1  247.50    4.28   3
   1   2  -1 1060.87   18.50   3
   1  -2  -1 1096.90   16.83   1
   1   2  -1 1083.53   16.48   2
   1  -2  -1 1071.02   16.56   2
  -1  -2   1 1092.88   16.97   4
  -1   2   1 1067.58   16.92   4
   1   2  -1 1100.66   16.83   1
   0  -2   1  500.14    8.00   1
   0   2  -1  501.18    8.46   3
   0   2   1  492.08    7.98   4
   0   2   1  498.71    8.47   3
   0   2  -1  525.64    7.79   2
   0  -2   1  509.90    7.98   4
   0  -2  -1  497.71    8.00   1
   0  -2  -1  494.70    7.77   2
   1  -2   1  827.34   12.96   4
  -1  -2  -1  831.30   12.87   1
   1   2   1  799.04   12.90   4
   1  -2   1  836.52   12.88   1
  -1  -2  -1  792.98   12.60   2
   1  -2   1  838.13   13.76   3
  -1   2  -1  829.20   12.60   2
   1   2   1  823.13   13.75   3
   2   2   1  390.95    6.39   4
   2   2   1  394.69    6.31   2
  -2   2  -1  382.12    6.18   2
   2  -2   1  401.70    6.91   3
   2   2   1  386.62    6.87   3
   2   2   1  389.33    6.31   1
   2  -2   1  396.88    6.51   4
   2  -2   1  391.80    6.31   1
   3  -2   1   20.05    0.74   1
   3   2   1   18.47    0.73   1
   3   2   1   19.06    0.78   4
   3   2   1   19.99    0.80   2
  -3   2  -1   19.25    0.68   2
   3  -2   1   21.20    0.87   4
   3  -2   1   19.45    0.87   3
   3   2   1   18.37    0.86   3
   4   2   1  205.69    3.88   2
   4  -2   1  212.88    4.04   4
   4   2   1  212.18    3.92   4
  -4   2  -1  207.74    4.24   3
   4   2   1  208.30    3.86   1
  -4   2  -1  203.46    3.71   2
   4  -2   1  208.81    3.85   1
   4   2   1  206.87    4.24   3
   5   2   1  318.96    5.81   4
  -5  -2  -1  312.64    5.72   2
   5  -2   1  325.56    5.98   4
   5  -2   1  320.81    5.77   1
   5   2   1  319.45    5.75   1
   5   2   1  324.20    6.31   3
  -5   2  -1  314.72    6.26   3
   6   2   1  318.55    6.53   3
   6  -2   1  315.28    6.17   4
  -6   2  -1  323.00    6.54   3
   6   2   1  322.74    6.03   4
   7  -3  -1  185.44    4.21   1
   7   3  -1  187.95    4.05   2
  -7   3   1  182.79    4.21   4
   6  -3  -1  152.71    3.45   1
   6   3  -1  154.33    3.47   1
   6   3  -1  154.97    3.35   2
  -6   3   1  153.47    3.50   4
  -5   3   1  318.88    6.02   3
   5  -3  -1  329.41    5.51   2
   5  -3  -1  321.26    5.93   4
   5   3  -1  328.14    5.96   1
   5   3  -1  329.53    5.78   2
   5   3  -1  328.24    6.02   3
  -5  -3   1  324.45    5.79   4
  -4  -3   1    0.49    0.30   4
   4   3  -1    0.45    0.34   1
   4   3  -1    1.00    0.33   2
   4  -3  -1    1.11    0.38   4
   4  -3  -1    0.40    0.27   2
   4  -3  -1    0.08    0.32   1
   4   3  -1   -0.01    0.26   3
  -4   3   1    0.45    0.29   3
   3   3  -1  148.82    2.79   3
  -3   3   1  146.25    2.83   3
   3  -3  -1  147.37    2.82   1
   3  -3  -1  150.89    2.85   4
   3  -3  -1  145.42    2.54   2
  -3  -3   1  150.60    2.71   4
   3   3  -1  149.23    2.84   1
   3   3  -1  147.88    2.75   2
  -2   3   1    7.67    0.39   3
   2  -3  -1    6.56    0.42   4
   2   3  -1    5.49    0.38   2
   2   3  -1    6.17    0.43   1
   2   3  -1    5.57    0.35   3
  -2  -3   1    6.07    0.37   4
   2  -3  -1    5.02    0.39   1
   2  -3  -1    6.68    0.29   2
  -1  -3   1 3306.30   50.39   1
  -1   3   1 3334.73   50.76   4
  -1   3   1 3261.45   54.07   3
   1   3  -1 3353.74   49.42   2
   1   3  -1 3222.13   54.39   3
   1  -3  -1 3183.35   49.85   2
  -1  -3   1 3285.68   44.42   5
   0   3  -1 6359.71  103.43   3
   0  -3  -1 6048.19   97.09   1
   0  -3   1 5830.60   96.94   1
   0  -3   1 6368.01   97.45   4
   0   3  -1 6450.91   95.46   2
   0   3   1 6491.30   98.54   4
   0  -3  -1 6531.72   94.97   2
   1  -3   1 4596.15   70.89   4
   1   3   1 4591.40   69.07   2
   1  -3   1 4569.99   70.73   1
  -1   3  -1 4595.91   69.65   2
  -1   3  -1 4696.90   75.27   3
   1   3   1 4651.39   75.28   3
   1   3   1 4614.49   71.40   4
  -1  -3  -1 4476.47   70.71   1
   2   3   1  339.54    5.99   3
  -2   3  -1  335.61    5.31   2
  -2  -3  -1  333.40    5.47   1
  -2   3  -1  338.93    5.98   3
   2  -3   1  345.68    5.49   1
   2  -3   1  332.20    5.66   4
   2   3   1  331.94    5.49   4
   2   3   1  330.87    5.50   2
  -2  -3  -1  330.05    4.82   5
  -3  -3  -1 1002.02   13.96   5
   3   3   1 1011.69   15.92   4
   3   3   1 1012.52   15.68   2
  -3   3  -1  987.39   17.03   3
   3  -3   1 1018.40   15.84   1
  -3  -3  -1 1011.37   15.83   1
  -3   3  -1 1004.11   15.45   2
   3  -3   1 1003.66   16.10   4
   3   3   1 1006.33   17.06   3
  -4  -3  -1    7.18    0.65   1
   4  -3   1    9.58    0.77   4
  -4   3  -1    8.18    0.79   3
   4   3   1    7.58    0.74   3
   4   3   1    8.59    0.68   4
   4  -3   1    6.95    0.65   1
  -4  -3  -1    6.75    0.55   5
  -4   3  -1    7.91    0.56   2
   5  -3   1   15.63    0.90   1
   5   3   1   15.43    0.94   2
   5   3   1   15.81    0.89   4
  -5   3  -1   13.97    1.08   3
   5  -3   1   15.80    1.01   4
   5   3   1   15.33    1.01   3
   6   3   1   34.67    1.62   3
   6  -3   1   36.66    1.56   4
  -6  -3  -1   35.43    1.50   2
  -6   3  -1   32.70    1.66   3
   7   4  -1    3.77    0.75   2
  -7  -4   1    3.34    0.77   1
  -7   4   1    3.22    0.78   4
   7  -4  -1    2.89    0.72   1
  -7  -4   1    2.39    0.65   5
   6   4  -1  147.95    3.32   2
  -6   4   1  153.27    3.50   4
   6  -4  -1  149.81    3.41   1
   6   4  -1  152.65    3.43   1
   5   4  -1   62.65    1.68   3
   5   4  -1   62.48    1.81   1
  -5   4   1   60.29    1.71   3
   5  -4  -1   61.40    1.78   4
  -5  -4   1   60.45    1.62   4
   5  -4  -1   58.52    1.74   1
   5   4  -1   61.48    1.75   2
   4   4  -1 1181.97   18.55   2
  -4  -4   1 1172.46   18.82   4
   4  -4  -1 1180.16   18.92   1
   4  -4  -1 1184.31   19.05   4
   4   4  -1 1225.60   18.96   1
  -4   4   1 1183.11   19.98   3
   4   4  -1 1197.36   19.95   3
   4  -4  -1 1217.64   18.25   2
   3  -4  -1  859.65   13.96   4
   3  -4  -1  852.10   13.86   1
  -3   4   1  879.66   14.66   3
  -3  -4   1  874.74   13.78   4
   3   4  -1  888.02   14.61   3
   3  -4  -1  876.36   13.36   2
   3   4  -1  862.77   13.88   1
   3   4  -1  886.61   13.63   2
   2  -4  -1   75.39    1.57   4
  -2  -4   1   73.77    1.38   5
  -2   4   1   75.91    1.56   3
   2  -4  -1   74.13    1.56   1
   2  -4  -1   73.19    1.31   2
   2   4  -1   75.72    1.50   3
  -2  -4   1   75.09    1.57   1
  -2  -4   1   74.38    1.41   4
   2   4  -1   74.71    1.53   2
   1   4  -1  496.90    8.38   3
  -1   4   1  491.76    8.40   3
  -1  -4   1  494.77    7.87   4
   1   4  -1  507.90    7.74   2
  -1   4   1  498.62    7.93   4
   1  -4  -1  491.88    7.68   2
   1  -4  -1  490.42    7.89   1
  -1  -4   1  495.88    7.89   1
   0  -4   1 1208.19   19.80   1
   0   4  -1 1306.76   19.49   2
   0  -4  -1 1312.31   19.46   2
   0  -4   1 1269.93   19.95   4
   0   4   1 1257.16   21.17   3
   0  -4  -1 1300.29   19.85   1
   0   4  -1 1293.95   21.19   3
   0   4   1 1282.00   20.09   4
   1   4   1 1643.88   25.45   4
  -1  -4  -1 1622.32   25.14   1
   1   4   1 1623.31   24.67   2
  -1   4  -1 1608.14   26.86   3
  -1   4  -1 1627.69   24.79   2
   1  -4   1 1633.03   25.13   1
   1  -4   1 1598.80   25.30   4
   1   4   1 1651.82   26.88   3
   2  -4   1 1632.39   25.97   4
   2   4   1 1665.88   25.31   2
   2   4   1 1650.49   27.54   3
  -2   4  -1 1655.43   27.54   3
  -2   4  -1 1662.52   25.18   2
  -2  -4  -1 1656.93   25.69   1
   2  -4   1 1675.84   25.70   1
   2   4   1 1689.15   25.84   4
   3   4   1    1.22    0.35   3
  -3  -4  -1    1.73    0.34   1
  -3   4  -1    1.08    0.36   3
   3   4   1    1.61    0.35   2
   3  -4   1    3.72    0.45   4
   3   4   1    1.98    0.31   4
  -3  -4  -1    1.49    0.27   5
   3  -4   1    0.98    0.28   1
   4  -4   1  711.90   11.98   4
  -4  -4  -1  719.95   11.73   1
   4  -4   1  726.43   11.72   1
   4   4   1  734.68   11.69   2
  -4  -4  -1  725.44   10.34   5
  -4   4  -1  707.15   12.64   3
   4   4   1  728.52   12.67   3
   4   4   1  724.17   11.71   4
   5  -4   1   58.25    1.85   4
   5   4   1   59.96    1.79   2
   5  -4   1   60.56    1.71   1
  -5   4  -1   57.56    1.92   3
   5   4   1   59.94    1.91   3
   5   4   1   59.50    1.64   4
   6  -4   1  218.52    4.66   4
  -6   4  -1  214.95    4.84   3
  -6  -4  -1  213.42    4.46   2
   6   4   1  222.75    4.89   3
  -7  -5   1  163.00    3.85   1
  -7   5   1  165.04    3.94   4
   7  -5  -1  163.37    3.85   1
   7   5  -1  164.04    3.78   2
  -7  -5   1  158.41    3.40   5
   6  -5  -1   49.86    1.73   1
  -6  -5   1   50.76    1.78   1
  -6  -5   1   50.42    1.58   5
  -6   5   1   51.02    1.81   4
   6   5  -1   50.43    1.72   2
  -5  -5   1  219.59    3.84   5
  -5   5   1  219.99    4.40   3
   5  -5  -1  212.97    4.32   1
   5  -5  -1  224.15    4.40   4
   5   5  -1  225.74    4.36   3
   5   5  -1  224.55    4.28   2
  -5  -5   1  218.38    4.34   1
  -4   5   1    1.29    0.37   3
  -4  -5   1    0.82    0.29   4
   4  -5  -1    0.88    0.36   1
   4  -5  -1    0.81    0.24   2
  -4  -5   1    0.54    0.30   5
  -4  -5   1    0.94    0.38   1
   4  -5  -1    1.47    0.40   4
   4   5  -1    1.21    0.37   2
   4   5  -1    0.54    0.29   3
   3   5  -1  761.29   12.86   3
   3  -5  -1  748.30   12.32   4
   3  -5  -1  767.68   11.71   2
   3  -5  -1  765.14   12.26   1
  -3   5   1  769.54   12.93   3
  -3  -5   1  765.13   10.81   5
  -3  -5   1  772.76   12.09   4
  -3  -5   1  757.24   12.25   1
  -2  -5   1  597.72    9.56   4
  -2   5   1  606.49   10.27   3
   2  -5  -1  609.65    9.74   4
  -2  -5   1  600.83    8.55   5
   2   5  -1  603.82   10.20   3
   2   5  -1  606.79    9.50   2
  -2  -5   1  598.90    9.69   1
   2  -5  -1  615.77    9.71   1
   1   5  -1 5287.04   77.50   2
  -1  -5   1 4973.33   78.93   1
   1  -5  -1 5110.10   78.16   2
  -1  -5   1 5236.07   80.22   4
  -1   5   1 5031.97   84.43   3
  -1   5   1 5414.41   79.65   4
   1   5  -1 5071.31   84.53   3
   0  -5   1  398.73    6.62   4
   0   5  -1  416.59    7.09   3
   0  -5  -1  418.69    6.48   2
   0   5  -1  420.11    6.44   2
   0  -5   1  409.09    6.63   1
   0   5   1  413.47    7.10   3
   0   5   1  410.48    6.59   4
   0  -5  -1  415.97    6.63   1
  -1   5  -1  637.00    9.60   2
   1  -5   1  612.42    9.94   4
   1  -5   1  612.55    9.82   1
   1   5   1  626.77    9.87   4
   1   5   1  628.46   10.58   3
   1   5   1  603.83    9.69   2
  -1  -5  -1  619.31    9.83   1
  -1   5  -1  631.71   10.57   3
   2  -5   1  592.97    9.41   1
  -2  -5  -1  590.12    9.40   1
  -2   5  -1  580.67    9.06   2
  -2   5  -1  589.32   10.15   3
   2  -5   1  575.00    9.58   4
   2   5   1  575.71    9.35   2
   2   5   1  599.80   10.17   3
   2   5   1  603.24    9.35   4
  -3   5  -1 1097.89   18.74   3
  -3   5  -1 1091.74   16.89   2
  -3  -5  -1 1098.82   17.42   1
   3   5   1 1093.20   17.27   2
   3   5   1 1149.31   17.43   4
   3  -5   1 1097.41   17.71   4
   3   5   1 1119.81   18.77   3
   3  -5   1 1114.99   17.44   1
  -4  -5  -1    5.30    0.57   1
   4   5   1    7.17    0.58   4
   4   5   1    5.98    0.61   2
   4  -5   1    7.65    0.74   4
   4  -5   1    5.97    0.61   1
  -4  -5  -1    5.93    0.50   5
  -4   5  -1    6.29    0.67   3
   4   5   1    5.09    0.60   3
   5   5   1   12.34    0.93   2
   5  -5   1   12.19    0.92   4
   5  -5   1   12.88    0.84   1
  -5   5  -1   11.67    1.00   3
   5   5   1   11.20    0.91   3
   6   5   1    1.65    0.63   3
   6  -5   1    2.17    0.66   4
  -6  -5  -1    2.35    0.65   2
  -6   5  -1    1.84    0.70   3
  -7  -6   1   -0.33    0.58   1
  -7  -6   1   -0.41    0.51   5
   7  -6  -1    0.19    0.55   1
   7   6  -1    0.00    0.58   2
  -7   6   1    1.02    0.70   4
   6   6  -1  112.81    2.82   2
  -6  -6   1  111.89    2.53   5
   6  -6  -1  111.21    2.83   1
  -6  -6   1  110.66    2.84   1
  -6   6   1  115.65    2.94   4
   5  -6  -1   11.41    0.82   1
  -5  -6   1   11.68    0.88   1
   5  -6  -1   12.16    0.89   4
   5   6  -1   12.41    0.80   3
  -5   6   1   11.44    0.82   3
  -5  -6   1   11.78    0.80   5
   5   6  -1   13.01    0.90   2
   4  -6  -1  562.74    9.41   1
   4   6  -1  556.97    9.76   3
  -4  -6   1  566.39    9.42   1
  -4  -6   1  560.59    9.12   4
   4   6  -1  569.63    9.26   2
  -4   6   1  559.16    9.84   3
   4  -6  -1  556.91    9.47   4
  -4  -6   1  565.48    8.31   5
  -3   6   1  687.22   11.86   3
   3   6  -1  701.25   11.06   2
   3   6  -1  696.31   11.78   3
   3  -6  -1  703.02   11.26   1
  -3  -6   1  691.21    9.91   5
   3  -6  -1  694.57   11.31   4
  -3  -6   1  689.21   11.00   4
   2  -6  -1    2.59    0.31   1
  -2  -6   1    1.90    0.30   1
  -2  -6   1    2.60    0.28   4
  -2   6   1    2.39    0.30   3
   2   6  -1    3.00    0.33   2
   2  -6  -1    3.15    0.33   4
   2   6  -1    2.64    0.28   3
   1  -6  -1    0.23    0.12   2
  -1  -6   1    0.17    0.12   4
  -1   6   1    0.03    0.18   4
  -1  -6   1    0.47    0.20   1
   1  -6  -1    0.17    0.16   1
   1   6  -1    0.29    0.17   2
  -1   6   1   -0.01    0.17   3
   0   6   1 2969.33   45.27   4
   0   6   1 2927.14   47.70   3
   0  -6   1 2910.55   44.93   4
   0   6  -1 2786.43   47.65   3
   0  -6  -1 2998.94   43.79   2
   0  -6  -1 2887.23   44.62   1
   0  -6   1 2800.42   44.60   1
   0   6  -1 2957.05   43.85   2
  -1   6  -1  145.29    2.38   2
   1   6   1  142.49    2.62   2
   1  -6   1  147.32    2.69   4
  -1  -6  -1  146.42    2.64   1
   1  -6   1  147.24    2.64   1
   1   6   1  148.82    2.88   3
  -1   6  -1  146.48    2.88   3
   2   6   1  819.37   12.71   4
  -2  -6  -1  800.87   12.79   1
   2  -6   1  809.60   12.79   1
   2   6   1  818.16   13.78   3
   2  -6   1  800.63   12.99   4
  -2   6  -1  809.38   13.77   3
   2   6   1  800.39   12.68   2
   3  -6   1    1.67    0.34   1
   3   6   1    1.76    0.28   4
   3  -6   1    1.73    0.41   4
   3   6   1    1.01    0.35   3
  -3   6  -1    1.38    0.38   3
  -3  -6  -1    1.22    0.34   1
   3   6   1    3.82    0.46   2
   4   6   1   29.04    1.26   3
   4  -6   1   32.28    1.27   4
   4   6   1   30.36    0.98   4
   4  -6   1   29.91    1.11   1
   4   6   1   33.06    1.25   2
  -4  -6  -1   30.74    1.14   1
  -4   6  -1   28.89    1.27   3
   5   6   1  197.52    4.41   3
  -5   6  -1  205.94    4.45   3
   5  -6   1  203.50    4.04   1
   5  -6   1  199.70    4.26   4
   5   6   1  208.37    4.19   2
   6   6   1  228.31    5.01   3
  -6  -6  -1  225.42    4.68   2
  -6   6  -1  221.03    4.98   3
   6  -6   1  219.94    4.80   4
  -7  -7   1  205.04    4.05   5
   7  -7  -1  205.71    4.58   1
  -7  -7   1  206.20    4.60   1
   7   7  -1  207.01    4.56   2
  -7   7   1  209.96    4.74   4
  -6  -7   1  442.18    8.08   1
  -6   7   1  442.20    8.21   4
   6   7  -1  447.55    8.00   2
   6  -7  -1  448.65    8.10   1
  -6  -7   1  448.84    7.15   5
  -5   7   1   29.99    1.25   3
   5   7  -1   31.01    1.20   3
  -5  -7   1   31.49    1.31   1
   5   7  -1   31.61    1.30   2
   5  -7  -1   28.50    1.22   1
   5  -7  -1   32.47    1.33   4
  -5  -7   1   31.29    1.15   5
  -4  -7   1    9.68    0.79   1
   4  -7  -1   10.44    0.80   4
   4  -7  -1    9.28    0.76   1
   4   7  -1    8.51    0.68   3
  -4   7   1    8.99    0.69   3
  -4  -7   1    7.82    0.67   5
   4   7  -1   10.01    0.77   2
   3  -7  -1   34.46    1.12   4
  -3  -7   1   33.03    1.11   1
   3  -7  -1   33.30    1.10   1
   3   7  -1   34.49    1.04   3
   3   7  -1   33.17    1.10   2
  -3  -7   1   32.07    0.82   4
  -3   7   1   32.95    1.09   3
  -2  -7   1   95.21    1.68   4
   2  -7  -1   96.03    1.97   4
   2   7  -1   99.01    2.03   3
  -2  -7   1   97.53    2.02   1
   2  -7  -1   96.39    2.02   1
  -2   7   1   93.58    2.07   3
   2   7  -1   95.51    1.96   2
  -1  -7   1  916.79   14.08   4
   1  -7  -1  885.23   13.69   2
  -1  -7   1  899.38   14.13   1
   1   7  -1  881.97   15.03   3
  -1   7   1  874.89   14.11   4
  -1   7   1  897.86   15.07   3
   1  -7  -1  905.30   14.13   1
   1   7  -1  907.49   13.80   2
   0   7  -1   14.85    0.52   2
   0   7   1   15.85    0.69   3
   0  -7   1   15.13    0.57   4
   0   7  -1   16.62    0.70   3
   0  -7   1   17.13    0.65   1
   0  -7  -1   16.50    0.57   2
   0   7   1   16.47    0.47   4
   1   7   1  784.67   13.09   3
   1  -7   1  778.74   12.21   1
   1  -7   1  735.85   12.26   4
  -1  -7  -1  773.73   12.21   1
  -1   7  -1  780.79   13.09   3
   1   7   1  767.73   11.99   2
  -1   7  -1  769.78   11.83   2
   2  -7   1 1679.55   25.41   1
  -2   7  -1 1626.25   27.21   3
   2  -7   1 1633.81   25.65   4
   2   7   1 1600.54   25.01   2
  -2  -7  -1 1637.06   25.39   1
   2   7   1 1626.36   27.20   3
   3   7   1  903.06   14.19   2
   3  -7   1  888.51   14.27   1
  -3   7  -1  866.18   15.34   3
   3   7   1  906.22   15.36   3
  -3  -7  -1  890.27   14.27   1
   3   7   1  922.16   14.08   4
   3  -7   1  881.13   14.51   4
  -4   7  -1  285.64    5.68   3
   4   7   1  283.73    5.67   3
   4  -7   1  289.30    5.21   1
   4  -7   1  288.75    5.44   4
   4   7   1  290.48    5.33   2
  -4  -7  -1  291.09    5.22   1
  -5   7  -1   47.49    1.80   3
   5   7   1   49.12    1.71   2
   5  -7   1   48.58    1.73   4
   5   7   1   50.12    1.79   3
   5  -7   1   48.23    1.57   1
   6  -7   1   29.84    1.49   4
  -6   7  -1   28.27    1.58   3
   6   7   1   30.60    1.51   3
  -6  -7  -1   29.02    1.46   2
  -7  -8   1   -0.11    0.67   1
  -7   8   1    0.56    0.74   4
   7   8  -1    0.10    0.61   2
   7  -8  -1    0.37    0.57   1
  -6   8   1   18.84    1.21   4
   6   8  -1   16.63    1.11   2
  -6  -8   1   16.49    1.22   1
   6  -8  -1   16.23    1.06   1
  -5  -8   1  537.01    9.19   1
  -5  -8   1  536.47    8.11   5
  -5   8   1  520.30    9.57   3
   5  -8  -1  512.73    9.14   1
   5   8  -1  538.97    9.48   3
   4  -8  -1  715.30   11.76   1
   4   8  -1  717.07   11.58   2
  -4   8   1  694.47   12.36   3
   4  -8  -1  716.52   11.84   4
   4   8  -1  719.58   12.27   3
  -4  -8   1  703.36   11.73   1
   3  -8  -1 1124.61   17.55   1
   3   8  -1 1093.07   17.19   2
   3   8  -1 1102.71   18.50   3
  -3  -8   1 1102.09   17.52   1
  -3   8   1 1077.29   18.58   3
   3  -8  -1 1110.62   17.61   4
  -2   8   1  167.44    3.34   3
   2  -8  -1  167.26    3.18   1
   2  -8  -1  169.77    3.12   4
   2   8  -1  169.01    3.10   2
   2   8  -1  169.34    3.26   3
  -2  -8   1  166.41    3.18   1
  -1  -8   1  320.71    5.33   1
  -1  -8   1  313.38    5.05   4
  -1   8   1  313.44    5.65   3
   1   8  -1  316.17    5.12   2
  -1   8   1  313.77    5.20   4
   1   8  -1  313.48    5.60   3
   1  -8  -1  300.72    4.93   2
   1  -8  -1  309.15    5.31   1
   0  -8  -1 1090.50   16.55   2
   0   8   1 1081.92   18.16   3
   0   8   1 1063.58   16.93   4
   0  -8  -1 1078.69   16.98   1
   0  -8   1 1065.01   16.98   1
   0   8  -1 1102.08   16.51   2
   0   8  -1 1101.17   18.15   3
   0  -8   1 1074.59   16.95   4
   1  -8   1  845.29   13.47   1
   1   8   1  858.72   14.44   3
   1   8   1  850.72   13.23   2
  -1   8  -1  857.13   14.45   3
  -1  -8  -1  837.19   13.47   1
   1  -8   1  852.95   13.55   4
  -2   8  -1  504.06    8.99   3
   2   8   1  504.95    8.29   2
   2  -8   1  515.77    8.35   1
  -2  -8  -1  518.69    8.36   1
   2  -8   1  499.49    8.46   4
   2   8   1  507.39    8.98   3
  -3  -8  -1  101.62    2.24   1
   3  -8   1   98.77    2.34   4
   3   8   1  103.35    2.33   2
   3  -8   1  101.11    2.21   1
  -3   8  -1   99.86    2.46   3
   3   8   1   99.26    2.44   3
   4   8   1   15.06    0.97   2
  -4  -8  -1   14.46    0.87   1
   4   8   1   13.95    0.95   3
   4  -8   1   13.48    0.88   1
   4  -8   1   14.06    0.93   4
  -4   8  -1   14.63    1.01   3
   5   8   1  665.78   12.07   3
   5  -8   1  659.18   11.18   1
   5  -8   1  663.24   11.51   4
   5   8   1  671.42   11.25   2
  -5   8  -1  665.23   12.09   3
  -6   8  -1  210.45    4.81   3
  -6  -8  -1  204.06    4.48   2
   6   8   1  207.72    4.74   3
   6  -8   1  200.37    4.58   4
  -7  -9   1   66.31    2.36   1
   7   9  -1   69.42    2.34   2
   7  -9  -1   67.18    2.29   1
  -7   9   1   66.39    2.41   4
  -6   9   1  275.11    5.68   4
   6  -9  -1  276.36    5.56   1
  -6  -9   1  281.91    5.60   1
   6   9  -1  281.52    5.57   2
   5  -9  -1   49.91    1.67   1
   5   9  -1   51.19    1.60   3
   5   9  -1   50.36    1.71   2
  -5  -9   1   50.76    1.73   1
  -5   9   1   51.12    1.72   3
   5  -9  -1   51.56    1.74   4
   4  -9  -1    0.94    0.37   1
  -4  -9   1    0.82    0.42   1
  -4   9   1    0.46    0.41   3
   4   9  -1    0.82    0.38   2
   4   9  -1    0.70    0.34   3
   4  -9  -1    0.69    0.43   4
   3  -9  -1   46.05    1.38   1
  -3  -9   1   42.34    1.35   1
   3   9  -1   42.82    1.31   2
   3   9  -1   42.93    1.28   3
  -3   9   1   43.41    1.38   3
   3  -9  -1   45.66    1.34   4
   2   9  -1 1685.76   27.92   3
  -2   9   1 1663.31   28.01   3
   2  -9  -1 1710.58   26.28   1
  -2  -9   1 1645.08   26.25   1
   2  -9  -1 1644.83   26.32   4
   2   9  -1 1744.53   25.76   2
  -1  -9   1  605.58    9.40   4
   1   9  -1  592.43   10.23   3
  -1  -9   1  593.12    9.66   1
  -1   9   1  595.29   10.29   3
   1  -9  -1  602.05    9.66   1
   1   9  -1  597.08    9.35   2
  -1   9   1  596.98    9.53   4
   1  -9  -1  564.54    9.15   2
   0  -9   1  310.02    5.10   4
   0   9  -1  315.61    4.95   2
   0  -9  -1  306.42    5.26   1
   0   9   1  304.77    4.99   4
   0   9   1  302.66    5.62   3
   0  -9   1  305.99    5.26   1
   0   9  -1  306.36    5.62   3
  -1   9  -1    0.73    0.31   3
   1  -9   1    1.43    0.29   1
  -1  -9  -1    0.95    0.30   1
  -2  -9  -1  514.27    8.52   1
  -2   9  -1  508.71    9.17   3
   2   9   1  526.53    9.18   3
   2  -9   1  518.47    8.62   4
   2  -9   1  509.92    8.51   1
   2   9   1  516.03    8.45   2
   3   9   1  653.55   11.32   3
   3  -9   1  619.43   10.66   4
   3   9   1  640.75   10.47   2
   3  -9   1  637.18   10.50   1
  -3  -9  -1  643.56   10.50   1
  -3   9  -1  633.81   11.31   3
   4   9   1  349.70    6.69   3
   4  -9   1  352.98    6.19   1
   4  -9   1  338.90    6.38   4
  -4   9  -1  334.59    6.69   3
  -4  -9  -1  340.53    6.17   1
   4   9   1  351.25    6.29   2
   5   9   1   97.45    2.70   3
   5  -9   1   94.89    2.61   4
  -5   9  -1   96.36    2.75   3
   5   9   1   97.24    2.60   2
   5  -9   1   94.17    2.41   1
   6  -9   1  144.78    3.67   4
  -6  -9  -1  145.00    3.57   2
  -6   9  -1  146.93    3.81   3
   6   9   1  149.99    3.79   3
   6  10  -1    6.60    0.85   2
  -6 -10   1    4.83    0.82   1
  -6  10   1    6.66    0.90   4
   6 -10  -1    5.45    0.75   1
   5  10  -1  127.60    2.94   3
  -5 -10   1  126.97    3.02   1
   5 -10  -1  121.54    2.96   1
   5 -10  -1  126.69    3.03   4
   5  10  -1  122.48    2.98   2
  -5  10   1  126.35    3.06   3
  -4  10   1    7.09    0.70   3
  -4 -10   1    6.23    0.67   1
   4 -10  -1    6.81    0.69   1
   4  10  -1    7.13    0.69   2
   4  10  -1    7.83    0.70   3
   4 -10  -1    6.97    0.69   4
  -3 -10   1  261.77    4.84   1
   3  10  -1  269.57    4.76   2
   3  10  -1  257.22    4.93   3
  -3  10   1  256.13    5.05   3
   3 -10  -1  258.28    4.82   1
   3 -10  -1  261.59    4.79   4
  -2 -10   1    1.74    0.40   1
   2 -10  -1    2.58    0.38   4
   2  10  -1    2.04    0.38   2
   2 -10  -1    1.82    0.37   1
  -2  10   1    2.33    0.42   3
   1  10  -1  110.31    2.14   2
   1 -10  -1  107.33    1.93   2
  -1  10   1  109.99    2.44   3
  -1  10   1  109.72    2.12   4
  -1 -10   1  107.53    2.30   1
   1 -10  -1  104.95    2.28   1
  -1 -10   1  107.22    1.93   4
   1  10  -1  107.88    2.38   3
   0 -10   1   57.38    1.28   4
   0 -10  -1   57.74    1.46   1
   0 -10   1   59.33    1.47   1
   0  10   1   56.15    1.15   4
   0  10  -1   57.52    1.56   3
   0  10   1   56.12    1.55   3
   0  10  -1   56.43    1.22   2
  -1 -10  -1 1776.13   26.62   1
  -1  10  -1 1689.76   28.44   3
   1  10   1 1734.98   28.44   3
   1 -10   1 1698.12   26.67   4
   1 -10   1 1628.38   26.55   1
   1  10   1 1702.24   26.04   2
   2 -10   1  326.46    5.82   1
   2  10   1  340.63    5.81   2
  -2 -10  -1  336.76    5.85   1
   2  10   1  342.66    6.30   3
   2 -10   1  329.16    5.88   4
  -2  10  -1  336.83    6.31   3
   3 -10   1   17.28    0.91   1
   3  10   1   18.17    0.97   2
   3 -10   1   17.33    0.98   4
  -3  10  -1   17.63    1.06   3
   3  10   1   19.32    1.05   3
  -3 -10  -1   18.25    0.96   1
   4  10   1   19.84    1.11   3
  -4  10  -1   17.28    1.09   3
   4  10   1   17.31    1.03   2
  -4 -10  -1   17.37    1.01   1
   4 -10   1   16.61    1.00   4
   4 -10   1   15.55    0.91   1
   5  10   1  232.49    4.94   3
  -5  10  -1  224.12    4.94   3
   5 -10   1  216.07    4.70   4
   5  10   1  216.12    4.61   2
   5 -10   1  221.98    4.48   1
  -6  10  -1    0.93    0.75   3
  -6 -10  -1    2.50    0.69   2
   6 -10   1    2.86    0.77   4
   6  10   1    1.82    0.68   3
   6 -11  -1  120.81    3.14   1
   6  11  -1  125.24    3.21   2
  -6 -11   1  125.26    3.20   1
  -6  11   1  124.50    3.27   4
   5 -11  -1   36.57    1.48   1
   5  11  -1   37.66    1.44   3
   5 -11  -1   36.75    1.50   4
  -5 -11   1   34.21    1.45   1
  -5  11   1   36.52    1.52   3
   5  11  -1   36.10    1.48   2
   4  11  -1   27.77    1.17   3
  -4  11   1   28.47    1.28   3
   4 -11  -1   27.78    1.21   4
   4 -11  -1   27.56    1.18   1
  -4 -11   1   28.33    1.25   1
   4  11  -1   26.26    1.20   2
  -3 -11   1  116.98    2.67   1
  -3  11   1  116.75    2.78   3
   3  11  -1  117.10    2.60   2
   3 -11  -1  119.59    2.60   4
   3  11  -1  120.62    2.67   3
   3 -11  -1  117.89    2.66   1
   2 -11  -1  919.87   15.07   4
   2  11  -1  948.37   14.80   2
   2 -11  -1  964.35   15.21   1
   2  11  -1  945.26   16.06   3
  -2  11   1  936.79   16.15   3
  -2 -11   1  943.60   15.18   1
  -1 -11   1   38.86    0.90   4
   1 -11  -1   38.18    0.90   2
  -1  11   1   37.33    1.04   4
  -1  11   1   40.49    1.33   3
   1 -11  -1   41.56    1.25   1
   1  11  -1   38.89    1.09   2
   1  11  -1   37.62    1.26   3
  -1 -11   1   40.49    1.27   1
   0 -11  -1  460.99    7.70   1
   0  11   1  456.22    8.21   3
   0  11  -1  466.97    7.27   2
   0  11   1  451.51    7.33   4
   0 -11   1  461.12    7.70   1
   0 -11   1  452.48    7.45   4
   0  11  -1  456.04    8.20   3
   0 -11  -1  453.88    7.32   2
   1 -11   1  221.81    4.10   4
   1  11   1  232.07    4.10   2
  -1 -11  -1  232.60    4.24   1
  -1  11  -1  228.62    4.54   3
   1  11   1  233.12    4.55   3
   1 -11   1  230.74    4.23   1
  -2  11  -1  342.40    6.42   3
  -2 -11  -1  344.22    5.95   1
   2  11   1  342.39    5.87   2
   2  11   1  333.25    6.35   3
   2 -11   1  331.93    5.93   4
   2 -11   1  324.23    5.90   1
   3  11   1  797.27   13.01   2
   3  11   1  815.38   14.09   3
  -3 -11  -1  805.34   13.13   1
   3 -11   1  785.64   13.26   4
   3 -11   1  808.18   13.11   1
  -4 -11  -1  145.28    3.20   1
  -4  11  -1  141.23    3.46   3
   4 -11   1  144.48    3.32   4
   4  11   1  147.49    3.46   3
   4 -11   1  144.69    3.17   1
   5 -11   1   19.08    1.10   1
   5  11   1   19.69    1.23   3
   5  11   1   19.00    1.18   2
   5 -11   1   18.95    1.18   4
  -5  11  -1   18.51    1.27   3
   6  11   1   54.41    2.14   3
  -6 -11  -1   51.20    1.98   2
  -6  11  -1   51.48    2.12   3
   6 -11   1   52.79    2.07   4
  -6 -12   1   22.54    1.35   1
   6  12  -1   22.34    1.32   2
   6 -12  -1   22.29    1.28   1
  -6  12   1   23.78    1.39   4
   5  12  -1  107.69    2.67   3
  -5 -12   1  101.02    2.70   1
   5  12  -1  101.88    2.69   2
   5 -12  -1  100.91    2.68   1
  -5  12   1  101.22    2.77   3
   5 -12  -1  100.44    2.69   4
  -4  12   1  728.60   12.84   3
   4  12  -1  723.13   11.92   2
   4  12  -1  739.73   12.67   3
   4 -12  -1  720.08   12.12   1
   4 -12  -1  709.26   12.12   4
  -4 -12   1  705.06   12.11   1
   3 -12  -1  181.47    3.71   4
  -3  12   1  188.11    4.03   3
  -3 -12   1  192.53    3.86   1
   3  12  -1  189.03    3.74   2
   3 -12  -1  190.07    3.83   1
   3  12  -1  194.09    3.92   3
   2 -12  -1  117.07    2.45   4
  -2  12   1  116.90    2.74   3
   2 -12  -1  115.41    2.61   1
  -2 -12   1  119.41    2.63   1
   2  12  -1  113.88    2.46   2
   2  12  -1  117.11    2.67   3
   1 -12  -1  381.52    6.54   1
  -1  12   1  377.03    6.95   3
   1  12  -1  376.21    6.21   2
   1  12  -1  362.80    6.86   3
  -1  12   1  378.80    6.26   4
  -1 -12   1  377.57    6.54   1
   1 -12  -1  368.49    5.98   2
   0 -12   1  987.89   15.64   1
   0 -12   1  974.12   15.38   4
   0  12   1  961.76   15.27   4
   0  12  -1  975.82   16.66   3
   0 -12  -1  952.19   15.60   1
   0 -12  -1  976.80   15.06   2
   0  12  -1  982.29   14.99   2
   0  12   1  977.70   16.68   3
   1 -12   1  139.17    2.79   4
   1  12   1  144.93    3.16   3
   1  12   1  139.82    2.80   2
  -1  12  -1  140.49    3.16   3
  -1 -12  -1  144.65    2.96   1
   1 -12   1  143.92    2.94   1
   2 -12   1    3.39    0.48   1
   2  12   1    3.18    0.52   3
  -2 -12  -1    3.05    0.49   1
  -2  12  -1    2.57    0.57   3
   2  12   1    4.56    0.55   2
   3 -12   1   54.81    1.70   4
  -3 -12  -1   55.91    1.71   1
   3  12   1   56.71    1.85   3
  -3  12  -1   56.12    1.88   3
   3 -12   1   55.68    1.66   1
   3  12   1   57.34    1.74   2
   4 -12   1  206.77    4.23   1
   4  12   1  216.31    4.61   3
  -4 -12  -1  211.72    4.27   1
   4 -12   1  203.27    4.37   4
  -4  12  -1  209.96    4.64   3
   4  12   1  205.84    4.33   2
   5  12   1  135.66    3.49   3
   5  12   1  133.30    3.34   2
   5 -12   1  134.13    3.38   4
   5 -12   1  137.40    3.22   1
  -5  12  -1  132.52    3.52   3
  -6  12  -1  207.14    4.98   3
   6 -12   1  201.89    4.76   4
   6  12   1  214.79    4.95   3
  -6 -12  -1  202.23    4.65   2
   6 -13  -1   31.63    1.51   1
  -6 -13   1   31.97    1.57   1
  -6  13   1   30.38    1.58   4
   6  13  -1   29.00    1.53   2
   5  13  -1  132.88    3.24   2
  -5  13   1  127.21    3.31   3
   5 -13  -1  126.31    3.18   1
   5  13  -1  141.22    3.24   3
  -5 -13   1  125.82    3.20   1
   4  13  -1   18.73    1.08   2
  -4  13   1   21.48    1.24   3
   4 -13  -1   19.25    1.10   4
  -4 -13   1   19.13    1.14   1
   4 -13  -1   18.33    1.05   1
   4  13  -1   19.72    1.12   3
  -3  13   1  263.15    5.32   3
   3  13  -1  264.13    5.17   3
   3 -13  -1  260.19    4.90   4
  -3 -13   1  259.96    5.03   1
   3 -13  -1  261.76    5.01   1
   3  13  -1  261.51    4.90   2
   2  13  -1    0.47    0.34   2
  -2  13   1    1.44    0.49   3
  -2 -13   1    0.97    0.43   1
   2 -13  -1    1.03    0.39   1
  -2  13   1    0.63    0.36   4
   2  13  -1    0.91    0.39   3
   1 -13  -1  396.34    6.93   1
  -1  13   1  390.12    7.35   3
   1  13  -1  390.99    7.30   3
  -1  13   1  406.48    6.63   4
   1 -13  -1  396.53    6.34   2
   1  13  -1  393.36    6.57   2
  -1 -13   1  398.89    6.94   1
   0  13  -1   14.04    0.68   2
   0 -13   1   18.04    0.91   1
   0  13   1   18.43    1.00   3
   0  13  -1   17.03    1.00   3
   0 -13   1   14.33    0.66   4
   1 -13   1   91.98    2.19   1
  -1  13  -1   90.90    2.38   3
   1  13   1   90.50    2.33   3
   1  13   1   92.88    2.07   2
  -1 -13  -1   92.63    2.21   1
   1 -13   1   86.54    1.99   4
   2  13   1  803.27   13.87   3
   2 -13   1  761.45   12.93   1
  -2  13  -1  781.30   13.90   3
  -2 -13  -1  802.96   12.98   1
   2  13   1  798.67   12.73   2
   2 -13   1  785.18   12.94   4
   3 -13   1  712.18   11.92   1
  -3  13  -1  712.69   12.86   3
  -3 -13  -1  723.98   11.98   1
   3  13   1  715.72   11.83   2
   3  13   1  731.53   12.81   3
   3 -13   1  701.92   12.04   4
  -4 -13  -1    0.24    0.47   1
   4  13   1    0.44    0.49   2
   4 -13   1    0.16    0.49   4
  -4  13  -1   -0.28    0.53   3
   4  13   1    0.14    0.45   3
   4 -13   1    0.49    0.43   1
   5  13   1    0.50    0.57   2
   5 -13   1   -0.32    0.50   1
   5  13   1    0.91    0.59   3
   5 -13   1    0.51    0.57   4
  -5  13  -1    0.12    0.64   3
   6 -14  -1   10.68    1.04   1
   6  14  -1    9.27    1.06   2
  -6  14   1    9.02    1.08   4
  -6 -14   1   10.74    1.12   1
  -5 -14   1    9.20    0.95   1
   5  14  -1    9.56    0.96   2
   5 -14  -1   10.24    0.96   1
  -5  14   1    9.90    1.09   3
  -5  14   1   10.07    1.02   4
   4  14  -1  419.63    7.54   2
  -4 -14   1  415.68    7.66   1
   4  14  -1  433.21    7.93   3
   4 -14  -1  408.65    7.65   1
   4 -14  -1  423.16    7.62   4
  -4  14   1  422.57    8.11   3
  -3  14   1    4.58    0.67   3
  -3 -14   1    4.82    0.65   1
   3  14  -1    4.47    0.61   2
   3  14  -1    5.17    0.61   3
   3 -14  -1    4.85    0.61   4
   3 -14  -1    4.57    0.63   1
   2  14  -1  299.50    5.80   3
  -2  14   1  299.24    5.90   3
  -2  14   1  291.31    5.34   4
   2 -14  -1  307.35    5.61   1
  -2 -14   1  299.57    5.59   1
   2  14  -1  294.14    5.31   2
   1 -14  -1    2.05    0.46   1
   1  14  -1    1.63    0.37   2
   1  14  -1    1.69    0.45   3
  -1 -14   1    1.64    0.46   1
   1 -14  -1    1.81    0.30   2
  -1  14   1    2.27    0.50   3
   0 -14  -1  872.04   13.60   2
   0 -14   1  872.33   14.20   1
   0  14   1  863.67   15.14   3
   0 -14  -1  890.81   14.22   1
   0  14  -1  868.30   15.13   3
   0  14  -1  854.11   13.51   2
   1  14   1  251.17    4.52   2
  -1  14  -1  250.57    5.09   3
   1  14   1  248.77    5.05   3
  -1 -14  -1  248.99    4.75   1
   1 -14   1  246.47    4.51   4
   1 -14   1  247.82    4.73   1
   2 -14   1   55.53    1.70   1
  -2 -14  -1   61.08    1.81   1
   2  14   1   58.87    1.71   2
   2  14   1   58.51    1.89   3
   2 -14   1   56.64    1.65   4
  -2  14  -1   62.44    1.97   3
  -3  14  -1    1.23    0.58   3
   3 -14   1    1.52    0.47   1
  -3 -14  -1    1.70    0.55   1
   3  14   1    0.86    0.48   3
   3  14   1    0.37    0.46   2
   3 -14   1    0.88    0.48   4
   4  14   1  123.61    3.09   2
   4 -14   1  126.23    3.01   1
  -4 -14  -1  126.22    3.06   1
   4 -14   1  126.78    3.12   4
  -4  14  -1  123.85    3.33   3
   4  14   1  123.83    3.25   3
   5 -14   1   20.46    1.24   1
   5  14   1   22.67    1.32   2
   5  14   1   23.04    1.38   3
   5 -14   1   19.64    1.26   4
  -5  14  -1   22.44    1.48   3
   6  15  -1   25.53    1.47   2
  -6  15   1   26.40    1.56   4
   6 -15  -1   25.90    1.47   1
  -6 -15   1   24.28    1.50   1
  -5 -15   1  205.15    4.48   1
  -5  15   1  198.17    4.64   3
   5  15  -1  193.13    4.37   2
  -5  15   1  199.90    4.46   4
   5 -15  -1  196.67    4.42   1
  -4 -15   1   24.41    1.28   1
   4 -15  -1   23.38    1.25   1
  -4  15   1   24.75    1.38   3
  -4  15   1   26.20    1.33   4
   4  15  -1   24.85    1.27   3
   4  15  -1   23.96    1.25   2
  -3  15   1  142.54    3.08   4
  -3  15   1  134.48    3.30   3
  -3 -15   1  132.06    3.15   1
   3 -15  -1  129.29    3.10   1
   3  15  -1  129.38    3.00   2
   3  15  -1  135.31    3.18   3
  -2 -15   1   56.40    1.80   1
   2  15  -1   56.33    1.63   2
   2  15  -1   58.37    1.82   3
   2 -15  -1   58.06    1.80   1
  -2  15   1   55.86    1.89   3
  -2  15   1   57.16    1.62   4
  -1  15   1  299.24    5.98   3
   1 -15  -1  304.46    5.65   1
  -1 -15   1  302.10    5.65   1
   1  15  -1  301.65    5.25   2
   1  15  -1  303.87    5.94   3
  -1  15   1  300.71    5.24   4
   0  15  -1    9.94    0.96   3
   1 -15   1    2.60    0.45   4
   1 -15   1    3.25    0.52   1
   1  15   1    2.21    0.55   3
   1  15   1    3.08    0.51   2
  -1 -15  -1    2.97    0.55   1
  -1  15  -1    2.06    0.57   3
   2  15   1  242.52    4.64   2
   2 -15   1  235.08    4.62   4
  -2  15  -1  245.93    5.17   3
  -2 -15  -1  248.12    4.79   1
   3 -15   1  416.11    7.58   4
   3 -15   1  408.81    7.53   1
   3  15   1  416.40    8.08   3
   3  15   1  417.29    7.49   2
  -3  15  -1  423.00    8.19   3
  -3 -15  -1  434.90    7.63   1
   4  15   1  151.59    3.63   2
   4 -15   1  159.32    3.60   1
  -4  15  -1  159.53    3.98   3
   4  15   1  153.51    3.85   3
   4 -15   1  156.60    3.67   4
  -4 -15  -1  163.62    3.68   1
   5 -15   1   25.42    1.43   4
   5  15   1   23.07    1.37   2
   5 -15   1   25.40    1.37   1
  -5  15  -1   25.00    1.59   3
   5  15   1   25.20    1.49   3
   5  16  -1   69.36    2.31   2
   5 -16  -1   72.14    2.35   1
  -5  16   1   74.31    2.39   4
  -5  16   1   72.96    2.48   3
  -5 -16   1   70.59    2.36   1
   4 -16  -1  195.34    4.30   1
  -4 -16   1  190.88    4.29   1
  -4  16   1  197.40    4.23   4
   4  16  -1  196.71    4.33   3
  -4  16   1  194.39    4.52   3
   4  16  -1  192.46    4.19   2
   3 -16  -1  158.25    3.66   1
  -3 -16   1  166.86    3.75   1
   3  16  -1  164.72    3.56   2
  -3  16   1  167.31    3.92   3
  -3  16   1  168.39    3.57   4
   3  16  -1  170.69    3.80   3
  -2  16   1   -0.31    0.39   4
   2  16  -1    0.28    0.40   2
  -2 -16   1    2.96    0.62   1
  -2  16   1    0.16    0.51   3
   2 -16  -1    0.79    0.46   1
   2  16  -1    0.83    0.45   3
  -1  16   1  298.31    6.04   3
   1  16  -1  298.73    5.28   2
   1  16  -1  305.60    6.00   3
  -1 -16   1  300.36    5.70   1
   1 -16  -1  300.11    5.69   1
   0 -16  -1  671.04   10.83   2
   0 -16   1  679.29   11.46   1
   0  16  -1  683.55   12.20   3
   0  16   1  678.67   12.21   3
  -1 -16  -1  251.10    4.92   1
  -1  16  -1  247.25    5.27   3
   1  16   1  254.90    4.65   2
   1  16   1  251.36    5.23   3
   2 -16   1  139.31    3.23   1
   2 -16   1  144.97    3.13   4
   2  16   1  143.23    3.15   2
  -2  16  -1  141.38    3.54   3
  -2 -16  -1  144.06    3.28   1
   2  16   1  142.71    3.49   3
   3 -16   1    1.00    0.48   1
  -3  16  -1    1.13    0.63   3
  -3 -16  -1    1.14    0.55   1
   3  16   1    0.81    0.54   2
   3 -16   1    1.17    0.55   4
   3  16   1    0.32    0.51   3
   4 -16   1   89.24    2.56   4
  -4  16  -1   88.60    2.79   3
  -4 -16  -1   88.91    2.55   1
   4  16   1   86.37    2.55   2
   4 -16   1   86.33    2.49   1
   4  16   1   90.11    2.72   3
   5  16   1  204.40    4.69   2
   5 -16   1  211.11    4.61   1
  -5  16  -1  205.44    5.04   3
   5  16   1  208.31    4.94   3
   5 -16   1  205.00    4.73   4
   5 -17  -1    4.16    0.79   1
  -5  17   1    4.56    0.87   4
   5  17  -1    4.00    0.84   2
  -5 -17   1    3.81    0.83   1
  -5  17   1    3.93    0.89   3
  -4  17   1    2.17    0.71   3
   4  17  -1    2.74    0.67   2
   4  17  -1    2.26    0.60   3
   4 -17  -1    2.93    0.67   1
  -4 -17   1    1.94    0.67   1
  -4  17   1    2.52    0.70   4
  -3  17   1   34.39    1.63   3
   3  17  -1   35.10    1.53   3
   3  17  -1   33.04    1.39   2
  -3 -17   1   34.97    1.56   1
   3 -17  -1   33.94    1.47   1
  -3  17   1   38.66    1.47   4
  -2  17   1  444.70    7.46   4
   2  17  -1  423.95    7.40   2
  -2  17   1  423.86    8.25   3
   2  17  -1  415.62    8.10   3
  -2 -17   1  426.31    7.79   1
  -1  17   1   91.29    2.62   3
   1  17  -1   95.52    2.59   3
   1 -17  -1   91.10    2.44   1
   1  17  -1   93.07    2.17   2
   0  17  -1  296.12    6.05   3
   0 -17  -1  308.08    5.22   2
   0  17   1  289.03    6.03   3
   0 -17  -1  294.90    5.68   1
   1 -17   1   87.55    2.36   1
  -1  17  -1   85.45    2.51   3
  -1 -17  -1   86.09    2.34   1
   1  17   1   82.95    2.46   3
  -2  17  -1  161.59    3.98   3
   2 -17   1  162.60    3.67   1
   2  17   1  168.45    3.56   2
   2  17   1  164.37    3.93   3
  -2 -17  -1  170.57    3.73   1
   2 -17   1  163.42    3.49   4
   3 -17   1  142.05    3.31   4
   3 -17   1  143.93    3.38   1
  -3 -17  -1  148.37    3.46   1
   3  17   1  140.14    3.33   2
  -3  17  -1  140.06    3.70   3
   3  17   1  139.63    3.59   3
  -4  17  -1   43.91    1.99   3
  -4 -17  -1   47.33    1.90   1
   4 -17   1   46.21    1.79   1
   4 -17   1   43.32    1.76   4
   4  17   1   46.14    1.83   2
   4  17   1   43.53    1.88   3
  -5 -18   1   95.86    2.94   1
   5 -18  -1   98.31    2.92   1
  -5  18   1  101.06    2.93   4
   5  18  -1   95.56    2.88   2
  -5  18   1   99.24    3.08   3
   4  18  -1    6.84    0.83   3
   4  18  -1    5.61    0.81   2
  -4  18   1    6.88    0.98   3
  -4 -18   1    8.10    0.95   1
  -4  18   1    6.64    0.90   4
   4 -18  -1    7.13    0.89   1
  -3  18   1  323.50    5.98   4
  -3  18   1  321.94    6.59   3
   3  18  -1  316.30    6.39   3
   3  18  -1  303.70    5.92   2
   3 -18  -1  300.37    6.14   1
  -3 -18   1  316.72    6.25   1
  -2 -18   1   35.42    1.52   1
  -2  18   1   34.77    1.61   3
   2  18  -1   33.59    1.35   2
   2 -18  -1   33.51    1.48   1
   2  18  -1   34.41    1.53   3
  -1 -18   1    7.69    0.81   1
   1 -18  -1    6.38    0.73   1
  -1  18   1    7.41    0.85   3
   1  18  -1    7.09    0.80   3
   0  18   1    3.09    0.66   3
   0  18  -1    1.10    0.55   3
   0 -18   1    1.29    0.49   1
   0 -18  -1    1.40    0.51   1
   1 -18   1  287.41    5.70   1
  -1 -18  -1  300.01    5.34   2
  -1 -18  -1  285.84    5.69   1
   1  18   1  287.57    6.04   3
  -1  18  -1  296.15    6.12   3
   2 -18   1    7.91    0.82   1
   2  18   1    7.54    0.87   3
  -2 -18  -1    7.72    0.84   1
   2  18   1    6.93    0.77   2
  -2  18  -1    7.04    0.90   3
  -3 -18  -1    0.44    0.53   1
  -3  18  -1   -0.51    0.57   3
   3  18   1    0.20    0.53   2
   3 -18   1    0.35    0.52   4
   3 -18   1    0.10    0.49   1
   3  18   1    0.26    0.53   3
  -4  18  -1    8.24    1.08   3
  -4 -18  -1    8.69    1.00   1
   4 -18   1    8.35    0.93   1
   4  18   1    6.59    0.92   2
   4  18   1    7.58    0.97   3
   4 -18   1    7.34    0.93   4
  -4 -19   1   71.18    2.44   1
   4  19  -1   72.25    2.38   3
   4 -19  -1   73.34    2.41   1
  -4  19   1   73.08    2.31   4
   4  19  -1   74.55    2.37   2
  -4  19   1   74.71    2.59   3
   3  19  -1   92.27    2.53   2
  -3 -19   1   92.17    2.73   1
   3  19  -1   95.70    2.75   3
  -3  19   1   94.63    2.51   4
  -3  19   1   89.14    2.82   3
   3 -19  -1   91.35    2.67   1
   2  19  -1  507.25    9.64   3
  -2  19   1  511.97    9.77   3
   2 -19  -1  512.36    9.24   1
   2  19  -1  504.16    8.74   2
  -2 -19   1  509.03    9.24   1
  -1 -19   1   34.17    1.50   1
   1 -19  -1   33.57    1.48   1
  -1  19   1   32.92    1.58   3
   1  19  -1   32.50    1.51   3
   0  19   1    1.38    0.60   3
   0  19  -1    1.66    0.63   3
   0 -19  -1    0.54    0.49   1
   0 -19   1    0.91    0.50   1
  -1  19  -1   16.21    1.26   3
   1  19   1   16.25    1.23   3
  -1 -19  -1   18.94    1.06   2
   1 -19   1   16.44    1.11   1
  -2 -19  -1  186.21    3.90   2
  -2 -19  -1  177.24    4.09   1
  -2  19  -1  181.01    4.42   3
   2  19   1  184.70    4.37   3
   2 -19   1  175.45    4.07   1
   3 -19   1  106.94    2.92   1
  -3  19  -1  105.52    3.21   3
   3  19   1  106.39    3.11   3
  -3 -19  -1  107.03    2.97   1
   3  19   1  108.37    2.87   2
   4 -19   1  157.78    3.87   4
  -4  19  -1  156.29    4.29   3
   4 -19   1  162.95    3.94   1
   4  19   1  156.83    4.17   3
  -4 -19  -1  163.18    3.97   1
  -4 -19  -1  168.13    3.95   2
   4  20  -1    4.49    0.84   2
  -4 -20   1    3.96    0.91   1
   4  20  -1    3.86    0.78   3
   4 -20  -1    4.50    0.82   1
  -4  20   1    5.24    0.89   4
  -4  20   1    3.99    0.95   3
   3 -20  -1   34.08    1.63   1
   3  20  -1   36.02    1.54   2
  -3 -20   1   32.79    1.62   1
  -3  20   1   32.10    1.69   3
   3  20  -1   36.61    1.71   3
   2 -20  -1    1.92    0.63   1
  -2 -20   1    1.30    0.60   1
   2  20  -1    1.42    0.63   3
  -2  20   1    1.33    0.68   3
  -1 -20   1    0.41    0.53   1
  -1  20   1    3.38    0.76   3
   1 -20  -1    0.84    0.54   1
   1  20  -1    1.03    0.60   3
   0  20   1  454.03    8.89   3
   0 -20   1  454.41    8.36   1
   0 -20  -1  456.80    8.38   1
   0  20  -1  445.19    8.84   3
   1  20   1  438.25    8.69   3
  -1 -20  -1  449.81    7.70   2
   1 -20   1  436.30    8.19   1
  -1 -20  -1  441.38    8.20   1
  -1  20  -1  437.66    8.74   3
  -2  20  -1   28.98    1.66   3
  -2 -20  -1   35.07    1.47   2
   2 -20   1   31.15    1.53   1
  -2 -20  -1   32.31    1.54   1
   2  20   1   34.50    1.68   3
  -3 -20  -1   32.27    1.55   2
  -3 -20  -1   29.59    1.56   1
   3  20   1   28.05    1.58   3
  -3  20  -1   27.24    1.67   3
   3 -20   1   26.66    1.44   1
   3  21  -1  206.89    4.75   3
   3 -21  -1  189.40    4.54   1
   3  21  -1  202.20    4.36   2
  -3 -21   1  197.26    4.62   1
  -3  21   1  194.97    4.84   3
   2  21  -1  252.94    5.61   3
   2 -21  -1  259.48    5.48   1
  -2  21   1  249.56    5.71   3
  -2 -21   1  251.55    5.44   1
   1  21  -1  176.92    4.32   3
  -1  21   1  175.86    4.39   3
  -1 -21   1  179.26    4.19   1
   1 -21  -1  179.94    4.16   1
   0  21  -1    3.07    0.75   3
  -1 -21  -1   31.02    1.52   1
   1  21   1   27.37    1.55   3
   1 -21   1   27.89    1.47   1
  -1  21  -1   30.37    1.66   3
  -2 -21  -1   78.82    2.29   2
   2 -21   1   73.67    2.44   1
  -2 -21  -1   76.38    2.47   1
  -2  21  -1   76.29    2.66   3
   2  21   1   75.62    2.59   3
  -3 -21  -1   77.13    2.54   1
  -3  21  -1   70.53    2.66   3
   3  21   1   71.37    2.57   3
   3 -21   1   73.71    2.44   1
  -3 -21  -1   72.66    2.35   2
   3 -22  -1    3.26    0.78   1
  -3  22   1    3.02    0.88   3
   3  22  -1    4.30    0.89   3
  -3 -22   1    3.91    0.86   1
   2  22  -1  103.57    3.08   3
  -2  22   1  101.37    3.16   3
   2 -22  -1  103.79    3.03   1
  -2 -22   1  101.67    3.03   1
  -1 -22   1   54.39    2.08   1
  -1  22   1   53.85    2.19   3
   1 -22  -1   52.81    2.03   1
   1  22  -1   52.30    2.12   3
   0 -22  -1  154.82    3.87   1
   0 -22   1  160.74    3.91   1
   0  22   1  152.80    4.05   3
   0  22  -1  155.77    4.07   3
   1 -22   1   69.75    2.37   1
   1  22   1   68.76    2.48   3
  -1 -22  -1   69.58    2.36   1
  -1  22  -1   69.41    2.53   3
   2  22   1  153.67    4.12   3
  -2 -22  -1  154.20    3.61   2
   2 -22   1  157.01    3.96   1
  -2  22  -1  154.74    4.20   3
  -2 -22  -1  160.91    3.98   1
   2 -23  -1   16.61    1.29   1
  -2  23   1   18.70    1.46   3
   2  23  -1   18.68    1.40   3
  -2 -23   1   16.80    1.29   1
   1  23  -1  111.45    3.31   3
  -1  23   1  110.68    3.36   3
  -1 -23   1  111.14    3.19   1
   1 -23  -1  111.98    3.19   1
   0 -23  -1   61.43    2.28   1
   0  23  -1   63.11    2.41   3
   0  23   1   62.54    2.40   3
   0 -23   1   65.70    2.34   1
   1 -23   1  129.78    3.49   1
   1  23   1  125.89    3.64   3
  -1  23  -1  126.59    3.70   3
  -1 -23  -1  132.19    3.52   1
   0  24   1   29.92    1.75   3
   7   0  -2   -0.73    0.48   1
  -7   0   2   -0.52    0.54   4
  -6   0   2  162.80    3.57   4
   6   0  -2  169.30    3.40   2
   6   0  -2  162.36    3.65   1
   5   0  -2   -0.03    0.33   2
   5   0  -2   -1.04    0.33   1
  -5   0   2   -0.89    0.35   4
  -4   0   2 1437.17   22.84   4
  -4   0   2 1443.56   23.91   3
   4   0  -2 1458.64   22.19   2
   2   0  -2  182.95    3.13   2
   2   0  -2  183.20    3.22   1
  -2   0   2  188.15    3.26   4
   1   0  -2    0.51    0.16   2
  -1   0   2    0.36    0.19   4
  -1   0   2    0.26    0.10   3
   1   0  -2    0.09    0.14   1
   0   0  -2  486.42    7.58   2
   0   0   2  480.49    7.76   4
   0   0   2  485.10    8.22   3
   1   0   2    0.28    0.19   4
   1   0   2   -0.14    0.17   3
  -1   0  -2    0.42    0.18   2
  -2   0  -2  530.67    8.54   2
   2   0   2  546.96    8.49   1
   2   0   2  538.90    8.79   4
   2   0   2  531.91    9.39   3
   3   0   2    1.88    0.38   4
   3   0   2   -0.03    0.26   1
   3   0   2   -0.63    0.32   3
  -3   0  -2    1.29    0.34   2
   4   0   2  106.35    2.45   4
   4   0   2  101.92    2.66   3
  -4   0  -2  100.61    2.30   2
   5   0   2   -0.25    0.43   4
   5   0   2   -0.33    0.45   3
  -6   0  -2  568.70   10.80   3
   6   0   2  568.13   10.07   4
  -7  -1   2   41.54    1.63   4
  -7   1   2   44.53    1.75   4
   7  -1  -2   40.67    1.70   1
   7   1  -2   39.34    1.68   1
   6   1  -2  336.08    6.40   1
  -6  -1   2  340.94    6.29   4
  -6   1   2  342.40    6.36   4
   6  -1  -2  335.43    6.41   1
   6   1  -2  341.64    6.10   2
   6  -1  -2  349.60    6.03   2
   5  -1  -2  143.14    2.88   2
   5   1  -2  142.95    2.95   2
   5   1  -2  145.74    3.16   1
  -5  -1   2  146.17    3.07   4
   5  -1  -2  148.28    3.17   1
  -5   1   2  147.00    3.13   4
   4   1  -2  436.33    7.16   2
  -4   1   2  428.68    7.45   3
  -4  -1   2  434.00    7.36   4
  -4   1   2  432.05    7.41   4
   4   1  -2  441.53    7.45   1
   4  -1  -2  438.73    7.09   2
   4  -1  -2  440.13    7.43   1
   3  -1  -2   12.77    0.56   2
   3   1  -2   13.95    0.65   1
  -3   1   2   13.87    0.67   4
   3   1  -2   14.13    0.61   2
  -3  -1   2   13.90    0.64   4
   3  -1  -2   13.27    0.65   1
   2   1  -2   10.43    0.49   1
   2   1  -2   11.21    0.49   2
   2  -1  -2    9.72    0.49   1
  -2   1   2   10.57    0.52   4
   2  -1  -2   10.61    0.45   2
  -1   1   2 6593.88  107.77   3
  -1  -1   2 6593.65  108.43   3
   1  -1  -2 6066.48   97.55   2
  -1   1   2 6600.99  100.24   4
   1   1  -2 6649.71   99.93   1
   1  -1  -2 6785.55   99.99   1
  -1  -1   2 6305.03  100.16   4
   1   1  -2 6483.78   97.62   2
   0   1   2  169.60    2.99   4
   0  -1   2  175.48    3.16   3
   0  -1  -2  171.84    2.94   2
   0   1  -2  175.62    2.93   2
   0   1   2  177.70    3.18   3
  -1   1  -2  136.95    2.42   2
   1  -1   2  134.68    2.53   4
   1  -1   2  136.16    2.69   3
   1   1   2  136.27    2.49   4
  -1  -1  -2  136.94    2.46   2
   2  -1   2   68.02    1.58   4
  -2   1  -2   68.39    1.46   2
   2   1   2   69.52    1.54   4
  -2  -1  -2   64.43    1.29   1
   2   1   2   65.24    1.69   3
  -2  -1  -2   67.12    1.51   2
   2  -1   2   64.79    1.68   3
   2  -1   2   66.66    1.29   1
  -2  -1  -2   65.15    1.13   5
   3  -1   2 1015.14   15.48   1
   3  -1   2  985.27   16.90   3
  -3   1  -2  964.64   15.33   2
   3  -1   2  981.46   15.86   4
   3   1   2 1010.86   15.47   1
   3   1   2  976.58   15.79   4
  -3  -1  -2  974.55   15.42   2
   3   1   2  980.39   16.89   3
   4  -1   2  225.56    4.79   3
   4  -1   2  229.65    4.47   4
  -4  -1  -2  235.66    4.33   2
   4   1   2  229.37    4.80   3
  -4   1  -2  225.98    4.21   2
   4   1   2  239.36    4.43   4
   5   1   2   35.56    1.58   3
  -5  -1  -2   35.71    1.36   2
   5  -1   2   35.87    1.46   4
   5   1   2   36.21    1.43   4
   6  -1   2    0.92    0.61   4
   6   1   2    1.09    0.61   4
   6   1   2    0.74    0.60   3
  -6   1  -2   -0.50    0.66   3
   7   2  -2  122.33    3.19   1
  -7   2   2  121.33    3.15   4
   7   2  -2  126.40    3.01   2
   7  -2  -2  125.55    3.23   1
   6   2  -2   10.20    0.92   1
  -6  -2   2   11.67    0.93   4
   6   2  -2   11.33    0.86   2
   6  -2  -2   11.85    0.92   1
  -6   2   2   11.82    0.98   4
  -5   2   2  151.39    3.21   4
   5  -2  -2  144.42    2.88   2
   5   2  -2  141.97    3.01   2
   5   2  -2  151.94    3.24   1
   5  -2  -2  147.29    3.21   1
  -5  -2   2  150.33    3.10   4
  -4  -2   2  674.92   11.10   4
   4  -2  -2  679.92   11.18   1
   4  -2  -2  675.19   10.72   2
   4   2  -2  697.32   11.48   3
  -4   2   2  675.48   11.21   4
  -4   2   2  678.74   11.50   3
   4   2  -2  683.91   10.87   2
   4   2  -2  693.60   11.20   1
   3  -2  -2  926.73   14.64   1
   3  -2  -2  911.18   14.19   2
   3   2  -2  927.92   14.31   2
  -3   2   2  924.65   15.37   3
  -3   2   2  930.06   14.73   4
  -3  -2   2  912.07   14.63   4
   3   2  -2  927.78   14.65   1
   2   2  -2  424.60    6.77   2
  -2   2   2  424.26    6.97   4
  -2   2   2  429.96    7.23   3
   2   2  -2  434.09    6.92   1
   2  -2  -2  424.77    6.91   1
  -2  -2   2  414.80    6.90   4
   2  -2  -2  424.50    6.70   2
   1   2  -2  291.29    5.05   3
  -1  -2   2  292.59    4.87   4
   1  -2  -2  295.61    4.80   1
   1  -2  -2  296.74    4.74   2
   1   2  -2  298.24    4.76   2
   1   2  -2  299.26    4.81   1
  -1   2   2  296.64    5.08   3
  -1   2   2  295.15    4.89   4
   0  -2   2 1352.25   22.15   3
   0  -2  -2 1371.39   21.05   1
   0   2  -2 1318.88   20.31   2
   0   2   2 1327.64   20.84   4
   0   2   2 1340.57   22.15   3
   0  -2  -2 1348.38   20.36   2
   0  -2   2 1330.29   20.97   1
   0  -2   2 1311.50   20.87   4
   1  -2   2  850.53   13.55   4
   1   2   2  847.71   14.39   3
   1  -2   2  862.54   14.40   3
  -1   2  -2  856.84   13.13   2
  -1  -2  -2  849.20   13.21   2
   1   2   2  857.40   13.48   4
   2   2   2 1352.59   22.75   3
   2  -2   2 1390.49   21.06   1
  -2  -2  -2 1337.48   21.04   1
  -2  -2  -2 1366.88   20.87   2
  -2   2  -2 1331.97   20.73   2
   2  -2   2 1364.00   21.41   4
   2   2   2 1375.33   21.32   4
   2  -2   2 1352.26   22.76   3
   3  -2   2  131.47    2.99   3
   3  -2   2  133.97    2.48   1
  -3  -2  -2  132.86    2.48   1
   3  -2   2  131.18    2.78   4
  -3   2  -2  128.46    2.54   2
  -3  -2  -2  131.60    2.18   5
   3   2   2  131.01    2.98   3
   3   2   2  132.82    2.68   4
  -3  -2  -2  136.12    2.70   2
   4   2   2    7.56    0.82   3
   4  -2   2    8.39    0.80   4
   4   2   2    9.26    0.77   4
  -4  -2  -2    7.54    0.73   2
   4  -2   2    7.06    0.71   3
  -4   2  -2    8.52    0.71   2
   5   2   2  114.94    3.06   3
  -5   2  -2  114.05    3.06   3
  -5  -2  -2  113.05    2.73   2
   5  -2   2  115.70    2.86   4
   5   2   2  118.58    2.76   4
   6  -2   2  249.67    5.27   4
  -6   2  -2  261.65    5.69   3
   6   2   2  255.05    5.68   3
   7  -3  -2   19.36    1.26   1
  -7   3   2   23.12    1.37   4
   7   3  -2   22.44    1.23   2
   7   3  -2   19.90    1.27   1
   6   3  -2  112.58    2.84   1
  -6   3   2  117.35    2.86   4
   6  -3  -2  112.96    2.82   1
   6   3  -2  110.21    2.67   2
  -6  -3   2  112.57    2.66   4
   5  -3  -2 1141.58   17.89   2
  -5  -3   2 1151.32   18.50   4
   5  -3  -2 1188.03   18.64   1
   5   3  -2 1178.08   18.64   1
   5   3  -2 1127.33   18.14   2
  -5   3   2 1148.79   18.70   4
   4   3  -2  210.23    3.94   1
   4  -3  -2  200.28    3.55   2
   4  -3  -2  205.49    3.91   1
  -4   3   2  203.15    3.76   3
   4   3  -2  202.12    3.75   2
   4   3  -2  208.23    3.69   3
  -4   3   2  200.87    3.90   4
  -4  -3   2  204.06    3.76   4
   3  -3  -2    5.47    0.50   1
   3  -3  -2    5.17    0.41   2
  -3   3   2    5.14    0.41   3
   3   3  -2    5.43    0.49   2
   3   3  -2    5.26    0.52   1
  -3   3   2    5.41    0.53   4
  -3  -3   2    6.05    0.50   4
  -2  -3   2 1929.14   29.87   4
   2   3  -2 1933.48   29.15   2
   2  -3  -2 1881.24   29.07   2
  -2   3   2 1897.92   31.78   3
  -2   3   2 1947.03   29.94   4
   2  -3  -2 1906.70   29.72   1
   2   3  -2 1971.68   29.75   1
   1  -3  -2  537.45    8.41   2
   1   3  -2  542.66    9.10   3
  -1  -3   2  551.03    7.56   5
  -1  -3   2  544.81    8.57   1
   1   3  -2  547.13    8.44   2
   1  -3  -2  541.37    8.57   1
  -1  -3   2  535.06    8.63   4
  -1   3   2  533.26    8.65   4
  -1   3   2  534.88    9.11   3
   0   3   2 1134.23   18.67   3
   0  -3   2 1094.09   17.46   1
   0   3   2 1121.24   17.55   4
   0  -3   2 1126.78   17.61   4
   0  -3  -2 1111.30   17.15   2
   0  -3  -2 1155.08   17.51   1
   0   3  -2 1110.25   18.64   3
   0   3  -2 1130.30   17.11   2
  -1   3  -2   32.49    1.01   3
   1  -3   2   33.93    0.98   4
   1  -3   2   33.01    0.74   1
   1   3   2   31.75    0.99   3
  -1   3  -2   33.48    0.83   2
   1   3   2   32.92    0.86   4
  -1  -3  -2   30.45    0.73   1
  -1  -3  -2   31.85    0.90   2
  -2  -3  -2  566.81    9.22   1
   2  -3   2  574.78    9.57   4
  -2  -3  -2  593.83    9.35   2
   2   3   2  582.91    9.43   4
   2  -3   2  595.14    9.24   1
  -2   3  -2  587.36    9.16   2
   2   3   2  589.12   10.19   3
   2  -3   2  579.84   10.19   3
  -3   3  -2  369.87    6.19   2
   3  -3   2  390.28    6.25   1
  -3  -3  -2  379.76    6.43   2
  -3  -3  -2  374.96    6.23   1
   3  -3   2  377.19    6.61   4
  -3   3  -2  376.44    7.01   3
   3   3   2  375.42    7.02   3
   3   3   2  378.67    6.43   4
   4   3   2  293.72    5.31   4
   4   3   2  298.02    5.88   3
  -4  -3  -2  286.51    5.32   2
  -4   3  -2  291.06    5.82   3
   4  -3   2  299.99    5.53   4
  -5   3  -2   95.84    2.78   3
   5   3   2   98.93    2.46   4
  -5  -3  -2   99.83    2.54   2
   5   3   2   98.93    2.78   3
   5  -3   2   99.93    2.63   4
   6  -3   2    1.60    0.66   4
  -6   3  -2   -0.53    0.68   3
   6   3   2    1.06    0.65   3
   7   4  -2  318.86    6.14   2
  -7  -4   2  314.48    6.34   1
  -7  -4   2  318.62    5.62   5
  -7   4   2  325.42    6.40   4
   7  -4  -2  325.81    6.40   1
  -6   4   2  114.18    2.85   4
   6   4  -2  109.07    2.66   2
   6   4  -2  109.20    2.80   1
   6  -4  -2  107.24    2.76   1
   5   4  -2  194.54    4.04   1
   5  -4  -2  204.95    3.62   2
  -5  -4   2  200.98    3.84   4
   5  -4  -2  201.52    4.05   1
   4   4  -2    0.61    0.22   3
   4   4  -2   -0.13    0.34   1
  -4   4   2    0.31    0.35   4
   4  -4  -2    1.45    0.28   2
  -4   4   2    0.19    0.27   3
   4  -4  -2    0.43    0.32   1
   4   4  -2    0.72    0.33   2
   3  -4  -2  430.55    7.29   1
   3   4  -2  441.30    7.31   1
  -3  -4   2  440.06    7.16   4
   3   4  -2  438.36    7.41   3
  -3   4   2  438.57    7.50   3
   3   4  -2  437.51    7.12   2
   3  -4  -2  432.09    6.90   2
  -3   4   2  437.54    7.34   4
  -2  -4   2  431.01    6.17   5
   2  -4  -2  416.20    6.70   2
  -2   4   2  430.24    7.30   3
  -2  -4   2  424.63    6.92   4
   2   4  -2  425.76    6.85   2
  -2   4   2  427.61    7.05   4
   2  -4  -2  431.59    7.00   1
   2   4  -2  429.17    7.24   3
  -2  -4   2  430.27    6.99   1
   1  -4  -2    2.14    0.23   1
  -1   4   2    1.74    0.21   3
   1  -4  -2    2.30    0.22   2
  -1   4   2    2.19    0.25   4
  -1  -4   2    1.66    0.22   1
  -1  -4   2    1.24    0.21   4
   1   4  -2    1.68    0.22   2
   1   4  -2    2.24    0.21   3
   0  -4   2  352.73    5.62   1
   0  -4   2  350.23    5.77   4
   0   4   2  343.26    5.66   4
   0  -4  -2  332.67    5.60   2
   0   4   2  349.58    6.11   3
   0  -4  -2  351.22    5.62   1
   0   4  -2  357.53    6.08   3
   0   4  -2  356.80    5.56   2
   1   4   2  187.93    3.22   4
   1  -4   2  186.22    3.38   4
   1  -4   2  188.43    3.14   1
   1   4   2  191.37    3.60   3
  -1   4  -2  188.48    3.58   3
  -1  -4  -2  184.58    3.14   1
  -1  -4  -2  187.29    3.31   2
  -1   4  -2  182.81    3.13   2
   2  -4   2    0.12    0.18   1
  -2  -4  -2    0.54    0.28   2
  -2   4  -2    0.58    0.23   2
  -2  -4  -2    0.55    0.22   1
   2   4   2    1.35    0.35   3
  -2   4  -2    0.54    0.30   3
   2  -4   2    0.34    0.29   4
   3  -4   2  132.62    2.53   1
  -3  -4  -2  133.35    2.76   2
   3   4   2  130.64    3.01   3
  -3  -4  -2  133.16    2.53   1
   3  -4   2  135.12    2.86   4
   3   4   2  133.05    2.63   4
  -3   4  -2  133.18    2.50   2
  -3   4  -2  130.79    2.99   3
  -4  -4  -2  133.87    2.96   2
   4  -4   2  139.27    3.10   4
   4   4   2  137.99    2.87   4
   4   4   2  136.58    3.27   3
   4  -4   2  139.45    2.77   1
   5   4   2  854.52   15.48   3
  -5   4  -2  887.54   15.50   3
   5  -4   2  881.98   14.63   4
  -5  -4  -2  853.39   14.20   2
  -6   4  -2   19.23    1.50   3
   6   4   2   20.04    1.42   3
   6  -4   2   20.47    1.27   4
  -7  -5   2  180.47    4.17   1
  -7   5   2  180.30    4.20   4
   7  -5  -2  176.44    4.14   1
  -7  -5   2  181.50    3.71   5
   7   5  -2  181.29    4.03   2
  -6  -5   2  183.21    3.50   5
   6   5  -2  176.86    3.79   2
   6  -5  -2  178.31    3.92   1
  -6   5   2  179.71    3.97   4
  -5  -5   2   22.99    0.98   4
   5  -5  -2   19.09    1.00   1
   5   5  -2   18.92    0.98   2
   5   5  -2   18.44    1.05   1
  -5   5   2   17.23    1.02   4
  -4   5   2  329.05    5.99   4
  -4  -5   2  338.62    5.75   4
   4  -5  -2  336.74    5.46   2
   4   5  -2  335.95    5.97   1
   4   5  -2  337.58    5.83   2
   4   5  -2  342.66    5.90   3
  -4   5   2  333.15    6.01   3
   4  -5  -2  337.23    5.97   1
  -3  -5   2  102.85    2.20   1
   3   5  -2  102.16    1.98   3
   3  -5  -2  100.83    2.18   1
   3   5  -2  101.60    2.13   2
   3  -5  -2  102.10    1.88   2
  -3  -5   2  104.21    1.94   5
  -3   5   2  102.25    2.11   3
  -3  -5   2  104.89    2.01   4
  -3   5   2  101.60    2.20   4
  -2   5   2 1921.57   30.32   4
  -2  -5   2 1918.55   30.12   1
   2  -5  -2 2031.82   30.17   1
   2   5  -2 1988.17   29.56   2
   2   5  -2 1912.47   32.10   3
  -2  -5   2 1955.96   30.22   4
  -2   5   2 1935.46   32.11   3
   2  -5  -2 1936.05   29.44   2
  -2  -5   2 1927.43   26.56   5
  -1   5   2    2.09    0.25   4
   1  -5  -2    1.97    0.22   2
  -1  -5   2    1.47    0.23   4
   1  -5  -2    1.63    0.23   1
  -1   5   2    3.67    0.36   3
   0   5   2 2450.32   39.35   3
   0   5   2 2344.59   36.99   4
   0  -5   2 2256.49   36.75   1
   0  -5  -2 2458.91   36.82   1
   0   5  -2 2352.00   39.29   3
   0   5  -2 2403.47   36.06   2
   0  -5  -2 2402.00   36.11   2
   0  -5   2 2453.81   37.07   4
  -1  -5  -2  828.38   12.92   1
  -1   5  -2  826.03   12.66   2
   1   5   2  820.83   12.99   4
   1   5   2  838.06   14.01   3
   1  -5   2  814.25   12.91   1
  -1   5  -2  825.50   13.97   3
  -1  -5  -2  832.66   12.88   2
   1  -5   2  811.63   13.17   4
   2   5   2  848.73   13.24   4
  -2  -5  -2  829.30   13.15   2
  -2   5  -2  827.56   14.29   3
   2   5   2  848.47   14.33   3
  -2   5  -2  827.44   12.86   2
   2  -5   2  823.21   13.49   4
  -2  -5  -2  832.57   13.14   1
   2  -5   2  844.30   13.14   1
  -3  -5  -2  247.96    4.58   2
  -3  -5  -2  251.35    4.36   1
  -3   5  -2  247.28    4.96   3
   3  -5   2  257.00    4.73   4
   3   5   2  253.12    4.42   4
   3  -5   2  250.42    4.36   1
   3   5   2  242.15    4.96   3
  -4  -5  -2  173.21    3.64   2
   4  -5   2  178.17    3.42   1
  -4   5  -2  178.66    3.98   3
   4   5   2  185.28    3.49   4
   4   5   2  178.70    3.99   3
  -5  -5  -2    0.95    0.54   2
  -5   5  -2    0.71    0.66   3
   5   5   2    1.52    0.56   3
   5  -5   2    2.23    0.62   4
  -6   5  -2    8.28    1.05   3
  -6  -5  -2   10.14    0.99   2
   6  -5   2    9.25    0.98   4
   6   5   2    7.88    0.99   3
   7  -6  -2  339.97    6.59   1
  -7   6   2  323.95    6.59   4
   7   6  -2  334.09    6.41   2
  -7  -6   2  322.53    6.53   1
  -7  -6   2  329.45    5.80   5
   6  -6  -2   30.93    1.38   1
  -6   6   2   33.11    1.48   4
  -6  -6   2   29.90    1.43   1
   6   6  -2   31.75    1.35   2
  -6  -6   2   32.23    1.31   5
  -5   6   2   70.11    2.00   4
   5  -6  -2   65.77    1.92   1
  -5  -6   2   70.94    1.77   5
   5   6  -2   68.35    1.91   2
  -5  -6   2   70.51    1.99   1
   4   6  -2  402.19    6.85   2
   4   6  -2  407.35    7.01   3
  -4  -6   2  400.77    6.18   5
  -4  -6   2  397.63    6.70   4
   4  -6  -2  409.58    6.41   2
  -4  -6   2  407.05    7.01   1
  -4   6   2  403.22    7.15   3
   4  -6  -2  398.75    7.00   1
  -4   6   2  390.29    7.02   4
  -3  -6   2  436.93    7.37   1
  -3   6   2  434.04    7.63   3
   3   6  -2  433.99    7.20   2
  -3  -6   2  439.17    7.14   4
  -3  -6   2  434.79    6.50   5
  -3   6   2  440.97    7.42   4
   3  -6  -2  437.27    6.87   2
   3   6  -2  440.99    7.50   3
   3  -6  -2  439.78    7.38   1
   2   6  -2  866.17   13.43   2
  -2  -6   2  863.90   13.60   4
   2  -6  -2  852.84   13.23   2
  -2   6   2  868.28   13.78   4
  -2   6   2  876.87   14.53   3
   2  -6  -2  873.96   13.72   1
  -2  -6   2  863.87   13.70   1
   2   6  -2  846.54   14.42   3
   1   6  -2   36.68    0.95   3
  -1   6   2   35.41    0.92   4
   1   6  -2   33.89    0.91   2
   1  -6  -2   35.75    0.87   2
  -1   6   2   35.01    1.00   3
  -1  -6   2   36.24    0.96   1
  -1  -6   2   36.19    0.91   4
   1  -6  -2   35.06    0.95   1
   0  -6   2 1456.80   23.05   1
   0  -6   2 1508.63   23.25   4
   0  -6  -2 1493.93   23.06   1
   0   6  -2 1491.30   22.58   2
   0   6  -2 1500.97   24.68   3
   0  -6  -2 1491.40   22.66   2
   0   6   2 1450.33   23.13   4
   0   6   2 1508.43   24.71   3
  -1  -6  -2 3804.20   57.89   1
   1   6   2 3770.86   58.28   4
  -1   6  -2 3813.41   61.91   3
  -1  -6  -2 3649.75   56.82   2
  -1   6  -2 3872.72   56.79   2
   1  -6   2 3780.66   57.88   1
   1   6   2 3794.33   61.92   3
   1  -6   2 3714.28   58.31   4
   2   6   2    1.65    0.36   3
   2   6   2    1.33    0.26   4
  -2  -6  -2    1.53    0.30   1
  -2   6  -2    1.50    0.25   2
   2  -6   2    1.44    0.37   4
  -2  -6  -2    2.19    0.39   2
  -2   6  -2    0.72    0.37   3
   2  -6   2    1.49    0.27   1
  -3  -6  -2  991.24   15.80   1
   3  -6   2 1018.13   15.81   1
   3   6   2  993.62   17.23   3
   3   6   2 1012.12   15.85   4
  -3   6  -2  995.30   17.19   3
  -3  -6  -2  991.95   15.82   2
   3  -6   2  996.38   16.24   4
   4  -6   2   29.65    1.32   4
   4  -6   2   31.51    1.11   1
  -4  -6  -2   30.37    1.28   2
  -4   6  -2   30.28    1.41   3
   4   6   2   31.72    1.39   3
  -5   6  -2  246.91    5.36   3
   5   6   2  245.77    5.37   3
   5  -6   2  251.96    5.12   4
  -5  -6  -2  246.16    4.96   2
  -6  -6  -2  159.81    3.80   2
  -6   6  -2  160.46    4.08   3
   6   6   2  158.03    4.08   3
   6  -6   2  153.29    3.83   4
   7   7  -2   25.25    1.38   2
  -7   7   2   27.84    1.54   4
  -7  -7   2   21.56    1.26   5
   7  -7  -2   25.26    1.38   1
  -7  -7   2   24.47    1.45   1
   6   7  -2  401.32    7.32   2
  -6  -7   2  402.45    7.48   1
  -6  -7   2  413.49    6.62   5
  -6   7   2  401.26    7.54   4
   6  -7  -2  399.23    7.46   1
  -5   7   2  147.05    3.34   4
  -5  -7   2  155.09    2.97   5
   4  -7  -2  294.62    5.37   1
  -4  -7   2  296.99    5.38   1
  -4   7   2  284.88    5.37   4
  -4   7   2  290.94    5.43   3
   4   7  -2  297.89    5.27   2
   4   7  -2  294.50    5.28   3
  -4  -7   2  290.08    5.00   4
  -3  -7   2  177.04    3.11   4
  -3   7   2  172.84    3.40   4
  -3  -7   2  177.13    3.41   1
   3  -7  -2  174.36    3.41   1
   3   7  -2  180.10    3.29   3
   3  -7  -2  174.04    2.94   2
   3   7  -2  176.79    3.32   2
  -3   7   2  174.78    3.44   3
  -3  -7   2  177.07    3.01   5
   2   7  -2 1046.36   15.89   2
  -2   7   2 1037.90   17.22   3
   2   7  -2 1018.02   17.12   3
  -2   7   2 1028.39   16.28   4
  -2  -7   2 1017.65   16.08   4
   2  -7  -2 1007.43   15.65   2
   2  -7  -2 1024.95   16.21   1
  -2  -7   2 1027.36   16.21   1
   1   7  -2   54.99    1.34   3
  -1  -7   2   54.15    1.31   1
  -1   7   2   54.74    1.25   4
   1  -7  -2   56.04    1.20   2
   1  -7  -2   56.42    1.33   1
  -1  -7   2   56.57    1.24   4
   1   7  -2   56.20    1.25   2
  -1   7   2   54.45    1.38   3
   0   7   2  351.93    5.81   4
   0  -7   2  367.96    5.98   4
   0   7   2  358.97    6.40   3
   0   7  -2  361.20    5.73   2
   0   7  -2  362.73    6.37   3
   0  -7  -2  355.83    5.84   2
   0  -7   2  359.78    5.92   1
   0  -7  -2  350.15    5.90   1
  -1  -7  -2  336.44    5.67   2
  -1   7  -2  338.58    6.15   3
   1   7   2  332.22    6.15   3
   1   7   2  340.70    5.50   4
   1  -7   2  342.21    5.63   1
   1  -7   2  333.75    5.78   4
  -1   7  -2  338.69    5.38   2
  -1  -7  -2  341.78    5.62   1
   2  -7   2    5.50    0.49   1
  -2   7  -2    6.31    0.58   3
   2  -7   2    5.92    0.62   4
  -2   7  -2    5.36    0.40   2
   2   7   2    6.22    0.49   4
  -2  -7  -2    5.88    0.58   2
   2   7   2    5.91    0.56   3
  -2  -7  -2    6.08    0.55   1
   3   7   2  737.79   11.57   4
  -3  -7  -2  711.34   11.72   2
   3  -7   2  720.73   12.04   4
   3  -7   2  742.10   11.66   1
  -3  -7  -2  715.84   11.63   1
   3   7   2  724.18   12.76   3
  -3   7  -2  704.04   12.70   3
   4  -7   2  343.17    5.96   1
  -4   7  -2  340.79    6.69   3
  -4  -7  -2  324.34    6.15   2
   4   7   2  349.25    6.73   3
  -5  -7  -2   25.84    1.29   2
   5   7   2   26.57    1.41   3
   5  -7   2   27.06    1.35   4
  -5   7  -2   25.08    1.47   3
  -6  -7  -2    4.24    0.82   2
   6  -7   2    3.63    0.80   4
   6   7   2    4.07    0.83   3
  -6   7  -2    5.12    0.93   3
  -7  -8   2    0.53    0.66   1
   7  -8  -2    0.03    0.54   1
  -7  -8   2   -0.18    0.52   5
   7   8  -2    0.84    0.63   2
  -7   8   2   -0.21    0.66   4
   6  -8  -2    4.67    0.69   1
   6   8  -2    5.49    0.74   2
  -6  -8   2    5.05    0.77   1
  -6   8   2    6.54    0.85   4
  -6  -8   2    4.09    0.63   5
  -5  -8   2    8.07    0.67   5
   5  -8  -2    7.96    0.76   1
   5   8  -2    8.58    0.78   2
  -5   8   2    9.94    0.87   4
  -5  -8   2    7.96    0.85   1
   4  -8  -2  429.31    7.53   1
  -4   8   2  429.82    7.78   3
   4   8  -2  432.76    7.60   3
   4   8  -2  447.07    7.43   2
  -4  -8   2  435.13    6.66   5
  -4   8   2  424.96    7.57   4
  -4  -8   2  429.91    7.54   1
   3   8  -2  216.31    3.95   2
  -3  -8   2  215.59    3.69   4
   3  -8  -2  211.56    3.51   2
   3  -8  -2  214.99    4.05   1
   3   8  -2  219.88    4.00   3
  -3   8   2  217.28    4.15   3
  -3  -8   2  213.47    4.04   1
  -3   8   2  212.96    4.04   4
  -2  -8   2  842.89   13.21   4
  -2  -8   2  827.09   13.41   1
  -2   8   2  842.22   14.23   3
   2  -8  -2  851.34   13.43   1
   2  -8  -2  826.12   12.85   2
   2   8  -2  850.99   13.13   2
  -2   8   2  830.97   13.43   4
   2   8  -2  834.60   14.12   3
   1   8  -2  383.28    6.77   3
   1  -8  -2  376.65    6.40   1
  -1  -8   2  383.09    6.42   1
  -1   8   2  381.33    6.32   4
   1  -8  -2  378.66    6.14   2
  -1   8   2  393.48    6.85   3
  -1  -8   2  386.75    6.30   4
   1   8  -2  386.25    6.22   2
   0  -8   2  171.09    3.11   1
   0  -8  -2  173.00    3.11   1
   0   8  -2  170.13    3.35   3
   0  -8   2  171.99    3.11   4
   0   8   2  171.97    3.39   3
   0  -8  -2  167.54    3.04   2
   0   8  -2  168.94    2.93   2
   0   8   2  165.56    2.92   4
  -1  -8  -2  209.41    3.68   1
   1   8   2  211.21    4.09   3
  -1  -8  -2  202.35    3.72   2
   1  -8   2  206.80    3.79   4
  -1   8  -2  202.87    4.04   3
  -1   8  -2  204.32    3.41   2
   1  -8   2  207.89    3.67   1
   1   8   2  205.44    3.45   4
  -2  -8  -2   61.15    1.49   1
   2  -8   2   59.45    1.64   4
  -2  -8  -2   61.21    1.62   2
   2   8   2   63.20    1.79   3
   2   8   2   59.92    1.28   4
  -2   8  -2   61.29    1.76   3
   2  -8   2   60.66    1.48   1
  -3  -8  -2  144.23    2.91   1
  -3   8  -2  145.00    3.35   3
   3  -8   2  144.79    3.17   4
   3  -8   2  150.70    2.92   1
   3   8   2  146.56    3.35   3
  -3  -8  -2  144.06    3.09   2
   4  -8   2  342.90    5.87   1
   4   8   2  329.73    6.57   3
  -4  -8  -2  317.72    6.04   2
  -4   8  -2  324.31    6.54   3
   5  -8   2  115.35    3.05   4
   5   8   2  121.32    3.24   3
  -5   8  -2  117.82    3.22   3
  -5  -8  -2  116.79    2.99   2
  -6   8  -2  342.46    7.20   3
  -6  -8  -2  343.85    6.75   2
   6   8   2  345.14    7.23   3
   6  -8   2  332.02    6.84   4
  -7   9   2  104.47    3.08   4
  -7  -9   2  106.22    3.06   1
   7   9  -2  108.63    3.02   2
   7  -9  -2  109.53    3.05   1
   6   9  -2    8.69    0.89   2
  -6  -9   2    8.20    0.90   1
   6  -9  -2    8.86    0.86   1
  -6   9   2    8.43    0.95   4
  -5  -9   2  607.06   10.28   1
   5  -9  -2  584.95   10.25   1
   4   9  -2    7.41    0.65   3
   4  -9  -2    7.91    0.74   1
  -4   9   2    8.58    0.78   3
  -4   9   2    9.02    0.77   4
   4   9  -2    7.74    0.75   2
  -4  -9   2    8.05    0.81   1
  -3   9   2    9.51    0.72   3
   3  -9  -2    9.08    0.68   1
  -3   9   2    9.47    0.69   4
   3   9  -2    7.59    0.65   2
   3   9  -2   10.74    0.64   3
  -3  -9   2    9.02    0.72   1
   2   9  -2    0.78    0.27   3
   2  -9  -2    0.93    0.30   1
  -2  -9   2    0.22    0.21   4
  -2   9   2    1.87    0.36   4
  -2   9   2    0.48    0.29   3
   2   9  -2    2.04    0.35   2
  -2  -9   2   -0.05    0.28   1
   2  -9  -2    0.17    0.17   2
  -1   9   2 1567.09   26.96   3
  -1   9   2 1622.08   25.28   4
   1   9  -2 1658.02   24.70   2
   1   9  -2 1605.13   26.93   3
  -1  -9   2 1635.89   25.26   4
  -1  -9   2 1602.25   25.27   1
   1  -9  -2 1650.20   24.63   2
   1  -9  -2 1622.86   25.27   1
   0   9   2  355.52    5.87   4
   0  -9   2  371.70    6.09   4
   0   9  -2  365.94    6.55   3
   0  -9   2  355.73    6.09   1
   0   9  -2  364.09    5.82   2
   0   9   2  359.80    6.57   3
   0  -9  -2  367.97    6.10   1
   0  -9  -2  352.45    5.95   2
   1  -9   2   26.13    0.89   1
   1  -9   2   26.71    0.95   4
   1   9   2   25.69    1.05   3
  -1   9  -2   25.06    0.72   2
   1   9   2   26.74    0.68   4
  -1  -9  -2   25.24    0.91   1
  -1   9  -2   25.69    1.05   3
  -1  -9  -2   26.13    0.94   2
  -2  -9  -2   13.07    0.83   2
  -2   9  -2    8.76    0.83   3
   2   9   2    8.76    0.86   3
   2  -9   2   10.39    0.80   4
  -2  -9  -2   10.06    0.72   1
   2  -9   2    8.48    0.69   1
   3   9   2  265.72    5.37   3
   3  -9   2  261.37    4.77   1
  -3  -9  -2  267.46    4.97   2
  -3  -9  -2  272.17    4.82   1
  -3   9  -2  259.38    5.34   3
   3  -9   2  264.91    5.08   4
   4   9   2   -0.20    0.40   3
  -4   9  -2   -0.77    0.47   3
  -4  -9  -2    0.77    0.45   2
   4  -9   2    1.12    0.53   4
   4  -9   2    0.18    0.38   1
  -5   9  -2  204.09    4.71   3
   5   9   2  203.50    4.69   3
   5  -9   2  199.58    4.47   4
  -5  -9  -2  200.82    4.39   2
  -6  -9  -2    5.36    0.89   2
  -6   9  -2    5.19    1.00   3
   6  -9   2    4.64    0.91   4
   6   9   2    5.37    0.88   3
   7 -10  -2   18.75    1.28   1
  -7 -10   2   20.31    1.45   1
   7  10  -2   20.23    1.35   2
  -7  10   2   18.63    1.39   4
  -6  10   2   60.70    2.11   4
   6  10  -2   61.23    2.03   2
   6 -10  -2   58.32    2.00   1
  -6 -10   2   60.70    2.08   1
   5 -10  -2    0.92    0.46   1
  -5  10   2    1.50    0.58   4
  -5 -10   2    1.03    0.56   1
   5  10  -2    0.90    0.48   2
  -4 -10   2  416.35    7.37   1
  -4  10   2  399.85    7.35   4
  -4  10   2  415.34    7.64   3
   4  10  -2  423.85    7.26   2
   4 -10  -2  420.11    7.39   1
   4  10  -2  414.64    7.42   3
   3  10  -2  104.52    2.34   2
   3  10  -2  105.64    2.31   3
  -3  10   2  103.22    2.43   3
  -3 -10   2  101.79    2.40   1
   3 -10  -2  103.13    2.40   1
  -3  10   2  106.47    2.38   4
   2 -10  -2  134.85    2.80   1
   2  10  -2  135.75    2.82   3
  -2 -10   2  135.61    2.82   1
   2  10  -2  139.04    2.70   2
  -2  10   2  135.37    2.72   4
  -2  10   2  135.93    2.92   3
  -2 -10   2  137.57    2.46   4
   2 -10  -2  135.05    2.38   2
  -1 -10   2   21.86    0.92   1
   1  10  -2   21.24    0.81   2
   1  10  -2   20.33    0.94   3
  -1  10   2   24.93    1.02   3
   1 -10  -2   20.96    0.75   2
  -1  10   2   23.73    0.82   4
   1 -10  -2   24.35    0.94   1
  -1 -10   2   20.94    0.76   4
   0  10  -2  424.22    6.59   2
   0  10   2  407.19    6.63   4
   0  10  -2  414.26    7.41   3
   0  10   2  419.44    7.45   3
   0 -10  -2  404.60    6.89   1
   0 -10   2  406.33    6.91   1
   0 -10   2  416.93    6.86   4
   0 -10  -2  391.38    6.70   2
  -1  10  -2  172.13    2.96   2
   1 -10   2  174.87    3.37   4
  -1 -10  -2  176.79    3.33   2
  -1 -10  -2  175.31    3.33   1
  -1  10  -2  172.71    3.64   3
   1 -10   2  175.96    3.32   1
   1  10   2  176.08    3.66   3
  -2 -10  -2 3371.46   50.96   1
  -2  10  -2 3342.42   54.62   3
  -2 -10  -2 3328.44   50.15   2
   2 -10   2 3193.67   50.91   1
   2  10   2 3348.37   54.63   3
   2 -10   2 3253.95   51.42   4
   3  10   2   54.68    1.83   3
  -3 -10  -2   55.82    1.58   1
   3 -10   2   54.67    1.72   4
  -3 -10  -2   56.38    1.71   2
   3 -10   2   54.03    1.55   1
  -3  10  -2   52.88    1.83   3
  -4  10  -2   40.12    1.70   3
  -4 -10  -2   38.50    1.51   2
   4 -10   2   40.52    1.41   1
   4 -10   2   40.07    1.56   4
   4  10   2   38.17    1.61   3
   5  10   2   -0.39    0.51   3
  -5 -10  -2    1.76    0.63   2
  -5  10  -2    0.73    0.65   3
   5 -10   2    0.45    0.57   4
  -6 -11   2   84.26    2.54   1
  -6  11   2   87.36    2.61   4
   6  11  -2   86.99    2.53   2
   6 -11  -2   87.34    2.55   1
   5 -11  -2  462.67    8.33   1
  -5 -11   2  459.49    8.32   1
   5  11  -2  464.61    8.20   2
  -5  11   2  463.88    8.39   4
   4  11  -2   16.95    0.88   3
  -4  11   2   16.43    1.02   3
   4 -11  -2   17.32    0.97   1
  -4 -11   2   19.35    1.07   1
  -4  11   2   18.54    1.03   4
   4  11  -2   15.16    0.96   2
  -3 -11   2   81.39    2.08   1
  -3  11   2   80.50    2.02   4
  -3  11   2   78.83    2.09   3
   3  11  -2   80.04    2.00   2
   3 -11  -2   79.71    2.06   1
   3  11  -2   78.86    1.96   3
   2 -11  -2  299.28    4.88   2
   2  11  -2  294.96    5.59   3
  -2 -11   2  302.54    5.44   1
   2 -11  -2  303.59    5.44   1
   2  11  -2  303.86    5.24   2
  -2  11   2  308.57    5.32   4
  -2  11   2  303.17    5.72   3
  -1  11   2 1879.03   29.63   4
  -1 -11   2 1929.20   29.72   1
   1 -11  -2 1944.19   28.89   2
   1 -11  -2 1864.50   29.66   1
  -1 -11   2 1945.21   29.61   4
   1  11  -2 1909.28   28.96   2
  -1  11   2 1880.50   31.69   3
   1  11  -2 1871.65   31.62   3
   0  11   2   69.99    1.87   3
   0  11   2   73.50    1.41   4
   0 -11  -2   66.53    1.68   1
   0 -11   2   69.35    1.72   1
   0  11  -2   69.32    1.84   3
   0 -11  -2   66.07    1.57   2
   0 -11   2   66.05    1.58   4
   0  11  -2   68.63    1.48   2
   1 -11   2   20.08    0.85   1
  -1  11  -2   18.03    1.00   3
   1 -11   2   19.76    0.88   4
  -1 -11  -2   18.78    0.85   2
  -1 -11  -2   18.69    0.90   1
   1  11   2   18.51    0.97   3
   2 -11   2    3.67    0.48   1
   2  11   2    4.75    0.59   3
  -2 -11  -2    5.48    0.59   1
  -2  11  -2    4.30    0.63   3
   2 -11   2    5.44    0.63   4
  -3 -11  -2   62.63    1.88   2
  -3 -11  -2   64.96    1.79   1
  -3  11  -2   63.91    2.06   3
   3 -11   2   65.72    1.76   1
   3 -11   2   63.09    1.91   4
   3  11   2   65.44    2.05   3
   4 -11   2  294.97    5.36   1
  -4  11  -2  284.84    5.98   3
   4  11   2  279.69    5.95   3
  -4 -11  -2  278.46    5.53   2
   4 -11   2  285.33    5.65   4
  -5  11  -2  214.89    4.97   3
   5  11   2  212.86    4.94   3
   5 -11   2  206.73    4.69   4
   6  12  -2    2.94    0.71   2
   6 -12  -2    1.85    0.63   1
  -6 -12   2    1.67    0.67   1
  -6  12   2    1.98    0.75   4
  -5  12   2    8.81    0.93   4
   5  12  -2    8.23    0.84   2
   5 -12  -2    8.71    0.86   1
  -5 -12   2    8.09    0.86   1
  -4  12   2    7.95    0.84   4
   4  12  -2    8.54    0.75   3
   4  12  -2    7.79    0.80   2
  -4 -12   2    7.96    0.78   1
  -4  12   2    8.25    0.88   3
   4 -12  -2    8.18    0.76   1
  -3  12   2  528.11    9.49   3
  -3 -12   2  533.30    9.04   1
   3  12  -2  522.42    8.80   2
   3 -12  -2  517.14    9.00   1
   3  12  -2  525.85    9.31   3
  -3  12   2  523.64    8.96   4
  -2  12   2  130.29    2.71   4
   2 -12  -2  132.53    2.86   1
  -2 -12   2  131.78    2.88   1
   2 -12  -2  135.08    2.36   2
  -2  12   2  135.04    3.01   3
   2  12  -2  128.58    2.87   3
   2  12  -2  131.86    2.72   2
   1 -12  -2   76.33    1.90   1
  -1 -12   2   74.12    1.63   4
   1 -12  -2   73.15    1.61   2
   1  12  -2   75.38    1.98   3
  -1 -12   2   72.15    1.90   1
  -1  12   2   75.40    1.67   4
   1  12  -2   73.06    1.70   2
  -1  12   2   80.68    2.06   3
   0 -12  -2    2.27    0.41   1
   0  12  -2    2.08    0.45   3
   0 -12  -2    2.34    0.35   2
   0  12   2    3.49    0.32   4
   0 -12   2    2.29    0.43   1
   0 -12   2    2.41    0.38   4
   0  12   2    3.19    0.49   3
   0  12  -2    2.68    0.35   2
   1 -12   2  376.75    6.70   1
  -1  12  -2  387.84    7.29   3
   1 -12   2  393.44    6.75   4
  -1 -12  -2  395.68    6.64   2
   1  12   2  389.25    7.29   3
  -1 -12  -2  388.82    6.74   1
  -2  12  -2  249.60    5.13   3
  -2 -12  -2  258.05    4.69   1
   2  12   2  253.67    5.12   3
  -2 -12  -2  256.08    4.72   2
   2 -12   2  239.43    4.62   1
   2 -12   2  241.38    4.73   4
  -3 -12  -2   94.86    2.33   1
   3  12   2   95.02    2.64   3
  -3  12  -2   93.11    2.63   3
  -3 -12  -2   95.86    2.45   2
   3 -12   2   96.93    2.48   4
   3 -12   2   96.59    2.32   1
   4 -12   2  161.20    3.42   1
  -4 -12  -2  153.64    3.58   2
   4 -12   2  154.17    3.63   4
   4  12   2  159.00    3.86   3
  -4  12  -2  151.55    3.84   3
   5 -12   2   95.48    2.82   4
  -5 -12  -2   95.72    2.78   2
  -5  12  -2   94.78    2.96   3
   5  12   2   96.81    2.95   3
   6  13  -2  640.93   11.06   2
   6 -13  -2  614.86   11.14   1
  -6  13   2  624.41   11.27   4
  -6 -13   2  625.71   11.18   1
  -5  13   2   22.66    1.28   4
  -5 -13   2   23.29    1.28   1
   5 -13  -2   25.83    1.30   1
   5  13  -2   22.54    1.23   2
   4  13  -2  198.68    4.06   3
  -4 -13   2  189.09    4.11   1
  -4  13   2  197.71    4.11   4
   4  13  -2  194.56    4.03   2
  -4  13   2  192.95    4.22   3
   3  13  -2   71.14    1.94   2
   3 -13  -2   68.41    1.98   1
  -3 -13   2   70.60    2.02   1
   3  13  -2   74.50    1.98   3
  -3  13   2   68.86    1.92   4
  -3  13   2   71.09    2.09   3
  -2  13   2  204.52    3.83   4
  -2  13   2  201.76    4.22   3
   2  13  -2  197.82    4.09   3
   2 -13  -2  203.63    4.03   1
  -2 -13   2  199.67    4.04   1
   2  13  -2  203.54    3.83   2
  -1  13   2    8.53    0.80   3
   1 -13  -2    9.23    0.75   1
   1 -13  -2   11.08    0.60   2
   1  13  -2    7.77    0.63   2
  -1 -13   2    9.22    0.77   1
   1  13  -2    7.86    0.80   3
  -1  13   2    8.89    0.58   4
   0  13  -2  250.54    4.29   2
   0  13   2  254.30    5.07   3
   0  13  -2  255.59    5.06   3
   0 -13  -2  253.40    4.70   1
   0 -13  -2  244.51    4.45   2
   0 -13   2  256.43    4.73   1
   0 -13   2  252.30    4.52   4
   1  13   2   34.81    1.41   3
  -1 -13  -2   35.69    1.22   2
   1 -13   2   34.44    1.20   4
  -1  13  -2   34.43    1.41   3
   1 -13   2   32.20    1.19   1
  -1 -13  -2   35.02    1.26   1
  -2  13  -2   69.77    2.14   3
  -2 -13  -2   71.74    1.94   2
   2 -13   2   67.59    1.84   1
   2 -13   2   65.94    1.88   4
   2  13   2   68.37    2.09   3
  -2 -13  -2   71.64    1.92   1
   3  13   2    9.11    0.90   3
  -3 -13  -2   11.57    0.98   1
  -3  13  -2   10.44    1.01   3
   3 -13   2   11.18    0.84   1
   3 -13   2   10.23    0.88   4
  -3 -13  -2   10.95    0.89   2
  -4 -13  -2  569.78    9.89   2
   4 -13   2  548.84   10.03   4
   4  13   2  563.05   10.65   3
  -4  13  -2  569.05   10.69   3
   5  13   2    2.78    0.73   3
   5 -13   2    3.06    0.76   4
  -5 -13  -2    3.69    0.77   2
  -5  13  -2    2.07    0.76   3
   6 -14  -2   11.58    1.11   1
  -6  14   2   11.16    1.17   4
  -6 -14   2   10.96    1.15   1
   6  14  -2   11.13    1.11   2
   5  14  -2   46.61    1.77   2
  -5  14   2   50.28    1.86   4
   5 -14  -2   46.69    1.79   1
  -5 -14   2   47.51    1.83   1
   4 -14  -2   11.13    0.90   1
  -4 -14   2   10.27    0.95   1
  -4  14   2   10.70    0.97   4
   4  14  -2    9.41    0.89   2
   4  14  -2   11.83    0.93   3
  -4  14   2    9.53    1.00   3
  -3  14   2  908.80   15.02   4
   3 -14  -2  932.08   15.13   1
  -3 -14   2  911.58   15.14   1
  -3  14   2  908.88   16.02   3
   3  14  -2  932.73   15.84   3
   3  14  -2  909.08   14.75   2
  -2 -14   2    1.23    0.50   1
   2  14  -2    0.76    0.41   2
  -2  14   2    2.92    0.49   4
   2 -14  -2    1.76    0.47   1
   2  14  -2    1.46    0.45   3
  -2  14   2    1.37    0.49   3
   1  14  -2    5.51    0.64   3
   1 -14  -2    4.46    0.56   1
   1  14  -2    5.18    0.52   2
  -1  14   2    7.00    0.70   3
  -1 -14   2    5.56    0.63   1
  -1  14   2    4.54    0.46   4
   1 -14  -2    4.90    0.45   2
   0  14  -2   20.09    1.13   3
   0 -14   2   18.91    0.85   4
   0 -14  -2   20.24    0.97   1
   0 -14  -2   21.88    0.87   2
   0 -14   2   20.00    0.99   1
   0  14   2   20.51    1.13   3
   1 -14   2  968.48   15.98   1
  -1 -14  -2  998.46   16.01   1
   1 -14   2  956.93   15.95   4
   1  14   2  999.92   17.20   3
  -1  14  -2  990.45   17.17   3
  -1 -14  -2 1010.10   15.68   2
  -2 -14  -2   30.12    1.25   1
   2  14   2   26.87    1.32   3
  -2 -14  -2   27.05    1.17   2
   2 -14   2   24.95    1.14   4
   2 -14   2   25.62    1.11   1
  -2  14  -2   27.26    1.38   3
   3  14   2  182.50    4.24   3
   3 -14   2  184.27    3.80   1
  -3 -14  -2  189.23    3.88   1
  -3  14  -2  175.87    4.23   3
  -3 -14  -2  176.80    3.88   2
   3 -14   2  178.39    3.92   4
   4  14   2    1.00    0.58   3
  -4  14  -2    0.32    0.64   3
  -4 -14  -2    1.25    0.63   2
   4 -14   2    0.40    0.58   4
  -5  14  -2  104.36    3.25   3
  -5 -14  -2  109.90    3.10   2
   5 -14   2  104.89    3.07   4
   5  14   2  110.61    3.29   3
  -6 -15   2  134.36    3.60   1
   6 -15  -2  144.74    3.68   1
  -6  15   2  133.34    3.60   4
   6  15  -2  133.55    3.55   2
  -5 -15   2    0.60    0.59   1
   5  15  -2    0.49    0.53   2
   5 -15  -2    0.42    0.52   1
  -5  15   2    0.33    0.63   4
  -4  15   2   84.83    2.40   4
   4 -15  -2   85.67    2.46   1
   4  15  -2   92.08    2.40   3
   4  15  -2   86.30    2.40   2
  -4 -15   2   85.63    2.48   1
  -4  15   2   91.14    2.58   3
  -3  15   2  188.44    3.86   4
   3 -15  -2  183.14    3.97   1
  -3 -15   2  184.81    4.02   1
  -3  15   2  188.85    4.19   3
   3  15  -2  183.12    3.83   2
   3  15  -2  195.56    4.05   3
  -2  15   2  288.00    5.22   4
  -2  15   2  287.85    5.80   3
  -2 -15   2  292.68    5.54   1
   2  15  -2  285.35    5.66   3
   2  15  -2  286.02    5.22   2
  -1  15   2   80.33    2.32   3
   1  15  -2   80.96    1.93   2
  -1 -15   2   84.34    2.21   1
   1  15  -2   84.94    2.30   3
   1 -15  -2   83.64    1.83   2
   0 -15  -2  625.77   10.66   1
   0 -15  -2  623.85   10.24   2
   0  15  -2  651.87   11.45   3
   0 -15   2  625.71   10.67   1
   0  15   2  635.63   11.43   3
  -1 -15  -2   14.26    0.86   2
   1 -15   2   15.09    0.90   1
  -1 -15  -2   15.34    0.94   1
   1 -15   2   14.33    0.84   4
  -1  15  -2   13.60    1.07   3
   1  15   2   14.81    1.07   3
   2  15   2   99.98    2.77   3
  -2 -15  -2  103.66    2.55   1
   2 -15   2  100.99    2.49   4
   2 -15   2   96.08    2.47   1
  -2  15  -2  102.85    2.82   3
  -2 -15  -2  100.29    2.50   2
  -3 -15  -2   14.24    1.04   1
  -3 -15  -2   12.20    0.95   2
   3 -15   2   12.64    0.94   1
   3 -15   2   12.24    0.97   4
  -3  15  -2   11.20    1.10   3
   3  15   2   13.69    1.07   3
  -4  15  -2  276.41    6.20   3
   4  15   2  284.65    6.18   3
  -4 -15  -2  291.75    5.79   2
   4 -15   2  281.74    5.82   4
  -5 -16   2   20.70    1.34   1
   5  16  -2   18.44    1.25   2
   5 -16  -2   20.40    1.27   1
  -5  16   2   19.93    1.31   4
   4  16  -2    5.50    0.69   3
  -4  16   2    5.55    0.80   4
  -4  16   2    4.23    0.77   3
   4 -16  -2    4.92    0.73   1
   4  16  -2    5.53    0.75   2
  -4 -16   2    4.70    0.76   1
  -3  16   2  145.20    3.20   4
   3  16  -2  141.48    3.21   2
  -3 -16   2  139.93    3.38   1
   3  16  -2  155.47    3.42   3
   3 -16  -2  136.08    3.31   1
  -3  16   2  144.92    3.52   3
  -2 -16   2  162.43    3.62   1
  -2  16   2  164.49    3.79   3
   2 -16  -2  158.31    3.58   1
  -2  16   2  165.97    3.31   4
   2  16  -2  157.73    3.63   3
   2  16  -2  160.28    3.33   2
  -1 -16   2   26.90    1.24   1
  -1  16   2   29.14    1.37   3
   1  16  -2   26.75    1.29   3
   1  16  -2   25.79    1.04   2
   1 -16  -2   27.62    1.25   1
   0 -16   2  241.95    4.74   1
   0 -16  -2  238.60    4.38   2
   0 -16  -2  231.07    4.68   1
   0  16   2  234.54    5.03   3
   0  16  -2  244.47    5.06   3
   1  16   2  130.64    3.29   3
  -1  16  -2  131.25    3.31   3
   1 -16   2  129.76    3.02   1
  -1 -16  -2  132.67    2.89   2
  -1 -16  -2  130.68    3.03   1
   1 -16   2  125.59    2.83   4
  -2  16  -2  120.62    3.22   3
   2 -16   2  121.77    2.87   4
  -2 -16  -2  128.84    2.98   1
   2  16   2  117.63    3.17   3
   2 -16   2  118.90    2.89   1
  -2 -16  -2  118.42    2.86   2
  -3 -16  -2    1.01    0.55   2
   3  16   2    0.91    0.57   3
  -3 -16  -2    1.05    0.55   1
   3 -16   2    0.72    0.46   1
  -3  16  -2    0.64    0.67   3
   3 -16   2    1.33    0.60   4
   4 -16   2   41.60    1.79   4
   4  16   2   43.18    1.91   3
  -4  16  -2   43.90    2.02   3
  -4 -16  -2   43.30    1.81   2
   5 -17  -2  540.33   10.05   1
  -5 -17   2  530.76   10.03   1
   5  17  -2  566.72    9.91   2
  -5  17   2  555.32   10.01   4
  -4 -17   2    2.01    0.68   1
   4 -17  -2    2.51    0.65   1
  -4  17   2    1.73    0.70   3
   4  17  -2    1.64    0.61   2
   4  17  -2    2.58    0.63   3
  -4  17   2    2.62    0.71   4
  -3  17   2   29.78    1.30   4
  -3  17   2   28.76    1.46   3
   3  17  -2   32.51    1.43   3
   3  17  -2   28.37    1.27   2
  -3 -17   2   29.50    1.42   1
   3 -17  -2   28.23    1.36   1
  -2 -17   2   55.81    1.89   1
   2 -17  -2   55.57    1.87   1
   2  17  -2   56.02    1.87   3
  -2  17   2   54.73    1.97   3
   2  17  -2   57.27    1.73   2
   1 -17  -2  195.57    4.17   1
  -1  17   2  201.82    4.48   3
   1  17  -2  200.44    4.39   3
   0 -17  -2   72.99    2.12   1
   0 -17   2   73.10    2.13   1
   0  17   2   71.54    2.26   3
   0  17  -2   76.08    2.32   3
   0 -17  -2   75.95    1.90   2
   1  17   2   20.25    1.26   3
  -1  17  -2   21.93    1.33   3
  -1 -17  -2   21.49    1.13   1
  -1 -17  -2   21.92    1.06   2
   1 -17   2   20.78    1.12   1
  -2  17  -2   23.08    1.40   3
  -2 -17  -2   22.41    1.20   1
  -2 -17  -2   22.81    1.16   2
   2  17   2   22.48    1.34   3
   2 -17   2   22.94    1.17   4
   2 -17   2   20.95    1.15   1
   3 -17   2  250.60    5.14   1
  -3 -17  -2  258.23    5.23   2
   3 -17   2  262.08    5.28   4
  -3  17  -2  255.68    5.73   3
   3  17   2  249.36    5.64   3
  -4  17  -2   21.92    1.53   3
  -4 -17  -2   22.56    1.38   2
   4 -17   2   23.03    1.41   4
   4  17   2   24.07    1.52   3
   5  18  -2    6.98    0.98   2
  -5  18   2    7.58    1.03   4
  -5 -18   2    6.34    0.99   1
   5 -18  -2    7.95    0.95   1
   4  18  -2  335.71    6.46   2
  -4 -18   2  334.02    6.70   1
  -4  18   2  335.64    6.97   3
   4 -18  -2  334.90    6.68   1
  -4  18   2  336.32    6.48   4
   3  18  -2    4.04    0.69   2
  -3 -18   2    3.47    0.72   1
  -3  18   2    3.87    0.75   3
   3  18  -2    5.06    0.73   3
  -3  18   2    4.52    0.71   4
   3 -18  -2    4.04    0.71   1
   2  18  -2  378.13    7.34   3
   2 -18  -2  372.61    7.09   1
  -2 -18   2  371.88    7.08   1
  -2  18   2  378.19    7.48   3
   2  18  -2  373.16    6.67   2
   1 -18  -2   15.06    1.03   1
  -1 -18   2   14.55    1.02   1
  -1  18   2   15.37    1.15   3
   1  18  -2   15.85    1.16   3
   0 -18   2  129.29    3.18   1
   0  18  -2  139.94    3.47   3
   0  18   2  128.11    3.38   3
   0 -18  -2  137.85    3.25   1
   0 -18  -2  139.64    2.91   2
   1  18   2   28.98    1.48   3
  -1  18  -2   26.60    1.46   3
   1 -18   2   29.81    1.35   1
  -1 -18  -2   28.56    1.35   1
  -1 -18  -2   27.03    1.20   2
   2 -18   2  373.51    6.96   1
  -2 -18  -2  360.47    6.76   2
   2 -18   2  369.85    6.82   4
  -2 -18  -2  366.67    6.92   1
  -2  18  -2  361.19    7.52   3
   2  18   2  366.68    7.50   3
   3 -18   2    9.12    0.99   4
  -3 -18  -2    8.16    0.93   2
  -3  18  -2    7.69    1.05   3
   3  18   2    8.42    0.98   3
   3 -18   2    8.90    0.93   1
   4 -18   2    8.03    1.01   4
  -4 -18  -2    6.91    0.97   2
   4  18   2    8.40    1.04   3
   4 -19  -2   94.20    2.84   1
  -4  19   2   97.67    2.73   4
  -4 -19   2   98.76    2.95   1
   4  19  -2   95.46    2.74   2
  -4  19   2   98.14    2.99   3
  -3  19   2    0.34    0.62   3
   3  19  -2    0.48    0.53   2
  -3 -19   2    0.70    0.62   1
   3  19  -2    0.96    0.59   3
   3 -19  -2    0.86    0.57   1
  -2  19   2   11.03    1.11   3
   2 -19  -2   13.61    1.05   1
  -2 -19   2   11.76    1.02   1
   2  19  -2   11.25    1.02   3
   1  19  -2  528.37   10.02   3
  -1  19   2  531.64   10.12   3
   1 -19  -2  521.14    9.48   1
  -1 -19   2  543.16    9.57   1
   0  19   2    4.09    0.73   3
   0  19  -2    4.46    0.78   3
   0 -19   2    4.34    0.69   1
   0 -19  -2    4.18    0.70   1
  -1 -19  -2   10.19    0.86   2
  -1  19  -2   11.82    1.13   3
   1 -19   2    9.84    0.94   1
   1  19   2   10.23    1.08   3
  -1 -19  -2    9.89    0.94   1
  -2 -19  -2    4.02    0.73   1
   2  19   2    2.97    0.77   3
  -2  19  -2    2.60    0.80   3
   2 -19   2    3.66    0.70   1
  -2 -19  -2    4.50    0.72   2
  -3  19  -2  300.64    6.79   3
   3  19   2  310.06    6.73   3
   3 -19   2  318.06    6.22   4
  -3 -19  -2  308.35    6.17   2
   3 -19   2  308.95    6.17   1
  -4  20   2  231.82    5.38   3
   4 -20  -2  220.99    5.11   1
  -4  20   2  231.68    4.92   4
  -4 -20   2  234.69    5.23   1
   4  20  -2  231.94    4.97   2
   3 -20  -2   64.09    2.25   1
  -3 -20   2   66.58    2.32   1
  -3  20   2   67.80    2.42   3
   3  20  -2   64.78    2.08   2
   3  20  -2   67.98    2.30   3
  -2  20   2   27.58    1.57   3
  -2 -20   2   24.79    1.40   1
   2 -20  -2   25.31    1.39   1
   2  20  -2   27.38    1.42   3
   1  20  -2   59.33    2.15   3
  -1  20   2   60.69    2.21   3
  -1 -20   2   61.59    2.09   1
   1 -20  -2   56.92    2.03   1
   0  20   2   21.13    1.37   3
   0  20  -2   20.59    1.39   3
   0 -20   2   22.64    1.29   1
   0 -20  -2   22.14    1.29   1
  -1  20  -2  265.12    5.87   3
  -1 -20  -2  272.78    5.18   2
   1  20   2  266.04    5.87   3
   1 -20   2  254.22    5.43   1
  -1 -20  -2  263.70    5.45   1
  -2 -20  -2   10.94    0.96   2
   2 -20   2    9.02    0.96   1
  -2  20  -2   11.01    1.21   3
  -2 -20  -2    9.89    1.03   1
   2  20   2    8.42    1.02   3
  -3 -20  -2    1.67    0.68   2
   3 -20   2    1.36    0.66   1
  -3  20  -2    0.58    0.79   3
   3  20   2    0.77    0.71   3
  -3 -21   2    0.84    0.66   1
   3  21  -2    0.52    0.66   3
   3 -21  -2    1.13    0.62   1
  -3  21   2    0.02    0.70   3
  -2 -21   2   33.45    1.64   1
   2 -21  -2   33.55    1.62   1
  -2  21   2   36.02    1.78   3
   2  21  -2   32.07    1.59   3
   1 -21  -2   82.23    2.56   1
  -1  21   2   87.05    2.76   3
  -1 -21   2   86.78    2.63   1
   1  21  -2   86.65    2.72   3
   0 -21  -2  117.51    3.19   1
   0  21  -2  120.29    3.41   3
   0  21   2  123.48    3.44   3
   0 -21   2  121.94    3.21   1
  -1  21  -2   21.50    1.52   3
   1 -21   2   21.01    1.33   1
  -1 -21  -2   21.58    1.31   1
   1  21   2   20.72    1.44   3
  -2  21  -2   -1.04    0.66   3
  -2 -21  -2    1.03    0.60   2
   2  21   2    0.13    0.64   3
   2 -21   2   -0.72    0.56   1
  -2 -21  -2   -0.14    0.59   1
  -3  22   2  486.92    9.59   3
   3  22  -2  491.49    9.38   3
  -3 -22   2  460.60    9.06   1
   3 -22  -2  460.42    9.01   1
   2  22  -2    1.31    0.66   3
  -2 -22   2    0.75    0.64   1
  -2  22   2    0.26    0.67   3
   2 -22  -2    1.50    0.65   1
   1  22  -2    4.71    0.86   3
  -1  22   2    2.94    0.79   3
  -1 -22   2    2.55    0.73   1
   1 -22  -2    2.35    0.70   1
   0  22  -2  212.01    5.07   3
   0 -22   2  215.74    4.82   1
   0  22   2  210.09    5.07   3
   0 -22  -2  210.75    4.79   1
   1 -22   2  386.40    7.45   1
  -1 -22  -2  373.75    7.40   1
   1  22   2  367.09    7.88   3
  -1  22  -2  381.29    7.96   3
  -2  23   2   51.57    2.23   3
  -2 -23   2   50.41    2.08   1
   2  23  -2   49.09    2.07   3
   2 -23  -2   49.55    2.05   1
   1  23  -2    7.61    1.00   3
  -1  23   2    7.29    1.02   3
  -1 -23   2    7.23    0.98   1
   1 -23  -2    8.43    1.00   1
   0 -23   2  187.00    4.43   1
   0  23  -2  178.29    4.60   3
   0 -23  -2  180.25    4.37   1
   0  23   2  176.50    4.58   3
   7   0  -3  153.21    3.73   1
  -7   0   3  156.56    3.64   4
   6   0  -3    0.13    0.48   1
  -6   0   3    0.72    0.52   4
   6   0  -3    0.33    0.42   2
  -5   0   3  888.56   14.44   4
   5   0  -3  872.96   14.45   1
   5   0  -3  877.66   13.95   2
   4   0  -3    0.01    0.26   2
   4   0  -3   -0.22    0.29   1
  -4   0   3    0.02    0.33   4
  -3   0   3  767.47   12.46   4
   3   0  -3  776.59   12.39   1
   3   0  -3  773.66   12.10   2
  -1   0   3   10.90    0.58   4
  -1   0   3    9.91    0.46   3
   1   0  -3    9.25    0.41   1
   1   0  -3   10.29    0.53   2
   0   0  -3    0.60    0.22   2
   0   0   3    0.07    0.22   4
   0   0   3   -0.30    0.19   3
   1   0   3 1726.03   27.17   4
  -1   0  -3 1751.55   26.48   2
   1   0   3 1732.89   28.87   3
   2   0   3   -0.13    0.32   3
  -2   0  -3    0.43    0.30   2
   2   0   3   -0.05    0.29   4
  -3   0  -3  343.12    5.97   2
   3   0   3  345.28    6.16   4
   3   0   3  346.17    6.66   3
   4   0   3   -1.14    0.44   3
   4   0   3    0.86    0.49   4
  -4   0  -3    0.38    0.43   2
   5   0   3   10.67    1.10   3
   5   0   3   13.63    1.16   4
   7   1  -3    5.87    0.84   1
   7  -1  -3    6.18    0.85   1
  -7   1   3    6.64    0.87   4
   7   1  -3    6.93    0.77   2
  -7  -1   3    8.65    0.92   4
   6  -1  -3  483.29    8.52   1
  -6   1   3  466.60    8.40   4
   6  -1  -3  471.23    8.01   2
   6   1  -3  463.88    8.08   2
   6   1  -3  470.00    8.47   1
  -6  -1   3  484.12    8.39   4
   5   1  -3  400.89    6.88   2
   5  -1  -3  399.91    6.81   2
   5  -1  -3  408.36    7.20   1
  -5   1   3  411.10    7.17   4
   5   1  -3  396.73    7.18   1
  -5  -1   3  404.46    7.11   4
   4  -1  -3  136.64    2.86   1
   4   1  -3  135.44    2.70   2
  -4  -1   3  135.04    2.81   4
   4   1  -3  136.17    2.86   1
  -4   1   3  134.93    2.84   4
   4  -1  -3  135.18    2.65   2
   3   1  -3   14.25    0.67   2
   3   1  -3   12.41    0.70   1
  -3   1   3   14.89    0.75   4
  -3  -1   3   15.33    0.75   4
   3  -1  -3   13.62    0.72   1
   3  -1  -3   14.20    0.66   2
   2   1  -3  120.88    2.31   1
  -2  -1   3  122.43    2.38   4
   2   1  -3  121.09    2.31   2
   2  -1  -3  123.40    2.30   2
  -2   1   3  125.01    2.42   4
   2  -1  -3  119.17    2.31   1
   1   1  -3  208.65    3.58   2
  -1   1   3  206.90    3.74   3
  -1  -1   3  210.33    3.73   3
   1  -1  -3  208.17    3.59   2
   1   1  -3  213.92    3.50   1
  -1   1   3  210.59    3.69   4
   1  -1  -3  209.60    3.49   1
  -1  -1   3  207.36    3.68   4
   0  -1   3 1506.29   24.06   4
   0   1  -3 1535.40   23.44   2
   0   1   3 1554.67   25.51   3
   0  -1  -3 1551.65   23.47   2
   0   1   3 1535.05   24.04   4
   0  -1   3 1547.29   25.50   3
   1  -1   3  165.64    3.40   3
  -1   1  -3  172.48    3.09   2
   1   1   3  170.28    3.18   4
   1   1   3  169.77    3.41   3
  -1  -1  -3  167.00    3.12   2
   1  -1   3  173.56    3.22   4
   2   1   3  133.61    2.74   4
   2   1   3  136.04    3.02   3
   2  -1   3  137.02    3.02   3
   2  -1   3  136.42    2.80   4
  -2   1  -3  135.03    2.66   2
  -2  -1  -3  134.44    2.71   2
   3  -1   3  102.38    2.64   3
  -3  -1  -3  104.19    2.33   2
   3  -1   3  104.79    2.44   4
   3   1   3  102.83    2.64   3
  -3   1  -3  102.23    2.28   2
   3   1   3  103.70    2.38   4
   4  -1   3  546.39    9.62   4
   4   1   3  566.94    9.58   4
  -4  -1  -3  556.46    9.34   2
  -4   1  -3  566.08    9.27   2
   4   1   3  544.77   10.33   3
   5  -1   3  444.09    8.02   4
   5   1   3  439.15    7.91   4
  -5   1  -3  431.27    8.57   3
   5   1   3  425.49    8.62   3
   7   2  -3   44.16    1.62   2
  -7   2   3   41.08    1.70   4
   7   2  -3   42.34    1.76   1
  -7  -2   3   46.16    1.72   4
   7  -2  -3   43.93    1.78   1
   6  -2  -3   10.20    0.89   1
  -6   2   3    9.79    0.95   4
   6   2  -3   10.48    0.81   2
   6  -2  -3    9.85    0.75   2
  -6  -2   3    9.44    0.97   4
   6   2  -3   10.47    0.95   1
  -5  -2   3   40.21    1.40   4
   5  -2  -3   39.24    1.25   2
  -5   2   3   39.92    1.46   4
   5   2  -3   35.47    1.44   1
   5  -2  -3   38.49    1.45   1
   5   2  -3   38.87    1.32   2
   4  -2  -3  152.58    3.14   1
  -4  -2   3  153.05    3.07   4
   4   2  -3  155.67    3.01   2
  -4   2   3  154.44    3.16   4
   4  -2  -3  153.91    2.91   2
   4   2  -3  152.82    3.14   1
   3   2  -3 1549.91   24.20   1
  -3  -2   3 1535.52   24.30   4
   3  -2  -3 1548.75   23.63   2
   3   2  -3 1557.43   23.72   2
  -3   2   3 1561.84   24.39   4
   3  -2  -3 1542.03   24.19   1
   2  -2  -3 2661.59   40.21   2
   2   2  -3 2611.29   40.23   2
  -2   2   3 2610.49   41.30   4
   2   2  -3 2750.12   41.03   1
   2  -2  -3 2711.32   41.01   1
  -2   2   3 2637.08   43.95   3
  -2  -2   3 2667.27   41.28   4
   1  -2  -3  987.14   15.33   2
  -1   2   3 1003.92   15.73   4
  -1   2   3  986.25   16.57   3
  -1  -2   3  984.01   15.72   4
   1  -2  -3 1009.28   15.51   1
   1   2  -3  991.43   16.55   3
  -1  -2   3  999.43   15.51   1
  -1  -2   3 1013.11   13.68   5
   1   2  -3  984.00   15.33   2
   0   2   3   37.56    1.02   4
   0   2   3   37.09    1.06   3
   0  -2   3   38.34    1.08   3
   0  -2   3   38.07    1.06   4
   0  -2  -3   36.78    1.02   2
   0   2  -3   38.50    1.00   2
   1   2   3 1326.74   22.40   3
  -1   2  -3 1331.94   20.48   2
  -1  -2  -3 1332.59   20.57   2
   1  -2   3 1358.29   21.12   4
   1   2   3 1324.55   21.02   4
   1  -2   3 1349.50   22.41   3
   2  -2   3  990.76   15.77   4
   2   2   3  974.37   16.76   3
   2  -2   3  992.41   16.78   3
   2   2   3  966.69   15.64   4
  -2  -2  -3  967.23   15.33   2
  -2   2  -3  980.59   15.24   2
  -3   2  -3  123.84    2.55   2
   3  -2   3  123.89    2.99   3
   3   2   3  122.35    2.66   4
   3   2   3  122.99    2.98   3
   3  -2   3  120.41    2.74   4
  -3  -2  -3  120.27    2.66   2
   4  -2   3  158.79    3.50   4
  -4  -2  -3  155.27    3.37   2
   4   2   3  164.24    3.40   4
   4  -2   3  151.95    3.75   3
   4   2   3  153.74    3.75   3
  -5  -2  -3   94.41    2.55   2
   5  -2   3   94.93    2.67   4
  -5   2  -3   93.75    2.87   3
   5   2   3   99.23    2.59   4
   5   2   3   91.95    2.85   3
   7   3  -3    1.11    0.56   2
   7  -3  -3    1.82    0.66   1
  -7   3   3    0.82    0.63   4
   7   3  -3    0.36    0.55   1
   6   3  -3  126.88    3.13   1
  -6  -3   3  139.56    3.03   4
  -6   3   3  128.58    3.10   4
   6  -3  -3  126.67    3.11   1
   6   3  -3  127.76    2.95   2
   5   3  -3 1089.97   17.55   2
   5   3  -3 1125.84   18.07   1
   5  -3  -3 1109.40   17.35   2
  -5  -3   3 1140.40   17.97   4
   5  -3  -3 1112.13   18.04   1
   4  -3  -3  657.12   10.48   2
   4  -3  -3  667.65   10.94   1
   4   3  -3  664.59   10.96   1
  -4  -3   3  664.61   10.86   4
   4   3  -3  657.78   10.66   2
  -4   3   3  665.05   11.00   4
   3  -3  -3   13.27    0.69   1
   3   3  -3   12.33    0.72   1
   3   3  -3   13.55    0.71   2
  -3  -3   3   13.96    0.69   4
  -3   3   3   14.83    0.75   4
   3  -3  -3   13.11    0.61   2
  -2   3   3  576.03    9.55   3
   2  -3  -3  581.61    8.95   2
   2  -3  -3  570.24    9.13   1
  -2  -3   3  542.14    9.17   4
  -2   3   3  566.41    9.25   4
   2   3  -3  570.37    9.13   1
   2   3  -3  561.20    9.00   2
  -1  -3   3  260.39    4.32   1
  -1   3   3  260.45    4.48   4
  -1   3   3  261.26    4.64   3
  -1  -3   3  261.25    3.81   5
   1   3  -3  260.13    4.37   2
   1   3  -3  260.91    4.59   3
  -1  -3   3  259.68    4.49   4
   1  -3  -3  261.01    4.38   2
   1  -3  -3  261.69    4.32   1
   0   3  -3    2.78    0.32   3
   0  -3   3    3.34    0.30   1
   0   3   3    2.68    0.32   4
   0   3   3    3.76    0.36   3
   0  -3   3    2.65    0.36   4
   0  -3  -3    4.26    0.38   2
   0   3  -3    3.68    0.33   2
   1   3   3  192.07    3.82   3
   1  -3   3  189.42    3.80   3
  -1  -3  -3  195.52    3.52   2
  -1   3  -3  189.35    3.39   2
   1   3   3  196.96    3.50   4
   1  -3   3  192.38    3.60   4
   2  -3   3   70.97    1.80   4
   2  -3   3   69.40    1.92   3
   2   3   3   67.28    1.90   3
  -2  -3  -3   68.27    1.73   2
  -2   3  -3   68.06    1.60   2
   2   3   3   70.52    1.68   4
   3   3   3    9.26    0.83   3
  -3  -3  -3   10.63    0.80   2
   3   3   3   10.67    0.76   4
   3  -3   3   10.96    0.83   4
  -3   3  -3   10.22    0.70   2
   4   3   3  536.40   10.13   3
  -4  -3  -3  547.42    9.25   2
  -4   3  -3  533.00   10.08   3
   4  -3   3  544.21    9.50   4
   4   3   3  551.92    9.30   4
   5   3   3  381.77    7.84   3
  -5  -3  -3  395.61    7.13   2
   5  -3   3  385.04    7.31   4
  -5   3  -3  384.74    7.79   3
   7   4  -3   28.07    1.45   1
   7  -4  -3   28.26    1.45   1
  -7   4   3   28.64    1.47   4
   7   4  -3   28.85    1.36   2
  -6  -4   3  353.14    6.31   4
   6  -4  -3  341.18    6.52   1
   6   4  -3  339.01    6.51   1
  -6   4   3  344.10    6.52   4
   6   4  -3  343.03    6.30   2
  -5  -4   3   34.08    1.28   4
   5  -4  -3   33.43    1.34   1
   5  -4  -3   37.76    1.15   2
  -5   4   3   33.07    1.35   4
   5   4  -3   37.06    1.32   2
   5   4  -3   32.54    1.40   1
  -4  -4   3   43.75    1.30   4
   4  -4  -3   42.54    1.16   2
   4  -4  -3   42.62    1.37   1
  -4   4   3   39.45    1.37   4
   4   4  -3   48.92    1.46   1
   4   4  -3   42.69    1.32   2
   3  -4  -3   55.28    1.29   2
   3   4  -3   55.27    1.45   1
   3   4  -3   56.43    1.42   2
  -3   4   3   53.56    1.47   4
  -3   4   3   55.04    1.22   3
  -3  -4   3   54.03    1.37   4
   3  -4  -3   56.00    1.45   1
   2   4  -3 1237.52   19.18   2
  -2   4   3 1217.28   19.68   4
  -2  -4   3 1252.27   19.51   1
  -2  -4   3 1257.40   17.21   5
   2  -4  -3 1234.90   19.08   2
  -2  -4   3 1265.49   19.63   4
  -2   4   3 1259.92   20.70   3
   2  -4  -3 1263.04   19.52   1
  -1   4   3  530.76    8.58   4
  -1  -4   3  520.44    8.41   1
   1  -4  -3  532.07    8.42   1
  -1  -4   3  524.89    8.58   4
   1  -4  -3  524.27    8.37   2
   1   4  -3  535.95    8.38   2
  -1   4   3  519.78    9.01   3
   1   4  -3  531.29    8.96   3
   0   4  -3  270.53    4.92   3
   0  -4   3  272.82    4.74   4
   0  -4  -3  267.35    4.61   2
   0  -4   3  266.18    4.42   1
   0   4   3  271.25    4.97   3
   0   4   3  268.01    4.61   4
   0   4  -3  269.30    4.51   2
   0  -4  -3  281.01    4.42   1
  -1   4  -3    5.55    0.51   3
   1   4   3    6.93    0.54   4
  -1  -4  -3    8.08    0.60   2
   1  -4   3    8.81    0.65   4
  -1   4  -3    6.44    0.48   2
   1   4   3    5.50    0.60   3
  -2   4  -3 1052.83   17.71   3
  -2   4  -3 1020.78   16.03   2
   2   4   3 1036.17   17.74   3
  -2  -4  -3 1047.33   16.28   2
   2   4   3 1024.07   16.47   4
   2  -4   3 1036.03   16.70   4
  -3   4  -3    2.89    0.57   3
   3  -4   3    2.30    0.53   4
   3   4   3    2.18    0.45   4
   3   4   3    2.45    0.54   3
  -3   4  -3    3.83    0.46   2
  -3  -4  -3    2.78    0.52   2
   4   4   3    8.40    0.87   4
  -4  -4  -3    6.84    0.76   2
  -4   4  -3    6.72    0.83   3
   4  -4   3    7.98    0.81   4
   4   4   3    6.69    0.79   3
   5  -4   3   29.85    1.51   4
  -5   4  -3   26.57    1.60   3
  -5  -4  -3   28.63    1.45   2
   5   4   3   28.77    1.55   3
  -7  -5   3    0.22    0.58   1
  -7   5   3    0.35    0.62   4
   7  -5  -3   -0.41    0.53   1
   7   5  -3    2.05    0.65   2
  -7  -5   3   -0.52    0.47   5
   6   5  -3   44.06    1.66   1
  -6   5   3   44.42    1.68   4
   6   5  -3   43.04    1.56   2
   6  -5  -3   41.49    1.61   1
  -5  -5   3  567.93    9.39   4
  -5   5   3  544.71    9.63   4
   5  -5  -3  561.64    9.00   2
   5  -5  -3  552.62    9.61   1
   5   5  -3  569.07    9.38   2
   4  -5  -3   34.48    1.23   1
  -4  -5   3   32.67    1.10   4
  -4   5   3   34.63    1.27   4
   4   5  -3   34.89    1.25   1
   4   5  -3   33.92    1.19   2
   4  -5  -3   31.15    1.00   2
   3  -5  -3    7.89    0.53   2
  -3  -5   3    9.07    0.66   1
   3  -5  -3    8.37    0.63   1
   3   5  -3    9.09    0.62   2
  -3   5   3    8.36    0.67   4
  -3  -5   3    9.14    0.58   5
  -3  -5   3    9.68    0.61   4
  -2   5   3    7.08    0.57   4
   2  -5  -3    4.49    0.44   2
   2  -5  -3    4.34    0.39   1
  -2  -5   3    4.85    0.41   4
  -2  -5   3    3.96    0.34   5
  -2  -5   3    4.26    0.41   1
  -2   5   3    3.88    0.43   3
   2   5  -3    3.25    0.29   3
   2   5  -3    4.56    0.48   2
   1   5  -3  973.19   16.38   3
  -1   5   3  956.58   15.51   4
   1  -5  -3  977.89   15.36   1
  -1  -5   3  990.90   15.55   4
  -1  -5   3  980.89   15.37   1
  -1   5   3  999.87   16.46   3
   1  -5  -3  974.68   15.16   2
   1   5  -3  996.93   15.16   2
   0  -5  -3   91.25    1.70   1
   0  -5  -3   86.87    1.87   2
   0  -5   3   86.87    1.69   1
   0   5  -3   87.12    1.78   2
   0   5  -3   87.18    1.97   3
   0   5   3   90.57    1.81   4
   0  -5   3   89.24    1.93   4
   0   5   3   88.84    2.01   3
  -1  -5  -3  899.73   14.28   2
   1   5   3  913.14   14.46   4
  -1   5  -3  911.48   14.08   2
  -1  -5  -3  903.98   14.21   1
   1  -5   3  915.39   14.22   1
  -1   5  -3  913.27   15.51   3
   1   5   3  902.68   15.54   3
   1  -5   3  925.66   14.66   4
  -2  -5  -3   10.20    0.76   2
   2  -5   3   12.33    0.82   4
   2  -5   3   10.84    0.54   1
  -2   5  -3    8.74    0.87   3
  -2   5  -3   10.19    0.62   2
   2   5   3   10.73    0.85   3
  -3   5  -3  324.00    6.42   3
   3  -5   3  329.87    6.11   4
   3   5   3  330.81    6.48   3
   3   5   3  334.78    5.80   4
  -4   5  -3  248.35    5.31   3
   4   5   3  245.73    5.34   3
  -4  -5  -3  251.34    4.89   2
   4  -5   3  246.78    5.00   4
  -5  -5  -3  230.25    4.81   2
   5  -5   3  229.98    4.93   4
  -5   5  -3  230.30    5.24   3
   5   5   3  230.25    5.26   3
   7  -6  -3   70.61    2.32   1
  -7  -6   3   71.09    2.35   1
  -7   6   3   67.77    2.31   4
  -7  -6   3   70.94    2.10   5
   7   6  -3   70.77    2.23   2
   6   6  -3   67.64    2.02   2
  -6  -6   3   65.70    1.87   5
  -6  -6   3   66.67    2.11   1
  -6   6   3   67.58    2.13   4
   6  -6  -3   66.54    2.09   1
  -5   6   3   28.27    1.28   4
   5   6  -3   26.72    1.17   2
   5  -6  -3   27.82    1.22   1
  -5  -6   3   28.74    1.28   1
  -5  -6   3   27.60    1.10   4
  -5  -6   3   27.69    1.12   5
  -4  -6   3  485.33    7.29   5
   4   6  -3  486.27    8.07   2
  -4   6   3  476.69    8.29   4
   4  -6  -3  479.41    7.71   2
   4  -6  -3  476.87    8.24   1
  -4  -6   3  491.04    8.26   1
  -4  -6   3  471.65    8.01   4
   3   6  -3  670.38   11.14   3
  -3  -6   3  661.29   10.71   4
  -3  -6   3  666.17   10.86   1
  -3   6   3  674.39   10.95   4
  -3  -6   3  661.32    9.57   5
   3  -6  -3  659.75   10.38   2
   3  -6  -3  645.77   10.83   1
  -3   6   3  667.85   11.27   3
   3   6  -3  668.27   10.64   2
  -2  -6   3 1527.22   23.74   1
   2   6  -3 1524.05   25.18   3
  -2   6   3 1533.76   25.24   3
   2   6  -3 1548.05   23.33   2
   2  -6  -3 1484.54   23.17   2
  -2  -6   3 1496.34   23.80   4
   2  -6  -3 1536.04   23.75   1
  -2   6   3 1530.89   23.93   4
   1  -6  -3   87.67    1.77   1
  -1  -6   3   85.65    1.78   1
  -1  -6   3   87.46    1.85   4
  -1   6   3   84.53    1.81   4
   1  -6  -3   85.85    1.79   2
   1   6  -3   86.87    1.85   3
   1   6  -3   84.70    1.79   2
  -1   6   3   85.17    1.91   3
   0  -6   3  426.01    6.99   4
   0  -6  -3  411.99    6.80   2
   0   6  -3  415.96    7.32   3
   0   6   3  405.56    6.79   4
   0   6   3  404.80    7.35   3
   0  -6  -3  426.77    6.71   1
   0   6  -3  413.70    6.66   2
   0  -6   3  406.11    6.70   1
  -1   6  -3  408.70    6.63   2
   1   6   3  418.26    6.81   4
   1  -6   3  404.77    7.03   4
  -1  -6  -3  415.87    6.90   2
  -1  -6  -3  419.03    6.66   1
  -1   6  -3  418.60    7.45   3
   1  -6   3  402.02    6.64   1
   1   6   3  405.20    7.47   3
   2  -6   3  974.45   15.91   4
  -2  -6  -3  972.49   15.51   2
   2   6   3 1004.75   16.94   3
  -2   6  -3  981.39   16.85   3
   2  -6   3 1007.16   15.37   1
   2   6   3  972.27   15.58   4
  -2   6  -3  952.78   15.15   2
   3   6   3    4.66    0.66   3
   3  -6   3    6.39    0.70   4
   3   6   3    6.63    0.69   4
  -3   6  -3    4.79    0.69   3
  -3  -6  -3    3.68    0.59   2
   4   6   3   23.06    1.29   3
  -4  -6  -3   22.09    1.16   2
  -4   6  -3   21.85    1.36   3
   4  -6   3   24.88    1.26   4
  -5   6  -3   22.28    1.50   3
   5   6   3   23.98    1.43   3
   5  -6   3   25.75    1.42   4
  -5  -6  -3   26.86    1.41   2
  -7   7   3    8.53    1.02   4
  -7  -7   3    7.22    0.82   5
   7   7  -3    7.62    0.90   2
  -7  -7   3    7.59    0.96   1
   7  -7  -3    8.01    0.92   1
  -6  -7   3   85.80    2.45   1
   6  -7  -3   82.43    2.40   1
  -6  -7   3   83.40    2.16   5
  -6   7   3   82.45    2.43   4
   6   7  -3   82.41    2.32   2
  -5  -7   3  267.13    4.54   5
  -5   7   3  260.53    5.14   4
  -5  -7   3  260.51    5.13   1
  -4   7   3  500.51    8.74   4
  -4  -7   3  512.30    7.68   5
   4  -7  -3  515.22    8.10   2
   4   7  -3  514.83    8.52   2
  -4  -7   3  507.76    8.42   4
  -4  -7   3  508.55    8.71   1
   4  -7  -3  500.05    8.69   1
  -3   7   3   17.01    0.87   4
  -3  -7   3   15.78    0.85   1
   3   7  -3   16.71    0.67   3
  -3  -7   3   15.89    0.75   5
   3  -7  -3   16.66    0.82   1
   3  -7  -3   17.17    0.69   2
  -3  -7   3   16.47    0.74   4
   3   7  -3   15.62    0.80   2
  -3   7   3   19.30    0.81   3
   2   7  -3    2.80    0.37   2
  -2   7   3    2.91    0.41   4
  -2  -7   3    3.41    0.38   4
   2  -7  -3    4.31    0.43   2
   2   7  -3    2.89    0.33   3
  -2   7   3    3.78    0.38   3
  -2  -7   3    2.91    0.39   1
   2  -7  -3    2.98    0.38   1
   1   7  -3  710.06   12.19   3
  -1   7   3  719.28   11.53   4
  -1  -7   3  718.97   11.47   1
  -1   7   3  726.38   12.28   3
   1   7  -3  714.25   11.27   2
   1  -7  -3  713.35   11.27   2
   1  -7  -3  724.48   11.46   1
  -1  -7   3  716.90   11.56   4
   0  -7   3  309.47    5.27   4
   0  -7  -3  306.10    5.05   1
   0   7  -3  294.48    5.51   3
   0   7  -3  297.85    4.98   2
   0   7   3  298.55    5.06   4
   0  -7  -3  297.04    5.12   2
   0   7   3  305.74    5.58   3
   0  -7   3  294.17    5.04   1
   1  -7   3  110.64    2.43   4
  -1  -7  -3  111.48    2.15   1
   1   7   3  112.63    2.61   3
  -1   7  -3  109.98    2.55   3
   1  -7   3  113.58    2.15   1
  -1  -7  -3  116.74    2.43   2
   1   7   3  112.36    2.19   4
  -1   7  -3  108.63    2.14   2
   2  -7   3  114.71    2.66   4
   2  -7   3  119.70    2.30   1
   2   7   3  120.86    2.37   4
  -2   7  -3  118.53    2.83   3
   2   7   3  119.49    2.86   3
  -2  -7  -3  118.59    2.64   2
   3  -7   3  306.87    5.82   4
  -3   7  -3  306.87    6.12   3
   3   7   3  307.54    6.18   3
   4  -7   3  205.48    4.37   4
   4   7   3  202.85    4.63   3
  -4  -7  -3  200.84    4.27   2
  -4   7  -3  204.01    4.61   3
   5  -7   3  243.43    5.22   4
  -5   7  -3  244.11    5.52   3
   5   7   3  249.15    5.59   3
  -5  -7  -3  244.22    5.12   2
   7  -8  -3  326.38    6.53   1
  -7  -8   3  323.50    5.74   5
  -7  -8   3  321.47    6.49   1
   7   8  -3  318.36    6.32   2
  -7   8   3  310.91    6.48   4
  -6  -8   3   75.95    2.31   1
  -6   8   3   77.19    2.34   4
   6  -8  -3   77.14    2.32   1
  -6  -8   3   76.03    2.05   5
   6   8  -3   75.52    2.24   2
   5   8  -3   23.49    1.12   2
  -5  -8   3   23.53    1.07   5
   5  -8  -3   23.87    1.15   1
  -5   8   3   24.27    1.21   4
  -5  -8   3   22.78    1.20   1
  -4   8   3   31.47    1.26   4
  -4  -8   3   28.04    1.03   4
   4  -8  -3   28.72    1.19   1
   4   8  -3   28.19    1.16   2
  -4  -8   3   27.94    1.21   1
  -4  -8   3   28.44    1.07   5
   3  -8  -3  531.41    8.94   1
  -3  -8   3  525.13    8.68   4
  -3   8   3  531.06    8.96   4
   3   8  -3  543.85    9.11   3
   3   8  -3  537.91    8.76   2
  -3  -8   3  527.44    8.91   1
   3  -8  -3  535.49    8.41   2
  -3   8   3  522.16    9.26   3
  -2  -8   3   31.30    1.05   1
   2   8  -3   26.15    0.95   2
   2   8  -3   28.20    0.94   3
  -2   8   3   28.22    0.99   4
  -2  -8   3   28.75    0.92   4
  -2   8   3   29.97    0.99   3
   2  -8  -3   28.69    1.00   1
   2  -8  -3   28.89    0.88   2
   1  -8  -3  207.84    3.73   1
  -1  -8   3  204.07    3.73   1
  -1   8   3  207.89    3.71   4
   1  -8  -3  206.89    3.65   2
   1   8  -3  204.71    3.65   2
  -1  -8   3  210.02    3.75   4
  -1   8   3  202.74    3.99   3
   1   8  -3  206.07    3.93   3
   0   8   3    3.44    0.46   3
   0  -8  -3    4.10    0.39   1
   0  -8   3    3.88    0.45   4
   0  -8  -3    3.60    0.42   2
   0   8   3    3.93    0.37   4
   0   8  -3    3.74    0.38   2
   0  -8   3    4.13    0.40   1
   0   8  -3    4.01    0.44   3
   1   8   3  329.56    5.57   4
   1   8   3  336.52    6.32   3
  -1  -8  -3  337.63    5.80   2
  -1  -8  -3  331.52    5.60   1
   1  -8   3  330.61    5.91   4
  -1   8  -3  337.73    6.26   3
   1  -8   3  342.91    5.62   1
  -1   8  -3  324.61    5.45   2
  -2  -8  -3  127.68    2.80   2
   2   8   3  128.09    2.46   4
   2   8   3  126.48    3.01   3
   2  -8   3  126.43    2.46   1
   2  -8   3  124.58    2.83   4
  -2   8  -3  124.24    2.98   3
   3  -8   3  139.70    3.23   4
  -3   8  -3  142.98    3.42   3
   3   8   3  143.72    3.46   3
  -3  -8  -3  141.68    3.19   2
  -4   8  -3   18.75    1.28   3
   4  -8   3   18.38    1.14   4
  -4  -8  -3   20.44    1.17   2
   4   8   3   19.64    1.24   3
   5   8   3   58.53    2.24   3
   5  -8   3   57.14    2.08   4
  -5  -8  -3   57.73    2.06   2
  -5   8  -3   55.91    2.22   3
  -7   9   3    2.65    0.83   4
   7  -9  -3    2.56    0.69   1
   7   9  -3    3.64    0.77   2
  -7  -9   3    1.52    0.75   1
  -6  -9   3  174.27    4.01   1
  -6  -9   3  176.40    3.55   5
   6   9  -3  178.02    3.94   2
   6  -9  -3  176.06    4.01   1
  -6   9   3  176.16    4.04   4
  -5  -9   3    0.12    0.47   1
   5   9  -3    0.37    0.43   2
  -5  -9   3    0.29    0.41   5
  -5   9   3    0.40    0.51   4
   5  -9  -3    0.34    0.40   1
  -4   9   3  416.25    7.32   4
   4  -9  -3  397.83    7.25   1
  -4  -9   3  414.95    7.28   1
   4   9  -3  410.49    7.12   2
  -3   9   3  132.16    2.85   3
  -3   9   3  137.22    2.87   4
   3   9  -3  128.67    2.78   2
  -3  -9   3  132.45    2.57   4
   3   9  -3  135.15    2.69   3
   3  -9  -3  132.28    2.46   2
  -3  -9   3  135.52    2.88   1
   3  -9  -3  130.24    2.84   1
   2  -9  -3   44.53    1.30   1
  -2   9   3   42.12    1.24   4
  -2  -9   3   43.97    1.19   4
  -2   9   3   41.20    1.29   3
   2   9  -3   43.74    1.26   2
   2   9  -3   43.15    1.24   3
  -2  -9   3   43.68    1.32   1
   2  -9  -3   42.72    1.12   2
   1   9  -3   30.33    1.06   3
  -1   9   3   31.03    0.98   4
   1  -9  -3   31.55    1.03   1
  -1   9   3   29.62    1.10   3
   1   9  -3   29.29    0.96   2
  -1  -9   3   31.51    1.05   1
   1  -9  -3   28.73    0.95   2
  -1  -9   3   31.48    1.00   4
   0   9  -3 1045.09   16.21   2
   0  -9   3 1072.39   16.80   4
   0  -9   3 1036.82   16.59   1
   0  -9  -3 1054.60   16.59   1
   0   9   3 1045.79   17.89   3
   0  -9  -3 1057.16   16.39   2
   0   9  -3 1044.28   17.81   3
   0   9   3 1051.22   16.55   4
  -1   9  -3    5.30    0.48   2
   1  -9   3    5.68    0.55   1
   1   9   3    6.80    0.52   4
   1   9   3    5.49    0.60   3
  -1   9  -3    5.01    0.57   3
   1  -9   3    5.82    0.59   4
  -1  -9  -3    6.10    0.59   2
  -1  -9  -3    7.20    0.57   1
   2  -9   3   45.29    1.51   4
   2   9   3   42.99    1.59   3
  -2   9  -3   43.15    1.58   3
  -2  -9  -3   46.38    1.50   2
   2  -9   3   45.15    1.25   1
  -3  -9  -3   81.36    2.24   2
  -3   9  -3   82.38    2.42   3
   3  -9   3   81.01    2.27   4
   3   9   3   81.12    2.42   3
  -4   9  -3  450.88    8.71   3
   4  -9   3  447.44    8.24   4
  -4  -9  -3  434.86    8.06   2
   4   9   3  449.45    8.74   3
  -5  -9  -3    2.14    0.68   2
   5  -9   3    1.30    0.68   4
  -5   9  -3    0.51    0.73   3
   5   9   3    1.35    0.69   3
  -7 -10   3  153.96    3.88   1
   7 -10  -3  150.71    3.85   1
   7  10  -3  156.07    3.81   2
  -7  10   3  150.57    3.89   4
   6 -10  -3    7.64    0.86   1
  -6  10   3    7.21    0.91   4
  -6 -10   3    7.96    0.92   1
   6  10  -3    7.86    0.89   2
   5 -10  -3   19.29    1.10   1
  -5  10   3   18.70    1.15   4
  -5 -10   3   19.98    1.15   1
   5  10  -3   19.99    1.10   2
  -4  10   3   10.60    0.90   4
   4 -10  -3   11.14    0.82   1
  -4 -10   3   10.12    0.90   1
   4  10  -3   10.73    0.83   2
   3 -10  -3 1277.37   20.51   1
  -3  10   3 1305.71   20.58   4
  -3  10   3 1289.41   21.68   3
   3 -10  -3 1287.50   19.66   2
   3  10  -3 1284.39   20.08   2
  -3 -10   3 1280.84   20.50   1
   3  10  -3 1281.71   21.49   3
   2  10  -3    1.19    0.35   2
   2 -10  -3    1.82    0.32   2
   2 -10  -3    0.87    0.33   1
   2  10  -3    1.55    0.35   3
  -2 -10   3    1.07    0.39   1
  -2  10   3    1.07    0.38   3
  -2  10   3    1.24    0.37   4
  -2 -10   3    0.94    0.32   4
  -1 -10   3   72.67    1.70   4
   1  10  -3   73.69    1.85   3
   1 -10  -3   71.82    1.66   2
  -1 -10   3   71.82    1.77   1
   1  10  -3   71.09    1.66   2
  -1  10   3   71.67    1.66   4
  -1  10   3   69.45    1.88   3
   1 -10  -3   74.01    1.78   1
   0  10  -3    2.22    0.45   3
   0 -10  -3    2.82    0.41   2
   0  10   3    1.93    0.43   3
   0 -10  -3    3.41    0.41   1
   0  10   3    3.29    0.36   4
   0 -10   3    3.64    0.46   4
   0  10  -3    2.00    0.35   2
   0 -10   3    2.62    0.41   1
  -1 -10  -3  585.04    9.71   1
   1 -10   3  584.11    9.72   1
   1  10   3  600.90    9.56   4
  -1  10  -3  593.92   10.62   3
  -1 -10  -3  601.39    9.79   2
   1 -10   3  604.37   10.01   4
   1  10   3  598.29   10.66   3
   2 -10   3  204.84    3.79   1
  -2 -10  -3  203.91    4.07   2
   2  10   3  204.12    4.41   3
  -2  10  -3  201.87    4.36   3
   3  10   3  511.68    9.56   3
  -3  10  -3  514.56    9.53   3
   3 -10   3  494.54    8.97   4
  -3 -10  -3  501.94    8.81   2
   4  10   3   26.07    1.45   3
  -4  10  -3   27.82    1.52   3
  -4 -10  -3   26.61    1.36   2
   4 -10   3   27.28    1.39   4
   5 -10   3  145.45    3.71   4
  -5 -10  -3  148.05    3.69   2
  -5  10  -3  141.11    3.89   3
   5  10   3  142.86    3.90   3
   7  11  -3    0.72    0.67   2
  -7  11   3    1.12    0.81   4
  -7 -11   3    1.39    0.75   1
   7 -11  -3    0.95    0.67   1
   6 -11  -3   77.85    2.43   1
  -6 -11   3   78.11    2.45   1
  -6  11   3   80.15    2.47   4
   6  11  -3   79.12    2.39   2
   5 -11  -3  115.83    2.92   1
  -5 -11   3  114.86    2.92   1
   5  11  -3  115.05    2.87   2
  -5  11   3  115.12    2.92   4
  -4  11   3  163.55    3.51   4
   4 -11  -3  156.38    3.50   1
  -4  11   3  163.63    3.49   3
   4  11  -3  158.17    3.41   2
  -3  11   3   99.38    2.39   4
   3 -11  -3   99.37    2.42   1
  -3 -11   3  102.16    2.47   1
  -3  11   3  100.98    2.46   3
   3  11  -3  102.26    2.37   2
   3  11  -3  105.19    2.32   3
   2 -11  -3  402.73    6.88   1
  -2 -11   3  401.43    6.89   1
  -2 -11   3  397.25    6.61   4
   2  11  -3  392.67    7.12   3
   2 -11  -3  397.04    6.43   2
  -2  11   3  389.41    7.23   3
   2  11  -3  392.83    6.66   2
  -2  11   3  376.77    6.74   4
   1  11  -3  585.79    9.35   2
  -1 -11   3  575.77    9.55   4
   1  11  -3  584.29   10.25   3
   1 -11  -3  605.80    9.69   1
  -1  11   3  576.42   10.30   3
  -1  11   3  568.97    9.49   4
   1 -11  -3  577.32    9.34   2
  -1 -11   3  576.97    9.65   1
   0  11   3  785.38   12.59   4
   0 -11   3  798.14   12.90   4
   0  11  -3  810.33   13.79   3
   0 -11  -3  791.40   12.81   1
   0 -11  -3  810.84   12.62   2
   0  11   3  796.42   13.82   3
   0  11  -3  791.18   12.39   2
   0 -11   3  757.88   12.79   1
  -1  11  -3   82.84    2.24   3
   1 -11   3   81.68    2.06   4
   1 -11   3   82.27    1.94   1
  -1 -11  -3   81.27    1.94   1
   1  11   3   83.31    2.28   3
  -1 -11  -3   85.48    2.08   2
  -2  11  -3   14.33    1.04   3
   2 -11   3   13.41    0.91   4
  -2 -11  -3   14.55    0.93   2
   2 -11   3   14.75    0.83   1
   2  11   3   14.56    1.02   3
  -3  11  -3    1.40    0.60   3
   3  11   3    2.65    0.60   3
   3 -11   3    1.25    0.55   4
  -3 -11  -3    4.04    0.65   2
  -4 -11  -3  243.75    5.07   2
   4  11   3  243.09    5.47   3
   4 -11   3  238.70    5.11   4
   5 -11   3    4.08    0.84   4
  -5 -11  -3    4.65    0.83   2
  -5  11  -3    3.92    0.91   3
   5  11   3    3.89    0.83   3
  -6 -12   3  139.85    3.52   1
  -6  12   3  135.35    3.50   4
   6 -12  -3  139.84    3.52   1
   6  12  -3  139.97    3.46   2
   5  12  -3   35.46    1.48   2
  -5 -12   3   34.60    1.51   1
   5 -12  -3   34.54    1.49   1
  -5  12   3   37.05    1.56   4
  -4  12   3  162.04    3.55   4
  -4  12   3  171.17    3.62   3
   4 -12  -3  158.73    3.56   1
   4  12  -3  153.24    3.44   2
   3 -12  -3    0.93    0.42   1
  -3 -12   3    1.73    0.50   1
  -3  12   3    0.77    0.48   4
  -3  12   3    0.82    0.46   3
   3  12  -3    1.16    0.38   3
   3  12  -3    1.38    0.44   2
  -2  12   3  127.63    2.71   4
   2 -12  -3  132.57    2.51   2
  -2  12   3  125.32    2.95   3
   2 -12  -3  132.56    2.88   1
  -2 -12   3  130.21    2.89   1
   2  12  -3  130.08    2.88   3
   2  12  -3  136.03    2.76   2
  -1  12   3   83.18    2.23   3
  -1  12   3   84.16    1.88   4
  -1 -12   3   85.76    2.10   1
   1 -12  -3   83.83    1.90   2
   1  12  -3   87.28    2.20   3
   1  12  -3   86.59    1.93   2
  -1 -12   3   82.13    1.94   4
   1 -12  -3   87.00    2.11   1
   0 -12  -3   46.55    1.39   1
   0  12  -3   46.28    1.26   2
   0 -12  -3   48.18    1.39   2
   0  12  -3   47.77    1.58   3
   0  12   3   46.61    1.59   3
   0 -12   3   47.27    1.42   4
   0 -12   3   47.09    1.41   1
   0  12   3   46.52    1.16   4
   1 -12   3  334.21    6.14   4
  -1 -12  -3  339.33    5.98   1
  -1 -12  -3  348.58    6.06   2
   1  12   3  346.02    6.64   3
  -1  12  -3  339.30    6.59   3
   1 -12   3  333.19    5.98   1
   2 -12   3  232.96    4.73   4
  -2  12  -3  238.81    5.06   3
   2 -12   3  245.55    4.49   1
  -3  12  -3   97.96    2.80   3
  -3 -12  -3   98.01    2.61   2
   3  12   3   98.27    2.81   3
   3 -12   3   92.20    2.57   4
  -4  12  -3   29.62    1.62   3
  -4 -12  -3   29.39    1.48   2
   4 -12   3   30.72    1.50   4
   4  12   3   30.79    1.61   3
   6  13  -3    0.37    0.59   2
  -6  13   3    0.13    0.70   4
   6 -13  -3    0.47    0.55   1
  -6 -13   3   -0.10    0.58   1
   5 -13  -3  292.29    5.86   1
  -5  13   3  295.66    5.85   4
   5  13  -3  292.69    5.76   2
  -5 -13   3  293.63    5.88   1
  -4  13   3  104.76    2.65   3
  -4  13   3  101.90    2.61   4
  -4 -13   3   98.69    2.63   1
   4 -13  -3   97.87    2.61   1
   4  13  -3   97.25    2.53   2
  -3  13   3  347.22    6.29   4
   3  13  -3  339.91    6.17   2
  -3  13   3  353.32    6.67   3
  -3 -13   3  344.28    6.40   1
   3  13  -3  349.93    6.46   3
  -2  13   3   43.85    1.35   4
   2 -13  -3   48.28    1.25   2
   2  13  -3   43.21    1.47   3
  -2 -13   3   48.30    1.58   1
   2  13  -3   46.66    1.44   2
  -2  13   3   47.26    1.59   3
   2 -13  -3   47.68    1.53   1
  -1 -13   3  508.61    8.83   1
  -1  13   3  515.03    9.44   3
   1  13  -3  523.66    8.48   2
  -1  13   3  516.53    8.56   4
   1  13  -3  524.10    9.38   3
   1 -13  -3  517.22    8.45   2
  -1 -13   3  514.87    8.62   4
   1 -13  -3  524.08    8.84   1
   0  13   3   16.22    1.01   3
   0 -13   3   16.40    0.85   1
   0 -13   3   15.07    0.85   4
   0 -13  -3   15.20    0.83   2
   0 -13  -3   15.07    0.84   1
   0  13  -3   14.36    0.98   3
   1  13   3   81.32    2.34   3
   1 -13   3   79.61    2.09   4
  -1 -13  -3   82.62    2.10   2
   1 -13   3   76.59    1.99   1
  -1  13  -3   79.23    2.31   3
  -1 -13  -3   82.87    2.04   1
   2  13   3   83.77    2.49   3
  -2 -13  -3   81.19    2.26   2
   2 -13   3   83.60    2.28   4
   2 -13   3   94.32    2.17   1
  -2  13  -3   81.32    2.47   3
  -3 -13  -3  593.09   10.24   2
   3 -13   3  580.29   10.38   4
   3  13   3  588.98   11.08   3
  -3  13  -3  593.70   11.07   3
   4 -13   3    0.51    0.61   4
  -4  13  -3    0.39    0.66   3
   4  13   3    0.16    0.58   3
  -4 -13  -3    0.82    0.59   2
   6 -14  -3   90.92    2.79   1
   6  14  -3   97.15    2.81   2
  -6 -14   3   94.65    2.85   1
  -6  14   3   94.31    2.84   4
   5 -14  -3    0.27    0.50   1
  -5  14   3   -0.08    0.56   4
  -5 -14   3    0.21    0.58   1
   5  14  -3    0.68    0.55   2
  -4 -14   3  748.29   12.79   1
  -4  14   3  756.80   12.75   4
   4  14  -3  745.17   12.51   2
   4 -14  -3  743.48   12.79   1
  -4  14   3  766.50   13.40   3
  -3  14   3   -0.01    0.46   4
  -3  14   3    0.04    0.48   3
  -3 -14   3    0.54    0.48   1
   3  14  -3    0.48    0.40   3
   3  14  -3    0.29    0.41   2
   3 -14  -3    0.91    0.44   1
  -2  14   3  565.74    9.75   4
  -2 -14   3  579.07   10.01   1
   2  14  -3  603.54    9.67   2
  -2  14   3  583.82   10.59   3
   2  14  -3  590.11   10.45   3
   2 -14  -3  587.61    9.99   1
  -1  14   3  166.42    3.76   3
  -1 -14   3  163.33    3.50   1
  -1  14   3  169.05    3.21   4
   1  14  -3  169.32    3.71   3
   1 -14  -3  173.52    3.54   1
   1 -14  -3  165.17    3.23   2
   1  14  -3  166.05    3.26   2
   0 -14  -3   53.60    1.63   1
   0 -14   3   55.87    1.59   4
   0 -14   3   56.21    1.66   1
   0 -14  -3   55.09    1.59   2
   0  14  -3   57.04    1.86   3
   0  14   3   53.72    1.82   3
   1 -14   3    1.93    0.50   4
   1 -14   3    1.96    0.47   1
  -1 -14  -3    2.61    0.52   2
   1  14   3    2.28    0.57   3
  -1 -14  -3    2.63    0.50   1
  -1  14  -3    2.12    0.61   3
   2 -14   3  230.29    4.48   1
  -2  14  -3  237.05    5.09   3
  -2 -14  -3  230.16    4.65   2
   2  14   3  227.79    5.05   3
   2 -14   3  226.42    4.67   4
  -3 -14  -3   96.57    2.66   2
   3 -14   3   94.09    2.64   4
   3  14   3   89.83    2.79   3
  -3  14  -3   92.87    2.84   3
  -4 -14  -3   59.61    2.16   2
   4  14   3   59.17    2.31   3
  -4  14  -3   58.12    2.29   3
   4 -14   3   62.21    2.18   4
  -6 -15   3   27.24    1.57   1
  -6  15   3   26.06    1.57   4
   6 -15  -3   26.84    1.54   1
   6  15  -3   27.08    1.51   2
  -5 -15   3  138.95    3.52   1
   5 -15  -3  137.78    3.51   1
   5  15  -3  140.60    3.43   2
  -5  15   3  138.66    3.45   4
  -4  15   3   83.36    2.42   3
  -4 -15   3   82.23    2.42   1
  -4  15   3   81.24    2.34   4
   4  15  -3   80.99    2.31   2
   4 -15  -3   82.39    2.41   1
  -3  15   3   19.84    1.09   4
  -3 -15   3   19.58    1.13   1
   3  15  -3   21.01    1.10   3
  -3  15   3   22.54    1.29   3
   3  15  -3   19.79    1.04   2
   3 -15  -3   20.40    1.12   1
   2  15  -3   44.78    1.46   2
  -2  15   3   44.31    1.39   4
   2 -15  -3   44.65    1.56   1
   2  15  -3   44.02    1.57   3
  -2  15   3   44.54    1.65   3
  -2 -15   3   44.10    1.60   1
   1  15  -3  509.11    8.28   2
   1 -15  -3  502.39    8.24   2
   1 -15  -3  513.15    8.71   1
  -1  15   3  468.75    9.22   3
  -1 -15   3  498.17    8.70   1
   1  15  -3  502.38    9.20   3
   0 -15   3  354.81    6.24   4
   0 -15  -3  350.60    6.14   2
   0  15  -3  350.87    6.86   3
   0 -15   3  344.06    6.35   1
   0 -15  -3  351.96    6.36   1
   0  15   3  338.24    6.85   3
   1 -15   3  397.05    7.19   4
  -1  15  -3  396.21    7.78   3
   1  15   3  393.90    7.81   3
   1 -15   3  404.61    7.17   1
  -1 -15  -3  401.55    7.08   2
  -1 -15  -3  406.75    7.15   1
  -2  15  -3    2.63    0.70   3
   2 -15   3    3.06    0.54   1
   2  15   3    2.82    0.65   3
  -2 -15  -3    4.09    0.66   2
   2 -15   3    3.00    0.62   4
   3 -15   3  322.13    6.38   4
  -3 -15  -3  333.19    6.38   2
   3  15   3  324.30    6.87   3
  -3  15  -3  317.79    6.85   3
  -4  15  -3   10.85    1.23   3
   4 -15   3   13.32    1.14   4
  -4 -15  -3   12.16    1.13   2
   4  15   3   12.82    1.23   3
   5 -16  -3   39.97    1.76   1
  -5  16   3   40.46    1.75   4
  -5 -16   3   40.22    1.78   1
   5  16  -3   39.80    1.71   2
   4 -16  -3    3.00    0.68   1
  -4  16   3    2.83    0.70   3
  -4  16   3    2.04    0.68   4
  -4 -16   3    2.25    0.67   1
   4  16  -3    1.94    0.65   2
   3 -16  -3    6.88    0.76   1
  -3  16   3    5.29    0.72   4
  -3 -16   3    4.92    0.75   1
   3  16  -3    6.39    0.69   3
   3  16  -3    5.17    0.67   2
  -3  16   3    6.80    0.81   3
  -2  16   3   57.85    1.96   3
  -2  16   3   57.33    1.64   4
   2  16  -3   60.55    1.74   2
   2 -16  -3   58.80    1.86   1
  -2 -16   3   58.54    1.90   1
   2  16  -3   58.15    1.86   3
   1 -16  -3   72.13    2.06   1
  -1 -16   3   69.52    2.04   1
  -1  16   3   66.48    2.15   3
   1 -16  -3   73.36    1.82   2
   1  16  -3   70.78    2.18   3
   0  16  -3  123.65    3.15   3
   0 -16  -3  123.31    2.89   1
   0 -16   3  118.00    2.86   1
   0  16   3  118.53    3.13   3
   0 -16  -3  123.84    2.73   2
   1  16   3   40.23    1.71   3
  -1 -16  -3   41.86    1.50   1
   1 -16   3   42.89    1.50   4
  -1  16  -3   43.48    1.78   3
  -1 -16  -3   42.86    1.55   2
   1 -16   3   43.25    1.55   1
   2 -16   3  203.88    4.29   1
  -2 -16  -3  211.61    4.43   2
   2 -16   3  208.46    4.42   4
   2  16   3  209.05    4.83   3
  -2  16  -3  214.90    4.88   3
  -3 -16  -3  207.82    4.61   2
  -3  16  -3  208.45    5.00   3
   3 -16   3  214.12    4.65   4
   3  16   3  209.24    5.01   3
  -5  17   3   34.70    1.68   4
  -5 -17   3   34.61    1.69   1
   5 -17  -3   34.52    1.68   1
   5  17  -3   35.64    1.65   2
   4  17  -3  496.30    8.94   2
  -4  17   3  504.83    9.05   4
  -4  17   3  526.30    9.66   3
   4 -17  -3  488.37    9.19   1
  -4 -17   3  500.04    9.24   1
   3  17  -3    1.34    0.53   3
   3 -17  -3    0.78    0.50   1
  -3  17   3   -0.52    0.52   4
  -3  17   3    1.21    0.62   3
   3  17  -3    0.57    0.50   2
  -3 -17   3    0.73    0.55   1
   2  17  -3  137.34    3.01   2
  -2 -17   3  134.59    3.25   1
  -2  17   3  130.92    3.35   3
   2  17  -3  136.63    3.27   3
   2 -17  -3  129.17    3.18   1
  -1 -17   3   43.42    1.62   1
   1 -17  -3   43.64    1.61   1
   1  17  -3   43.83    1.74   3
  -1  17   3   42.37    1.72   3
   0  17  -3  213.00    4.76   3
   0  17   3  208.99    4.76   3
   0 -17  -3  220.69    4.19   2
   0 -17   3  213.17    4.41   1
   0 -17  -3  208.50    4.39   1
  -1 -17  -3   31.73    1.35   1
  -1 -17  -3   34.14    1.41   2
  -1  17  -3   33.61    1.61   3
   1  17   3   32.38    1.56   3
   1 -17   3   32.21    1.33   4
   1 -17   3   31.26    1.37   1
   2  17   3   94.67    2.91   3
  -2 -17  -3  100.41    2.69   2
  -2  17  -3  100.62    3.02   3
   2 -17   3  100.38    2.68   4
   2 -17   3   98.76    2.60   1
   3  17   3   15.20    1.32   3
   3 -17   3   16.61    1.26   4
  -3 -17  -3   18.30    1.26   2
  -3  17  -3   14.96    1.36   3
  -5  18   3   61.69    2.23   4
   5 -18  -3   58.68    2.24   1
   5  18  -3   60.86    2.20   2
  -5 -18   3   59.43    2.26   1
   4 -18  -3    7.79    0.93   1
  -4  18   3    6.17    0.94   4
  -4 -18   3    6.95    0.97   1
   4  18  -3    7.93    0.93   2
  -4  18   3    6.16    0.95   3
   3  18  -3  501.20    8.88   2
  -3  18   3  515.56    9.74   3
   3  18  -3  508.96    9.50   3
  -3 -18   3  510.33    9.30   1
   2  18  -3   54.17    1.90   3
   2 -18  -3   54.97    1.90   1
  -2 -18   3   53.48    1.91   1
  -2  18   3   54.10    1.98   3
  -1 -18   3  176.93    4.00   1
  -1  18   3  178.78    4.26   3
   1  18  -3  187.24    4.25   3
   1 -18  -3  179.64    4.00   1
   0  18   3    9.26    0.98   3
   0 -18   3    9.16    0.88   1
   0 -18  -3    9.64    0.90   1
   0 -18  -3    9.86    0.84   2
   0  18  -3    8.63    0.96   3
   1  18   3  113.81    3.28   3
  -1 -18  -3  124.87    3.05   1
   1 -18   3  122.90    3.03   1
  -1 -18  -3  122.74    2.97   2
  -1  18  -3  120.67    3.35   3
  -2 -18  -3   61.10    2.05   2
  -2  18  -3   61.04    2.36   3
   2 -18   3   60.34    2.02   4
   2 -18   3   58.56    1.96   1
   2  18   3   59.33    2.25   3
   3  18   3  184.30    4.68   3
  -3  18  -3  177.54    4.64   3
   3 -18   3  184.73    4.27   4
  -3 -18  -3  184.35    4.30   2
  -4  19   3  130.48    3.29   4
   4 -19  -3  127.02    3.46   1
   4  19  -3  133.14    3.34   2
  -4 -19   3  130.92    3.53   1
  -4  19   3  134.88    3.62   3
  -3 -19   3   32.00    1.62   1
  -3  19   3   32.32    1.65   3
   3 -19  -3   33.88    1.58   1
   3  19  -3   32.48    1.53   3
   3  19  -3   33.01    1.48   2
   2  19  -3   28.88    1.45   3
  -2  19   3   27.80    1.48   3
  -2 -19   3   30.07    1.46   1
   2 -19  -3   28.29    1.40   1
  -1  19   3   22.37    1.41   3
   1 -19  -3   21.79    1.26   1
   1  19  -3   22.85    1.36   3
  -1 -19   3   23.93    1.31   1
   0  19   3  409.68    8.48   3
   0  19  -3  432.29    8.50   3
   0 -19   3  434.64    7.95   1
   0 -19  -3  451.32    7.58   2
   0 -19  -3  421.62    7.92   1
   1  19   3  117.00    3.35   3
  -1 -19  -3  123.68    2.99   2
  -1  19  -3  119.03    3.39   3
  -1 -19  -3  116.58    3.03   1
   1 -19   3  116.17    3.03   1
  -2 -19  -3   19.48    1.23   2
  -2  19  -3   20.68    1.51   3
   2 -19   3   18.71    1.18   1
   2  19   3   17.12    1.32   3
   4 -20  -3   69.94    2.46   1
   4  20  -3   75.10    2.40   2
  -4 -20   3   75.35    2.58   1
  -3 -20   3  142.80    3.69   1
   3  20  -3  139.17    3.38   2
   3 -20  -3  144.40    3.65   1
  -3  20   3  143.67    3.79   3
  -2  20   3    4.20    0.81   3
   2  20  -3    5.04    0.79   3
   2 -20  -3    4.03    0.74   1
  -2 -20   3    4.53    0.80   1
  -1 -20   3    1.94    0.63   1
  -1  20   3    2.09    0.69   3
   1  20  -3    1.93    0.68   3
   1 -20  -3    2.29    0.69   1
   0  20  -3   14.75    1.31   3
   0 -20  -3   13.16    1.09   1
   0  20   3   15.59    1.23   3
   0 -20   3   14.92    1.12   1
  -1 -20  -3   58.31    2.07   1
   1  20   3   57.81    2.29   3
   1 -20   3   60.70    2.09   1
  -1  20  -3   61.59    2.37   3
  -1 -20  -3   63.63    2.08   2
  -2 -20  -3   46.06    1.84   2
  -2  20  -3   42.09    2.06   3
   2 -20   3   45.61    1.82   1
   2  20   3   42.30    1.98   3
  -3  21   3   24.04    1.55   3
  -3 -21   3   23.07    1.47   1
   3 -21  -3   22.02    1.40   1
   2 -21  -3    0.34    0.59   1
  -2 -21   3    0.25    0.58   1
   2  21  -3    0.54    0.61   3
  -2  21   3    0.60    0.63   3
  -1 -21   3  192.54    4.51   1
   1 -21  -3  197.53    4.54   1
   1  21  -3  207.02    4.78   3
  -1  21   3  196.49    4.78   3
   0 -21  -3  111.41    3.04   1
   0  21   3  106.46    3.24   3
   0 -21   3  108.30    3.02   1
   0  21  -3  111.87    3.29   3
  -1 -21  -3   40.69    1.69   2
   1 -21   3   41.10    1.76   1
   1  21   3   37.49    1.90   3
  -1  21  -3   36.80    1.94   3
  -1 -21  -3   40.29    1.76   1
  -2 -22   3  173.35    4.25   1
  -2  22   3  169.54    4.40   3
   2 -22  -3  167.76    4.16   1
   2  22  -3  170.41    4.25   3
   1  22  -3    2.74    0.80   3
  -1  22   3    2.97    0.82   3
   1 -22  -3    2.38    0.74   1
  -1 -22   3    3.15    0.76   1
   0 -22  -3   27.95    1.53   1
   0  22   3   27.89    1.65   3
   0 -22   3   27.71    1.50   1
   0  22  -3   25.13    1.65   3
   7   0  -4    0.50    0.50   2
   7   0  -4    0.04    0.55   1
  -7   0   4    0.34    0.58   4
   6   0  -4  542.57    9.15   2
   6   0  -4  545.67    9.61   1
  -6   0   4  539.00    9.52   4
   5   0  -4    0.42    0.37   2
  -5   0   4    0.01    0.45   4
   5   0  -4    0.11    0.41   1
  -4   0   4    1.19    0.44   4
   4   0  -4    0.10    0.29   2
   4   0  -4   -0.64    0.32   1
   3   0  -4   -0.20    0.28   1
   3   0  -4    0.10    0.27   2
  -3   0   4   -0.08    0.33   4
   2   0  -4 1243.59   19.12   2
  -2   0   4 1230.95   20.52   3
   2   0  -4 1255.54   19.36   1
  -2   0   4 1225.62   19.62   4
   1   0  -4    0.12    0.20   1
  -1   0   4   -0.35    0.21   3
  -1   0   4    0.44    0.30   4
   1   0  -4    0.18    0.24   2
   0   0   4    9.73    0.68   4
   0   0   4    8.43    0.64   3
   0   0  -4   10.25    0.63   2
   1   0   4   -0.92    0.33   3
   1   0   4    0.28    0.35   4
  -1   0  -4    0.03    0.31   2
   2   0   4  803.75   13.32   4
  -2   0  -4  809.95   12.98   2
   2   0   4  819.29   14.26   3
   3   0   4   -0.51    0.42   3
  -3   0  -4    0.04    0.41   2
   3   0   4    0.64    0.44   4
   4   0   4  599.24   11.44   3
   4   0   4  624.34   10.63   4
  -4   0  -4  601.52   10.27   2
   5   0   4    2.30    0.74   4
   5   0   4   -0.34    0.57   3
   7  -1  -4   25.42    1.42   1
   7   1  -4   26.02    1.27   2
   7   1  -4   25.02    1.43   1
  -7  -1   4   27.02    1.41   4
  -7   1   4   28.84    1.47   4
   6   1  -4    0.56    0.46   2
   6  -1  -4    0.76    0.44   2
  -6  -1   4    0.18    0.54   4
   6  -1  -4    0.33    0.50   1
  -6   1   4    0.45    0.56   4
   6   1  -4   -0.58    0.49   1
  -5  -1   4  300.95    5.59   4
   5  -1  -4  306.14    5.36   2
  -5   1   4  292.48    5.62   4
   5   1  -4  301.84    5.40   2
  -4   1   4   43.28    1.43   4
   4  -1  -4   42.09    1.28   2
   4   1  -4   41.53    1.30   2
   4  -1  -4   38.82    1.35   1
   4   1  -4   42.88    1.38   1
  -4  -1   4   43.63    1.39   4
   3  -1  -4  432.09    7.24   1
   3   1  -4  424.85    7.24   1
   3   1  -4  429.14    7.13   2
  -3  -1   4  430.23    7.34   4
   3  -1  -4  427.63    7.09   2
  -3   1   4  438.48    7.38   4
  -2  -1   4  189.28    3.59   4
  -2   1   4  193.41    3.62   4
   2   1  -4  189.92    3.50   2
   2  -1  -4  194.14    3.43   1
   2   1  -4  186.57    3.41   3
   2  -1  -4  193.33    3.50   2
   2   1  -4  193.46    3.44   1
  -2   1   4  194.83    3.46   3
  -1   1   4  389.36    6.67   4
  -1  -1   4  397.97    6.89   3
  -1  -1   4  391.12    6.68   4
  -1  -1   4  394.72    6.33   1
  -1  -1   4  397.49    5.59   5
   1   1  -4  385.11    6.50   2
   1  -1  -4  391.92    6.52   2
  -1   1   4  397.42    6.90   3
   1  -1  -4  398.44    6.34   1
   0  -1   4  210.28    4.07   3
   0  -1   4  212.32    3.93   4
   0   1  -4  211.34    3.81   2
   0  -1  -4  210.80    3.82   2
   0   1   4  208.47    4.07   3
   0   1   4  209.62    3.89   4
   1   1   4 1173.29   19.81   3
   1  -1   4 1169.01   19.79   3
  -1   1  -4 1157.45   18.12   2
   1  -1   4 1158.31   18.65   4
  -1  -1  -4 1190.15   18.19   2
   1   1   4 1145.94   18.60   4
   2  -1   4   49.06    1.69   3
   2   1   4   49.82    1.51   4
   2   1   4   47.46    1.67   3
  -2   1  -4   50.00    1.47   2
  -2  -1  -4   48.83    1.50   2
   2  -1   4   51.24    1.57   4
   3  -1   4   79.68    2.17   4
   3   1   4   74.27    2.32   3
   3  -1   4   77.76    2.35   3
  -3   1  -4   77.36    2.03   2
  -3  -1  -4   78.65    2.09   2
   3   1   4   79.66    2.11   4
   4   1   4   13.50    1.14   3
   4   1   4   14.48    1.11   4
  -4  -1  -4   13.16    1.05   2
   4  -1   4   12.56    1.11   3
   4  -1   4   13.03    1.10   4
  -5   1  -4  171.94    4.43   3
   5   1   4  181.28    4.07   4
   5  -1   4  176.86    4.10   4
   5   1   4  169.17    4.45   3
   7   2  -4  133.55    3.45   1
   7  -2  -4  135.54    3.47   1
  -7   2   4  133.51    3.37   4
  -7  -2   4  140.55    3.32   4
   7   2  -4  131.13    3.18   2
  -6  -2   4  344.40    6.27   4
   6  -2  -4  338.62    5.96   2
  -6   2   4  336.52    6.35   4
   6  -2  -4  327.82    6.36   1
   6   2  -4  321.92    6.05   2
   6   2  -4  328.14    6.39   1
   5  -2  -4    0.99    0.39   2
  -5   2   4    1.77    0.56   4
  -5  -2   4    1.08    0.50   4
   5   2  -4    1.52    0.44   2
   5  -2  -4    1.26    0.47   1
   5   2  -4    1.35    0.50   1
  -4   2   4  116.33    2.65   4
   4   2  -4  121.09    2.54   2
   4  -2  -4  113.83    2.61   1
   4   2  -4  117.72    2.63   1
   4  -2  -4  115.67    2.46   2
  -4  -2   4  118.82    2.61   4
   3  -2  -4  193.97    3.56   2
   3   2  -4  195.96    3.61   2
   3  -2  -4  193.51    3.64   1
   3   2  -4  196.29    3.66   1
  -3   2   4  195.86    3.76   4
  -3  -2   4  190.32    3.69   4
   2  -2  -4  551.14    8.73   1
   2   2  -4  538.91    9.09   3
  -2   2   4  545.21    8.95   4
  -2   2   4  540.47    9.14   3
   2   2  -4  532.17    8.69   2
  -2  -2   4  528.77    8.91   4
   2  -2  -4  528.72    8.67   2
   2   2  -4  546.86    8.74   1
  -1  -2   4  539.02    9.09   3
  -1   2   4  529.85    9.11   3
   1  -2  -4  522.65    8.53   2
  -1   2   4  528.28    8.74   4
  -1  -2   4  534.66    7.41   5
  -1  -2   4  527.07    8.76   4
   1   2  -4  520.12    8.52   2
  -1  -2   4  534.75    8.41   1
   1  -2  -4  519.85    8.39   1
   0  -2   4    1.27    0.37   4
   0   2   4    0.90    0.33   3
   0  -2  -4    0.99    0.33   2
   0   2   4    0.68    0.33   4
   0   2  -4    1.29    0.32   2
   1  -2   4    1.23    0.45   3
   1   2   4    0.09    0.34   3
  -1  -2  -4    0.15    0.31   2
  -1   2  -4    0.55    0.32   2
   1  -2   4    0.48    0.37   4
  -2   2  -4  189.28    3.63   2
   2   2   4  190.89    3.74   4
   2   2   4  188.20    4.10   3
  -2  -2  -4  192.29    3.73   2
   2  -2   4  190.40    3.83   4
   2  -2   4  185.45    4.09   3
   3  -2   4  251.25    5.39   3
   3  -2   4  256.35    5.04   4
   3   2   4  261.05    4.92   4
  -3   2  -4  260.19    4.76   2
   3   2   4  249.17    5.38   3
  -3  -2  -4  258.31    4.90   2
   4   2   4   31.01    1.56   3
  -4   2  -4   31.14    1.59   3
  -4  -2  -4   29.81    1.41   2
   4  -2   4   30.66    1.46   4
   4   2   4   33.10    1.43   4
   5   2   4  100.23    3.18   3
  -5   2  -4  103.47    3.17   3
   5  -2   4  104.14    2.95   4
   7   3  -4   39.59    1.58   2
   7   3  -4   39.47    1.73   1
   7  -3  -4   41.78    1.78   1
  -7   3   4   39.12    1.71   4
   6  -3  -4   66.38    2.10   1
  -6  -3   4   70.49    2.05   4
   6   3  -4   69.40    1.98   2
  -6   3   4   67.56    2.10   4
   6   3  -4   66.17    2.12   1
   6  -3  -4   69.50    1.87   2
   5   3  -4    6.56    0.69   2
   5  -3  -4    7.49    0.73   1
   5  -3  -4    6.76    0.67   2
  -5   3   4    6.99    0.76   4
   5   3  -4    6.83    0.73   1
  -4  -3   4 1366.66   22.17   4
   4  -3  -4 1399.08   22.13   1
   4  -3  -4 1351.54   21.50   2
   4   3  -4 1414.14   22.15   1
   4   3  -4 1424.90   21.68   2
  -4   3   4 1416.62   22.30   4
  -3  -3   4   55.37    1.51   4
   3   3  -4   54.60    1.48   1
   3  -3  -4   54.75    1.40   2
  -3   3   4   53.21    1.54   4
   3   3  -4   55.62    1.48   2
   3  -3  -4   54.44    1.47   1
  -2  -3   4   11.06    0.60   1
  -2   3   4   11.54    0.72   4
  -2  -3   4   11.42    0.70   4
   2   3  -4   11.81    0.67   2
   2  -3  -4   10.74    0.59   1
  -2  -3   4   11.08    0.54   5
  -2   3   4   10.79    0.56   3
   2  -3  -4   12.13    0.66   2
   2   3  -4    8.93    0.49   3
   1   3  -4  275.73    4.98   3
  -1   3   4  273.97    5.03   3
  -1   3   4  276.22    4.87   4
  -1  -3   4  276.65    4.58   1
   1  -3  -4  279.05    4.58   1
   1  -3  -4  281.79    4.80   2
   1   3  -4  273.27    4.76   2
  -1  -3   4  271.16    4.90   4
   0  -3   4  433.80    7.31   4
   0   3  -4  424.45    7.61   3
   0  -3  -4  426.52    7.12   2
   0   3   4  427.94    7.66   3
   0   3  -4  427.22    7.04   2
   0   3   4  427.80    7.21   4
   1  -3   4  126.48    2.88   3
  -1   3  -4  126.94    2.57   2
  -1  -3  -4  124.59    2.67   2
   1  -3   4  126.40    2.75   4
   1   3   4  127.55    2.65   4
   1   3   4  131.81    2.92   3
   2   3   4   21.90    1.16   3
  -2   3  -4   24.27    0.99   2
   2  -3   4   21.70    1.15   3
  -2  -3  -4   23.54    1.07   2
   2  -3   4   25.72    1.13   4
   2   3   4   22.81    1.01   4
   3   3   4   89.60    2.60   3
   3   3   4   90.90    2.28   4
   3  -3   4   90.60    2.42   4
  -3   3  -4   87.77    2.56   3
  -3  -3  -4   91.81    2.36   2
  -3   3  -4   90.78    2.19   2
   4  -3   4  184.62    4.17   4
   4   3   4  186.02    4.50   3
  -4  -3  -4  191.51    4.08   2
   4   3   4  196.33    4.05   4
  -4   3  -4  187.70    4.47   3
   5   3   4   71.27    2.61   3
   5  -3   4   75.28    2.45   4
  -5   3  -4   72.40    2.60   3
   7   4  -4  291.90    6.04   1
  -7   4   4  296.10    6.02   4
   7  -4  -4  295.84    6.06   1
   7   4  -4  296.61    5.81   2
  -6  -4   4   63.91    1.89   4
  -6   4   4   57.45    1.97   4
   6  -4  -4   62.10    1.99   1
   6   4  -4   61.77    1.87   2
   6   4  -4   58.19    1.97   1
  -5   4   4  210.28    4.30   4
   5   4  -4  209.42    4.12   2
   5   4  -4  209.92    4.30   1
   5  -4  -4  212.26    3.92   2
  -5  -4   4  211.57    4.15   4
   4   4  -4   22.49    1.01   2
   4   4  -4   16.81    1.00   1
   4  -4  -4   19.71    0.90   2
  -4  -4   4   20.09    0.99   4
   4  -4  -4   18.19    1.00   1
  -4   4   4   19.93    1.05   4
   3   4  -4  306.96    5.45   1
   3  -4  -4  310.31    5.28   2
  -3  -4   4  315.59    5.47   4
   3   4  -4  306.41    5.40   2
   3  -4  -4  314.63    5.46   1
  -3   4   4  308.81    5.56   4
   2  -4  -4  238.69    4.26   2
  -2  -4   4  244.97    3.78   5
  -2  -4   4  246.50    4.29   1
  -2   4   4  249.83    4.43   3
  -2   4   4  240.92    4.44   4
   2  -4  -4  242.94    4.28   1
  -2  -4   4  252.89    4.43   4
   2   4  -4  239.76    4.32   3
   2   4  -4  244.00    4.34   2
   1   4  -4 1409.89   21.73   2
  -1  -4   4 1429.48   21.95   1
   1  -4  -4 1412.20   21.76   2
   1  -4  -4 1441.53   21.95   1
  -1   4   4 1409.56   23.55   3
  -1   4   4 1395.23   22.27   4
   1   4  -4 1431.26   23.50   3
  -1  -4   4 1384.76   22.31   4
   0  -4  -4   18.29    0.84   2
   0   4  -4   15.99    0.84   3
   0   4   4   16.61    0.86   3
   0   4   4   17.91    0.84   4
   0  -4   4   18.24    0.88   4
   0   4  -4   16.69    0.76   2
   1   4   4  331.69    6.48   3
  -1  -4  -4  346.05    6.01   2
   1  -4   4  352.09    6.17   4
   1   4   4  341.51    5.99   4
  -1   4  -4  350.99    6.47   3
  -1   4  -4  346.75    5.84   2
   2  -4   4    8.53    0.80   4
  -2   4  -4    8.41    0.67   2
  -2   4  -4    7.58    0.84   3
   2   4   4    8.28    0.72   4
  -2  -4  -4    8.90    0.80   2
   2   4   4    7.23    0.73   3
   3   4   4  680.07   12.73   3
   3   4   4  716.85   11.71   4
   3  -4   4  695.13   11.95   4
  -3   4  -4  716.87   12.71   3
  -3  -4  -4  699.14   11.65   2
  -4  -4  -4    5.78    0.78   2
   4  -4   4    7.04    0.86   4
  -4   4  -4    5.70    0.88   3
   4   4   4    5.58    0.84   3
   5  -4   4   64.35    2.27   4
  -5   4  -4   60.16    2.40   3
   5   4   4   62.72    2.43   3
  -5  -4  -4   65.82    2.24   2
   7  -5  -4   12.83    1.10   1
  -7  -5   4   10.69    0.97   5
  -7   5   4   11.88    1.15   4
  -7  -5   4   11.95    1.11   1
   7   5  -4   11.89    1.00   2
   6  -5  -4   21.80    1.22   1
   6   5  -4   22.60    1.15   2
  -6  -5   4   23.76    1.16   4
  -6   5   4   26.01    1.34   4
   6   5  -4   23.41    1.25   1
   5  -5  -4   79.88    1.88   2
   5   5  -4   75.06    2.04   2
  -5  -5   4   79.14    2.02   4
  -5   5   4   79.16    2.20   4
   5  -5  -4   76.26    2.14   1
   5   5  -4   76.90    2.15   1
   4   5  -4  368.65    6.44   2
   4  -5  -4  369.60    6.58   1
  -4  -5   4  372.34    5.81   5
  -4   5   4  370.69    6.66   4
   4  -5  -4  368.90    6.22   2
  -4  -5   4  370.30    6.47   4
  -4  -5   4  373.28    6.59   1
   3  -5  -4    6.61    0.60   2
  -3  -5   4    7.24    0.67   4
  -3   5   4    7.29    0.66   4
   3   5  -4    7.18    0.65   2
  -3  -5   4    5.57    0.47   5
  -3  -5   4    6.89    0.67   1
   3  -5  -4    6.66    0.65   1
  -2   5   4   41.26    1.26   4
   2  -5  -4   39.86    1.14   1
  -2   5   4   40.27    1.13   3
  -2  -5   4   38.25    1.21   4
  -2  -5   4   40.66    1.16   1
   2   5  -4   44.98    1.07   3
   2  -5  -4   38.93    1.15   2
   2   5  -4   39.02    1.19   2
   1   5  -4  650.29   10.51   2
  -1   5   4  658.01   11.36   3
   1  -5  -4  656.52   10.55   2
   1  -5  -4  667.31   10.52   1
  -1  -5   4  673.80   10.53   1
   1   5  -4  669.00   11.29   3
  -1  -5   4  664.76   10.84   4
  -1   5   4  646.88   10.76   4
   0   5   4  937.77   14.95   4
   0  -5   4  943.48   15.12   4
   0   5  -4  937.66   14.60   2
   0  -5   4  925.76   14.59   1
   0  -5  -4  930.13   14.72   2
   0   5   4  942.44   15.96   3
   0   5  -4  926.43   15.88   3
   1   5   4   10.53    0.70   4
  -1   5  -4   10.76    0.68   2
   1  -5   4   10.97    0.80   4
  -1   5  -4    8.44    0.81   3
   1   5   4    9.73    0.79   3
  -1  -5  -4   10.30    0.76   2
  -2   5  -4  392.16    7.46   3
   2   5   4  395.37    6.81   4
  -2   5  -4  391.50    6.62   2
   2   5   4  391.41    7.53   3
   2  -5   4  400.34    7.10   4
   3  -5   4    2.21    0.59   4
   3   5   4    1.90    0.57   3
  -3  -5  -4    2.70    0.58   2
   3   5   4    2.57    0.53   4
  -3   5  -4    1.12    0.60   3
   4  -5   4  460.03    8.59   4
  -4  -5  -4  456.84    8.33   2
   4   5   4  468.65    9.19   3
  -4   5  -4  481.71    9.16   3
   5   5   4    0.16    0.66   3
  -5   5  -4    1.00    0.77   3
   5  -5   4    0.58    0.65   4
  -5  -5  -4    0.80    0.64   2
  -7  -6   4  147.54    3.71   1
  -7   6   4  145.23    3.69   4
   7   6  -4  149.69    3.57   2
  -7  -6   4  145.26    3.27   5
   7  -6  -4  146.55    3.69   1
  -6   6   4  104.94    2.84   4
  -6  -6   4  106.39    2.51   5
  -6  -6   4  104.53    2.82   1
   6  -6  -4  111.69    2.88   1
   6   6  -4  106.73    2.72   2
  -5  -6   4  212.08    3.87   5
   5  -6  -4  213.25    3.93   2
   5  -6  -4  209.88    4.37   1
  -5   6   4  214.96    4.42   4
  -5  -6   4  215.91    4.17   4
  -5  -6   4  217.76    4.41   1
  -4   6   4  361.65    6.58   4
   4  -6  -4  365.54    6.11   2
  -4  -6   4  364.18    6.36   4
  -4  -6   4  364.61    5.75   5
   4   6  -4  370.65    6.40   2
   4  -6  -4  357.12    6.49   1
  -4  -6   4  362.99    6.51   1
  -3  -6   4  608.51   10.17   4
  -3  -6   4  624.17    9.01   5
   3   6  -4  610.48   10.05   2
   3  -6  -4  620.09    9.88   2
  -3   6   4  616.90   10.34   4
   3  -6  -4  618.26   10.22   1
  -3  -6   4  633.88   10.23   1
  -2   6   4    1.34    0.40   4
   2   6  -4    1.20    0.28   3
  -2  -6   4    0.33    0.33   4
  -2   6   4    0.47    0.28   3
   2  -6  -4    0.36    0.26   1
  -2  -6   4    0.39    0.30   1
   2   6  -4    0.25    0.30   2
   2  -6  -4    0.26    0.26   2
   1  -6  -4  110.30    2.10   1
   1   6  -4  102.17    2.24   3
  -1   6   4  105.07    2.34   3
  -1  -6   4  106.05    2.10   1
   1   6  -4  101.16    2.18   2
  -1   6   4  101.43    2.21   4
  -1  -6   4  103.84    2.29   4
   1  -6  -4  104.77    2.23   2
   0   6  -4  113.36    2.59   3
   0  -6  -4  120.62    2.52   2
   0  -6   4  117.23    2.57   4
   0   6   4  113.92    2.40   4
   0  -6   4  118.21    2.19   1
   0   6  -4  117.46    2.38   2
   0   6   4  116.15    2.66   3
   1   6   4  314.32    6.15   3
   1  -6   4  320.67    5.81   4
  -1   6  -4  327.92    6.12   3
  -1   6  -4  313.82    5.43   2
   1   6   4  321.33    5.59   4
  -1  -6  -4  320.17    5.70   2
   2   6   4  112.44    2.87   3
   2   6   4  115.08    2.45   4
  -2   6  -4  109.52    2.36   2
  -2  -6  -4  110.86    2.63   2
   2  -6   4  109.62    2.68   4
  -2   6  -4  113.69    2.84   3
  -3   6  -4   91.49    2.63   3
  -3  -6  -4   89.17    2.38   2
   3  -6   4   89.53    2.46   4
   3   6   4   91.34    2.64   3
  -4  -6  -4   12.52    1.01   2
   4   6   4   12.00    1.12   3
   4  -6   4   13.80    1.10   4
  -4   6  -4   11.44    1.23   3
   5   6   4    1.49    0.75   3
  -5  -6  -4    1.46    0.69   2
   5  -6   4    1.59    0.72   4
  -5   6  -4    1.36    0.79   3
  -7  -7   4   12.05    1.15   1
  -7  -7   4   10.39    0.95   5
   7   7  -4   11.67    1.03   2
  -7   7   4    9.77    1.09   4
   7  -7  -4   10.73    1.02   1
  -6   7   4   40.23    1.68   4
  -6  -7   4   39.72    1.48   5
   6   7  -4   39.05    1.56   2
   6  -7  -4   40.14    1.64   1
  -6  -7   4   39.05    1.65   1
  -5  -7   4  256.61    4.72   4
   5  -7  -4  244.01    4.96   1
  -5  -7   4  253.96    4.42   5
  -5   7   4  250.47    5.03   4
  -5  -7   4  251.13    5.01   1
   4   7  -4    3.18    0.52   2
   4  -7  -4    3.38    0.53   1
  -4  -7   4    3.63    0.59   1
  -4   7   4    2.73    0.58   4
   4  -7  -4    3.24    0.43   2
  -4  -7   4    3.58    0.51   4
  -4  -7   4    2.60    0.47   5
  -3   7   4 1695.29   26.68   4
   3  -7  -4 1671.50   25.77   2
   3  -7  -4 1633.44   26.43   1
   3   7  -4 1723.94   26.00   2
  -3  -7   4 1696.76   26.45   1
  -3  -7   4 1693.77   26.49   4
  -2   7   4   30.69    1.13   4
   2   7  -4   32.12    0.99   3
  -2  -7   4   32.09    1.08   1
   2  -7  -4   32.58    1.06   2
  -2   7   4   30.96    1.09   3
   2  -7  -4   30.16    1.04   1
  -2  -7   4   31.65    1.09   4
   2   7  -4   32.89    1.12   2
   1   7  -4  105.99    2.22   2
  -1   7   4  104.65    2.23   4
   1  -7  -4  105.43    2.26   2
  -1  -7   4  105.25    2.32   4
  -1   7   4  101.56    2.36   3
   1  -7  -4  103.21    2.12   1
   1   7  -4  105.16    2.30   3
  -1  -7   4  107.73    2.17   1
   0   7   4 1050.76   16.82   4
   0  -7  -4 1072.89   16.64   2
   0   7   4 1063.40   18.06   3
   0   7  -4 1064.13   17.97   3
   0   7  -4 1057.61   16.44   2
   0  -7   4 1034.99   16.57   1
   0  -7   4 1064.82   17.05   4
   1  -7   4  168.98    3.52   4
  -1   7  -4  172.22    3.21   2
   1   7   4  174.98    3.30   4
  -1  -7  -4  168.83    3.46   2
   1   7   4  169.87    3.74   3
  -1   7  -4  171.97    3.69   3
  -2  -7  -4   39.19    1.43   2
   2   7   4   37.30    1.52   3
  -2   7  -4   39.44    1.54   3
   2   7   4   40.31    1.27   4
   2  -7   4   37.81    1.44   4
  -3   7  -4   41.04    1.71   3
  -3  -7  -4   38.32    1.49   2
   3   7   4   40.04    1.66   3
   3  -7   4   42.63    1.62   4
  -4   7  -4  253.48    5.66   3
   4  -7   4  257.38    5.38   4
   4   7   4  263.37    5.79   3
  -4  -7  -4  247.87    5.19   2
  -7   8   4   17.17    1.30   4
  -7  -8   4   15.50    1.12   5
  -7  -8   4   15.76    1.25   1
   7   8  -4   16.11    1.16   2
   7  -8  -4   17.92    1.25   1
  -6  -8   4  406.64    7.66   1
  -6   8   4  408.85    7.72   4
   6  -8  -4  415.95    7.70   1
  -6  -8   4  409.03    6.77   5
   6   8  -4  402.14    7.47   2
  -5  -8   4  134.18    2.80   5
  -5   8   4  134.77    3.19   4
   5   8  -4  130.40    3.04   2
  -5  -8   4  132.00    3.15   1
   5  -8  -4  131.63    3.13   1
   4  -8  -4   69.99    1.97   1
   4  -8  -4   73.57    1.71   2
  -4   8   4   70.76    2.02   4
  -4  -8   4   75.82    2.05   1
  -4  -8   4   71.26    1.80   4
  -4  -8   4   74.61    1.80   5
   4   8  -4   73.24    1.98   2
  -3  -8   4  671.55   11.00   4
  -3   8   4  671.12   11.55   3
   3   8  -4  670.09   10.92   2
   3  -8  -4  675.67   10.69   2
   3  -8  -4  652.52   11.09   1
  -3  -8   4  689.62   11.13   1
  -3   8   4  673.64   11.20   4
  -2  -8   4  892.81   14.50   4
   2   8  -4  902.67   14.25   2
   2  -8  -4  896.02   14.44   1
  -2  -8   4  906.79   14.46   1
   2  -8  -4  899.52   14.13   2
   2   8  -4  896.28   15.21   3
  -2   8   4  907.28   15.33   3
  -2   8   4  909.57   14.59   4
   1   8  -4   19.39    0.85   2
  -1  -8   4   19.80    0.85   1
   1  -8  -4   19.47    0.79   1
   1   8  -4   18.72    0.86   3
  -1   8   4   20.30    0.87   4
   1  -8  -4   20.24    0.88   2
  -1   8   4   19.62    0.94   3
  -1  -8   4   18.09    0.90   4
   0   8   4  105.10    2.22   4
   0   8  -4  103.55    2.47   3
   0  -8   4  105.37    2.42   4
   0   8  -4  105.50    2.21   2
   0   8   4  108.00    2.56   3
   0  -8   4  103.37    2.12   1
   0  -8  -4  103.47    2.35   2
   1  -8   4    2.68    0.54   4
  -1   8  -4    2.28    0.51   3
   1   8   4    2.34    0.52   3
  -1  -8  -4    2.93    0.51   2
   1   8   4    3.48    0.47   4
  -1   8  -4    2.47    0.42   2
   2  -8   4  359.17    6.63   4
   2   8   4  355.51    7.06   3
  -2  -8  -4  357.84    6.48   2
  -2   8  -4  362.89    6.99   3
  -3  -8  -4   67.58    2.04   2
  -3   8  -4   65.49    2.20   3
   3  -8   4   65.80    2.08   4
   3   8   4   63.37    2.18   3
  -4  -8  -4  178.61    4.07   2
   4  -8   4  176.57    4.14   4
  -4   8  -4  181.34    4.42   3
   4   8   4  178.89    4.45   3
  -7  -9   4   50.88    2.06   1
   7  -9  -4   52.81    2.07   1
   7   9  -4   52.38    2.00   2
  -7  -9   4   52.42    1.84   5
  -7   9   4   52.09    2.10   4
  -6  -9   4   62.09    1.89   5
   6   9  -4   65.01    2.09   2
  -6  -9   4   60.50    2.12   1
   6  -9  -4   63.32    2.13   1
  -6   9   4   62.41    2.15   4
  -5   9   4  346.34    6.49   4
  -5  -9   4  335.40    6.40   1
   5   9  -4  339.13    6.27   2
   5  -9  -4  333.96    6.40   1
  -4  -9   4   31.27    1.14   4
   4   9  -4   29.53    1.25   2
   4  -9  -4   30.12    1.23   1
  -4  -9   4   30.15    1.29   1
  -4   9   4   31.13    1.31   4
   3  -9  -4   96.33    2.05   2
  -3   9   4   97.07    2.33   4
   3  -9  -4   93.53    2.27   1
  -3   9   4   93.33    2.21   3
   3   9  -4   94.66    2.27   2
  -3  -9   4   95.25    2.31   1
  -3  -9   4   96.55    2.17   4
   2  -9  -4 1102.15   17.20   2
  -2   9   4 1109.74   17.74   4
  -2  -9   4 1117.62   17.63   1
  -2   9   4 1100.25   18.72   3
  -2  -9   4 1110.92   17.67   4
   2   9  -4 1105.43   17.32   2
   2   9  -4 1106.49   18.61   3
   2  -9  -4 1096.34   17.61   1
   1   9  -4  165.37    3.43   3
   1  -9  -4  168.31    3.20   1
  -1   9   4  167.09    3.54   3
  -1  -9   4  166.79    3.34   4
   1   9  -4  168.06    3.22   2
   1  -9  -4  168.67    3.27   2
  -1  -9   4  170.60    3.25   1
  -1   9   4  165.56    3.22   4
   0   9  -4    9.05    0.77   3
   0  -9   4    8.77    0.76   4
   0  -9  -4    8.21    0.71   2
   0   9  -4   10.15    0.67   2
   0   9   4   10.72    0.82   3
   0   9   4    9.49    0.68   4
   0  -9   4    9.05    0.59   1
   1   9   4  866.32   13.90   4
  -1   9  -4  881.53   15.12   3
  -1  -9  -4  851.19   13.95   2
  -2  -9  -4    4.19    0.63   2
   2  -9   4    3.00    0.60   4
   2   9   4    3.21    0.60   3
  -2   9  -4    2.77    0.61   3
   3  -9   4   39.58    1.59   4
  -3   9  -4   37.95    1.68   3
  -3  -9  -4   39.16    1.57   2
   3   9   4   36.95    1.67   3
  -4   9  -4   27.07    1.59   3
   4   9   4   26.55    1.52   3
  -4  -9  -4   26.44    1.41   2
   4  -9   4   27.31    1.45   4
  -7  10   4   14.10    1.25   4
   7  10  -4   15.03    1.20   2
  -7 -10   4   14.63    1.25   1
   7 -10  -4   15.47    1.22   1
  -6 -10   4  113.13    3.09   1
   6  10  -4  116.91    3.03   2
   6 -10  -4  121.25    3.15   1
  -6  10   4  116.04    3.12   4
  -5  10   4    4.89    0.78   4
  -5 -10   4    2.90    0.64   1
   5  10  -4    2.98    0.59   2
   5 -10  -4    3.20    0.63   1
   4  10  -4    7.61    0.77   2
   4 -10  -4    8.65    0.76   1
  -4  10   4    8.29    0.83   4
  -4 -10   4   10.40    0.92   1
  -3 -10   4   19.14    0.90   4
   3 -10  -4   18.41    0.94   1
  -3  10   4   19.54    1.01   4
  -3  10   4   18.28    0.90   3
  -3 -10   4   18.54    1.02   1
   3  10  -4   19.99    0.99   2
   3 -10  -4   18.74    0.83   2
  -2 -10   4 1077.18   17.03   1
   2 -10  -4 1079.76   16.58   2
  -2 -10   4 1084.03   17.04   4
   2  10  -4 1066.27   16.70   2
  -2  10   4 1051.17   18.07   3
   2 -10  -4 1046.87   16.99   1
   2  10  -4 1087.19   17.99   3
  -2  10   4 1008.38   17.04   4
   1 -10  -4   97.45    2.18   1
  -1 -10   4   95.72    2.24   4
   1  10  -4   95.18    2.32   3
  -1 -10   4   99.42    2.21   1
  -1  10   4   96.37    2.14   4
   1  10  -4   94.41    2.14   2
   1 -10  -4   98.48    2.20   2
  -1  10   4   97.45    2.42   3
   0  10   4   75.21    1.74   4
   0 -10   4   72.75    1.74   1
   0  10  -4   76.66    1.77   2
   0  10   4   74.83    2.11   3
   0 -10  -4   74.91    1.93   2
   0 -10   4   73.79    1.96   4
   0  10  -4   74.88    2.04   3
  -1 -10  -4   52.51    1.66   2
  -1  10  -4   52.12    1.77   3
   1  10   4   52.40    1.80   3
   2 -10   4  251.93    5.10   4
   2  10   4  257.61    5.44   3
  -2  10  -4  263.57    5.40   3
  -2 -10  -4  250.47    4.98   2
   3  10   4  136.32    3.61   3
  -3  10  -4  135.42    3.53   3
  -3 -10  -4  134.77    3.30   2
   3 -10   4  138.70    3.38   4
   4  10   4    4.40    0.81   3
  -4  10  -4    4.68    0.90   3
  -4 -10  -4    4.74    0.81   2
   4 -10   4    5.49    0.86   4
   6  11  -4   60.71    2.10   2
   6 -11  -4   62.57    2.16   1
  -6 -11   4   59.57    2.14   1
  -6  11   4   60.56    2.17   4
   5  11  -4  139.38    3.25   2
  -5  11   4  134.80    3.32   4
  -5 -11   4  137.56    3.32   1
   5 -11  -4  136.71    3.32   1
   4  11  -4  447.19    7.79   2
   4 -11  -4  446.33    7.96   1
  -4 -11   4  439.02    7.93   1
  -4  11   4  442.67    7.95   4
  -3  11   4   18.92    1.01   4
   3 -11  -4   19.27    0.99   1
  -3  11   4   20.11    0.98   3
   3  11  -4   19.20    1.00   2
  -3 -11   4   18.54    1.03   1
   3 -11  -4   20.49    0.86   2
   2  11  -4   57.57    1.62   2
  -2 -11   4   55.53    1.66   1
   2  11  -4   57.20    1.65   3
   2 -11  -4   58.33    1.65   1
  -2  11   4   54.31    1.56   4
   2 -11  -4   57.98    1.51   2
  -2 -11   4   56.56    1.57   4
  -2  11   4   55.56    1.68   3
   1  11  -4  142.07    2.89   2
   1 -11  -4  145.85    2.97   1
  -1 -11   4  143.03    3.01   4
   1  11  -4  144.99    3.17   3
  -1 -11   4  145.78    2.99   1
  -1  11   4  143.03    3.24   3
   1 -11  -4  142.54    2.94   2
  -1  11   4  142.90    2.87   4
   0 -11   4  143.46    2.94   1
   0  11  -4  147.23    2.89   2
   0 -11  -4  147.97    3.10   2
   0  11   4  146.00    2.85   4
   0 -11   4  145.55    3.13   4
   0  11  -4  146.47    3.31   3
   0  11   4  148.13    3.39   3
   1  11   4  609.83   11.18   3
  -1 -11  -4  618.57   10.26   2
   1 -11   4  600.71   10.45   4
  -1  11  -4  617.92   11.10   3
   2  11   4    0.72    0.50   3
  -2 -11  -4    0.87    0.47   2
  -2  11  -4    0.46    0.56   3
   2 -11   4    0.87    0.51   4
  -3  11  -4   34.76    1.69   3
   3  11   4   37.89    1.73   3
   3 -11   4   33.23    1.53   4
  -3 -11  -4   35.32    1.57   2
   4  11   4   11.23    1.14   3
  -4 -11  -4   11.49    1.07   2
   4 -11   4   11.15    1.07   4
  -4  11  -4   10.28    1.16   3
   6 -12  -4  123.71    3.30   1
  -6  12   4  123.46    3.31   4
  -6 -12   4  122.30    3.28   1
   6  12  -4  124.85    3.25   2
  -5 -12   4  140.70    3.40   1
   5 -12  -4  136.96    3.37   1
   5  12  -4  140.28    3.32   2
  -5  12   4  135.94    3.37   4
   4  12  -4    1.84    0.55   2
  -4 -12   4    2.05    0.61   1
   4 -12  -4    1.90    0.53   1
  -4  12   4    1.71    0.61   4
   3 -12  -4  417.44    7.60   1
  -3  12   4  432.45    7.59   4
  -3 -12   4  434.84    7.66   1
  -3  12   4  425.84    7.91   3
   3  12  -4  436.79    7.47   2
   2 -12  -4  237.88    4.55   1
  -2 -12   4  233.63    4.56   1
  -2  12   4  230.26    4.77   3
  -2  12   4  230.35    4.45   4
   2  12  -4  245.43    4.70   3
  -2 -12   4  237.43    4.41   4
   2  12  -4  234.15    4.43   2
   2 -12  -4  245.29    4.31   2
  -1 -12   4  375.78    6.55   4
   1  12  -4  373.67    6.35   2
  -1  12   4  357.98    6.35   4
   1 -12  -4  368.72    6.51   1
   1  12  -4  366.41    6.93   3
  -1  12   4  368.57    7.04   3
   1 -12  -4  377.55    6.41   2
  -1 -12   4  373.53    6.55   1
   0  12  -4    5.26    0.65   3
   0 -12   4    6.68    0.68   4
   0 -12   4    4.92    0.55   1
   0  12   4    5.42    0.68   3
   0 -12  -4    5.19    0.60   2
  -1  12  -4    0.82    0.51   3
   1  12   4    0.57    0.49   3
  -1 -12  -4    0.77    0.44   2
   1 -12   4    1.47    0.50   4
   2  12   4  170.69    4.14   3
  -2 -12  -4  174.31    3.83   2
  -2  12  -4  180.26    4.16   3
   2 -12   4  173.38    3.88   4
  -3  12  -4  401.96    7.96   3
   3  12   4  393.68    8.02   3
  -3 -12  -4  382.33    7.32   2
   3 -12   4  385.29    7.48   4
   4  12   4   88.43    2.94   3
   4 -12   4   86.29    2.73   4
  -4  12  -4   90.41    2.97   3
  -4 -12  -4   88.80    2.73   2
  -6  13   4   82.33    2.62   4
   6 -13  -4   86.05    2.65   1
   6  13  -4   82.65    2.57   2
  -6 -13   4   82.73    2.63   1
  -5 -13   4   20.08    1.27   1
  -5  13   4   19.81    1.26   4
   5 -13  -4   18.03    1.17   1
   5  13  -4   20.94    1.22   2
   4  13  -4  195.83    4.12   2
  -4  13   4  202.64    4.22   4
   4 -13  -4  198.93    4.27   1
  -4 -13   4  197.60    4.27   1
  -3  13   4  247.84    4.83   4
   3 -13  -4  252.63    4.95   1
  -3 -13   4  249.07    4.94   1
   3  13  -4  250.40    4.80   2
  -3  13   4  249.83    5.06   3
   2  13  -4   17.49    1.06   3
   2 -13  -4   17.45    1.00   1
   2 -13  -4   18.73    0.90   2
  -2 -13   4   16.33    0.97   1
  -2  13   4   17.61    1.05   3
  -2  13   4   16.85    0.88   4
   2  13  -4   17.87    0.97   2
   1 -13  -4    2.24    0.48   1
  -1  13   4    2.99    0.56   3
  -1 -13   4    2.81    0.53   4
   1 -13  -4    2.94    0.50   2
  -1 -13   4    2.22    0.51   1
   1  13  -4    2.43    0.53   3
  -1  13   4    3.36    0.50   4
   1  13  -4    2.45    0.49   2
   0  13   4  540.90    9.98   3
   0  13  -4  540.51    9.91   3
   0 -13   4  547.85    9.30   4
   0 -13  -4  530.14    9.08   2
   0 -13   4  535.45    9.13   1
   1  13   4   22.98    1.27   3
  -1 -13  -4   24.15    1.16   2
   1 -13   4   23.65    1.16   4
  -1  13  -4   22.73    1.25   3
   2 -13   4   35.37    1.51   4
   2  13   4   34.69    1.62   3
  -2  13  -4   35.33    1.63   3
  -2 -13  -4   35.62    1.50   2
   3  13   4   11.17    1.09   3
  -3 -13  -4   11.82    1.06   2
  -3  13  -4   10.40    1.17   3
   3 -13   4   10.26    1.02   4
  -6 -14   4   10.80    1.13   1
   6 -14  -4   11.34    1.07   1
  -6  14   4   11.18    1.17   4
   6  14  -4   11.69    1.12   2
   5 -14  -4   78.31    2.45   1
  -5  14   4   78.57    2.43   4
   5  14  -4   81.54    2.42   2
  -5 -14   4   77.66    2.46   1
   4  14  -4   14.90    1.01   2
   4 -14  -4   16.79    1.09   1
  -4  14   4   16.24    1.08   4
  -4 -14   4   15.42    1.09   1
   3 -14  -4  434.83    7.86   1
   3  14  -4  436.57    7.64   2
  -3 -14   4  439.86    7.89   1
  -3  14   4  437.44    7.73   4
  -3  14   4  427.41    8.16   3
   2  14  -4    2.78    0.56   2
  -2 -14   4    1.96    0.56   1
   2 -14  -4    3.32    0.48   2
   2 -14  -4    4.47    0.61   1
   2  14  -4    2.99    0.56   3
  -2  14   4    2.78    0.58   3
  -2  14   4    3.27    0.55   4
   1  14  -4  207.04    4.41   3
   1  14  -4  207.43    3.93   2
  -1 -14   4  201.29    4.13   1
   1 -14  -4  204.27    4.12   1
  -1  14   4  197.40    4.43   3
   1 -14  -4  216.30    4.02   2
  -1 -14   4  208.01    4.06   4
   0 -14  -4   22.51    1.08   2
   0 -14   4   21.60    1.10   4
   0  14  -4   21.79    1.25   3
   0 -14   4   20.57    1.03   1
   0  14   4   22.76    1.27   3
   1 -14   4  127.26    3.07   4
   1  14   4  129.07    3.36   3
  -1  14  -4  129.89    3.33   3
  -1 -14  -4  132.09    3.06   2
  -2  14  -4   58.46    2.15   3
   2 -14   4   59.44    2.00   4
   2  14   4   58.14    2.17   3
  -2 -14  -4   57.67    1.97   2
  -3  14  -4   79.78    2.70   3
  -3 -14  -4   78.84    2.49   2
   3  14   4   79.37    2.69   3
   3 -14   4   78.09    2.48   4
   6 -15  -4   37.24    1.75   1
   6  15  -4   38.27    1.78   2
  -6  15   4   38.36    1.85   4
  -5 -15   4  105.50    3.01   1
   5 -15  -4  108.89    3.02   1
  -5  15   4  112.00    3.01   4
   5  15  -4  109.86    2.97   2
   4  15  -4  150.05    3.44   2
  -4  15   4  150.70    3.47   4
  -4 -15   4  143.70    3.53   1
   4 -15  -4  145.40    3.53   1
  -3  15   4   47.35    1.62   4
   3  15  -4   44.11    1.58   2
  -3 -15   4   47.80    1.73   1
   3 -15  -4   45.45    1.68   1
  -3  15   4   44.79    1.67   3
   2  15  -4    0.92    0.48   3
  -2  15   4    1.40    0.50   4
  -2  15   4    0.78    0.49   3
   2  15  -4    0.41    0.44   2
  -2 -15   4    1.11    0.50   1
   2 -15  -4    1.07    0.47   1
  -1 -15   4   10.69    0.84   1
   1 -15  -4    8.95    0.77   2
  -1  15   4   10.51    0.91   3
   1 -15  -4   10.55    0.82   1
   1  15  -4    9.73    0.96   3
   0 -15  -4  311.52    5.77   2
   0  15   4  301.48    6.38   3
   0 -15   4  317.06    5.86   4
   0  15  -4  314.45    6.33   3
   0 -15   4  316.83    5.83   1
  -1 -15  -4   43.48    1.60   2
   1 -15   4   43.32    1.61   4
   1  15   4   43.07    1.78   3
  -1  15  -4   42.97    1.80   3
  -2  15  -4   65.64    2.36   3
   2 -15   4   68.08    2.18   4
   2  15   4   66.33    2.37   3
  -2 -15  -4   64.93    2.14   2
  -3 -15  -4   27.00    1.48   2
  -3  15  -4   26.42    1.62   3
   3  15   4   24.94    1.56   3
   3 -15   4   24.51    1.44   4
  -5 -16   4   64.10    2.30   1
  -5  16   4   64.82    2.26   4
   5  16  -4   69.63    2.28   2
   5 -16  -4   65.03    2.27   1
   4  16  -4    0.25    0.52   2
   4 -16  -4   -0.03    0.48   1
  -4 -16   4    0.53    0.58   1
  -4  16   4    0.02    0.61   4
   3 -16  -4   61.53    2.01   1
   3  16  -4   60.66    1.90   2
  -3  16   4   59.35    2.01   3
  -3 -16   4   62.05    2.05   1
  -3  16   4   63.61    1.91   4
   2  16  -4  240.59    4.92   3
   2 -16  -4  237.66    4.78   1
  -2 -16   4  225.14    4.75   1
   2  16  -4  230.87    4.50   2
  -2  16   4  225.95    4.98   3
  -1  16   4   85.66    2.58   3
  -1 -16   4   89.90    2.42   1
   1 -16  -4   89.83    2.41   1
   1 -16  -4   97.64    2.30   2
   1  16  -4   91.01    2.59   3
   0 -16   4   78.09    2.17   4
   0  16   4   74.88    2.43   3
   0 -16  -4   75.28    2.12   2
   0  16  -4   79.86    2.44   3
   0 -16   4   78.34    2.17   1
  -1  16  -4  106.00    3.02   3
   1 -16   4  104.33    2.73   4
  -1 -16  -4  104.96    2.70   2
   1  16   4   99.76    2.97   3
   2 -16   4  254.58    5.34   4
  -2  16  -4  253.74    5.74   3
   2  16   4  257.23    5.81   3
  -2 -16  -4  253.61    5.27   2
   3 -16   4  235.91    5.19   4
  -3  16  -4  233.91    5.55   3
   3  16   4  226.20    5.53   3
  -3 -16  -4  233.10    5.12   2
  -5  17   4  142.33    3.62   4
   5  17  -4  147.04    3.65   2
  -5 -17   4  144.37    3.76   1
   5 -17  -4  139.39    3.70   1
  -4 -17   4  101.16    2.90   1
   4 -17  -4   98.99    2.85   1
   4  17  -4  102.33    2.78   2
  -4  17   4  102.81    2.78   4
   3 -17  -4   27.49    1.38   1
   3  17  -4   26.34    1.28   2
  -3  17   4   26.01    1.28   4
  -3  17   4   26.94    1.39   3
  -3 -17   4   29.72    1.46   1
   2  17  -4    4.09    0.68   3
  -2  17   4    2.74    0.66   3
  -2 -17   4    3.55    0.70   1
   2  17  -4    3.60    0.62   2
   2 -17  -4    4.43    0.72   1
   1 -17  -4  250.70    4.71   2
  -1  17   4  237.33    5.33   3
  -1 -17   4  247.14    5.02   1
   1  17  -4  250.14    5.30   3
   1 -17  -4  245.84    4.98   1
   0  17  -4  126.99    3.36   3
   0 -17   4  125.20    3.02   1
   0  17   4  123.80    3.37   3
   0 -17  -4  124.52    2.96   2
   1 -17   4   90.24    2.50   4
  -1  17  -4   89.73    2.78   3
   1  17   4   84.43    2.74   3
  -1 -17  -4   90.99    2.50   2
  -2 -17  -4    9.52    0.99   2
   2 -17   4    9.51    1.00   4
  -2  17  -4    8.48    1.10   3
   2  17   4    8.09    1.00   3
   4 -18  -4    2.42    0.69   1
  -4  18   4    2.34    0.76   4
  -4 -18   4    1.61    0.68   1
   4  18  -4    2.43    0.69   2
  -3  18   4    1.29    0.64   3
  -3 -18   4    1.41    0.61   1
   3  18  -4    1.26    0.55   2
   3 -18  -4    1.16    0.60   1
   2  18  -4  338.26    6.67   3
  -2  18   4  328.39    6.80   3
  -2 -18   4  322.73    6.42   1
   2 -18  -4  330.41    6.44   1
  -1  18   4    4.82    0.77   3
  -1 -18   4    4.33    0.72   1
   1 -18  -4    5.46    0.74   1
   1  18  -4    4.71    0.82   3
   0  18   4   48.01    1.99   3
   0 -18  -4   47.09    1.69   2
   0  18  -4   49.98    2.02   3
   0 -18   4   50.30    1.79   1
   1  18   4    9.93    1.06   3
  -1 -18  -4    8.03    0.89   2
  -1  18  -4    7.30    1.01   3
  -2 -18  -4  244.51    5.14   2
   2 -18   4  242.45    5.18   4
  -2  18  -4  246.24    5.68   3
   2  18   4  225.02    5.58   3
  -4 -19   4   20.82    1.41   1
   4 -19  -4   19.20    1.30   1
   4  19  -4   19.50    1.28   2
   3 -19  -4   88.79    2.66   1
  -3 -19   4   87.69    2.68   1
  -3  19   4   84.87    2.68   3
   3  19  -4   84.84    2.46   2
   2 -19  -4   34.32    1.59   1
  -2 -19   4   32.72    1.56   1
  -2  19   4   31.94    1.63   3
   2  19  -4   31.36    1.55   3
   1  19  -4   64.13    2.27   3
   1 -19  -4   63.25    2.10   1
  -1  19   4   61.19    2.25   3
  -1 -19   4   62.54    2.11   1
   0 -19  -4   17.66    1.10   2
   0  19   4   17.16    1.30   3
   0  19  -4   19.21    1.38   3
   0 -19   4   17.31    1.14   1
   1  19   4   35.55    1.80   3
  -1 -19  -4   40.25    1.66   2
  -1  19  -4   36.50    1.86   3
  -3 -20   4   54.24    2.13   1
   3 -20  -4   53.14    2.07   1
  -3  20   4   54.81    2.13   3
  -2 -20   4  199.19    4.57   1
  -2  20   4  200.34    4.81   3
   2  20  -4  199.08    4.64   3
   2 -20  -4  204.49    4.58   1
  -1 -20   4   11.52    1.04   1
   1  20  -4   12.89    1.29   3
   1 -20  -4   12.02    1.04   1
  -1  20   4   11.03    1.14   3
   0  20   4   47.11    2.07   3
   0  20  -4   48.85    2.10   3
   0 -20   4   45.14    1.83   1
   1  20   4    0.89    0.70   3
  -1 -20  -4    0.46    0.63   2
  -1  20  -4    0.95    0.81   3
  -2 -21   4   18.37    1.29   1
   2  21  -4   19.06    1.39   3
   2 -21  -4   19.43    1.35   1
  -2  21   4   16.65    1.35   3
  -1  21   4   92.96    2.98   3
   1 -21  -4   90.31    2.73   1
   1  21  -4   90.33    2.91   3
  -1 -21   4   95.99    2.83   1
   0  21  -4  400.44    8.13   3
   0 -21   4  383.11    7.51   1
   0  21   4  381.36    8.16   3
   7   0  -5  449.40    8.45   1
  -7   0   5  450.91    8.32   4
   7   0  -5  436.04    7.93   2
   6   0  -5    0.32    0.44   2
   6   0  -5    0.90    0.56   1
  -6   0   5   -0.14    0.54   4
  -5   0   5  150.28    3.37   4
   5   0  -5  143.35    3.31   1
   5   0  -5  153.83    3.20   2
   4   0  -5    0.14    0.35   2
   4   0  -5   -0.41    0.38   1
  -4   0   5    0.20    0.44   4
   3   0  -5  514.73    8.54   1
   3   0  -5  500.31    8.47   2
  -3   0   5  519.05    8.75   4
   2   0  -5    0.35    0.33   2
  -2   0   5    0.06    0.37   4
   2   0  -5   -0.88    0.27   1
  -1   0   5  719.73   11.84   4
   1   0  -5  714.54   11.53   2
  -1   0   5  718.93   12.33   3
   0   0  -5    0.31    0.38   2
   0   0   5    0.72    0.42   4
   0   0   5   -1.11    0.37   3
   1   0   5   63.37    1.84   4
   1   0   5   62.49    1.92   3
  -1   0  -5   60.97    1.74   2
  -2   0  -5    0.19    0.41   2
   2   0   5    0.58    0.47   4
   2   0   5   -0.57    0.42   3
   3   0   5  724.33   12.16   4
  -3   0  -5  688.01   11.78   2
   3   0   5  711.55   13.06   3
   4   0   5    0.67    0.66   4
   4   0   5    0.75    0.68   3
   7   1  -5    4.33    0.75   2
   7  -1  -5    4.34    0.78   1
  -7  -1   5    4.85    0.87   4
  -7   1   5    3.30    0.81   4
   7   1  -5    4.37    0.81   1
   6  -1  -5   72.43    2.24   1
   6   1  -5   72.26    2.05   2
  -6   1   5   73.08    2.22   4
  -6  -1   5   73.23    2.20   4
   6  -1  -5   70.68    2.00   2
   6   1  -5   70.75    2.22   1
  -5   1   5   52.96    1.75   4
   5   1  -5   53.91    1.66   2
   5  -1  -5   49.41    1.68   1
   5  -1  -5   53.19    1.62   2
  -5  -1   5   52.07    1.69   4
   5   1  -5   49.37    1.68   1
   4   1  -5  373.67    6.63   1
   4  -1  -5  370.39    6.46   2
   4   1  -5  379.00    6.53   2
  -4   1   5  371.24    6.75   4
   4  -1  -5  368.34    6.62   1
  -4  -1   5  379.22    6.73   4
  -3  -1   5   54.69    1.63   4
   3  -1  -5   53.93    1.49   1
   3   1  -5   51.61    1.49   1
   3  -1  -5   53.57    1.53   2
  -3   1   5   57.35    1.67   4
   3   1  -5   53.92    1.54   2
   2  -1  -5  310.45    5.47   2
  -2   1   5  320.93    5.65   4
   2   1  -5  302.19    5.44   2
   2   1  -5  313.92    5.31   1
   2  -1  -5  310.68    5.30   1
  -2  -1   5  311.88    5.62   4
   2   1  -5  314.47    5.52   3
  -1   1   5   90.92    2.17   4
  -1   1   5   89.26    2.10   3
  -1  -1   5   86.72    2.09   3
   1  -1  -5   92.31    2.12   2
  -1  -1   5   93.20    2.20   4
   1   1  -5   90.33    2.10   2
   0   1   5 1263.81   21.57   3
   0  -1   5 1281.21   20.46   4
   0   1  -5 1277.21   19.89   2
   0   1   5 1295.80   20.44   4
   0  -1   5 1269.15   21.57   3
   0  -1  -5 1267.49   19.92   2
  -1   1  -5   72.17    1.91   2
   1  -1   5   74.78    2.13   3
  -1  -1  -5   72.40    1.93   2
   1  -1   5   70.62    2.00   4
   1   1   5   72.86    1.98   4
   1   1   5   71.94    2.11   3
  -2  -1  -5  203.26    4.09   2
   2   1   5  195.54    4.47   3
   2  -1   5  203.56    4.50   3
   2   1   5  202.09    4.14   4
  -2   1  -5  204.39    4.04   2
   2  -1   5  206.81    4.22   4
   3   1   5   16.84    1.12   4
  -3   1  -5   14.42    1.00   2
   3   1   5   14.74    1.17   3
  -3  -1  -5   13.94    0.99   2
   3  -1   5   15.32    1.11   4
   3  -1   5   11.91    1.13   3
   4   1   5   40.50    1.71   4
   4  -1   5   38.51    1.70   4
  -4   1  -5   36.17    1.83   3
   4   1   5   36.65    1.82   3
  -7  -2   5   95.36    2.68   4
  -7   2   5   92.25    2.73   4
   7   2  -5   93.52    2.79   1
   7  -2  -5   93.68    2.78   1
   7   2  -5   91.82    2.54   2
  -6  -2   5  148.31    3.41   4
  -6   2   5  146.29    3.46   4
   6  -2  -5  145.93    3.18   2
   6   2  -5  146.06    3.27   2
   6  -2  -5  140.56    3.45   1
   6   2  -5  142.51    3.46   1
   5   2  -5  294.57    5.39   2
   5  -2  -5  279.84    5.51   1
  -5   2   5  295.01    5.61   4
  -5  -2   5  287.15    5.52   4
   5  -2  -5  298.24    5.32   2
   5   2  -5  285.72    5.55   1
   4   2  -5   72.11    1.91   2
  -4  -2   5   71.38    1.95   4
   4  -2  -5   70.33    1.90   1
   4  -2  -5   69.87    1.83   2
   4   2  -5   69.21    1.91   1
  -4   2   5   70.65    1.98   4
  -3   2   5   66.64    1.85   4
   3   2  -5   66.04    1.76   2
   3  -2  -5   67.48    1.74   2
   3   2  -5   67.35    1.72   1
   3  -2  -5   64.02    1.68   1
  -3  -2   5   67.41    1.83   4
  -2  -2   5  327.46    5.50   1
  -2   2   5  330.54    5.84   4
  -2  -2   5  322.10    5.82   4
   2  -2  -5  321.84    5.50   1
   2   2  -5  322.89    5.72   3
  -2  -2   5  325.13    4.85   5
   2  -2  -5  321.41    5.64   2
   2   2  -5  326.59    5.67   2
  -1   2   5    9.26    0.77   4
  -1   2   5   12.49    0.75   3
   1   2  -5   10.02    0.72   2
  -1  -2   5   10.41    0.78   4
   1  -2  -5    9.94    0.73   2
   0  -2  -5    0.88    0.40   2
   0   2   5    0.43    0.41   4
   0   2  -5    0.80    0.41   2
   0   2   5    0.06    0.36   3
   0  -2   5    0.49    0.42   4
   1  -2   5    1.81    0.55   4
   1   2   5    1.70    0.47   4
  -1   2  -5    2.29    0.50   2
   1   2   5    0.65    0.48   3
   1  -2   5    0.77    0.46   3
  -1  -2  -5    1.64    0.47   2
   2  -2   5    6.00    0.74   4
   2   2   5    4.90    0.70   3
  -2  -2  -5    3.57    0.62   2
   2  -2   5    5.29    0.73   3
  -2   2  -5    4.93    0.62   2
   2   2   5    5.64    0.69   4
  -3   2  -5  330.95    6.11   2
   3  -2   5  332.06    6.91   3
   3   2   5  333.76    6.92   3
   3  -2   5  335.37    6.42   4
  -3  -2  -5  322.45    6.21   2
   3   2   5  344.04    6.34   4
   4   2   5  154.19    4.11   3
  -4  -2  -5  150.53    3.63   2
   4   2   5  160.89    3.71   4
  -4   2  -5  152.35    4.06   3
   4  -2   5  157.05    3.79   4
   7   3  -5   68.04    2.16   2
  -7   3   5   66.40    2.29   4
   7  -3  -5   69.44    2.35   1
   7   3  -5   70.50    2.36   1
  -7  -3   5   70.05    2.24   4
  -6   3   5   22.00    1.27   4
  -6  -3   5   19.64    1.14   4
   6   3  -5   20.48    1.11   2
   6  -3  -5   21.37    1.08   2
   6   3  -5   19.59    1.21   1
   6  -3  -5   20.29    1.21   1
   5  -3  -5  192.92    4.13   1
  -5  -3   5  201.36    4.12   4
  -5   3   5  203.64    4.23   4
   5  -3  -5  203.75    3.93   2
   5   3  -5  200.03    4.04   2
   5   3  -5  201.83    4.19   1
  -4  -3   5  111.71    2.59   4
   4  -3  -5  109.91    2.45   2
   4   3  -5  109.79    2.54   2
   4   3  -5  108.48    2.55   1
   4  -3  -5  109.89    2.55   1
  -4   3   5  109.61    2.65   4
  -3  -3   5  539.86    9.13   4
   3  -3  -5  540.47    8.85   2
   3   3  -5  545.31    8.93   2
   3  -3  -5  531.45    8.94   1
   3   3  -5  526.70    8.93   1
  -3   3   5  541.09    9.19   4
   2  -3  -5  242.20    4.45   2
   2  -3  -5  242.99    4.31   1
   2   3  -5  243.28    4.47   2
  -2   3   5  247.09    4.61   4
   2   3  -5  247.08    4.44   3
  -2  -3   5  247.66    4.31   1
  -2  -3   5  243.58    4.59   4
  -2  -3   5  244.63    3.80   5
   1  -3  -5    0.95    0.39   2
  -1   3   5    0.83    0.35   3
   1   3  -5    0.39    0.35   2
   1   3  -5    0.28    0.29   3
  -1   3   5    0.75    0.41   4
  -1  -3   5    1.04    0.44   4
   0   3   5   53.43    1.59   4
   0   3  -5   53.32    1.61   3
   0   3  -5   52.71    1.52   2
   0  -3  -5   52.41    1.56   2
   0   3   5   51.95    1.64   3
   0  -3   5   55.40    1.67   4
   1  -3   5  633.84   10.75   4
   1   3   5  627.00   11.35   3
  -1   3  -5  634.36   10.33   2
   1   3   5  628.08   10.61   4
   2  -3   5    6.12    0.74   4
  -2   3  -5    5.52    0.73   3
  -2   3  -5    7.44    0.74   2
   2   3   5    6.54    0.77   3
  -2  -3  -5    7.77    0.80   2
   2   3   5    7.27    0.72   4
   3   3   5    9.73    0.95   4
  -3  -3  -5   10.03    0.91   2
   3   3   5    9.24    0.99   3
   3  -3   5    9.78    0.98   4
  -3   3  -5    8.91    0.96   3
  -4  -3  -5    4.41    0.81   2
   4   3   5    5.37    0.90   3
  -4   3  -5    3.80    0.88   3
   4  -3   5    6.66    0.93   4
   7  -4  -5    0.75    0.60   1
   7   4  -5    0.61    0.57   2
  -7   4   5    0.18    0.66   4
   7   4  -5   -0.73    0.52   1
   6  -4  -5  393.08    6.82   2
   6   4  -5  384.04    7.30   1
  -6   4   5  384.31    7.30   4
   6   4  -5  380.74    7.04   2
   6  -4  -5  391.21    7.32   1
  -6  -4   5  388.80    7.14   4
   5   4  -5    8.76    0.84   1
  -5   4   5    9.73    0.93   4
  -5  -4   5    9.87    0.91   4
   5  -4  -5    9.75    0.78   2
   5   4  -5   10.18    0.85   2
   5  -4  -5    8.87    0.84   1
   4  -4  -5    0.20    0.36   1
   4   4  -5    0.60    0.41   1
   4  -4  -5    0.26    0.34   2
  -4   4   5    0.12    0.45   4
   4   4  -5    0.13    0.40   2
  -4  -4   5    0.21    0.42   4
  -3   4   5   27.89    1.20   4
   3  -4  -5   27.46    1.07   2
   3   4  -5   27.87    1.11   2
  -3  -4   5   26.62    1.14   4
   3  -4  -5   25.11    1.06   1
  -3  -4   5   25.69    0.95   5
  -3  -4   5   26.74    1.09   1
  -2   4   5 1085.95   18.30   3
   2   4  -5 1077.38   17.11   2
   2   4  -5 1094.17   18.20   3
  -2   4   5 1094.16   17.55   4
  -2  -4   5 1091.52   17.56   4
   2  -4  -5 1099.95   17.09   2
  -2  -4   5 1100.77   17.19   1
   2  -4  -5 1079.47   17.18   1
  -1   4   5  234.37    4.37   4
  -1   4   5  233.32    4.51   3
   1   4  -5  229.43    4.27   2
  -1  -4   5  231.24    4.43   4
   1   4  -5  230.27    4.42   3
   1  -4  -5  231.43    4.32   2
   0   4  -5  743.22   12.87   3
   0   4   5  736.18   12.94   3
   0   4   5  746.22   12.19   4
   0  -4   5  744.26   12.32   4
   0   4  -5  726.15   11.85   2
   0  -4  -5  740.07   12.00   2
   1   4   5    6.95    0.72   4
  -1   4  -5    5.00    0.60   2
   1   4   5    5.02    0.68   3
   1  -4   5    5.37    0.68   4
  -2  -4  -5  256.41    5.06   2
   2   4   5  253.73    5.51   3
  -2   4  -5  263.37    5.47   3
   2  -4   5  262.11    5.20   4
   2   4   5  267.01    5.01   4
  -2   4  -5  266.04    4.87   2
  -3   4  -5   17.68    1.27   3
   3   4   5   18.78    1.14   4
  -3  -4  -5   18.84    1.16   2
   3  -4   5   17.34    1.17   4
   3   4   5   16.94    1.21   3
   4   4   5  264.07    6.04   3
  -4   4  -5  262.15    5.95   3
  -4  -4  -5  265.00    5.45   2
   4  -4   5  264.52    5.60   4
   7   5  -5  186.68    4.18   2
  -7   5   5  183.68    4.34   4
  -7  -5   5  183.50    3.84   5
  -7  -5   5  186.32    4.36   1
   7  -5  -5  185.69    4.37   1
  -6  -5   5    0.47    0.58   1
  -6  -5   5    2.19    0.65   4
  -6   5   5    1.08    0.63   4
   6  -5  -5    1.21    0.56   1
  -6  -5   5    0.51    0.50   5
   6   5  -5    1.29    0.54   2
   5   5  -5   47.68    1.61   2
   5  -5  -5   49.48    1.51   2
  -5  -5   5   49.11    1.71   1
   5  -5  -5   47.95    1.66   1
  -5  -5   5   47.95    1.64   4
  -5  -5   5   46.30    1.46   5
  -5   5   5   48.06    1.73   4
   4  -5  -5   51.40    1.49   2
  -4  -5   5   50.64    1.58   4
  -4  -5   5   48.25    1.38   5
   4  -5  -5   49.99    1.59   1
  -4   5   5   50.09    1.67   4
   4   5  -5   50.74    1.60   2
  -4  -5   5   48.26    1.58   1
  -3  -5   5  598.10    9.96   4
   3   5  -5  588.80    9.78   2
  -3   5   5  586.35   10.05   4
  -3  -5   5  586.67    9.81   1
   3  -5  -5  589.27    9.66   2
   3  -5  -5  606.12    9.85   1
  -3  -5   5  588.55    8.66   5
   2   5  -5   89.36    2.12   2
  -2   5   5   87.51    2.04   3
  -2  -5   5   91.35    2.00   1
  -2  -5   5   88.54    2.17   4
   2  -5  -5   87.77    1.95   1
   2   5  -5   86.75    1.95   3
  -2   5   5   88.65    2.18   4
   2  -5  -5   88.97    2.09   2
  -1  -5   5  386.85    6.85   4
   1   5  -5  385.26    6.60   2
  -1   5   5  393.08    6.77   4
   1   5  -5  394.16    6.99   3
   1  -5  -5  382.88    6.66   2
  -1   5   5  379.23    7.06   3
   0   5   5   82.07    2.21   3
   0  -5   5   85.35    2.20   4
   0   5  -5   82.89    2.02   2
   0   5   5   87.08    2.11   4
   0   5  -5   83.15    2.17   3
   0  -5  -5   84.40    2.13   2
   1   5   5  569.35    9.56   4
  -1   5  -5  571.94   10.24   3
   1  -5   5  559.37    9.74   4
  -1   5  -5  570.31    9.30   2
   1   5   5  555.97   10.30   3
  -1  -5  -5  555.93    9.50   2
  -2   5  -5    5.82    0.68   2
  -2   5  -5    4.84    0.74   3
   2   5   5    6.23    0.69   4
  -2  -5  -5    6.53    0.75   2
   2   5   5    5.07    0.74   3
   2  -5   5    7.34    0.80   4
  -3   5  -5   52.96    2.04   3
   3  -5   5   51.39    1.90   4
   3   5   5   56.29    2.10   3
  -3  -5  -5   50.10    1.82   2
   4   5   5    0.41    0.63   3
  -4  -5  -5    1.40    0.66   2
   4  -5   5    0.50    0.65   4
  -4   5  -5   -0.56    0.71   3
   7  -6  -5    0.26    0.60   1
   7   6  -5    0.53    0.57   2
  -7  -6   5    0.39    0.59   5
  -7  -6   5    0.65    0.69   1
  -7   6   5    1.07    0.71   4
  -6   6   5  258.83    5.34   4
  -6  -6   5  253.47    5.29   1
   6   6  -5  251.24    5.12   2
   6  -6  -5  257.65    5.32   1
  -6  -6   5  261.35    4.71   5
  -5   6   5  171.12    3.84   4
   5  -6  -5  171.60    3.78   1
   5  -6  -5  180.01    3.49   2
   5   6  -5  169.60    3.68   2
  -5  -6   5  169.10    3.77   1
  -5  -6   5  179.96    3.67   4
  -5  -6   5  173.36    3.35   5
  -4  -6   5   62.87    1.61   5
  -4  -6   5   62.61    1.78   4
  -4   6   5   60.76    1.88   4
   4  -6  -5   61.33    1.82   1
   4  -6  -5   64.15    1.68   2
   4   6  -5   61.55    1.81   2
  -4  -6   5   60.98    1.80   1
  -3  -6   5  213.09    4.09   1
  -3  -6   5  214.21    4.15   4
  -3   6   5  214.55    4.26   4
   3  -6  -5  215.38    4.02   2
   3  -6  -5  213.53    4.09   1
  -3  -6   5  209.79    3.60   5
   3   6  -5  218.29    4.15   2
   2   6  -5    0.30    0.37   2
  -2  -6   5    0.62    0.35   1
   2  -6  -5    0.80    0.37   2
  -2   6   5   -0.22    0.34   3
  -2   6   5    0.09    0.44   4
   2  -6  -5    0.85    0.33   1
  -2  -6   5    1.30    0.46   4
   2   6  -5    0.28    0.30   3
   1   6  -5   21.18    1.00   3
  -1   6   5   23.50    1.04   3
  -1  -6   5   22.82    1.07   4
   1   6  -5   22.09    0.99   2
   1  -6  -5   23.61    1.03   2
  -1  -6   5   22.51    0.86   1
  -1   6   5   21.62    1.02   4
   0   6  -5  100.83    2.45   3
   0  -6  -5   97.32    2.37   2
   0   6   5   99.55    2.31   4
   0   6   5   95.88    2.47   3
   0  -6   5   95.60    2.41   4
   0   6  -5   99.05    2.26   2
   1   6   5   20.27    0.99   4
   1   6   5   19.63    1.14   3
  -1   6  -5   17.66    1.12   3
  -1  -6  -5   18.75    1.05   2
  -1   6  -5   18.79    0.95   2
   1  -6   5   19.67    1.11   4
   2  -6   5  347.63    6.64   4
   2   6   5  359.88    6.35   4
  -2  -6  -5  347.64    6.50   2
  -2   6  -5  349.24    6.98   3
   2   6   5  349.88    7.06   3
  -3   6  -5   35.63    1.71   3
  -3  -6  -5   36.76    1.56   2
   3  -6   5   35.85    1.60   4
   3   6   5   36.99    1.74   3
  -4  -6  -5  190.78    4.35   2
   4  -6   5  184.17    4.42   4
   4   6   5  186.93    4.76   3
  -4   6  -5  189.40    4.70   3
  -7  -7   5   54.80    2.14   1
  -7  -7   5   54.99    1.91   5
   7  -7  -5   55.39    2.13   1
   7   7  -5   54.63    2.02   2
  -7   7   5   54.77    2.12   4
  -6  -7   5   39.88    1.51   5
   6   7  -5   39.63    1.59   2
   6  -7  -5   42.16    1.70   1
  -6  -7   5   40.40    1.71   1
  -6   7   5   39.53    1.71   4
  -5  -7   5    5.35    0.62   5
  -5   7   5    6.23    0.82   4
  -5  -7   5    7.13    0.76   4
  -5  -7   5    5.77    0.74   1
   5  -7  -5    5.90    0.62   2
   5  -7  -5    6.08    0.74   1
   5   7  -5    5.37    0.70   2
  -4  -7   5  273.23    5.16   4
  -4   7   5  279.48    5.37   4
   4  -7  -5  273.54    5.25   1
   4  -7  -5  280.10    4.97   2
  -4  -7   5  276.15    4.64   5
  -4  -7   5  281.18    5.28   1
   3  -7  -5  330.31    5.91   1
   3   7  -5  324.20    5.90   2
  -3  -7   5  330.48    5.90   1
  -3   7   5  341.28    6.11   4
   3  -7  -5  326.78    5.75   2
  -3  -7   5  327.31    5.94   4
  -2   7   5  636.75   11.09   3
   2  -7  -5  645.15   10.41   1
   2   7  -5  624.11   10.94   3
  -2  -7   5  641.83   10.43   1
   2   7  -5  629.51   10.40   2
   2  -7  -5  644.31   10.38   2
  -2  -7   5  627.45   10.64   4
  -2   7   5  644.61   10.66   4
   1  -7  -5   84.31    2.10   2
   1   7  -5   86.54    2.11   3
  -1   7   5   86.95    2.10   4
  -1  -7   5   84.88    1.87   1
  -1  -7   5   86.13    2.18   4
  -1   7   5   84.03    2.19   3
   1   7  -5   86.36    2.06   2
   0  -7  -5  460.83    7.78   2
   0   7   5  440.95    8.32   3
   0   7  -5  449.63    8.24   3
   0   7  -5  444.27    7.55   2
   0   7   5  454.64    7.73   4
  -1   7  -5  180.86    3.51   2
  -1   7  -5  177.62    3.96   3
   1   7   5  177.27    3.58   4
   1   7   5  174.50    4.03   3
  -1  -7  -5  182.48    3.77   2
   1  -7   5  175.54    3.80   4
   2  -7   5   67.46    2.12   4
  -2  -7  -5   72.18    2.12   2
  -2   7  -5   66.50    2.23   3
   2   7   5   68.75    2.26   3
   2   7   5   73.14    1.95   4
   3   7   5    1.46    0.67   3
  -3  -7  -5    1.36    0.61   2
   3  -7   5    1.36    0.61   4
  -3   7  -5    1.22    0.70   3
  -4   7  -5  142.70    3.95   3
   4   7   5  145.42    4.05   3
  -4  -7  -5  147.38    3.70   2
   4  -7   5  146.51    3.79   4
  -7  -8   5  110.83    3.19   1
  -7  -8   5  111.97    2.84   5
   7  -8  -5  116.70    3.25   1
   7   8  -5  109.35    3.06   2
   6   8  -5   32.00    1.44   2
   6  -8  -5   31.55    1.49   1
  -6   8   5   29.63    1.51   4
  -6  -8   5   31.83    1.37   5
  -6  -8   5   32.90    1.54   1
  -5  -8   5  148.24    3.44   1
   5   8  -5  147.39    3.36   2
  -5  -8   5  150.89    3.05   5
   5  -8  -5  147.90    3.45   1
  -5   8   5  148.69    3.49   4
   4  -8  -5   39.34    1.33   2
  -4  -8   5   39.00    1.43   4
   4   8  -5   42.56    1.49   2
  -4   8   5   41.67    1.56   4
  -4  -8   5   38.72    1.49   1
   4  -8  -5   39.08    1.48   1
   3  -8  -5  372.26    6.53   1
   3  -8  -5  365.25    6.32   2
  -3   8   5  358.44    6.64   4
  -3  -8   5  368.72    6.53   4
  -3  -8   5  372.00    6.52   1
   2  -8  -5  105.36    2.36   2
  -2   8   5  103.33    2.42   4
  -2   8   5  100.82    2.40   3
  -2  -8   5  101.41    2.42   4
   2  -8  -5   96.95    2.23   1
  -2  -8   5  103.70    2.32   1
   2   8  -5  103.98    2.39   2
   2   8  -5  103.24    2.32   3
  -1   8   5  972.12   16.54   3
   1   8  -5  956.14   16.39   3
  -1  -8   5  949.56   15.24   1
   1   8  -5  959.63   15.20   2
  -1   8   5  950.03   15.52   4
   1  -8  -5  975.29   15.30   2
  -1  -8   5  955.80   15.69   4
   0   8  -5  136.60    3.17   3
   0  -8  -5  136.36    3.04   2
   0   8   5  142.56    2.94   4
   0   8   5  135.82    3.23   3
   0   8  -5  140.39    2.88   2
   1  -8   5   34.37    1.41   4
   1   8   5   35.43    1.49   3
  -1   8  -5   33.99    1.48   3
  -1  -8  -5   36.02    1.41   2
  -1   8  -5   38.26    1.28   2
   1   8   5   39.15    1.31   4
  -2  -8  -5    0.60    0.50   2
   2  -8   5    0.41    0.51   4
   2   8   5   -0.25    0.47   3
  -2   8  -5    0.07    0.58   3
  -3  -8  -5  288.15    5.85   2
  -3   8  -5  297.98    6.32   3
   3   8   5  290.75    6.37   3
   3  -8   5  293.07    6.00   4
   7  -9  -5    0.49    0.65   1
  -7  -9   5   -0.18    0.66   1
  -7   9   5    0.24    0.67   4
   7   9  -5    0.11    0.67   2
  -6   9   5   18.05    1.26   4
  -6  -9   5   17.28    1.24   1
   6  -9  -5   20.91    1.27   1
   6   9  -5   18.92    1.17   2
   5  -9  -5   10.41    0.91   1
  -5   9   5   10.70    1.00   4
  -5  -9   5    9.08    0.92   1
   5   9  -5    9.36    0.85   2
  -4  -9   5  897.17   15.05   1
   4   9  -5  878.60   14.79   2
   4  -9  -5  916.97   15.08   1
  -4   9   5  896.17   15.19   4
   4  -9  -5  952.61   14.51   2
  -4  -9   5  947.96   14.96   4
  -3   9   5  255.49    4.94   4
   3  -9  -5  253.15    4.63   2
  -3  -9   5  252.55    4.83   1
  -3  -9   5  255.92    4.81   4
   3  -9  -5  257.45    4.84   1
   2   9  -5   13.73    0.87   2
  -2   9   5   15.91    0.94   4
  -2  -9   5   13.82    0.87   4
  -2   9   5   13.92    0.90   3
   2  -9  -5   12.10    0.73   1
   2  -9  -5   13.01    0.85   2
   2   9  -5   12.29    0.82   3
  -2  -9   5   13.44    0.87   1
  -1   9   5    1.65    0.47   3
   1  -9  -5    1.65    0.46   2
  -1   9   5    1.88    0.48   4
  -1  -9   5    1.39    0.49   4
  -1  -9   5    1.28    0.41   1
   1   9  -5    1.34    0.46   2
   1   9  -5    0.54    0.41   3
   0  -9   5  271.04    5.25   4
   0   9   5  278.36    5.00   4
   0   9  -5  276.15    4.92   2
   0   9   5  265.05    5.49   3
   0   9  -5  271.56    5.43   3
   1  -9   5    7.56    0.81   4
  -1  -9  -5    8.48    0.81   2
   1   9   5    8.30    0.84   3
  -1   9  -5    8.72    0.93   3
  -2  -9  -5  249.84    5.04   2
  -2   9  -5  251.56    5.38   3
   2  -9   5  242.06    5.08   4
   2   9   5  242.51    5.43   3
   3  -9   5   59.87    2.13   4
  -3   9  -5   56.74    2.21   3
  -3  -9  -5   57.33    2.06   2
   3   9   5   57.57    2.23   3
  -6  10   5    0.99    0.71   4
   6  10  -5    1.66    0.59   2
  -6 -10   5    2.51    0.73   1
   6 -10  -5    1.84    0.64   1
   5 -10  -5   64.20    2.07   1
  -5 -10   5   60.98    2.04   1
   5  10  -5   65.29    2.04   2
  -5  10   5   63.97    2.10   4
   4  10  -5   63.06    1.91   2
  -4  10   5   61.12    1.95   4
  -4 -10   5   61.78    1.94   1
   4 -10  -5   62.20    1.92   1
  -3 -10   5  184.12    3.67   4
   3 -10  -5  184.17    3.52   2
  -3 -10   5  183.38    3.76   1
   3  10  -5  171.86    3.67   2
   3 -10  -5  175.54    3.69   1
  -3  10   5  182.30    3.80   4
  -2 -10   5  118.58    2.71   4
  -2 -10   5  118.44    2.66   1
   2  10  -5  118.23    2.68   2
   2  10  -5  119.47    2.69   3
   2 -10  -5  120.05    2.64   1
  -2  10   5  117.53    2.70   4
   2 -10  -5  122.76    2.66   2
  -2  10   5  117.66    2.80   3
  -1  10   5  377.52    7.30   3
  -1 -10   5  380.37    6.65   1
   1  10  -5  384.28    7.18   3
   1 -10  -5  396.03    6.80   2
  -1 -10   5  383.27    6.94   4
  -1  10   5  391.40    6.77   4
   1  10  -5  389.78    6.69   2
   0 -10  -5    0.85    0.44   2
   0  10   5    0.43    0.44   3
   0  10  -5    0.38    0.41   2
   0 -10   5    0.55    0.47   4
   0  10  -5    0.18    0.44   3
   0  10   5    0.65    0.40   4
   1  10   5   78.83    2.40   3
   1 -10   5   75.81    2.23   4
  -1 -10  -5   80.02    2.24   2
  -1  10  -5   80.91    2.36   3
   2  10   5   25.38    1.41   3
  -2 -10  -5   24.28    1.29   2
  -2  10  -5   23.85    1.39   3
   2 -10   5   23.83    1.29   4
   3  10   5  342.87    7.36   3
   3 -10   5  343.79    6.93   4
  -3 -10  -5  348.62    6.79   2
  -3  10  -5  351.05    7.29   3
  -6  11   5  102.61    2.96   4
   6 -11  -5  100.05    2.90   1
  -6 -11   5   98.74    2.90   1
   6  11  -5  100.51    2.83   2
   5  11  -5  155.73    3.60   2
  -5  11   5  154.52    3.68   4
   5 -11  -5  154.54    3.66   1
  -5 -11   5  156.03    3.66   1
   4 -11  -5  289.71    5.62   1
   4  11  -5  286.14    5.52   2
  -4  11   5  291.72    5.65   4
  -4 -11   5  290.03    5.63   1
  -3 -11   5   26.58    1.20   4
  -3  11   5   29.07    1.28   4
   3 -11  -5   32.48    1.17   2
   3 -11  -5   28.66    1.21   1
  -3 -11   5   28.10    1.26   1
   3  11  -5   28.50    1.21   2
  -2  11   5   48.05    1.66   3
  -2 -11   5   49.29    1.56   1
  -2 -11   5   48.35    1.56   4
  -2  11   5   48.27    1.56   4
   2 -11  -5   51.52    1.56   2
   2  11  -5   48.00    1.55   2
   2  11  -5   51.03    1.59   3
   2 -11  -5   51.86    1.57   1
   1 -11  -5    3.44    0.57   2
  -1  11   5    3.50    0.54   4
  -1 -11   5    2.89    0.51   1
  -1  11   5    2.66    0.56   3
   1  11  -5    2.94    0.55   3
   1  11  -5    3.03    0.55   2
  -1 -11   5    3.44    0.60   4
   0 -11   5  121.28    2.89   4
   0 -11  -5  115.28    2.79   2
   0  11   5  118.98    3.06   3
   0  11  -5  119.82    2.96   3
   1 -11   5  234.55    4.89   4
   1  11   5  239.30    5.23   3
  -1 -11  -5  236.78    4.80   2
  -1  11  -5  243.25    5.15   3
  -2  11  -5  118.25    3.23   3
   2 -11   5  117.73    3.08   4
  -2 -11  -5  114.50    3.02   2
   2  11   5  118.19    3.31   3
   3 -11   5    0.09    0.61   4
   3  11   5    0.06    0.61   3
  -3 -11  -5    0.90    0.63   2
  -3  11  -5   -1.00    0.63   3
   6 -12  -5  148.62    3.74   1
   6  12  -5  143.58    3.62   2
  -6  12   5  145.73    3.74   4
  -6 -12   5  145.58    3.71   1
  -5  12   5   10.77    1.06   4
   5  12  -5   11.15    0.98   2
   5 -12  -5   13.83    1.06   1
  -5 -12   5   11.88    1.04   1
  -4  12   5   24.77    1.28   4
   4  12  -5   24.10    1.25   2
  -4 -12   5   23.57    1.26   1
   4 -12  -5   24.05    1.22   1
  -3  12   5   29.03    1.28   4
  -3 -12   5   27.94    1.25   1
   3  12  -5   25.99    1.19   2
   3 -12  -5   28.41    1.14   2
   3 -12  -5   25.69    1.20   1
  -2  12   5  804.19   13.49   4
   2 -12  -5  841.15   13.22   2
   2 -12  -5  823.09   13.48   1
  -2 -12   5  804.97   13.53   4
   2  12  -5  837.01   14.25   3
  -2 -12   5  813.69   13.50   1
  -2  12   5  832.08   14.41   3
   2  12  -5  793.34   13.23   2
  -1  12   5  426.49    7.42   4
   1  12  -5  434.67    8.03   3
  -1 -12   5  417.70    7.62   4
   1  12  -5  427.39    7.35   2
  -1  12   5  437.16    8.15   3
   1 -12  -5  422.19    7.46   2
  -1 -12   5  431.93    7.45   1
   0  12  -5  200.13    4.33   3
   0  12   5  193.43    4.40   3
   0 -12  -5  197.43    4.06   2
   0 -12   5  190.65    4.10   4
  -1  12  -5    2.64    0.68   3
   1  12   5    2.48    0.65   3
   1 -12   5    2.49    0.65   4
  -1 -12  -5    3.55    0.64   2
   2 -12   5   76.07    2.37   4
   2  12   5   74.22    2.53   3
  -2 -12  -5   72.15    2.31   2
  -2  12  -5   75.00    2.50   3
  -3 -12  -5  106.40    3.04   2
   3 -12   5  106.74    3.09   4
   3  12   5  108.67    3.34   3
  -3  12  -5  106.72    3.27   3
   6 -13  -5    1.19    0.67   1
   6  13  -5    0.94    0.65   2
  -6 -13   5    1.45    0.72   1
  -6  13   5    1.00    0.75   4
  -5 -13   5  204.44    4.56   1
   5  13  -5  207.13    4.46   2
  -5  13   5  207.84    4.56   4
   5 -13  -5  198.58    4.52   1
   4  13  -5   46.07    1.68   2
  -4 -13   5   43.66    1.70   1
   4 -13  -5   44.76    1.67   1
  -4  13   5   45.10    1.70   4
   3  13  -5  429.81    7.65   2
  -3  13   5  431.63    7.78   4
   3 -13  -5  433.18    7.81   1
  -3 -13   5  438.19    7.84   1
   2 -13  -5   22.34    1.09   1
   2  13  -5   21.77    1.11   2
  -2  13   5   22.71    1.10   4
  -2  13   5   23.83    1.23   3
  -2 -13   5   23.54    1.14   4
  -2 -13   5   22.15    1.15   1
   1  13  -5    1.92    0.51   2
  -1 -13   5    1.59    0.50   1
  -1  13   5    2.28    0.59   3
   1  13  -5    1.86    0.57   3
  -1 -13   5    2.55    0.61   4
   1 -13  -5    2.68    0.54   2
   0 -13  -5   77.93    2.21   2
   0 -13   5   79.73    2.25   4
   0  13   5   77.26    2.41   3
   0  13  -5   81.33    2.39   3
  -1 -13  -5  198.57    4.29   2
  -1  13  -5  205.97    4.63   3
   1  13   5  200.64    4.68   3
   1 -13   5  197.64    4.35   4
   2 -13   5    2.98    0.73   4
  -2  13  -5    2.03    0.77   3
  -2 -13  -5    1.93    0.69   2
   2  13   5    2.02    0.69   3
   3  13   5   15.45    1.33   3
   3 -13   5   13.75    1.22   4
  -3 -13  -5   14.84    1.21   2
  -3  13  -5   11.85    1.30   3
   5 -14  -5    5.52    0.81   1
  -5  14   5    5.80    0.94   4
   5  14  -5    5.42    0.81   2
  -5 -14   5    5.19    0.84   1
   4  14  -5   33.38    1.47   2
  -4  14   5   33.65    1.50   4
  -4 -14   5   34.78    1.54   1
   4 -14  -5   32.37    1.47   1
   3  14  -5    4.39    0.70   2
   3 -14  -5    3.48    0.63   1
  -3  14   5    3.45    0.68   4
  -3 -14   5    4.56    0.72   1
   2 -14  -5   42.38    1.52   1
  -2  14   5   43.86    1.66   3
  -2 -14   5   41.70    1.53   1
   2 -14  -5   41.10    1.42   2
  -2  14   5   43.40    1.48   4
   2  14  -5   40.12    1.47   2
   1 -14  -5   50.53    1.67   2
  -1 -14   5   50.13    1.72   4
  -1  14   5   51.62    1.92   3
   1  14  -5   50.40    1.81   3
  -1 -14   5   48.83    1.62   1
   0 -14   5  104.69    2.73   4
   0  14   5  103.64    2.96   3
   0 -14  -5  106.06    2.70   2
   0  14  -5  110.72    2.95   3
   1  14   5   18.34    1.26   3
  -1  14  -5   18.80    1.30   3
   1 -14   5   18.95    1.17   4
  -1 -14  -5   20.30    1.19   2
   2  14   5  230.74    5.48   3
  -2 -14  -5  239.60    5.09   2
   2 -14   5  234.36    5.14   4
  -2  14  -5  236.21    5.43   3
  -5  15   5    0.29    0.70   4
   5 -15  -5    1.43    0.62   1
   5  15  -5    0.64    0.63   2
  -5 -15   5    1.00    0.70   1
  -4 -15   5   40.18    1.69   1
   4 -15  -5   39.45    1.65   1
   4  15  -5   38.78    1.61   2
  -4  15   5   40.69    1.66   4
   3 -15  -5  270.98    5.47   1
  -3 -15   5  273.98    5.52   1
   3  15  -5  272.94    5.34   2
  -3  15   5  281.16    5.40   4
  -2 -15   5   37.03    1.49   1
   2 -15  -5   37.89    1.49   1
   2 -15  -5   38.06    1.38   2
   2  15  -5   36.17    1.45   2
  -2  15   5   35.13    1.53   3
  -1  15   5   64.57    2.21   3
  -1 -15   5   61.10    1.92   4
  -1 -15   5   60.08    1.89   1
   1  15  -5   64.88    2.12   3
   1 -15  -5   61.25    1.89   2
   0 -15   5   18.33    1.16   4
   0 -15  -5   18.66    1.11   2
   0  15  -5   19.11    1.28   3
   0  15   5   18.26    1.24   3
  -1 -15  -5  117.01    3.07   2
   1 -15   5  124.15    3.17   4
  -1  15  -5  124.05    3.39   3
   1  15   5  120.14    3.41   3
   2  15   5  148.83    4.13   3
  -2  15  -5  158.37    4.14   3
   2 -15   5  154.15    3.87   4
  -2 -15  -5  157.06    3.84   2
  -5  16   5  125.69    3.34   4
  -5 -16   5  125.26    3.41   1
   5 -16  -5  123.51    3.36   1
   5  16  -5  121.84    3.27   2
  -4 -16   5   13.78    1.15   1
  -4  16   5   12.99    1.08   4
   4 -16  -5   12.92    1.06   1
   4  16  -5   12.67    1.04   2
   3 -16  -5   22.61    1.24   1
   3  16  -5   23.07    1.25   2
  -3  16   5   25.99    1.31   4
  -3 -16   5   24.66    1.32   1
  -2  16   5  201.60    4.68   3
  -2 -16   5  209.91    4.47   1
   2 -16  -5  210.73    4.43   1
   2  16  -5  217.39    4.32   2
   1 -16  -5  456.16    8.02   2
  -1  16   5  453.10    8.88   3
  -1 -16   5  450.35    8.18   1
   1  16  -5  461.50    8.77   3
   0  16   5  105.35    3.07   3
   0 -16  -5  102.36    2.72   2
   0  16  -5  105.31    3.00   3
   0 -16   5  103.80    2.74   4
   1 -16   5   50.00    1.90   4
   1  16   5   46.82    2.05   3
  -1  16  -5   51.05    2.14   3
  -1 -16  -5   52.74    1.92   2
  -2  16  -5   60.80    2.42   3
  -2 -16  -5   62.27    2.25   2
   2 -16   5   59.97    2.24   4
   2  16   5   60.89    2.45   3
   4 -17  -5  180.36    4.26   1
  -4 -17   5  175.70    4.25   1
   4  17  -5  178.40    4.10   2
  -4  17   5  186.41    4.12   4
  -3 -17   5   25.31    1.38   1
   3 -17  -5   24.79    1.34   1
   3  17  -5   26.49    1.32   2
  -2  17   5   11.87    1.06   3
   2 -17  -5   12.60    1.02   1
  -2 -17   5   12.49    1.00   1
   1  17  -5    9.94    1.04   3
   1 -17  -5   11.50    0.97   2
  -1  17   5   11.31    1.14   3
  -1 -17   5   11.04    0.97   1
   0  17   5    8.07    0.98   3
   0  17  -5    8.00    1.01   3
   0 -17  -5    8.26    0.88   2
  -1 -17  -5  243.26    5.17   2
   1  17   5  239.38    5.70   3
   1 -17   5  248.25    5.27   4
  -1  17  -5  251.90    5.70   3
  -4 -18   5   15.30    1.24   1
   4  18  -5   14.77    1.14   2
   4 -18  -5   13.90    1.18   1
   3  18  -5    0.83    0.59   2
  -3 -18   5    0.45    0.61   1
   3 -18  -5    0.18    0.56   1
  -2  18   5    3.97    0.78   3
  -2 -18   5    2.91    0.71   1
   1  18  -5  307.59    6.44   3
  -1  18   5  299.37    6.53   3
   0  18   5   57.50    2.30   3
   0  18  -5   58.32    2.27   3
   0 -18  -5   59.54    2.01   2
  -1 -18  -5   45.64    1.85   2
   1 -18   5   44.36    1.86   4
   1  18   5   42.85    2.03   3
  -1  18  -5   44.72    2.12   3
   3 -19  -5   15.63    1.20   1
  -3 -19   5   15.61    1.27   1
  -2 -19   5   30.80    1.53   1
  -2  19   5   29.01    1.57   3
   1  19  -5   63.20    2.35   3
  -1  19   5   61.42    2.37   3
   0  19  -5   12.03    1.30   3
   0  19   5   11.99    1.29   3
   0 -19  -5   11.41    1.03   2
   7   0  -6    0.33    0.58   2
  -7   0   6   -0.59    0.65   4
   7   0  -6    0.90    0.65   1
   6   0  -6  338.59    6.32   2
  -6   0   6  335.62    6.60   4
   6   0  -6  343.36    6.62   1
   5   0  -6   -0.12    0.40   2
  -5   0   6    0.74    0.54   4
   5   0  -6   -0.08    0.46   1
   4   0  -6   79.74    2.15   1
  -4   0   6   85.08    2.30   4
   4   0  -6   83.21    2.18   2
  -3   0   6    0.25    0.50   4
   3   0  -6    0.36    0.39   2
   2   0  -6  148.47    3.16   2
  -2   0   6  145.34    3.23   4
  -1   0   6    0.49    0.45   4
   1   0  -6   -0.18    0.40   2
  -1   0   6   -1.14    0.37   3
   0   0  -6  472.22    8.07   2
   0   0   6  467.02    8.65   3
   0   0   6  459.22    8.27   4
   1   0   6    0.11    0.49   4
  -1   0  -6    0.03    0.46   2
   1   0   6   -0.95    0.47   3
   2   0   6  177.34    4.29   3
  -2   0  -6  173.12    3.84   2
   2   0   6  181.94    4.01   4
  -3   0  -6    0.02    0.58   2
   3   0   6    0.44    0.63   4
   3   0   6   -0.54    0.59   3
   7   1  -6  224.75    5.01   1
  -7  -1   6  221.58    4.90   4
   7   1  -6  213.61    4.64   2
   7  -1  -6  221.14    4.62   2
   7  -1  -6  228.69    5.02   1
  -7   1   6  219.71    4.92   4
   6   1  -6    0.57    0.58   1
   6  -1  -6    1.06    0.59   1
  -6   1   6    1.53    0.68   4
   6  -1  -6    1.00    0.53   2
   6   1  -6    0.93    0.55   2
  -6  -1   6    0.60    0.62   4
   5  -1  -6   -0.29    0.45   1
   5   1  -6   -0.46    0.45   1
   5   1  -6    0.31    0.44   2
  -5  -1   6    0.22    0.50   4
   5  -1  -6   -0.02    0.41   2
  -5   1   6    1.63    0.62   4
   4   1  -6  220.21    4.37   1
   4  -1  -6  226.41    4.38   2
   4  -1  -6  221.40    4.38   1
  -4  -1   6  221.50    4.51   4
  -4   1   6  225.26    4.57   4
   3   1  -6  395.03    6.94   2
  -3  -1   6  392.88    7.14   4
  -3   1   6  398.47    7.16   4
  -2   1   6   75.35    2.06   4
  -2  -1   6   72.54    2.04   4
   2  -1  -6   74.57    2.00   2
   2   1  -6   72.96    1.98   2
  -1   1   6   26.24    1.22   4
  -1  -1   6   25.29    1.21   4
   1  -1  -6   25.92    1.18   2
   1   1  -6   23.70    1.14   2
  -1  -1   6   26.81    1.15   3
  -1   1   6   19.94    1.13   3
   0  -1   6  364.79    7.00   3
   0  -1   6  362.66    6.75   4
   0  -1  -6  358.96    6.53   2
   0   1   6  359.82    6.70   4
   0   1   6  372.80    7.03   3
   0   1  -6  371.16    6.54   2
   1   1   6  392.29    7.60   3
   1  -1   6  387.91    7.59   3
  -1   1  -6  383.01    6.94   2
   1   1   6  392.46    7.17   4
  -1  -1  -6  385.59    6.99   2
   1  -1   6  390.27    7.21   4
  -2  -1  -6   33.30    1.43   2
   2  -1   6   32.22    1.48   4
   2   1   6   33.41    1.49   4
  -2   1  -6   33.35    1.41   2
   2  -1   6   33.06    1.62   3
   2   1   6   31.57    1.61   3
   3   1   6  210.94    5.12   3
  -3  -1  -6  206.83    4.54   2
   3  -1   6  213.79    4.71   4
   3   1   6  218.71    4.69   4
  -7  -2   6    4.95    0.92   4
  -7   2   6    4.04    0.91   4
   7  -2  -6    5.29    0.86   1
   7   2  -6    3.64    0.82   1
   7   2  -6    4.14    0.77   2
  -6  -2   6   26.46    1.40   4
  -6   2   6   26.30    1.40   4
   6  -2  -6   27.29    1.28   2
   6   2  -6   24.81    1.27   2
   6  -2  -6   25.45    1.35   1
   6   2  -6   24.12    1.36   1
  -5   2   6  107.03    2.83   4
   5  -2  -6  111.62    2.67   2
   5  -2  -6  103.20    2.72   1
   5   2  -6  113.57    2.74   2
   5   2  -6  109.37    2.77   1
  -5  -2   6  112.30    2.83   4
   4   2  -6  168.55    3.59   2
   4  -2  -6  173.06    3.56   2
  -4  -2   6  169.73    3.69   4
   4  -2  -6  170.56    3.58   1
   4   2  -6  167.38    3.56   1
  -4   2   6  174.64    3.77   4
  -3  -2   6  134.08    2.80   1
  -3  -2   6  130.93    3.04   4
  -3   2   6  134.51    3.08   4
  -3  -2   6  132.77    2.46   5
   2   2  -6  101.75    2.45   2
  -2   2   6  104.04    2.54   4
   2  -2  -6  105.61    2.48   2
  -2  -2   6  102.65    2.54   4
  -1   2   6 1042.44   16.94   4
   1  -2  -6 1018.69   16.50   2
  -1  -2   6 1037.84   16.98   4
   1   2  -6 1043.66   17.66   3
  -1   2   6 1037.67   17.72   3
   0   2  -6  349.40    6.23   2
   0   2   6  356.95    6.73   3
   0   2   6  335.96    6.37   4
   0  -2   6  349.72    6.69   3
   0  -2   6  342.27    6.46   4
   0  -2  -6  340.79    6.27   2
  -1   2  -6    8.59    0.85   2
   1  -2   6    8.11    0.86   4
   1  -2   6    6.58    0.81   3
  -1  -2  -6    7.60    0.79   2
   1   2   6    7.06    0.81   3
   1   2   6    8.16    0.84   4
   2   2   6   36.58    1.57   4
  -2  -2  -6   38.49    1.56   2
   2  -2   6   39.47    1.62   4
  -2   2  -6   39.62    1.75   3
   2   2   6   35.79    1.68   3
  -2   2  -6   36.16    1.48   2
  -3   2  -6    6.85    1.00   3
  -3  -2  -6    8.36    0.96   2
   3  -2   6    8.39    0.98   4
   3   2   6    9.19    0.99   4
   3   2   6    8.68    1.04   3
  -7  -3   6  112.88    3.07   4
   7   3  -6  111.43    3.17   1
  -7   3   6  113.65    3.18   4
   7  -3  -6  111.25    3.17   1
   7   3  -6  113.04    3.00   2
   6  -3  -6    4.82    0.77   1
   6  -3  -6    5.41    0.71   2
  -6   3   6    6.37    0.90   4
  -6  -3   6    4.46    0.79   4
   6   3  -6    3.80    0.74   1
   6   3  -6    4.51    0.71   2
  -5   3   6   76.93    2.32   4
   5   3  -6   74.92    2.21   1
  -5  -3   6   80.11    2.30   4
   5  -3  -6   80.06    2.16   2
   5   3  -6   79.23    2.22   2
   5  -3  -6   78.97    2.25   1
  -4   3   6  410.30    7.44   4
  -4  -3   6  398.24    7.34   4
   4  -3  -6  414.99    7.23   1
   4   3  -6  408.56    7.22   1
   4   3  -6  411.02    7.22   2
   4  -3  -6  397.86    7.10   2
   3  -3  -6  267.86    5.01   2
  -3  -3   6  277.09    5.23   4
   3   3  -6  266.74    5.07   2
  -3  -3   6  271.63    4.35   5
  -3   3   6  274.98    5.24   4
  -3  -3   6  265.50    4.91   1
   2  -3  -6    4.30    0.59   2
  -2   3   6    3.84    0.61   4
  -2  -3   6    3.58    0.62   4
   2   3  -6    3.90    0.59   2
   1   3  -6  283.59    5.51   3
  -1   3   6  294.38    5.47   4
   1  -3  -6  286.17    5.34   2
  -1   3   6  285.34    5.59   3
   0   3  -6    0.44    0.46   2
   0   3   6    0.13    0.44   3
   0   3   6    1.22    0.53   4
   0  -3   6    0.07    0.49   4
   0  -3  -6    0.19    0.42   2
   0   3  -6   -0.45    0.43   3
  -1   3  -6    0.30    0.49   2
   1   3   6    0.74    0.51   4
   1  -3   6    0.62    0.55   4
  -1  -3  -6    0.83    0.48   2
   1   3   6    0.27    0.49   3
  -1   3  -6    0.36    0.51   3
   2  -3   6  476.80    8.88   4
  -2   3  -6  508.19    9.45   3
   2   3   6  480.67    8.73   4
  -2   3  -6  488.19    8.50   2
  -2  -3  -6  482.67    8.67   2
   2   3   6  487.00    9.48   3
   3  -3   6   29.26    1.54   4
   3   3   6   31.67    1.54   4
  -3  -3  -6   29.95    1.51   2
  -3   3  -6   28.42    1.66   3
   3   3   6   29.83    1.67   3
  -7  -4   6   41.59    1.65   5
   7   4  -6   44.85    1.79   2
   7  -4  -6   43.03    1.88   1
  -7  -4   6   44.89    1.93   1
  -7   4   6   44.89    1.95   4
  -6  -4   6    2.39    0.73   4
  -6  -4   6    1.79    0.63   1
   6  -4  -6    1.33    0.56   2
  -6  -4   6    0.96    0.49   5
   6   4  -6    1.03    0.57   2
   6  -4  -6    1.52    0.62   1
  -6   4   6    2.33    0.74   4
  -5  -4   6  388.17    7.17   1
   5  -4  -6  380.12    7.16   1
   5  -4  -6  391.50    6.92   2
   5   4  -6  400.57    7.10   2
  -5  -4   6  388.15    6.33   5
  -5  -4   6  402.49    7.21   4
  -5   4   6  376.74    7.30   4
  -4  -4   6   41.99    1.57   4
   4   4  -6   41.21    1.52   2
  -4   4   6   42.52    1.61   4
   4  -4  -6   42.49    1.45   2
  -4  -4   6   41.10    1.48   1
  -4  -4   6   42.20    1.30   5
   4  -4  -6   42.48    1.50   1
  -3  -4   6    5.09    0.51   5
   3   4  -6    6.99    0.70   2
  -3  -4   6    6.58    0.64   1
   3  -4  -6    7.95    0.73   2
  -3  -4   6    7.59    0.76   4
  -3   4   6    7.35    0.77   4
   2   4  -6   52.58    1.66   2
  -2  -4   6   52.16    1.69   4
   2  -4  -6   54.93    1.67   2
  -2   4   6   55.64    1.74   4
   1  -4  -6  934.99   15.06   2
   1   4  -6  930.20   15.00   2
  -1   4   6  938.26   15.39   4
  -1  -4   6  936.64   15.49   4
  -1   4   6  936.15   16.14   3
   1   4  -6  940.90   16.05   3
   0  -4  -6   21.03    1.10   2
   0   4   6   20.67    1.08   4
   0   4  -6   21.38    1.21   3
   0   4   6   22.50    1.20   3
   0  -4   6   18.25    1.10   4
   0   4  -6   21.38    1.10   2
  -1   4  -6    2.96    0.64   3
  -1  -4  -6    5.80    0.73   2
   1   4   6    3.58    0.66   4
   1  -4   6    5.33    0.76   4
  -1   4  -6    4.27    0.65   2
   1   4   6    5.20    0.75   3
   2   4   6    7.06    0.81   4
  -2  -4  -6    8.40    0.89   2
  -2   4  -6    5.74    0.88   3
  -2   4  -6    7.04    0.82   2
   2  -4   6    7.10    0.89   4
   2   4   6    5.72    0.86   3
   3  -4   6  280.01    5.95   4
  -3   4  -6  291.57    6.34   3
   3   4   6  285.98    6.41   3
  -3  -4  -6  285.26    5.82   2
   7  -5  -6   12.10    1.15   1
  -7  -5   6   12.91    1.07   5
  -7   5   6   13.72    1.25   4
  -7  -5   6   12.64    1.22   1
   7   5  -6   13.72    1.09   2
   6   5  -6   88.20    2.53   2
   6  -5  -6   89.04    2.64   1
  -6  -5   6   90.77    2.34   5
  -6  -5   6   94.30    2.68   1
  -6   5   6   93.61    2.74   4
  -6  -5   6   95.81    2.62   4
  -5   5   6    1.46    0.62   4
   5  -5  -6    2.01    0.60   1
   5  -5  -6    2.13    0.57   2
  -5  -5   6    1.25    0.50   5
  -5  -5   6    1.84    0.63   4
  -5  -5   6    1.78    0.60   1
   5   5  -6    2.79    0.62   2
  -4  -5   6  142.07    3.14   1
   4   5  -6  142.30    3.21   2
  -4  -5   6  146.91    3.26   4
  -4   5   6  136.98    3.28   4
  -4  -5   6  139.66    2.76   5
   4  -5  -6  144.16    3.09   2
   4  -5  -6  140.45    3.14   1
  -3   5   6   36.94    1.48   4
   3  -5  -6   36.49    1.33   2
  -3  -5   6   40.16    1.48   4
   3   5  -6   36.28    1.38   2
  -3  -5   6   39.21    1.34   1
  -2  -5   6  112.31    2.72   4
   2  -5  -6  118.65    2.68   2
  -2   5   6  114.77    2.73   4
   2   5  -6  111.54    2.65   2
  -1  -5   6   65.19    1.97   4
   1  -5  -6   68.21    1.93   2
  -1   5   6   68.53    1.95   3
   1   5  -6   63.33    1.85   2
   1   5  -6   58.21    1.85   3
  -1   5   6   65.32    1.90   4
   0  -5   6  215.28    4.54   4
   0   5  -6  219.34    4.31   2
   0  -5  -6  216.62    4.42   2
   0   5   6  222.20    4.43   4
   0   5  -6  226.44    4.64   3
   0   5   6  222.80    4.71   3
   1   5   6    6.53    0.82   3
  -1   5  -6    7.83    0.78   2
  -1  -5  -6    8.58    0.85   2
  -1   5  -6    7.14    0.83   3
   1   5   6    7.32    0.78   4
   1  -5   6    6.97    0.83   4
   2   5   6  275.66    6.04   3
   2  -5   6  271.94    5.68   4
   2   5   6  280.39    5.46   4
  -2   5  -6  287.74    6.01   3
  -2  -5  -6  273.58    5.56   2
   3  -5   6    0.60    0.70   4
  -3  -5  -6    0.84    0.66   2
  -3   5  -6   -0.38    0.72   3
   3   5   6   -0.01    0.63   3
  -7  -6   6   -0.15    0.62   5
   7  -6  -6    0.22    0.60   1
  -7  -6   6    0.47    0.73   1
   7   6  -6    0.08    0.60   2
  -7   6   6    1.40    0.78   4
  -6  -6   6    4.84    0.81   1
  -6  -6   6    5.62    0.86   4
   6   6  -6    4.99    0.76   2
   6  -6  -6    5.07    0.79   1
  -6   6   6    5.44    0.90   4
  -6  -6   6    4.09    0.69   5
   5   6  -6  159.64    3.60   2
  -5  -6   6  159.29    3.21   5
  -5  -6   6  157.35    3.62   1
   5  -6  -6  164.98    3.44   2
   5  -6  -6  159.02    3.64   1
  -5  -6   6  165.40    3.61   4
  -5   6   6  159.42    3.74   4
  -4  -6   6   90.19    2.07   5
   4  -6  -6   90.53    2.34   1
  -4   6   6   91.03    2.50   4
  -4  -6   6   92.79    2.43   4
  -4  -6   6   90.73    2.35   1
   4   6  -6   91.77    2.40   2
   4  -6  -6   92.86    2.29   2
   3  -6  -6    9.75    0.78   2
  -3   6   6    9.42    0.94   4
  -3  -6   6   10.87    0.92   4
  -3  -6   6    9.58    0.83   1
   3   6  -6   10.31    0.83   2
  -2  -6   6   48.57    1.63   4
  -2   6   6   50.06    1.65   4
   2   6  -6   49.67    1.61   2
   2  -6  -6   51.12    1.63   2
   1   6  -6  258.19    4.97   3
  -1  -6   6  244.13    4.95   4
  -1   6   6  249.80    4.85   4
   1   6  -6  246.22    4.73   2
  -1   6   6  253.60    5.07   3
   1  -6  -6  250.22    4.84   2
   0   6   6   99.00    2.68   3
   0  -6  -6   99.96    2.55   2
   0   6  -6  100.90    2.64   3
   0  -6   6   98.67    2.61   4
   0   6  -6  103.05    2.46   2
   0   6   6  101.23    2.51   4
   1  -6   6  143.77    3.45   4
  -1   6  -6  146.70    3.21   2
   1   6   6  147.02    3.65   3
  -1   6  -6  149.87    3.61   3
  -1  -6  -6  141.61    3.38   2
   1   6   6  149.45    3.31   4
  -2  -6  -6   -0.35    0.52   2
   2  -6   6   -0.27    0.54   4
  -2   6  -6   -0.55    0.63   3
   2   6   6    0.26    0.57   3
  -3   6  -6  240.01    5.52   3
  -3  -6  -6  232.73    5.09   2
   3  -6   6  234.87    5.22   4
   3   6   6  231.30    5.56   3
  -6  -7   6  130.11    2.95   5
   6  -7  -6  133.29    3.38   1
   6   7  -6  129.86    3.26   2
  -6  -7   6  129.00    3.34   1
  -6   7   6  127.19    3.39   4
  -5  -7   6  104.08    2.75   1
   5  -7  -6  104.20    2.75   1
   5  -7  -6  106.60    2.54   2
  -5   7   6  108.70    2.89   4
  -5  -7   6  105.88    2.44   5
  -5  -7   6  104.65    2.69   4
   5   7  -6  103.51    2.72   2
   4   7  -6  140.29    3.25   2
   4  -7  -6  150.11    3.28   1
  -4  -7   6  144.12    3.26   4
  -4  -7   6  144.63    3.24   1
   4  -7  -6  142.28    3.10   2
  -4   7   6  140.19    3.36   4
  -3  -7   6  259.47    4.74   1
   3  -7  -6  243.36    4.70   2
  -3   7   6  254.91    4.97   4
  -3  -7   6  240.32    4.85   4
   3   7  -6  245.91    4.81   2
   2   7  -6  232.02    4.53   2
  -2   7   6  232.58    4.62   4
  -2  -7   6  228.18    4.65   4
   2  -7  -6  241.03    4.55   2
   1  -7  -6    1.65    0.52   2
  -1   7   6    1.46    0.53   4
  -1  -7   6    1.51    0.55   4
   1   7  -6    1.49    0.49   2
  -1   7   6    0.79    0.46   3
   1   7  -6    0.34    0.44   3
   0  -7   6   24.68    1.26   4
   0  -7  -6   27.86    1.27   2
   0   7  -6   26.34    1.32   3
   0   7   6   27.03    1.35   3
   0   7  -6   26.68    1.22   2
   0   7   6   27.33    1.23   4
   1   7   6  264.77    5.07   4
  -1   7  -6  256.68    4.92   2
   1   7   6  250.05    5.54   3
  -1  -7  -6  255.70    5.18   2
  -1   7  -6  265.36    5.51   3
   1  -7   6  256.55    5.29   4
  -2   7  -6   45.79    1.94   3
   2  -7   6   41.34    1.76   4
   2   7   6   45.27    1.93   3
  -2  -7  -6   43.31    1.75   2
  -3  -7  -6   46.21    1.93   2
   3  -7   6   47.85    1.97   4
   3   7   6   47.42    2.12   3
  -3   7  -6   45.12    2.11   3
  -6   8   6  196.08    4.48   4
   6   8  -6  187.79    4.28   2
  -6  -8   6  191.30    3.88   5
   6  -8  -6  188.64    4.38   1
  -6  -8   6  198.31    4.44   1
   5   8  -6    8.05    0.86   2
   5  -8  -6    7.76    0.85   1
  -5  -8   6    8.48    0.90   1
  -5  -8   6    8.98    0.88   4
  -5   8   6    9.44    0.99   4
  -4   8   6   90.40    2.53   4
   4  -8  -6   95.22    2.45   1
   4   8  -6   88.61    2.42   2
   4  -8  -6   89.87    2.25   2
  -4  -8   6   93.08    2.43   4
  -4  -8   6   90.85    2.40   1
   3   8  -6    7.71    0.79   2
   3  -8  -6    8.70    0.78   2
  -3  -8   6    8.54    0.85   1
  -3   8   6    7.73    0.86   4
  -3  -8   6    7.64    0.78   4
   2  -8  -6  187.98    3.83   2
  -2   8   6  189.88    3.91   4
   2   8  -6  185.77    3.83   2
  -2  -8   6  181.95    3.92   4
  -1  -8   6   53.46    1.78   4
   1   8  -6   54.43    1.70   2
   1  -8  -6   54.70    1.74   2
   1   8  -6   57.93    1.76   3
  -1   8   6   58.11    1.75   4
  -1   8   6   55.07    1.81   3
   0   8   6  277.58    5.84   3
   0  -8  -6  277.21    5.45   2
   0  -8   6  282.45    5.61   4
   0   8   6  287.24    5.39   4
   0   8  -6  285.92    5.26   2
   0   8  -6  286.84    5.73   3
  -1   8  -6   20.28    1.30   3
   1  -8   6   20.39    1.22   4
  -1  -8  -6   21.42    1.22   2
   1   8   6   21.63    1.28   3
   2   8   6   37.61    1.77   3
  -2  -8  -6   36.03    1.62   2
   2  -8   6   34.35    1.62   4
  -2   8  -6   37.20    1.77   3
  -6   9   6    0.76    0.69   4
   6  -9  -6    2.43    0.70   1
   6   9  -6    0.28    0.54   2
  -6  -9   6   -0.39    0.60   1
  -5   9   6    7.03    0.94   4
   5  -9  -6    6.67    0.81   1
  -5  -9   6    5.91    0.81   1
   5   9  -6    6.09    0.81   2
   4  -9  -6   67.13    2.04   1
  -4  -9   6   69.69    2.07   1
   4   9  -6   68.32    2.07   2
   4  -9  -6   69.98    1.91   2
  -4  -9   6   72.03    2.07   4
  -4   9   6   68.53    2.15   4
  -3  -9   6  641.33   11.21   4
  -3  -9   6  690.28   11.13   1
  -3   9   6  679.62   11.35   4
   3   9  -6  641.00   11.03   2
   3  -9  -6  646.02   10.88   2
   2   9  -6    1.55    0.53   2
  -2  -9   6    1.82    0.56   4
   2  -9  -6    1.74    0.52   2
  -2   9   6    2.08    0.58   4
  -1   9   6   17.01    1.08   3
   1  -9  -6   20.57    1.09   2
   1   9  -6   18.53    1.07   3
  -1   9   6   17.37    1.04   4
  -1  -9   6   17.93    1.06   4
   1   9  -6   19.24    1.05   2
   0   9  -6   56.26    1.74   2
   0   9  -6   55.71    1.90   3
   0   9   6   54.92    1.95   3
   0   9   6   60.43    1.80   4
   0  -9   6   55.13    1.90   4
   0  -9  -6   57.15    1.89   2
   1  -9   6  231.06    4.99   4
   1   9   6  242.73    5.33   3
  -1  -9  -6  228.64    4.88   2
  -1   9  -6  244.21    5.22   3
  -2  -9  -6   -0.15    0.56   2
   2  -9   6    0.26    0.58   4
   2   9   6   -0.01    0.60   3
  -2   9  -6   -0.02    0.64   3
  -6 -10   6  102.47    2.98   1
  -6  10   6  109.34    3.09   4
   6  10  -6  104.10    2.94   2
   6 -10  -6  107.67    3.05   1
  -5 -10   6   51.49    1.88   1
   5 -10  -6   48.63    1.85   1
  -5  10   6   49.36    1.93   4
   5  10  -6   49.74    1.83   2
  -4 -10   6   90.51    2.43   1
   4  10  -6   82.75    2.37   2
  -4 -10   6   81.42    2.27   4
  -4  10   6   87.52    2.51   4
   4 -10  -6   88.79    2.22   2
   4 -10  -6   88.69    2.42   1
   3 -10  -6    0.50    0.43   2
   3  10  -6    0.88    0.51   2
  -3  10   6    1.22    0.58   4
  -3 -10   6   -0.53    0.45   1
  -3 -10   6   -0.02    0.48   4
   2  10  -6   47.91    1.62   2
   2 -10  -6   46.74    1.60   2
  -2 -10   6   44.82    1.62   4
  -2  10   6   46.76    1.61   4
   1  10  -6   49.77    1.68   3
  -1  10   6   50.30    1.65   4
   1 -10  -6   48.65    1.68   2
   1  10  -6   49.35    1.62   2
  -1  10   6   45.69    1.71   3
  -1 -10   6   47.73    1.70   4
   0 -10  -6  349.29    6.61   2
   0  10  -6  357.21    6.98   3
   0  10   6  347.89    7.09   3
   0 -10   6  358.91    6.77   4
  -1 -10  -6    0.14    0.54   2
   1 -10   6    0.09    0.53   4
  -1  10  -6   -0.43    0.55   3
   1  10   6    0.61    0.56   3
   2 -10   6    4.34    0.83   4
  -2 -10  -6    3.96    0.80   2
   2  10   6    4.09    0.86   3
  -2  10  -6    3.88    0.86   3
   6  11  -6    9.71    0.99   2
  -6  11   6   11.19    1.20   4
  -6 -11   6   10.47    1.09   1
   6 -11  -6   10.60    1.12   1
   5 -11  -6    9.83    0.99   1
  -5 -11   6    9.56    1.01   1
  -5  11   6    9.28    1.06   4
   5  11  -6   11.04    1.00   2
  -4  11   6   31.27    1.50   4
   4 -11  -6   32.48    1.45   1
   4  11  -6   31.88    1.41   2
  -4 -11   6   31.18    1.43   1
   3  11  -6  112.77    2.82   2
   3 -11  -6  117.20    2.72   2
  -3  11   6  118.59    2.92   4
  -3 -11   6  116.04    2.80   1
  -3 -11   6  117.50    2.84   4
  -2  11   6    8.25    0.87   4
   2  11  -6    7.98    0.79   2
   2 -11  -6   10.09    0.93   2
  -2 -11   6    7.75    0.82   4
  -1 -11   6    0.04    0.49   4
   1 -11  -6    0.43    0.47   2
  -1  11   6    0.60    0.52   4
  -1  11   6   -0.03    0.47   3
   1  11  -6    0.54    0.49   3
   1  11  -6    0.06    0.47   2
   0  11  -6  101.16    2.78   3
   0 -11   6   99.80    2.73   4
   0  11   6   96.25    2.80   3
   0 -11  -6   97.91    2.66   2
   1  11   6  148.35    3.88   3
  -1  11  -6  149.18    3.78   3
   1 -11   6  150.60    3.66   4
  -1 -11  -6  144.55    3.56   2
  -2  11  -6  239.24    5.47   3
   2  11   6  234.41    5.55   3
   2 -11   6  234.36    5.22   4
  -2 -11  -6  230.46    5.10   2
   5  12  -6  139.30    3.48   2
   5 -12  -6  146.85    3.58   1
  -5 -12   6  141.04    3.55   1
  -5  12   6  139.09    3.58   4
   4 -12  -6  128.09    3.15   1
   4  12  -6  121.97    3.10   2
  -4 -12   6  129.01    3.18   1
  -4  12   6  131.09    3.26   4
  -3  12   6   27.91    1.39   4
  -3 -12   6   30.81    1.36   1
  -3 -12   6   30.12    1.33   4
   3  12  -6   30.36    1.35   2
   3 -12  -6   31.30    1.31   2
   2 -12  -6   69.64    2.07   2
  -2  12   6   69.19    2.03   4
   2  12  -6   68.08    2.01   2
  -2 -12   6   67.55    2.06   4
   1  12  -6  168.85    3.58   2
   1 -12  -6  167.06    3.69   2
  -1 -12   6  165.39    3.77   4
  -1  12   6  161.82    3.93   3
   1  12  -6  173.92    3.87   3
   0 -12   6   92.67    2.64   4
   0 -12  -6   98.07    2.66   2
   0  12   6   92.96    2.79   3
   0  12  -6   97.84    2.76   3
  -1  12  -6   17.61    1.31   3
  -1 -12  -6   17.07    1.18   2
   1  12   6   15.98    1.25   3
   1 -12   6   18.55    1.25   4
  -2  12  -6   44.52    2.05   3
   2 -12   6   43.64    1.92   4
  -2 -12  -6   45.11    1.92   2
   2  12   6   44.63    2.06   3
   5 -13  -6   95.35    2.78   1
   5  13  -6   92.55    2.73   2
  -5  13   6   96.36    2.83   4
  -5 -13   6   87.90    2.72   1
  -4  13   6  220.89    4.70   4
  -4 -13   6  209.68    4.59   1
   4  13  -6  215.67    4.57   2
   4 -13  -6  210.87    4.59   1
   3  13  -6   10.17    0.91   2
   3 -13  -6    9.83    0.95   2
  -3 -13   6   11.63    0.97   1
  -3  13   6   11.62    1.03   4
   2  13  -6  796.67   13.28   2
  -2 -13   6  803.88   13.64   4
   2 -13  -6  818.57   13.30   2
  -2  13   6  811.79   13.52   4
   1 -13  -6   27.09    1.30   2
   1  13  -6   25.96    1.38   3
  -1  13   6   25.16    1.38   3
  -1 -13   6   27.41    1.39   4
   0  13   6   56.96    2.13   3
   0 -13  -6   59.19    2.03   2
   0 -13   6   61.79    2.07   4
   0  13  -6   60.82    2.15   3
   1  13   6   12.33    1.17   3
  -1 -13  -6   10.45    1.03   2
   1 -13   6    9.97    1.04   4
  -1  13  -6   10.77    1.16   3
  -5 -14   6  210.12    4.78   1
   5 -14  -6  211.86    4.78   1
   5  14  -6  216.06    4.73   2
  -5  14   6  210.18    4.80   4
   4  14  -6   20.13    1.27   2
  -4 -14   6   20.10    1.27   1
  -4  14   6   22.02    1.35   4
   4 -14  -6   22.93    1.28   1
   3  14  -6   29.13    1.37   2
  -3 -14   6   29.84    1.41   1
  -3  14   6   33.58    1.52   4
   2 -14  -6    2.45    0.65   2
   2  14  -6    1.86    0.62   2
  -1 -14   6   40.29    1.69   4
  -1  14   6   39.35    1.72   3
   1 -14  -6   38.38    1.56   2
   0  14  -6    7.76    0.95   3
   0 -14  -6   10.11    1.00   2
   0  14   6    8.47    0.96   3
   0 -14   6    9.88    1.00   4
  -1  14  -6  262.21    5.72   3
   1  14   6  243.24    5.75   3
   1 -14   6  242.45    5.34   4
  -1 -14  -6  247.66    5.31   2
  -4  15   6    8.45    0.99   4
  -4 -15   6    8.57    0.99   1
   4 -15  -6    7.76    0.90   1
   4  15  -6    9.67    0.98   2
   3  15  -6    0.57    0.58   2
  -3 -15   6   -0.09    0.59   1
  -3  15   6    1.08    0.65   4
   2 -15  -6  348.23    6.46   2
   1 -15  -6   24.69    1.29   2
  -1 -15   6   22.07    1.28   4
  -1  15   6   22.76    1.38   3
   0 -15  -6  226.23    4.81   2
   0  15   6  215.47    5.16   3
   0  15  -6  222.99    5.11   3
   0 -15   6  219.97    4.83   4
  -1 -15  -6  310.23    6.31   2
  -4 -16   6   19.63    1.34   1
   4 -16  -6   19.03    1.25   1
   4  16  -6   19.80    1.28   2
  -4  16   6   18.78    1.30   4
  -3 -16   6    8.36    0.92   1
   3  16  -6    7.69    0.92   2
  -1  16   6   46.02    1.98   3
   1 -16  -6   51.72    1.84   2
   0 -16   6   10.13    1.03   4
   0  16  -6    8.38    1.08   3
   0 -16  -6    9.34    1.03   2
   0  16   6    9.06    1.06   3
   3  17  -6  198.41    4.38   2
  -3 -17   6  203.02    4.55   1
  -1  17   6  148.87    3.99   3
   1 -17  -6  151.02    3.57   2
  -6   0   7    0.22    0.70   4
   6   0  -7    0.43    0.57   2
   6   0  -7    0.08    0.62   1
  -5   0   7  171.89    3.94   4
   5   0  -7  167.10    3.76   2
  -4   0   7   -0.24    0.54   4
   4   0  -7    0.67    0.46   2
  -3   0   7   16.65    1.08   4
   3   0  -7   16.95    1.03   2
   2   0  -7    0.55    0.48   2
  -2   0   7    0.34    0.52   4
  -1   0   7    8.85    0.91   4
   1   0  -7    8.20    0.83   2
   0   0   7    0.28    0.56   4
   0   0  -7    0.02    0.53   2
   0   0   7   -0.83    0.49   3
  -1   0  -7   61.73    2.05   2
   1   0   7   63.62    2.14   4
   1   0   7   62.70    2.25   3
   2   0   7    0.50    0.65   4
  -2   0  -7    0.67    0.65   2
   2   0   7   -0.79    0.61   3
   6   1  -7  148.89    3.70   1
   6   1  -7  154.19    3.63   2
  -6  -1   7  156.00    3.80   4
  -6   1   7  155.67    3.82   4
   6  -1  -7  152.41    3.74   1
   6  -1  -7  151.30    3.57   2
  -5   1   7   17.58    1.23   4
   5  -1  -7   15.01    1.07   2
  -5  -1   7   17.62    1.22   4
   5   1  -7   16.50    1.08   2
  -4   1   7   12.80    1.06   4
  -4  -1   7   11.33    1.00   4
   4   1  -7   12.42    0.95   2
   4  -1  -7   12.19    0.93   2
   3  -1  -7  149.40    3.34   2
  -3  -1   7  149.44    3.45   4
  -3   1   7  150.58    3.47   4
   3   1  -7  143.89    3.32   2
  -2  -1   7  363.82    6.92   4
   2  -1  -7  368.26    6.73   2
   2   1  -7  373.07    6.73   2
  -2   1   7  368.14    6.91   4
  -1   1   7   28.62    1.37   4
   1  -1  -7   26.59    1.29   2
  -1  -1   7   27.41    1.35   4
   1   1  -7   25.15    1.25   2
   0   1  -7   57.96    1.92   2
   0  -1   7   56.71    1.98   4
   0   1   7   55.73    1.94   4
   0  -1   7   55.57    1.97   3
   0   1   7   59.80    2.07   3
   0  -1  -7   56.42    1.92   2
  -1   1  -7    0.59    0.58   2
   1  -1   7   -0.45    0.55   3
   1  -1   7    0.61    0.60   4
  -1  -1  -7    0.73    0.58   2
   1   1   7   -0.37    0.59   3
   1   1   7    0.16    0.58   4
   2   1   7  240.01    5.25   4
  -2  -1  -7  241.02    5.17   2
   2  -1   7  251.42    5.37   4
   2   1   7  243.62    5.70   3
  -2   1  -7  250.52    5.15   2
  -2   1  -7  255.75    5.71   3
   6  -2  -7   81.38    2.52   1
   6   2  -7   82.49    2.47   2
   6  -2  -7   85.87    2.45   2
  -6  -2   7   82.90    2.57   4
  -6   2   7   83.48    2.62   4
   6   2  -7   81.48    2.53   1
   5   2  -7  157.82    3.63   2
  -5  -2   7  159.04    3.75   4
  -5   2   7  159.62    3.79   4
   5  -2  -7  158.25    3.58   2
   4  -2  -7  116.81    2.86   2
  -4  -2   7  122.38    3.04   4
   4   2  -7  118.58    2.91   2
  -4   2   7  115.55    3.02   4
  -3   2   7   26.32    1.33   4
  -3  -2   7   27.72    1.35   4
   3   2  -7   28.39    1.29   2
   3  -2  -7   28.64    1.29   2
  -2  -2   7    1.68    0.62   4
   2  -2  -7    2.27    0.58   2
  -2   2   7    1.84    0.61   4
   2   2  -7    2.86    0.65   2
  -1   2   7  226.51    4.67   4
   1  -2  -7  225.38    4.54   2
   1   2  -7  215.05    4.49   2
  -1  -2   7  219.42    4.67   4
   0   2   7  450.90    8.72   3
   0   2   7  452.56    8.36   4
   0   2  -7  459.11    8.12   2
   0   2  -7  473.71    8.71   3
   0  -2  -7  457.07    8.18   2
   0  -2   7  447.04    8.41   4
  -1   2  -7  264.45    5.17   2
   1  -2   7  248.29    5.30   4
   1   2   7  252.95    5.60   3
  -1  -2  -7  245.69    5.16   2
   1   2   7  252.31    5.26   4
  -1   2  -7  253.56    5.53   3
   2   2   7    5.05    0.93   3
   2   2   7    4.72    0.84   4
  -2   2  -7    4.51    0.97   3
   2  -2   7    5.36    0.91   4
  -2   2  -7    5.95    0.88   2
  -2  -2  -7    3.56    0.82   2
   6  -3  -7   81.25    2.36   2
  -6  -3   7   74.78    2.13   5
  -6  -3   7   78.20    2.46   4
  -6  -3   7   75.17    2.41   1
   6  -3  -7   77.98    2.45   1
   6   3  -7   75.02    2.36   2
  -6   3   7   76.32    2.52   4
  -5  -3   7    2.12    0.54   5
  -5  -3   7    2.64    0.73   4
   5   3  -7    1.85    0.62   2
   5  -3  -7    2.40    0.62   2
  -5   3   7    3.43    0.80   4
  -5  -3   7    3.08    0.66   1
  -4   3   7   43.21    1.71   4
  -4  -3   7   44.58    1.72   4
   4   3  -7   42.66    1.61   2
   4  -3  -7   43.67    1.59   2
   3   3  -7  241.78    4.87   2
  -3   3   7  247.47    5.04   4
  -3  -3   7  248.90    5.03   4
   3  -3  -7  245.74    4.85   2
  -2   3   7  198.08    4.23   4
   2   3  -7  202.57    4.15   2
  -2  -3   7  190.95    4.23   4
   2  -3  -7  200.76    4.15   2
  -1  -3   7  112.81    2.92   4
   1   3  -7  111.05    2.79   2
   1  -3  -7  114.48    2.84   2
  -1   3   7  112.76    2.88   4
   0   3   7   28.57    1.45   3
   0   3   7   28.55    1.39   4
   0   3  -7   29.08    1.38   2
   0   3  -7   30.01    1.53   3
   0  -3   7   27.93    1.41   4
   0  -3  -7   28.58    1.37   2
  -1   3  -7   41.00    1.65   2
  -1  -3  -7   39.47    1.66   2
   1   3   7   39.80    1.79   3
  -1   3  -7   42.30    1.86   3
   1   3   7   40.21    1.67   4
   1  -3   7   38.69    1.70   4
  -2  -3  -7  118.29    3.21   2
   2  -3   7  118.79    3.31   4
   2   3   7  123.17    3.25   4
  -2   3  -7  130.02    3.58   3
   2   3   7  121.16    3.56   3
  -6  -4   7   24.10    1.44   4
  -6  -4   7   24.35    1.28   5
   6  -4  -7   26.82    1.38   2
   6   4  -7   21.80    1.32   2
   6  -4  -7   23.48    1.40   1
  -6  -4   7   26.30    1.46   1
  -6   4   7   25.80    1.53   4
   5  -4  -7   40.57    1.56   2
  -5   4   7   38.04    1.70   4
   5   4  -7   41.54    1.66   2
  -5  -4   7   40.00    1.67   4
  -5  -4   7   41.01    1.61   1
  -5  -4   7   38.43    1.40   5
   4   4  -7  366.55    6.76   2
  -4  -4   7  361.35    6.89   4
  -4   4   7  366.34    6.96   4
   4  -4  -7  361.31    6.66   2
  -3   4   7   14.42    1.08   4
   3   4  -7   13.58    0.98   2
  -3  -4   7   14.53    1.05   4
   3  -4  -7   13.97    0.95   2
   2  -4  -7   50.93    1.73   2
  -2  -4   7   50.81    1.80   4
  -2   4   7   51.76    1.80   4
   2   4  -7   52.14    1.76   2
  -1   4   7   34.95    1.53   4
  -1  -4   7   33.78    1.50   4
   1  -4  -7   33.73    1.44   2
   1   4  -7   34.02    1.48   2
   0   4   7   65.04    2.09   4
   0  -4  -7   66.59    2.12   2
   0  -4   7   63.94    2.14   4
   0   4  -7   64.89    2.03   2
   0   4  -7   66.01    2.16   3
   0   4   7   71.07    2.27   3
  -1   4  -7   25.45    1.53   3
   1   4   7   27.15    1.53   3
  -1   4  -7   28.95    1.43   2
   1  -4   7   25.26    1.41   4
   1   4   7   28.48    1.45   4
  -1  -4  -7   24.70    1.38   2
   2  -4   7    3.83    0.87   4
   2   4   7    3.96    0.87   3
  -2  -4  -7    4.13    0.83   2
   2   4   7    3.36    0.85   4
  -2   4  -7    3.48    0.89   3
   6  -5  -7  200.50    4.20   2
  -6   5   7  197.69    4.58   4
  -6  -5   7  189.85    3.89   5
  -6  -5   7  201.18    4.43   4
   6  -5  -7  193.92    4.45   1
   6   5  -7  187.06    4.32   2
  -6  -5   7  191.71    4.42   1
  -5  -5   7    9.53    0.99   4
  -5  -5   7    9.26    0.94   1
  -5  -5   7    8.33    0.77   5
   5  -5  -7    8.55    0.89   2
  -5   5   7   10.10    1.05   4
   5   5  -7    9.18    0.92   2
   4   5  -7    2.35    0.64   2
   4  -5  -7    1.35    0.55   2
  -4   5   7    2.78    0.74   4
  -4  -5   7    2.29    0.67   4
  -3  -5   7   10.93    0.93   4
  -3   5   7    9.65    0.95   4
   3   5  -7   11.54    0.93   2
   3  -5  -7   11.07    0.88   2
  -2  -5   7   25.73    1.30   4
  -2   5   7   25.27    1.31   4
   2  -5  -7   25.37    1.26   2
   2   5  -7   25.78    1.26   2
   1  -5  -7  193.43    4.15   2
  -1  -5   7  188.72    4.28   4
   1   5  -7  195.69    4.10   2
  -1   5   7  200.90    4.24   4
   0   5   7   64.86    2.21   3
   0   5  -7   65.95    2.21   3
   0   5   7   66.53    2.11   4
   0   5  -7   67.01    2.06   2
   0  -5   7   63.68    2.15   4
   0  -5  -7   67.24    2.16   2
   1   5   7  287.65    5.76   4
   1  -5   7  274.28    5.86   4
  -1   5  -7  303.12    6.20   3
  -1   5  -7  283.82    5.58   2
   1   5   7  292.62    6.25   3
  -1  -5  -7  280.78    5.77   2
  -2  -5  -7    5.41    0.87   2
   2  -5   7    5.11    0.90   4
   2   5   7    3.26    0.86   3
  -2   5  -7    2.97    0.87   3
   6  -6  -7   29.15    1.51   1
  -6  -6   7   28.75    1.54   4
  -6  -6   7   24.08    1.31   5
  -6  -6   7   28.07    1.52   1
   6   6  -7   27.26    1.46   2
  -6   6   7   28.43    1.59   4
  -5  -6   7    5.54    0.81   1
  -5  -6   7    5.35    0.85   4
  -5  -6   7    4.65    0.65   5
   5  -6  -7    4.11    0.70   2
  -5   6   7    6.78    0.93   4
   5   6  -7    4.46    0.77   2
   4  -6  -7  358.46    6.70   2
  -4  -6   7  370.24    6.98   4
  -4   6   7  381.53    7.11   4
   4   6  -7  366.09    6.87   2
  -3  -6   7   46.27    1.71   4
   3  -6  -7   44.20    1.62   2
   3   6  -7   45.44    1.66   2
  -3   6   7   47.02    1.75   4
  -2  -6   7  181.96    4.11   4
   2  -6  -7  188.30    3.99   2
  -2   6   7  187.30    4.07   4
   2   6  -7  188.97    3.99   2
  -1  -6   7   15.17    1.09   4
   1  -6  -7   16.13    1.07   2
  -1   6   7   16.15    1.15   4
   1   6  -7   16.25    1.11   2
   0  -6   7  322.35    6.59   4
   0   6  -7  351.18    6.80   3
   0   6  -7  350.72    6.33   2
   0   6   7  327.36    6.42   4
   0   6   7  336.91    6.88   3
   0  -6  -7  330.59    6.44   2
  -1   6  -7  256.99    5.50   3
   1  -6   7  234.54    5.22   4
   1   6   7  240.98    5.51   3
  -1  -6  -7  238.22    5.12   2
   1   6   7  247.84    5.08   4
   6  -7  -7   36.37    1.68   1
  -6  -7   7   31.78    1.66   1
  -6   7   7   34.38    1.74   4
   6   7  -7   33.98    1.61   2
  -6  -7   7   33.50    1.50   5
  -5  -7   7   26.29    1.38   1
  -5  -7   7   25.60    1.41   4
  -5   7   7   23.90    1.43   4
   5   7  -7   24.44    1.32   2
   5  -7  -7   26.74    1.32   2
   4   7  -7  222.70    4.70   2
  -4   7   7  231.13    4.87   4
  -4  -7   7  227.94    4.76   4
   4  -7  -7  222.58    4.54   2
  -3   7   7   52.33    1.86   4
   3   7  -7   50.77    1.79   2
   3  -7  -7   53.46    1.77   2
  -3  -7   7   50.56    1.81   4
  -2  -7   7  280.06    5.67   4
  -2   7   7  289.02    5.61   4
   2  -7  -7  276.40    5.46   2
   2   7  -7  287.52    5.50   2
  -1   7   7   97.02    2.62   4
  -1  -7   7   95.34    2.69   4
   1  -7  -7   94.11    2.60   2
   1   7  -7   97.64    2.55   2
   0   7   7    3.24    0.70   4
   0   7  -7    2.38    0.73   3
   0  -7  -7    3.00    0.70   2
   0   7   7    2.76    0.70   3
   0  -7   7    2.97    0.73   4
   0   7  -7    2.22    0.67   2
   1   7   7   72.21    2.51   3
  -1   7  -7   71.73    2.48   3
   1  -7   7   70.27    2.38   4
  -1  -7  -7   70.56    2.32   2
   6  -8  -7   19.27    1.32   1
  -6  -8   7   16.42    1.33   1
  -6   8   7   19.54    1.39   4
   6   8  -7   19.19    1.27   2
   5  -8  -7  151.99    3.39   2
  -5  -8   7  144.36    3.52   1
  -5   8   7  145.13    3.70   4
   5   8  -7  150.61    3.60   2
  -5  -8   7  144.77    3.52   4
   4  -8  -7   45.40    1.62   2
   4   8  -7   44.45    1.72   2
  -4  -8   7   41.67    1.67   4
  -4   8   7   47.25    1.86   4
  -3  -8   7   57.09    1.94   4
  -3   8   7   58.36    1.98   4
   3   8  -7   58.52    1.93   2
   3  -8  -7   54.72    1.82   2
  -2  -8   7    1.33    0.62   4
  -2   8   7    0.27    0.55   4
   2   8  -7    0.56    0.56   2
   2  -8  -7    1.61    0.59   2
   1  -8  -7   78.46    2.33   2
  -1  -8   7   75.28    2.35   4
  -1   8   7   78.80    2.29   4
   1   8  -7   76.39    2.23   2
   0  -8   7   13.71    1.11   4
   0   8  -7   11.77    1.05   2
   0   8   7   12.50    1.11   3
   0  -8  -7   11.30    1.01   2
   0   8  -7   11.87    1.18   3
   0   8   7   11.20    0.98   4
  -1  -8  -7   32.69    1.60   2
   1  -8   7   33.39    1.64   4
   1   8   7   35.37    1.77   3
  -1   8  -7   33.34    1.74   3
  -5   9   7   39.37    1.82   4
  -5  -9   7   40.22    1.72   1
   5   9  -7   39.57    1.70   2
  -4  -9   7    6.53    0.84   4
   4   9  -7    6.08    0.82   2
   4  -9  -7    5.83    0.73   2
  -4   9   7    6.32    0.95   4
  -3  -9   7   18.41    1.16   4
   3  -9  -7   20.08    1.13   2
   3   9  -7   21.24    1.19   2
  -3   9   7   20.11    1.23   4
  -2  -9   7  233.22    4.99   4
  -2   9   7  235.78    4.88   4
   2   9  -7  240.03    4.83   2
   2  -9  -7  244.81    4.86   2
  -1   9   7   11.56    1.04   4
   1  -9  -7   11.13    1.02   2
  -1  -9   7   10.72    0.99   4
   1   9  -7   10.97    0.95   2
   0  -9  -7   11.61    1.03   2
   0   9   7    9.47    1.04   3
   0   9  -7    9.98    1.08   3
   0  -9   7   10.78    1.03   4
  -1   9  -7   12.49    1.29   3
   1   9   7   10.96    1.19   3
  -1  -9  -7   11.77    1.11   2
   1  -9   7   12.84    1.15   4
  -5  10   7  437.54    8.45   4
   5  10  -7  444.18    8.24   2
  -5 -10   7  448.70    8.28   1
  -4 -10   7    9.45    0.96   4
  -4  10   7    9.41    1.06   4
   4  10  -7    8.88    0.92   2
   4 -10  -7    9.27    0.87   2
   3  10  -7   20.31    1.19   2
  -3  10   7   21.10    1.27   4
  -3 -10   7   19.45    1.21   4
   3 -10  -7   21.02    1.17   2
   2 -10  -7    3.57    0.68   2
  -2  10   7    3.51    0.70   4
  -2 -10   7    2.31    0.68   4
   2  10  -7    2.85    0.68   2
   1  10  -7  545.55    9.38   2
  -1  10   7  541.07    9.54   4
  -1 -10   7  529.31    9.78   4
   1 -10  -7  542.58    9.56   2
   0  10  -7   55.86    2.06   3
   0 -10   7   54.44    2.05   4
   0 -10  -7   53.97    1.99   2
   0  10   7   51.71    2.08   3
   1  10   7   93.77    3.00   3
  -1 -10  -7   93.51    2.81   2
   1 -10   7   87.40    2.81   4
  -1  10  -7   93.83    2.91   3
  -5  11   7    1.44    0.81   4
  -5 -11   7    0.80    0.69   1
   5  11  -7    1.51    0.72   2
  -4  11   7   10.94    1.13   4
   4  11  -7    9.88    0.96   2
   3 -11  -7  160.57    3.61   2
  -3 -11   7  163.18    3.77   4
   3  11  -7  159.61    3.69   2
  -3  11   7  160.74    3.76   4
  -2 -11   7   37.40    1.62   4
   2  11  -7   39.66    1.59   2
   2 -11  -7   42.02    1.64   2
  -2  11   7   38.20    1.59   4
   1  11  -7    0.39    0.61   2
  -1 -11   7    0.08    0.59   4
   1 -11  -7    0.11    0.58   2
   0 -11   7   18.53    1.28   4
   0  11  -7   17.81    1.31   3
   0 -11  -7   19.26    1.27   2
   0  11   7   19.40    1.38   3
  -4  12   7   36.67    1.76   4
   4  12  -7   33.35    1.56   2
  -3 -12   7   38.24    1.64   4
   3 -12  -7   39.77    1.59   2
  -3  12   7   41.39    1.71   4
   3  12  -7   37.67    1.60   2
  -2 -12   7    5.32    0.81   4
   2 -12  -7    4.35    0.75   2
  -2  12   7    5.02    0.81   4
   2  12  -7    4.27    0.76   2
   1 -12  -7   85.89    2.56   2
  -1 -12   7   89.62    2.67   4
   0  12  -7  147.50    3.74   3
   0 -12   7  139.67    3.64   4
   0  12   7  140.85    3.85   3
   0 -12  -7  141.59    3.59   2
  -4  13   7    8.94    1.12   4
   4  13  -7    8.36    0.97   2
   3  13  -7  277.92    5.72   2
   3 -13  -7  294.63    5.65   2
  -3  13   7  298.36    5.88   4
   2 -13  -7    1.26    0.63   2
   2  13  -7    1.34    0.63   2
  -2 -13   7    1.10    0.68   4
   1 -13  -7  114.38    3.08   2
  -1 -13   7  119.91    3.22   4
  -3  14   7    0.37    0.70   4
   3  14  -7   -0.29    0.59   2
   2 -14  -7   39.83    1.69   2
  -2 -14   7   38.54    1.72   4
   1 -14  -7    3.97    0.81   2
  -1 -14   7    4.16    0.87   4
  -5   0   8    0.77    0.71   4
   5   0  -8    1.12    0.68   2
  -4   0   8   32.49    1.59   4
   4   0  -8   33.50    1.52   2
  -3   0   8    0.17    0.61   4
   3   0  -8    0.02    0.51   2
   2   0  -8    9.54    0.95   2
  -2   0   8    7.90    0.98   4
  -1   0   8   -0.32    0.61   4
   1   0  -8   -0.21    0.57   2
   0   0  -8  106.05    2.92   2
   0   0   8  102.42    2.99   4
   5   1  -8  180.46    4.17   2
  -5   1   8  184.27    4.36   4
  -5  -1   8  187.14    4.36   4
   5  -1  -8  178.80    4.13   2
   4  -1  -8    3.02    0.70   2
  -4  -1   8    4.03    0.83   4
   4   1  -8    3.56    0.72   2
  -4   1   8    2.93    0.80   4
  -3  -1   8   77.94    2.44   4
  -3   1   8   76.04    2.41   4
   3   1  -8   75.74    2.32   2
   3  -1  -8   77.37    2.34   2
  -2  -1   8  154.50    3.80   4
  -2   1   8  155.47    3.79   4
   2   1  -8  157.19    3.67   2
   2  -1  -8  154.98    3.67   2
   1  -1  -8  162.14    3.78   2
  -1  -1   8  159.83    3.91   4
   1   1  -8  157.52    3.75   2
  -1   1   8  157.60    3.86   4
   0  -1   8    2.26    0.75   4
   0   1  -8    1.84    0.69   2
   0  -1  -8    1.17    0.65   2
   0   1   8    1.73    0.72   4
   5   2  -8  443.84    8.22   2
  -5  -2   8  451.55    8.46   4
  -5   2   8  441.79    8.47   4
   5  -2  -8  439.10    8.13   2
   4  -2  -8  133.28    3.28   2
   4   2  -8  130.40    3.29   2
  -4  -2   8  134.12    3.44   4
  -4   2   8  131.47    3.42   4
  -3   2   8    8.10    0.97   4
  -3  -2   8    9.04    0.99   4
   3   2  -8    7.69    0.88   2
   3  -2  -8    9.41    0.96   2
  -2  -2   8   21.15    1.33   4
   2   2  -8   23.10    1.34   2
   2  -2  -8   22.83    1.32   2
  -2   2   8   22.77    1.41   4
   1   2  -8    4.56    0.79   2
   1  -2  -8    3.55    0.76   2
  -1   2   8    3.48    0.81   4
  -1  -2   8    5.74    0.93   4
   0  -2  -8   78.22    2.48   2
   0  -2   8   80.41    2.59   4
   0   2   8   78.75    2.53   4
   0   2  -8   78.83    2.45   2
  -5  -3   8   21.28    1.45   4
   5   3  -8   21.13    1.34   2
   5  -3  -8   21.68    1.29   2
  -5   3   8   20.43    1.41   4
   4  -3  -8   43.74    1.71   2
  -4   3   8   43.00    1.83   4
   4   3  -8   42.96    1.72   2
  -4  -3   8   43.67    1.84   4
  -3  -3   8  159.25    3.84   4
   3  -3  -8  157.88    3.70   2
   3   3  -8  160.02    3.73   2
  -3   3   8  161.63    3.86   4
   2   3  -8  355.27    6.70   2
   2  -3  -8  351.53    6.72   2
  -2  -3   8  344.35    6.92   4
  -2   3   8  351.68    6.88   4
  -1   3   8   73.87    2.40   4
   1   3  -8   79.59    2.41   2
   1  -3  -8   74.84    2.36   2
  -1  -3   8   74.26    2.47   4
   0   3  -8  104.15    2.87   2
   0  -3   8   99.66    2.98   4
   0  -3  -8  101.23    2.89   2
   0   3   8  101.98    2.94   4
  -5   4   8   61.54    2.29   4
   5  -4  -8   62.45    2.11   2
  -5  -4   8   62.92    2.25   4
   5   4  -8   64.24    2.21   2
   4   4  -8    2.19    0.66   2
  -4  -4   8    1.28    0.70   4
  -4   4   8    1.70    0.73   4
   4  -4  -8    1.46    0.59   2
  -3   4   8   46.09    1.85   4
   3  -4  -8   45.56    1.76   2
   3   4  -8   44.24    1.76   2
  -3  -4   8   45.19    1.84   4
  -2   4   8    7.33    0.94   4
   2  -4  -8    7.74    0.91   2
  -2  -4   8    7.58    0.96   4
   2   4  -8    7.24    0.89   2
  -1  -4   8   65.21    2.31   4
  -1   4   8   70.18    2.31   4
   1   4  -8   73.10    2.30   2
   1  -4  -8   66.45    2.22   2
   0   4   8    2.61    0.77   4
   0  -4   8    2.29    0.76   4
   0   4  -8    2.52    0.75   2
   0  -4  -8    2.26    0.75   2
   5  -5  -8    4.14    0.78   2
   5   5  -8    2.88    0.79   2
  -5   5   8    3.84    0.92   4
  -5  -5   8    3.85    0.86   4
  -4  -5   8   17.47    1.26   4
   4  -5  -8   18.03    1.16   2
   4   5  -8   18.12    1.20   2
  -4   5   8   18.47    1.30   4
  -3  -5   8    3.00    0.78   4
  -3   5   8    1.86    0.72   4
   3  -5  -8    2.64    0.69   2
   3   5  -8    2.32    0.70   2
  -2   5   8   93.55    2.70   4
   2   5  -8   92.03    2.60   2
  -2  -5   8   88.96    2.71   4
   2  -5  -8   86.63    2.57   2
   1   5  -8   -0.06    0.60   2
  -1  -5   8   -0.19    0.61   4
  -1   5   8   -0.02    0.61   4
   1  -5  -8    0.34    0.59   2
   0  -5  -8   31.39    1.60   2
   0  -5   8   29.64    1.60   4
   0   5   8   28.82    1.54   4
   0   5  -8   32.31    1.61   2
  -5  -6   8  114.58    3.16   4
   5   6  -8  111.22    3.10   2
  -5   6   8  114.31    3.22   4
   5  -6  -8  111.67    2.98   2
   4  -6  -8   46.37    1.76   2
  -4   6   8   44.78    1.88   4
   4   6  -8   44.66    1.79   2
  -4  -6   8   43.31    1.82   4
  -3  -6   8  136.54    3.49   4
   3  -6  -8  133.17    3.32   2
   3   6  -8  135.70    3.37   2
  -3   6   8  133.71    3.44   4
   2  -6  -8    1.58    0.65   2
  -2  -6   8    1.77    0.72   4
   2   6  -8    1.45    0.64   2
  -2   6   8    2.39    0.74   4
  -1   6   8   46.57    1.87   4
  -1  -6   8   45.78    1.93   4
   1   6  -8   46.69    1.85   2
   1  -6  -8   46.72    1.86   2
   0  -6  -8   23.62    1.44   2
   0   6  -8   26.22    1.48   2
   0  -6   8   21.71    1.42   4
   0   6   8   22.96    1.39   4
  -4  -7   8    1.90    0.72   4
  -4   7   8    1.11    0.74   4
   4  -7  -8    1.53    0.61   2
   4   7  -8    1.55    0.62   2
   3  -7  -8  116.04    3.05   2
  -3  -7   8  117.10    3.20   4
  -3   7   8  120.81    3.19   4
   3   7  -8  118.60    3.10   2
  -2  -7   8  173.21    4.18   4
   2   7  -8  171.78    3.98   2
   2  -7  -8  176.58    4.04   2
  -2   7   8  176.15    4.09   4
  -1   7   8  228.77    5.00   4
   1  -7  -8  232.63    4.99   2
   1   7  -8  237.04    4.91   2
  -1  -7   8  227.57    5.15   4
  -4   8   8   90.34    2.76   4
   4  -8  -8   87.40    2.53   2
  -4  -8   8   87.93    2.67   4
   4   8  -8   88.94    2.66   2
   3  -8  -8    0.17    0.56   2
  -3  -8   8    0.54    0.64   4
  -3   8   8    0.31    0.65   4
   3   8  -8    0.45    0.60   2
  -2  -8   8   13.72    1.18   4
  -2   8   8   14.47    1.17   4
   2   8  -8   15.28    1.17   2
   2  -8  -8   15.03    1.17   2
  -1  -8   8   24.23    1.49   4
  -1   8   8   25.67    1.44   4
   1   8  -8   28.33    1.47   2
   1  -8  -8   24.43    1.43   2
  -4  -9   8    1.66    0.72   4
   4   9  -8    0.20    0.62   2
   4  -9  -8    0.43    0.59   2
  -4   9   8    0.24    0.76   4
   3   9  -8   52.34    1.97   2
  -3   9   8   53.30    2.01   4
  -3  -9   8   55.39    2.07   4
   3  -9  -8   53.16    1.94   2
   2  -9  -8   70.43    2.29   2
  -2   9   8   67.60    2.27   4
   2   9  -8   67.28    2.23   2
  -2  -9   8   67.28    2.35   4
   1   9  -8  121.35    3.14   2
   3  10  -8    8.44    0.97   2
  -3 -10   8    8.63    1.06   4
  -3  10   8    7.85    1.02   4
   3 -10  -8    7.34    0.91   2
  -2 -10   8    3.74    0.83   4
  -2  10   8    3.29    0.80   4
   2 -10  -8    3.66    0.81   2
   2  10  -8    3.89    0.80   2
   0   0   0    0.00    0.00   0
;
_shelx_hkl_checksum              50818
_olex2_submission_special_instructions 'No special instructions were received'
#END Tags that were not found in dictionaries
loop_
_space_group_symop_operation_xyz
'x, y, z'
'-x+1/2, y+1/2, -z+1/2'
'-x, -y, -z'
'x-1/2, -y-1/2, z-1/2'
loop_
_atom_site_label
_atom_site_type_symbol
_atom_site_fract_x
_atom_site_fract_y
_atom_site_fract_z
_atom_site_U_iso_or_equiv
_atom_site_adp_type
_atom_site_occupancy
_atom_site_site_symmetry_order
_atom_site_calc_flag
_atom_site_refinement_flags_posn
_atom_site_refinement_flags_occupancy
_atom_site_disorder_assembly
_atom_site_disorder_group
C1 C 0.5443(4) 0.41012(7) 0.2021(2) 0.0148(3) Uani 0.742(4) 1 d . P A 1
C2 C 0.4362(4) 0.40258(11) 0.3697(3) 0.0167(3) Uani 0.742(4) 1 d . P A 1
H2 H 0.2989 0.4352 0.3678 0.020 Uiso 0.742(4) 1 calc R P A 1
C3 C 0.5327(6) 0.34606(17) 0.5417(5) 0.0159(5) Uani 0.742(4) 1 d . P A 1
H3 H 0.4637 0.3416 0.6588 0.019 Uiso 0.742(4) 1 calc R P A 1
C4 C 0.7315(6) 0.29615(18) 0.5402(5) 0.0165(5) Uani 0.742(4) 1 d . P A 1
H4 H 0.7881 0.2559 0.6504 0.020 Uiso 0.742(4) 1 calc R P A 1
C5 C 0.8465(6) 0.30573(17) 0.3761(5) 0.0162(5) Uani 0.742(4) 1 d . P A 1
H5 H 0.9877 0.2746 0.3799 0.019 Uiso 0.742(4) 1 calc R P A 1
C6 C 0.7483(4) 0.36198(9) 0.2082(3) 0.0167(3) Uani 0.742(4) 1 d . P A 1
H6 H 0.8216 0.3679 0.0944 0.020 Uiso 0.742(4) 1 calc R P A 1
C7 C 0.4423(2) 0.46790(6) 0.01641(18) 0.0145(3) Uani 0.742(4) 1 d . P A 1
Cl1 Cl 0.14008(14) 0.44537(5) -0.17955(13) 0.01168(19) Uani 0.742(4) 1 d . P A
1
C1' C 0.6318(10) 0.4199(2) 0.2358(7) 0.0142(9) Uiso 0.258(4) 1 d . P A 2
C2' C 0.4886(12) 0.4130(4) 0.3731(11) 0.0198(15) Uiso 0.258(4) 1 d . P A 2
H2' H 0.3648 0.4518 0.3640 0.024 Uiso 0.258(4) 1 calc R P A 2
C3' C 0.516(2) 0.3548(5) 0.5166(16) 0.020(2) Uiso 0.258(4) 1 d . P A 2
H3' H 0.4026 0.3492 0.5971 0.024 Uiso 0.258(4) 1 calc R P A 2
C4' C 0.7042(18) 0.3038(6) 0.5480(17) 0.0179(19) Uiso 0.258(4) 1 d . P A 2
H4' H 0.7481 0.2679 0.6709 0.021 Uiso 0.258(4) 1 calc R P A 2
C5' C 0.8296(18) 0.3042(5) 0.4033(15) 0.0151(17) Uiso 0.258(4) 1 d . P A 2
H5' H 0.9384 0.2614 0.4075 0.018 Uiso 0.258(4) 1 calc R P A 2
C6' C 0.8111(11) 0.3641(3) 0.2442(10) 0.0184(13) Uiso 0.258(4) 1 d . P A 2
H6' H 0.9128 0.3657 0.1516 0.022 Uiso 0.258(4) 1 calc R P A 2
C7' C 0.5996(6) 0.49040(18) 0.0904(5) 0.0145(9) Uiso 0.258(4) 1 d . P A 2
Cl1' Cl 0.8596(8) 0.5545(2) 0.1803(7) 0.0422(15) Uiso 0.258(4) 1 d . P A 2
loop_
_atom_site_aniso_label
_atom_site_aniso_U_11
_atom_site_aniso_U_22
_atom_site_aniso_U_33
_atom_site_aniso_U_23
_atom_site_aniso_U_13
_atom_site_aniso_U_12
C1 0.0138(7) 0.0137(5) 0.0158(5) 0.0000(4) 0.0039(5) -0.0006(4)
C2 0.0181(8) 0.0159(7) 0.0185(6) 0.0006(4) 0.0093(6) 0.0020(6)
C3 0.0177(8) 0.0150(9) 0.0140(8) 0.0055(6) 0.0044(6) 0.0021(5)
C4 0.0153(9) 0.0148(8) 0.0193(8) 0.0032(5) 0.0059(6) 0.0063(6)
C5 0.0153(8) 0.0197(8) 0.0163(9) -0.0006(6) 0.0088(6) 0.0000(5)
C6 0.0172(8) 0.0173(6) 0.0158(6) -0.0010(4) 0.0059(6) -0.0007(6)
C7 0.0122(5) 0.0162(5) 0.0138(5) -0.0008(4) 0.0030(4) 0.0007(4)
Cl1 0.0076(2) 0.0125(2) 0.0122(2) -0.00054(7) 0.00014(9) -0.00274(7)
loop_
_atom_type_symbol
_atom_type_description
_atom_type_scat_dispersion_real
_atom_type_scat_dispersion_imag
_atom_type_scat_source
C C 0.0033 0.0016 'International Tables Vol C Tables 4.2.6.8 and 6.1.1.4'
H H 0.0000 0.0000 'International Tables Vol C Tables 4.2.6.8 and 6.1.1.4'
Cl Cl 0.1484 0.1585 'International Tables Vol C Tables 4.2.6.8 and 6.1.1.4'
loop_
_geom_angle_atom_site_label_1
_geom_angle_atom_site_label_2
_geom_angle_atom_site_label_3
_geom_angle
_geom_angle_site_symmetry_1
C2 C1 C6 119.65(12) .
C2 C1 C7 120.38(12) .
C6 C1 C7 119.97(12) .
C1 C2 H2 120.3 .
C1 C2 C3 119.35(18) .
C3 C2 H2 120.3 .
C2 C3 H3 119.9 .
C4 C3 C2 120.2(2) .
C4 C3 H3 119.9 .
C3 C4 H4 119.9 .
C5 C4 C3 120.3(3) .
C5 C4 H4 119.9 .
C4 C5 H5 120.8 .
C6 C5 C4 118.4(2) .
C6 C5 H5 120.8 .
C1 C6 H6 119.0 .
C5 C6 C1 122.02(17) .
C5 C6 H6 119.0 .
C1 C7 Cl1 114.35(10) .
C7 C7 C1 127.11(14) 3_665
C7 C7 Cl1 118.53(11) 3_665
C2' C1' C6' 119.8(4) .
C2' C1' C7' 118.9(4) .
C6' C1' C7' 121.2(4) .
C1' C2' H2' 118.6 .
C3' C2' C1' 122.7(7) .
C3' C2' H2' 118.6 .
C2' C3' H3' 120.2 .
C2' C3' C4' 119.7(9) .
C4' C3' H3' 120.2 .
C3' C4' H4' 120.7 .
C3' C4' C5' 118.6(9) .
C5' C4' H4' 120.7 .
C4' C5' H5' 117.9 .
C4' C5' C6' 124.2(8) .
C6' C5' H5' 117.9 .
C1' C6' C5' 113.8(6) .
C1' C6' H6' 123.1 .
C5' C6' H6' 123.1 .
C1' C7' Cl1' 114.0(3) .
C7' C7' C1' 127.7(4) 3_665
C7' C7' Cl1' 118.2(4) 3_665
loop_
_geom_bond_atom_site_label_1
_geom_bond_atom_site_label_2
_geom_bond_distance
_geom_bond_site_symmetry_2
C1 C2 1.397(2) .
C1 C6 1.402(2) .
C1 C7 1.4835(15) .
C2 H2 0.9500 .
C2 C3 1.410(3) .
C3 H3 0.9500 .
C3 C4 1.410(4) .
C4 H4 0.9500 .
C4 C5 1.408(4) .
C5 H5 0.9500 .
C5 C6 1.392(3) .
C6 H6 0.9500 .
C7 C7 1.332(2) 3_665
C7 Cl1 1.7495(13) .
C1' C2' 1.378(6) .
C1' C6' 1.378(6) .
C1' C7' 1.489(5) .
C2' H2' 0.9500 .
C2' C3' 1.319(9) .
C3' H3' 0.9500 .
C3' C4' 1.331(10) .
C4' H4' 0.9500 .
C4' C5' 1.334(9) .
C5' H5' 0.9500 .
C5' C6' 1.413(9) .
C6' H6' 0.9500 .
C7' C7' 1.322(6) 3_665
C7' Cl1' 1.754(5) .
loop_
_geom_torsion_atom_site_label_1
_geom_torsion_atom_site_label_2
_geom_torsion_atom_site_label_3
_geom_torsion_atom_site_label_4
_geom_torsion
_geom_torsion_site_symmetry_4
C1 C2 C3 C4 -1.9(4) .
C2 C1 C6 C5 0.6(3) .
C2 C1 C7 C7 111.7(2) 3_665
C2 C1 C7 Cl1 -69.81(16) .
C2 C3 C4 C5 4.2(5) .
C3 C4 C5 C6 -4.1(5) .
C4 C5 C6 C1 1.7(4) .
C6 C1 C2 C3 -0.5(3) .
C6 C1 C7 C7 -69.2(2) 3_665
C6 C1 C7 Cl1 109.33(15) .
C7 C1 C2 C3 178.6(2) .
C7 C1 C6 C5 -178.5(2) .
C1' C2' C3' C4' 6.3(15) .
C2' C1' C6' C5' -1.0(8) .
C2' C1' C7' C7' -69.8(6) 3_665
C2' C1' C7' Cl1' 109.0(5) .
C2' C3' C4' C5' -12.5(17) .
C3' C4' C5' C6' 12.6(16) .
C4' C5' C6' C1' -5.7(13) .
C6' C1' C2' C3' 0.6(10) .
C6' C1' C7' C7' 113.8(6) 3_665
C6' C1' C7' Cl1' -67.5(5) .
C7' C1' C2' C3' -175.9(7) .
C7' C1' C6' C5' 175.4(6) .
