#------------------------------------------------------------------------------
#$Date: 2023-12-21 10:55:17 +0200 (Thu, 21 Dec 2023) $
#$Revision: 288466 $
#$URL: file:///home/coder/svn-repositories/cod/cif/4/51/18/4511813.cif $
#------------------------------------------------------------------------------
#
# This file is available in the Crystallography Open Database (COD),
# http://www.crystallography.net/
#
# All data on this site have been placed in the public domain by the
# contributors.
#
data_4511813
loop_
_publ_author_name
'Sonoda, Yoriko'
'Goto, Midori'
'Norikane, Yasuo'
'Azumi, Reiko'
_publ_section_title
;
 Crystal Structures and Fluorescence Spectroscopic Properties of
 Cyano-Substituted Diphenylhexatrienes
;
_journal_issue                   9
_journal_name_full               'Crystal Growth &amp; Design'
_journal_page_first              4781
_journal_paper_doi               10.1021/cg5009363
_journal_volume                  14
_journal_year                    2014
_chemical_formula_sum            'C20 H14 N2'
_chemical_formula_weight         282.33
_space_group_crystal_system      triclinic
_space_group_IT_number           2
_space_group_name_Hall           '-P 1'
_space_group_name_H-M_alt        'P -1'
_symmetry_space_group_name_Hall  '-P 1'
_symmetry_space_group_name_H-M   'P -1'
_atom_sites_solution_hydrogens   geom
_audit_creation_method           SHELXL-2014
_cell_angle_alpha                100.9800(10)
_cell_angle_beta                 91.2140(10)
_cell_angle_gamma                94.8330(10)
_cell_formula_units_Z            2
_cell_length_a                   3.9187(3)
_cell_length_b                   11.9054(10)
_cell_length_c                   16.2554(14)
_cell_measurement_reflns_used    3011
_cell_measurement_temperature    183(2)
_cell_measurement_theta_max      28.33
_cell_measurement_theta_min      2.55
_cell_volume                     741.31(11)
_computing_cell_refinement       'Bruker SAINT'
_computing_data_collection       'Bruker APEX2'
_computing_data_reduction        'Bruker SAINT'
_computing_publication_material  'SHELXL-2014 (Sheldrick, 2014)'
_computing_structure_refinement  'SHELXL-2014 (Sheldrick, 2014)'
_computing_structure_solution    'SHELXS-97 (Sheldrick, 2008)'
_diffrn_ambient_temperature      183(2)
_diffrn_detector_area_resol_mean 8.333
_diffrn_measured_fraction_theta_full 0.986
_diffrn_measured_fraction_theta_max 0.984
_diffrn_measurement_device_type  'Bruker APEX-II CCD'
_diffrn_measurement_method       '\f and \w scans '
_diffrn_radiation_type           MoK\a
_diffrn_radiation_wavelength     0.71073
_diffrn_reflns_av_R_equivalents  0.0136
_diffrn_reflns_av_unetI/netI     0.0167
_diffrn_reflns_Laue_measured_fraction_full 0.986
_diffrn_reflns_Laue_measured_fraction_max 0.984
_diffrn_reflns_limit_h_max       4
_diffrn_reflns_limit_h_min       -4
_diffrn_reflns_limit_k_max       13
_diffrn_reflns_limit_k_min       -14
_diffrn_reflns_limit_l_max       20
_diffrn_reflns_limit_l_min       -20
_diffrn_reflns_number            5720
_diffrn_reflns_point_group_measured_fraction_full 0.986
_diffrn_reflns_point_group_measured_fraction_max 0.984
_diffrn_reflns_theta_full        25.242
_diffrn_reflns_theta_max         25.994
_diffrn_reflns_theta_min         1.957
_diffrn_source                   'rotating unit'
_exptl_absorpt_coefficient_mu    0.075
_exptl_absorpt_correction_T_max  0.9978
_exptl_absorpt_correction_T_min  0.9706
_exptl_absorpt_correction_type   multi-scan
_exptl_absorpt_process_details   sadabs
_exptl_crystal_colour            'pale yellow'
_exptl_crystal_density_diffrn    1.265
_exptl_crystal_description       plate
_exptl_crystal_F_000             296
_exptl_crystal_size_max          0.400
_exptl_crystal_size_mid          0.100
_exptl_crystal_size_min          0.030
_refine_diff_density_max         0.107
_refine_diff_density_min         -0.208
_refine_diff_density_rms         0.038
_refine_ls_extinction_method     none
_refine_ls_goodness_of_fit_ref   0.962
_refine_ls_hydrogen_treatment    constr
_refine_ls_matrix_type           full
_refine_ls_number_parameters     199
_refine_ls_number_reflns         2861
_refine_ls_number_restraints     0
_refine_ls_restrained_S_all      0.962
_refine_ls_R_factor_all          0.0457
_refine_ls_R_factor_gt           0.0366
_refine_ls_shift/su_max          0.003
_refine_ls_shift/su_mean         0.001
_refine_ls_structure_factor_coef Fsqd
_refine_ls_weighting_details
'w=1/[\s^2^(Fo^2^)+(0.0619P)^2^+0.1305P] where P=(Fo^2^+2Fc^2^)/3'
_refine_ls_weighting_scheme      calc
_refine_ls_wR_factor_gt          0.0999
_refine_ls_wR_factor_ref         0.1056
_reflns_Friedel_coverage         0.000
_reflns_number_gt                2361
_reflns_number_total             2861
_reflns_threshold_expression     'I > 2\s(I)'
_cod_data_source_file            cg5009363_si_004.cif
_cod_data_source_block           shelx_sonoCNpara
_cod_depositor_comments
'Adding full bibliography for 4511813--4511815.cif.'
_cod_database_code               4511813
#BEGIN Tags that were not found in dictionaries:
_shelx_space_group_comment
;
The symmetry employed for this shelxl refinement is uniquely defined
by the following loop, which should always be used as a source of
symmetry information in preference to the above space-group names.
They are only intended as comments.
;
_shelxl_version_number           2014-3
_shelx_res_file
;
TITL sonoCNpara in P-1
CELL 0.71073 3.9187 11.9054 16.2554 100.980 91.214 94.833
ZERR 2.00 0.0003 0.0010 0.0014 0.001 0.001 0.001
LATT 1
SFAC C  H  N
UNIT 40  28  4
OMIT 0 52
L.S. 2
ACTA
BOND $H
FMAP 2
PLAN -2
CONF
size   0.4  0.1  0.03
TEMP -90
WGHT    0.061900    0.130500
FVAR       0.24036
C1A   1    0.341711    0.229403    0.236577    11.00000    0.02926    0.03362 =
         0.02835    0.00611    0.00361    0.00398
C2A   1    0.386219    0.346789    0.270509    11.00000    0.05170    0.03281 =
         0.03509    0.00899   -0.00326    0.00864
AFIX  43
H2A   2    0.308124    0.399639    0.238900    11.00000   -1.20000
AFIX   0
C3A   1    0.540634    0.388097    0.348743    11.00000    0.05396    0.02914 =
         0.03579    0.00335   -0.00281    0.00428
AFIX  43
H3A   2    0.569034    0.468388    0.370437    11.00000   -1.20000
AFIX   0
C4A   1    0.654331    0.311309    0.395573    11.00000    0.03355    0.03602 =
         0.02763    0.00495    0.00209    0.00112
C5A   1    0.613485    0.193748    0.362708    11.00000    0.03663    0.03519 =
         0.03079    0.01055    0.00171    0.00656
AFIX  43
H5A   2    0.692500    0.141095    0.394367    11.00000   -1.20000
AFIX   0
C6A   1    0.459600    0.153784    0.284811    11.00000    0.03656    0.02863 =
         0.03241    0.00431    0.00213    0.00355
AFIX  43
H6A   2    0.432554    0.073453    0.263225    11.00000   -1.20000
AFIX   0
C7A   1    0.171104    0.190031    0.154209    11.00000    0.03321    0.03637 =
         0.03077    0.00906    0.00085    0.00504
AFIX  43
H7A   2    0.048904    0.244155    0.132368    11.00000   -1.20000
AFIX   0
C8A   1    0.169828    0.084991    0.106317    11.00000    0.03000    0.03679 =
         0.02886    0.00842    0.00237    0.00217
AFIX  43
H8A   2    0.292695    0.029849    0.126739    11.00000   -1.20000
AFIX   0
C9A   1   -0.006540    0.051063    0.025953    11.00000    0.02980    0.03727 =
         0.02932    0.00980    0.00263    0.00076
AFIX  43
H9A   2   -0.143012    0.104790    0.007995    11.00000   -1.20000
AFIX   0
C10A  1    0.810342    0.350283    0.478122    11.00000    0.04322    0.03499 =
         0.03497    0.00876    0.00176    0.00015
C1B   1    0.567190    0.775747    0.269329    11.00000    0.02812    0.02780 =
         0.03248    0.00476    0.00003    0.00539
C2B   1    0.368318    0.670870    0.244606    11.00000    0.03822    0.03039 =
         0.03375    0.00942    0.00057    0.00206
AFIX  43
H2B   2    0.284430    0.630774    0.286338    11.00000   -1.20000
AFIX   0
C3B   1    0.290744    0.624100    0.161182    11.00000    0.03862    0.02758 =
         0.03847    0.00564   -0.00426    0.00061
AFIX  43
H3B   2    0.157173    0.552429    0.145795    11.00000   -1.20000
AFIX   0
C4B   1    0.410733    0.683287    0.099776    11.00000    0.03396    0.03197 =
         0.03088    0.00427   -0.00200    0.00810
C5B   1    0.606305    0.788506    0.123075    11.00000    0.03485    0.03434 =
         0.03299    0.00930    0.00289    0.00434
AFIX  43
H5B   2    0.686144    0.829084    0.081237    11.00000   -1.20000
AFIX   0
C6B   1    0.684125    0.833794    0.206266    11.00000    0.03203    0.02779 =
         0.03566    0.00537    0.00032    0.00036
AFIX  43
H6B   2    0.818775    0.905298    0.221332    11.00000   -1.20000
AFIX   0
C7B   1    0.641355    0.819980    0.358240    11.00000    0.03313    0.03208 =
         0.03211    0.00757    0.00074    0.00401
AFIX  43
H7B   2    0.531145    0.778146    0.395989    11.00000   -1.20000
AFIX   0
C8B   1    0.848230    0.913325    0.392734    11.00000    0.03188    0.03152 =
         0.03039    0.00659    0.00112    0.00575
AFIX  43
H8B   2    0.966347    0.955725    0.356452    11.00000   -1.20000
AFIX   0
C9B   1    0.900679    0.952592    0.481629    11.00000    0.03179    0.03370 =
         0.03132    0.00730    0.00063    0.00517
AFIX  43
H9B   2    0.786368    0.908230    0.517250    11.00000   -1.20000
AFIX   0
C10B  1    0.328650    0.638294    0.012347    11.00000    0.04293    0.03447 =
         0.03704    0.00651   -0.00304    0.00563
N1A   3    0.932283    0.377617    0.544514    11.00000    0.06276    0.04613 =
         0.03452    0.00834   -0.00761   -0.00432
N1B   3    0.264137    0.606329   -0.057691    11.00000    0.06652    0.04719 =
         0.03466    0.00522   -0.00787    0.00266
HKLF 4 1 1 0 0 0 1 0 0 0 1

REM  sonoCNpara in P-1
REM R1 =  0.0366 for    2361 Fo > 4sig(Fo)  and  0.0457 for all    2861 data
REM    199 parameters refined using      0 restraints

END

WGHT      0.0542      0.0931

REM Highest difference peak  0.107,  deepest hole -0.208,  1-sigma level  0.038
Q1    1   0.5877  0.2569  0.3800  11.00000  0.05    0.11
Q2    1   0.3719  0.7436  0.2595  11.00000  0.05    0.10
;
_shelx_res_checksum              87105
_shelx_hkl_file
;
  -1   0   0  104.63    1.42
  -1   0   0  104.64    1.42
   1   0   0  105.49    1.56
   1   0   0  106.32    1.49
  -2   0   0    2.20    0.05
  -2   0   0    2.20    0.05
   2   0   0    2.19    0.06
   2   0   0    2.16    0.06
  -3   0   0    5.50    0.11
  -3   0   0    5.67    0.10
   3   0   0    5.68    0.11
   3   0   0    5.33    0.11
  -4   0   0    6.54    0.13
   4   0   0    6.94    0.14
  -5   0   0    0.58    0.06
   5   0   0    0.61    0.05
   5  -1   0    0.13    0.04
  -5   1   0    0.00    0.04
   4  -1   0    2.06    0.07
  -4   1   0    2.11    0.07
   3  -1   0    0.06    0.03
   3  -1   0    0.06    0.03
  -3   1   0    0.08    0.03
  -3   1   0    0.04    0.03
   2  -1   0    4.17    0.08
   2  -1   0    4.40    0.08
  -2   1   0    4.43    0.07
  -2   1   0    4.41    0.08
   1  -1   0   42.78    0.60
  -1   1   0   43.46    0.61
  -1  -1   0   28.09    0.39
  -1  -1   0   28.57    0.40
   1   1   0   27.64    0.40
   1   1   0   28.58    0.44
  -2  -1   0    1.71    0.05
  -2  -1   0    1.73    0.05
   2   1   0    1.78    0.05
   2   1   0    1.70    0.05
  -3  -1   0    5.62    0.11
  -3  -1   0    6.00    0.11
   3   1   0    5.73    0.11
   3   1   0    5.98    0.12
  -4  -1   0    0.12    0.04
   4   1   0    0.19    0.04
  -5  -1   0    0.31    0.05
   5   1   0    0.44    0.05
   5  -2   0    1.75    0.08
  -5   2   0    1.73    0.08
   4  -2   0    2.41    0.08
  -4   2   0    2.41    0.07
   3  -2   0    0.90    0.05
   3  -2   0    0.92    0.05
  -3   2   0    0.89    0.05
   2  -2   0    0.43    0.03
   2  -2   0    0.46    0.04
  -2   2   0    0.47    0.03
  -2   2   0    0.40    0.02
   1  -2   0 1000.00   14.57
  -1   2   0  969.02   13.91
   0  -2   0  145.20    2.41
   0  -2   0  144.91    2.40
   0   2   0  142.85    2.11
  -1  -2   0   42.07    0.61
  -1  -2   0   43.09    0.59
   1   2   0   41.85    0.65
  -2  -2   0    4.50    0.08
  -2  -2   0    4.43    0.08
   2   2   0    4.54    0.09
   2   2   0    4.47    0.08
  -3  -2   0    9.87    0.16
  -3  -2   0    9.82    0.16
   3   2   0    9.72    0.17
   3   2   0    9.92    0.18
  -4  -2   0    3.39    0.09
   4   2   0    3.50    0.09
   5  -3   0    0.44    0.05
  -5   3   0    0.50    0.05
   4  -3   0    0.19    0.04
  -4   3   0    0.23    0.04
   3  -3   0    2.48    0.08
   3  -3   0    2.59    0.07
  -3   3   0    2.46    0.07
   2  -3   0   12.60    0.20
   2  -3   0   12.33    0.17
  -2   3   0   11.99    0.18
   1  -3   0    0.11    0.01
   1  -3   0    0.09    0.02
  -1   3   0    0.08    0.02
   0  -3   0   34.70    0.51
   0  -3   0   34.48    0.50
   0   3   0   35.25    0.47
  -1  -3   0   37.17    0.50
  -1  -3   0   36.85    0.53
  -2  -3   0   12.79    0.18
  -2  -3   0   12.65    0.19
  -3  -3   0    0.86    0.05
  -3  -3   0    0.87    0.05
   3   3   0    0.86    0.05
   3   3   0    0.90    0.06
   4   3   0    0.63    0.05
   4  -4   0    0.16    0.04
  -4   4   0    0.26    0.04
   3  -4   0    0.15    0.04
  -3   4   0    0.04    0.03
   2  -4   0   76.40    1.12
   2  -4   0   75.37    1.03
  -2   4   0   77.41    1.05
   1  -4   0   10.60    0.15
   1  -4   0   10.73    0.17
  -1   4   0   10.45    0.15
   0  -4   0  150.67    2.83
   0  -4   0  154.76    2.14
   0   4   0  152.91    2.02
  -1  -4   0   20.70    0.28
  -2  -4   0    9.01    0.14
  -2  -4   0    8.86    0.15
  -3  -4   0    1.32    0.05
  -3  -4   0    1.27    0.06
  -4  -4   0    0.01    0.04
   4  -5   0    0.17    0.04
  -4   5   0    0.13    0.04
   3  -5   0    5.62    0.12
  -3   5   0    5.50    0.11
   2  -5   0    0.09    0.03
   2  -5   0    0.09    0.01
  -2   5   0    0.07    0.03
   1  -5   0    5.62    0.10
   1  -5   0    5.48    0.09
  -1   5   0    5.46    0.09
   0  -5   0   63.79    0.91
   0  -5   0   64.75    0.91
   0   5   0   63.60    0.85
  -1  -5   0   74.42    0.99
  -1  -5   0   73.75    1.04
  -2  -5   0    0.13    0.02
  -2  -5   0    0.14    0.03
  -3  -5   0    0.19    0.04
  -4  -5   0    0.04    0.04
   4  -6   0    1.78    0.08
  -4   6   0    1.68    0.07
   3  -6   0   14.78    0.25
  -3   6   0   14.55    0.23
   2  -6   0    2.83    0.08
  -2   6   0    2.71    0.07
   1  -6   0   22.47    0.33
   1  -6   0   22.24    0.31
  -1   6   0   22.40    0.31
   0  -6   0   11.93    0.18
   0  -6   0   11.92    0.18
   0   6   0   11.63    0.16
  -1  -6   0   21.48    0.29
  -1  -6   0   21.61    0.31
  -2  -6   0    0.54    0.04
  -3  -6   0    0.16    0.04
  -4  -6   0    0.09    0.04
   4  -7   0    4.29    0.12
  -4   7   0    4.40    0.11
   3  -7   0    1.23    0.06
  -3   7   0    1.09    0.06
   2  -7   0    2.58    0.08
  -2   7   0    2.65    0.07
   1  -7   0    1.55    0.05
   1  -7   0    1.54    0.05
  -1   7   0    1.61    0.05
   0  -7   0   90.00    1.25
   0  -7   0   89.94    1.27
   0   7   0   86.71    1.18
  -1  -7   0    1.48    0.05
  -2  -7   0    0.12    0.03
  -3  -7   0    0.15    0.04
  -4  -7   0    0.09    0.05
   4  -8   0    5.73    0.14
  -4   8   0    5.58    0.13
   3  -8   0    0.72    0.06
  -3   8   0    0.68    0.05
   2  -8   0    0.20    0.04
  -2   8   0    0.18    0.03
   1  -8   0    0.27    0.03
   1  -8   0    0.29    0.03
  -1   8   0    0.25    0.03
   0  -8   0    5.26    0.10
   0  -8   0    4.97    0.10
  -1  -8   0    0.66    0.05
  -2  -8   0    0.01    0.03
  -3  -8   0   -0.01    0.04
  -4  -8   0    0.30    0.06
   4  -9   0    0.83    0.07
  -4   9   0    1.05    0.07
   3  -9   0    1.26    0.07
  -3   9   0    1.15    0.06
   2  -9   0    7.17    0.15
  -2   9   0    7.32    0.13
   1  -9   0   13.90    0.21
   1  -9   0   13.40    0.22
  -1   9   0   13.50    0.20
   0  -9   0    1.82    0.06
   0  -9   0    1.84    0.07
  -1  -9   0   -0.02    0.03
  -2  -9   0    2.81    0.09
  -3  -9   0    0.97    0.06
  -4  10   0    0.06    0.04
   3 -10   0    0.35    0.05
  -3  10   0    0.32    0.04
   2 -10   0    2.03    0.08
  -2  10   0    2.01    0.06
   1 -10   0    1.23    0.05
   1 -10   0    1.20    0.06
   0 -10   0    0.05    0.03
   0 -10   0    0.03    0.03
  -1 -10   0    0.22    0.03
  -1 -10   0    0.21    0.04
  -2 -10   0    0.04    0.04
  -3 -10   0    0.43    0.06
   3 -11   0    1.21    0.08
  -3  11   0    1.32    0.07
   2 -11   0    0.85    0.06
   1 -11   0    0.10    0.03
   1 -11   0    0.13    0.03
   0 -11   0    0.04    0.03
   0 -11   0    0.00    0.03
  -1 -11   0    4.39    0.11
  -2 -11   0    4.58    0.12
  -3 -11   0    0.24    0.05
   3 -12   0    0.36    0.05
   2 -12   0    0.58    0.06
   1 -12   0    0.05    0.04
   0 -12   0    0.02    0.03
   0 -12   0    0.07    0.04
  -1 -12   0    0.78    0.06
  -2 -12   0    0.49    0.06
   3 -13   0    1.03    0.08
   2 -13   0    0.82    0.07
   1 -13   0    0.57    0.05
   0 -13   0    2.02    0.08
  -1 -13   0    2.17    0.09
  -2 -13   0    0.37    0.06
   2 -14   0   -0.06    0.04
   0 -14   0    0.35    0.05
  -1 -14   0    0.13    0.05
   0 -15   1    0.27    0.05
  -1 -14   1    0.03    0.04
   0 -14   1    0.11    0.04
   2 -14   1    1.20    0.08
  -2 -13   1    0.56    0.06
  -1 -13   1    0.04    0.04
   0 -13   1    0.04    0.04
   1 -13   1   -0.04    0.04
   2 -13   1    0.00    0.04
   3 -13   1    0.30    0.06
  -2 -12   1    0.91    0.06
  -1 -12   1    0.06    0.04
   0 -12   1    0.04    0.04
   1 -12   1    0.69    0.06
   2 -12   1    3.79    0.11
  -3  12  -1    2.75    0.09
   3 -12   1    2.79    0.10
  -3 -11   1    1.43    0.08
  -2 -11   1    0.01    0.04
  -1 -11   1    0.06    0.03
   0 -11   1    0.10    0.03
   0 -11   1    0.14    0.03
   1 -11   1    0.09    0.03
   1 -11   1    0.16    0.03
  -2  11  -1    6.61    0.13
   2 -11   1    6.38    0.14
  -3  11  -1    1.50    0.07
   3 -11   1    1.37    0.08
  -3 -10   1    0.27    0.05
  -2 -10   1    0.18    0.04
  -1 -10   1    0.02    0.03
   0 -10   1    0.00    0.03
   0 -10   1    0.01    0.03
   1 -10   1    7.78    0.15
   1 -10   1    8.15    0.14
  -2  10  -1   24.58    0.35
   2 -10   1   24.04    0.38
  -3  10  -1    0.46    0.05
   3 -10   1    0.44    0.05
  -4  10  -1    0.16    0.05
   4 -10   1    0.13    0.05
  -3  -9   1   -0.02    0.05
  -2  -9   1    0.06    0.03
  -1  -9   1    0.04    0.03
  -1  -9   1    0.09    0.04
   0  -9   1    0.35    0.04
   0  -9   1    0.31    0.03
  -1   9  -1   13.97    0.21
   1  -9   1   14.10    0.21
   1  -9   1   13.95    0.23
  -2   9  -1   19.80    0.29
   2  -9   1   19.44    0.31
  -3   9  -1    0.17    0.04
   3  -9   1    0.17    0.04
  -4   9  -1    4.59    0.12
   4  -9   1    4.73    0.13
  -4  -8   1    0.15    0.06
  -3  -8   1   -0.01    0.04
  -2  -8   1    0.61    0.05
  -1  -8   1    0.08    0.03
   0   8  -1    1.10    0.04
   0  -8   1    1.14    0.05
   0  -8   1    1.08    0.05
  -1   8  -1   23.91    0.33
   1  -8   1   23.46    0.35
   1  -8   1   23.46    0.33
  -2   8  -1    0.57    0.04
   2  -8   1    0.55    0.05
  -3   8  -1    0.04    0.03
   3  -8   1    0.03    0.04
  -4   8  -1    1.32    0.07
   4  -8   1    1.31    0.07
  -4  -7   1    0.89    0.07
  -3  -7   1    0.19    0.04
  -2  -7   1    1.64    0.06
  -1  -7   1    0.31    0.03
   0   7  -1    0.95    0.03
   0  -7   1    0.99    0.04
   0  -7   1    0.92    0.04
  -1   7  -1   31.08    0.42
   1  -7   1   30.52    0.42
   1  -7   1   30.70    0.44
  -2   7  -1    0.07    0.03
   2  -7   1    0.09    0.03
   2  -7   1    0.10    0.02
  -3   7  -1   24.06    0.36
   3  -7   1   24.61    0.38
  -4   7  -1    1.74    0.07
   4  -7   1    1.59    0.08
  -4  -6   1    0.18    0.04
  -3  -6   1    0.12    0.04
  -2  -6   1    0.02    0.03
  -1  -6   1    0.46    0.04
  -1  -6   1    0.43    0.02
   0   6  -1    2.14    0.04
   0  -6   1    2.12    0.05
   0  -6   1    2.13    0.06
  -1   6  -1    0.42    0.03
   1  -6   1    0.37    0.03
   1  -6   1    0.37    0.03
  -2   6  -1    0.89    0.04
   2  -6   1    0.87    0.03
   2  -6   1    0.85    0.05
  -3   6  -1    1.35    0.06
   3  -6   1    1.34    0.07
  -4   6  -1    0.10    0.04
   4  -6   1    0.08    0.04
  -4  -5   1    0.30    0.05
  -3  -5   1    2.07    0.07
  -2  -5   1    1.25    0.04
  -2  -5   1    1.33    0.06
  -1  -5   1    0.29    0.03
  -1  -5   1    0.28    0.02
   0   5  -1    1.57    0.03
   0  -5   1    1.48    0.04
   0  -5   1    1.58    0.04
  -1   5  -1    2.32    0.05
   1  -5   1    2.38    0.06
   1  -5   1    2.41    0.05
  -2   5  -1  148.43    3.02
   2  -5   1  146.39    2.53
   2  -5   1  152.26    2.17
  -3   5  -1   15.78    0.25
   3  -5   1   15.89    0.26
  -4   5  -1    0.80    0.05
   4  -5   1    0.77    0.06
  -3  -4   1    0.93    0.04
  -3  -4   1    0.80    0.06
  -2  -4   1    9.06    0.15
  -2  -4   1    9.03    0.14
  -1  -4   1    2.60    0.05
  -1  -4   1    2.63    0.06
   0   4  -1   -0.01    0.01
   0  -4   1    0.01    0.01
   0  -4   1    0.01    0.01
  -1   4  -1    1.34    0.04
   1  -4   1    1.30    0.03
   1  -4   1    1.31    0.04
  -2   4  -1    0.19    0.03
   2  -4   1    0.13    0.03
   2  -4   1    0.19    0.02
  -3   4  -1    0.13    0.03
   3  -4   1    0.08    0.03
  -4   4  -1    0.22    0.04
   4  -4   1    0.22    0.04
   4   3  -1    3.89    0.10
  -4  -3   1    3.89    0.10
   3   3  -1    2.89    0.07
   3   3  -1    2.89    0.09
  -3  -3   1    2.85    0.07
  -3  -3   1    2.98    0.08
   2   3  -1    9.72    0.15
   2   3  -1    9.87    0.17
  -2  -3   1    9.88    0.15
  -2  -3   1    9.65    0.15
   1   3  -1    0.59    0.03
  -1  -3   1    0.60    0.02
  -1  -3   1    0.62    0.03
   0   3  -1    1.24    0.03
   0  -3   1    1.28    0.03
   0  -3   1    1.14    0.04
  -1   3  -1  326.29    5.33
   1  -3   1  327.09    4.92
   1  -3   1  322.73    5.62
   2  -3   1   75.83    1.08
   2  -3   1   74.49    1.03
  -3   3  -1    0.28    0.04
   3  -3   1    0.27    0.04
  -4   3  -1    0.42    0.05
   4  -3   1    0.34    0.04
  -5   3  -1    1.83    0.08
   5  -3   1    1.78    0.08
   4   2  -1    0.68    0.05
  -4  -2   1    0.61    0.05
   3   2  -1    4.63    0.10
   3   2  -1    4.45    0.11
  -3  -2   1    4.45    0.09
  -3  -2   1    4.56    0.09
   2   2  -1    3.58    0.08
   2   2  -1    3.66    0.07
  -2  -2   1    3.48    0.07
  -2  -2   1    3.60    0.07
   1   2  -1    0.50    0.02
   1   2  -1    0.51    0.04
  -1  -2   1    0.50    0.03
  -1  -2   1    0.51    0.02
   0   2  -1    0.05    0.01
   0  -2   1    0.05    0.01
   0  -2   1    0.05    0.01
  -1   2  -1   11.99    0.17
   1  -2   1   11.98    0.16
   1  -2   1   11.86    0.18
  -2   2  -1    4.65    0.08
   2  -2   1    4.55    0.09
   2  -2   1    4.71    0.08
  -3   2  -1    1.73    0.05
  -3   2  -1    1.62    0.06
   3  -2   1    1.56    0.06
  -4   2  -1    1.19    0.06
   4  -2   1    1.33    0.06
  -5   2  -1    0.04    0.04
   5  -2   1    0.08    0.04
  -5  -1   1    1.76    0.08
   4   1  -1    0.50    0.04
  -4  -1   1    0.41    0.04
   3   1  -1    5.36    0.11
   3   1  -1    5.25    0.11
  -3  -1   1    5.18    0.10
  -3  -1   1    5.47    0.10
   2   1  -1    8.05    0.13
   2   1  -1    7.84    0.14
  -2  -1   1    7.77    0.12
  -2  -1   1    7.83    0.12
   1   1  -1    0.87    0.03
   1   1  -1    0.84    0.03
  -1  -1   1    0.94    0.03
  -1  -1   1    0.91    0.03
   0   1  -1   -0.48    0.01
   0  -1   1   -0.49    0.01
   0  -1   1   -0.48    0.01
  -1   1  -1   65.78    0.90
   1  -1   1   67.14    0.89
   1  -1   1   66.14    0.98
   1  -1   1   64.65    0.93
  -2   1  -1    2.76    0.06
  -2   1  -1    2.89    0.06
   2  -1   1    2.72    0.06
   2  -1   1    2.83    0.06
  -3   1  -1    0.17    0.03
  -3   1  -1    0.20    0.03
   3  -1   1    0.20    0.03
  -4   1  -1    1.59    0.06
   4  -1   1    1.57    0.06
  -5   1  -1    0.08    0.04
   5  -1   1    0.06    0.04
   5   0  -1    0.22    0.04
  -5   0   1    0.15    0.04
   4   0  -1    0.98    0.06
  -4   0   1    1.03    0.06
   3   0  -1    1.05    0.05
   3   0  -1    1.02    0.05
  -3   0   1    0.93    0.05
  -3   0   1    0.98    0.04
   2   0  -1    1.57    0.05
   2   0  -1    1.61    0.05
  -2   0   1    1.60    0.04
  -2   0   1    1.61    0.05
   1   0  -1    0.02    0.02
   1   0  -1    0.05    0.02
  -1   0   1    0.05    0.01
  -1   0   1    0.04    0.01
  -1   0  -1    5.82    0.09
  -1   0  -1    5.86    0.09
   1   0   1    5.81    0.09
   1   0   1    5.81    0.09
  -2   0  -1   12.54    0.18
  -2   0  -1   12.27    0.18
   2   0   1   12.24    0.19
   2   0   1   12.58    0.20
  -3   0  -1    3.92    0.08
  -3   0  -1    3.82    0.09
   3   0   1    3.85    0.09
   3   0   1    4.02    0.09
  -4   0  -1    1.27    0.06
   4   0   1    1.08    0.06
  -5   0  -1    0.37    0.05
   5   0   1    0.44    0.05
   5  -1  -1    0.49    0.05
  -5   1   1    0.44    0.05
   4  -1  -1    0.48    0.04
  -4   1   1    0.40    0.04
   3  -1  -1    0.60    0.05
   3  -1  -1    0.57    0.04
  -3   1   1    0.53    0.04
   2  -1  -1   24.27    0.37
   2  -1  -1   24.11    0.36
  -2   1   1   25.21    0.33
  -2   1   1   24.71    0.34
   1  -1  -1   -0.02    0.02
  -1   1   1   -0.02    0.02
  -1   1   1    0.01    0.01
   0  -1  -1    0.17    0.01
  -1  -1  -1   18.69    0.26
  -1  -1  -1   18.80    0.26
   1   1   1   19.00    0.28
   1   1   1   18.57    0.27
  -2  -1  -1    0.95    0.04
  -2  -1  -1    0.85    0.04
   2   1   1    0.83    0.04
   2   1   1    0.92    0.04
  -3  -1  -1    1.34    0.06
  -3  -1  -1    1.35    0.05
   3   1   1    1.40    0.06
   3   1   1    1.30    0.05
  -4  -1  -1    2.75    0.08
   4   1   1    2.76    0.08
   5   1   1    0.55    0.05
   5  -2  -1    0.15    0.04
  -5   2   1    0.13    0.04
   4  -2  -1    0.10    0.03
  -4   2   1    0.07    0.03
   3  -2  -1    0.40    0.04
   3  -2  -1    0.38    0.04
  -3   2   1    0.41    0.04
   2  -2  -1   35.46    0.51
  -2   2   1   35.72    0.48
  -2   2   1   35.77    0.49
   1  -2  -1    0.58    0.01
   1  -2  -1    0.61    0.03
  -1   2   1    0.48    0.03
   0  -2  -1    0.02    0.01
   0   2   1    0.00    0.01
  -1  -2  -1   16.78    0.24
  -1  -2  -1   17.05    0.23
  -2  -2  -1   23.51    0.32
  -2  -2  -1   23.45    0.33
   2   2   1   23.38    0.36
   2   2   1   23.42    0.34
  -3  -2  -1    6.14    0.11
  -3  -2  -1    6.36    0.12
   3   2   1    5.94    0.12
   3   2   1    6.29    0.13
  -4  -2  -1    0.23    0.04
   4   2   1    0.25    0.04
   5  -3  -1    0.16    0.04
  -5   3   1    0.08    0.04
   4  -3  -1   -0.01    0.03
  -4   3   1    0.01    0.03
   3  -3  -1   15.43    0.25
   3  -3  -1   16.02    0.26
  -3   3   1   15.73    0.24
   2  -3  -1   42.73    0.62
  -2   3   1   45.10    0.60
  -2   3   1   44.82    0.60
   1  -3  -1    1.13    0.04
   1  -3  -1    1.13    0.02
  -1   3   1    1.21    0.04
   0  -3  -1    3.88    0.07
   0   3   1    3.92    0.06
  -1  -3  -1    0.73    0.02
  -1  -3  -1    0.66    0.03
  -2  -3  -1    4.86    0.09
  -2  -3  -1    4.93    0.08
  -3  -3  -1    1.46    0.05
  -3  -3  -1    1.46    0.06
  -4  -3  -1    0.01    0.04
   5  -4  -1    0.05    0.04
   4  -4  -1    0.58    0.05
  -4   4   1    0.55    0.05
   3  -4  -1   27.40    0.41
   3  -4  -1   27.60    0.42
  -3   4   1   26.99    0.39
   2  -4  -1   18.56    0.28
   2  -4  -1   18.26    0.25
  -2   4   1   18.34    0.27
   1  -4  -1    0.00    0.01
   1  -4  -1    0.01    0.02
  -1   4   1   -0.01    0.01
   0  -4  -1    2.46    0.05
   0  -4  -1    2.31    0.05
   0   4   1    2.38    0.04
  -1  -4  -1   18.14    0.24
  -1  -4  -1   17.83    0.26
  -2  -4  -1    2.16    0.07
  -2  -4  -1    2.00    0.05
  -3  -4  -1    0.46    0.04
  -4  -4  -1    0.52    0.05
   4  -5  -1    1.25    0.07
  -4   5   1    1.16    0.06
   3  -5  -1   16.16    0.27
  -3   5   1   16.28    0.25
   2  -5  -1    0.18    0.03
  -2   5   1    0.11    0.02
   1  -5  -1    6.21    0.11
   1  -5  -1    6.17    0.09
  -1   5   1    6.03    0.10
   0  -5  -1    0.22    0.02
   0  -5  -1    0.23    0.02
   0   5   1    0.22    0.01
  -1  -5  -1    0.17    0.02
  -1  -5  -1    0.16    0.01
  -2  -5  -1    0.24    0.03
  -3  -5  -1    0.16    0.04
  -4  -5  -1    0.19    0.05
   4  -6  -1    6.90    0.15
  -4   6   1    6.92    0.15
   3  -6  -1    4.41    0.11
  -3   6   1    4.43    0.10
   2  -6  -1    2.40    0.07
  -2   6   1    2.34    0.06
   1  -6  -1    1.46    0.04
   1  -6  -1    1.45    0.05
  -1   6   1    1.44    0.04
   0  -6  -1    1.88    0.05
   0  -6  -1    1.81    0.05
   0   6   1    1.80    0.04
  -1  -6  -1   -0.01    0.02
  -2  -6  -1    0.07    0.03
  -3  -6  -1    3.41    0.09
  -4  -6  -1    5.27    0.13
   4  -7  -1    2.48    0.09
  -4   7   1    2.69    0.09
   3  -7  -1    0.23    0.04
  -3   7   1    0.23    0.04
   2  -7  -1    0.15    0.04
  -2   7   1    0.15    0.03
   1  -7  -1   -0.01    0.02
   1  -7  -1    0.03    0.02
  -1   7   1   -0.01    0.02
   0  -7  -1    0.76    0.04
   0  -7  -1    0.79    0.04
   0   7   1    0.73    0.03
  -1  -7  -1    0.04    0.03
  -2  -7  -1    0.24    0.04
  -3  -7  -1    0.04    0.04
  -4  -7  -1    0.16    0.05
   4  -8  -1    0.21    0.05
  -4   8   1    0.21    0.04
   3  -8  -1    3.85    0.11
  -3   8   1    3.78    0.09
   2  -8  -1   26.49    0.40
  -2   8   1   26.48    0.38
   1  -8  -1    0.12    0.03
   1  -8  -1    0.11    0.03
  -1   8   1    0.07    0.02
   0  -8  -1    0.70    0.04
   0  -8  -1    0.70    0.04
  -1  -8  -1    0.06    0.03
  -2  -8  -1    1.04    0.06
  -3  -8  -1    2.86    0.09
  -4  -8  -1    4.21    0.12
   4  -9  -1    0.02    0.04
  -4   9   1    0.09    0.04
   3  -9  -1    0.31    0.05
  -3   9   1    0.39    0.04
   2  -9  -1    0.01    0.03
  -2   9   1    0.00    0.03
   1  -9  -1    1.09    0.06
   1  -9  -1    1.09    0.05
   0  -9  -1    0.02    0.03
   0  -9  -1    0.01    0.03
  -1  -9  -1   -0.03    0.03
  -2  -9  -1    0.41    0.04
  -3  -9  -1    0.22    0.04
  -4  10   1    0.36    0.05
   3 -10  -1   16.56    0.29
  -3  10   1   16.49    0.26
   2 -10  -1    3.28    0.09
  -2  10   1    3.35    0.08
   1 -10  -1    0.93    0.05
   1 -10  -1    0.83    0.05
   0 -10  -1    0.41    0.04
   0 -10  -1    0.40    0.04
  -1 -10  -1   -0.08    0.03
  -1 -10  -1    0.03    0.03
  -2 -10  -1    0.03    0.04
  -3 -10  -1    0.71    0.06
   3 -11  -1    0.19    0.05
  -3  11   1    0.13    0.04
   2 -11  -1    0.01    0.04
   1 -11  -1    0.11    0.04
   0 -11  -1    0.24    0.04
   0 -11  -1    0.18    0.04
  -1 -11  -1   -0.01    0.03
  -1 -11  -1    0.05    0.03
  -2 -11  -1    0.32    0.05
   3 -12  -1    0.91    0.07
   2 -12  -1    0.02    0.04
   1 -12  -1    0.21    0.04
   0 -12  -1    0.04    0.03
   0 -12  -1    0.07    0.04
  -1 -12  -1    0.04    0.04
  -2 -12  -1    0.04    0.04
   2 -13  -1    0.47    0.06
   1 -13  -1    0.09    0.04
   0 -13  -1    0.30    0.04
  -1 -13  -1    0.03    0.04
  -2 -13  -1    0.54    0.06
   2 -14  -1    0.00    0.05
   1 -14  -1    0.01    0.04
   0 -14  -1    0.75    0.06
  -1 -14  -1    0.07    0.05
   0 -15   2    0.43    0.05
  -1 -14   2    0.27    0.05
   0 -14   2    0.19    0.04
   2 -14   2    0.84    0.07
  -2 -13   2    0.51    0.06
  -1 -13   2    0.19    0.04
   0 -13   2    0.12    0.04
   2 -13   2    1.30    0.07
   3 -13   2    0.06    0.05
  -2 -12   2    0.78    0.06
  -1 -12   2    0.18    0.04
   0 -12   2    0.33    0.04
   1 -12   2    1.62    0.06
   1 -12   2    1.36    0.07
   2 -12   2    2.64    0.09
  -3  12  -2    1.77    0.07
   3 -12   2    1.91    0.09
  -3 -11   2    0.23    0.05
  -2 -11   2    0.68    0.06
  -1 -11   2    0.31    0.04
   0 -11   2    0.08    0.03
   1 -11   2    1.38    0.06
   1 -11   2    1.34    0.06
  -2  11  -2    4.56    0.10
   2 -11   2    4.39    0.11
  -3  11  -2    0.03    0.04
   3 -11   2    0.00    0.04
  -3 -10   2    1.24    0.08
  -2 -10   2    0.64    0.05
  -1 -10   2    2.29    0.08
   0 -10   2    1.99    0.06
   0 -10   2    2.14    0.07
  -1  10  -2   12.39    0.19
   1 -10   2   12.69    0.20
   1 -10   2   12.53    0.21
  -2  10  -2    0.92    0.05
   2 -10   2    0.83    0.06
  -3  10  -2    0.12    0.04
   3 -10   2    0.16    0.04
  -4  10  -2    3.41    0.10
   4 -10   2    3.61    0.11
  -3  -9   2    0.37    0.05
  -2  -9   2    0.06    0.04
  -1  -9   2    0.41    0.04
   0  -9   2    9.17    0.16
   0  -9   2    9.17    0.15
  -1   9  -2   11.54    0.18
   1  -9   2   11.42    0.19
   1  -9   2   11.48    0.18
  -2   9  -2    0.65    0.05
   2  -9   2    0.59    0.05
  -3   9  -2    0.13    0.04
   3  -9   2    0.19    0.04
  -4   9  -2    0.15    0.05
   4  -9   2    0.18    0.05
  -4  -8   2    0.11    0.05
  -3  -8   2    0.07    0.04
  -2  -8   2    0.70    0.05
  -1  -8   2   10.17    0.17
   0   8  -2    0.04    0.02
   0  -8   2    0.02    0.02
   0  -8   2    0.06    0.02
  -1   8  -2    5.61    0.10
   1  -8   2    5.71    0.10
   1  -8   2    5.48    0.11
  -2   8  -2    1.98    0.06
   2  -8   2    1.91    0.07
  -3   8  -2   11.56    0.20
   3  -8   2   11.44    0.21
  -4   8  -2    1.09    0.07
   4  -8   2    1.14    0.07
  -4  -7   2    0.11    0.05
  -3  -7   2   -0.09    0.04
  -2  -7   2    1.16    0.06
  -1  -7   2   18.82    0.28
   0   7  -2   14.05    0.20
   0  -7   2   13.74    0.21
   0  -7   2   14.39    0.21
  -1   7  -2    0.43    0.03
   1  -7   2    0.39    0.03
   1  -7   2    0.39    0.03
  -2   7  -2    3.31    0.08
   2  -7   2    3.27    0.07
   2  -7   2    3.17    0.08
  -3   7  -2    0.19    0.04
   3  -7   2    0.18    0.04
  -4   7  -2    0.01    0.04
   4  -7   2    0.04    0.04
  -4  -6   2    0.07    0.04
  -3  -6   2    0.02    0.03
  -2  -6   2    8.76    0.13
  -2  -6   2    8.74    0.15
  -1  -6   2   30.71    0.43
  -1  -6   2   31.09    0.41
   0   6  -2    1.43    0.04
   0  -6   2    1.52    0.05
   0  -6   2    1.50    0.04
  -1   6  -2    0.84    0.04
   1  -6   2    0.80    0.04
   1  -6   2    0.82    0.03
  -2   6  -2   10.58    0.17
   2  -6   2   10.74    0.16
   2  -6   2   10.73    0.18
  -3   6  -2    0.31    0.04
   3  -6   2    0.32    0.04
  -4   6  -2    0.09    0.04
   4  -6   2    0.01    0.03
  -3  -5   2    0.11    0.03
  -3  -5   2    0.04    0.03
  -2  -5   2    4.09    0.09
  -2  -5   2    3.95    0.08
  -1  -5   2   16.09    0.23
  -1  -5   2   15.75    0.22
   0   5  -2   11.62    0.17
   0  -5   2   11.88    0.18
   0  -5   2   12.19    0.18
  -1   5  -2   36.27    0.48
   1  -5   2   36.29    0.51
   1  -5   2   35.11    0.49
  -2   5  -2    4.81    0.09
   2  -5   2    4.78    0.08
   2  -5   2    4.57    0.10
  -3   5  -2    1.26    0.06
   3  -5   2    1.39    0.06
  -4   5  -2    0.03    0.04
   4  -5   2    0.05    0.04
   3   4  -2    1.57    0.07
  -3  -4   2    1.68    0.06
  -3  -4   2    1.60    0.06
   2   4  -2    8.34    0.15
  -2  -4   2    8.19    0.14
  -2  -4   2    8.09    0.13
  -1  -4   2   17.96    0.25
  -1  -4   2   17.93    0.26
   0   4  -2    4.30    0.07
   0  -4   2    4.19    0.07
   0  -4   2    4.47    0.07
  -1   4  -2   16.14    0.23
   1  -4   2   15.76    0.22
   1  -4   2   16.31    0.24
  -2   4  -2    5.70    0.10
   2  -4   2    5.53    0.09
   2  -4   2    5.57    0.11
  -3   4  -2    0.06    0.03
   3  -4   2    0.03    0.03
  -4   4  -2    0.03    0.03
   4  -4   2    0.03    0.03
  -4  -3   2    0.05    0.03
   3   3  -2    0.81    0.05
   3   3  -2    0.73    0.06
  -3  -3   2    0.72    0.05
  -3  -3   2    0.78    0.05
   2   3  -2    4.22    0.08
   2   3  -2    4.14    0.09
  -2  -3   2    4.21    0.08
  -2  -3   2    4.15    0.08
   1   3  -2   24.12    0.37
  -1  -3   2   23.91    0.33
  -1  -3   2   24.24    0.32
   0   3  -2  214.85    3.40
   0  -3   2  216.61    3.73
   0  -3   2  225.42    3.34
  -1   3  -2   18.24    0.25
   1  -3   2   18.12    0.26
   1  -3   2   18.60    0.25
  -2   3  -2    1.22    0.04
   2  -3   2    1.25    0.05
   2  -3   2    1.31    0.03
  -3   3  -2    0.38    0.04
   3  -3   2    0.27    0.04
  -4   3  -2    1.42    0.06
   4  -3   2    1.36    0.06
  -5   3  -2    0.14    0.05
   5  -3   2    0.13    0.04
   4   2  -2    2.16    0.07
  -4  -2   2    2.10    0.07
   3   2  -2    0.15    0.04
   3   2  -2    0.15    0.03
  -3  -2   2    0.15    0.03
  -3  -2   2    0.10    0.03
   2   2  -2    0.04    0.02
   2   2  -2    0.06    0.03
  -2  -2   2    0.06    0.02
  -2  -2   2    0.06    0.02
   1   2  -2   38.98    0.55
   1   2  -2   38.79    0.59
  -1  -2   2   38.92    0.54
  -1  -2   2   39.53    0.56
   0   2  -2  406.27    6.00
   0   2  -2  413.30    6.62
   0  -2   2  423.35    5.95
   0  -2   2  421.22    6.22
  -1   2  -2   12.27    0.17
   1  -2   2   12.48    0.17
   1  -2   2   12.55    0.18
  -2   2  -2    0.29    0.03
   2  -2   2    0.26    0.03
   2  -2   2    0.35    0.03
  -3   2  -2    0.11    0.03
  -3   2  -2    0.10    0.03
   3  -2   2    0.07    0.03
  -4   2  -2    1.13    0.06
   4  -2   2    1.15    0.06
  -5   2  -2    0.00    0.04
   5  -2   2    0.04    0.04
  -5  -1   2    0.27    0.05
   4   1  -2    0.27    0.04
  -4  -1   2    0.22    0.04
   3   1  -2    0.52    0.04
   3   1  -2    0.59    0.05
  -3  -1   2    0.55    0.04
  -3  -1   2    0.55    0.04
   2   1  -2    1.73    0.05
   2   1  -2    1.77    0.05
  -2  -1   2    1.64    0.04
  -2  -1   2    1.73    0.05
   1   1  -2  491.00    8.04
   1   1  -2  501.83    7.28
  -1  -1   2  470.47    7.18
  -1  -1   2  495.08    7.18
   0   1  -2   33.22    0.49
   0  -1   2   33.17    0.45
   0  -1   2   31.86    0.45
   0  -1   2   32.32    0.45
  -1   1  -2    2.41    0.05
   1  -1   2    2.39    0.04
   1  -1   2    2.49    0.04
   1  -1   2    2.31    0.05
  -2   1  -2    0.00    0.02
  -2   1  -2   -0.02    0.02
   2  -1   2    0.00    0.02
   2  -1   2   -0.03    0.02
  -3   1  -2    7.30    0.12
  -3   1  -2    7.17    0.13
   3  -1   2    6.89    0.13
  -4   1  -2    0.43    0.04
   4  -1   2    0.36    0.04
  -5   1  -2    0.43    0.05
   5  -1   2    0.41    0.05
   5   0  -2    1.09    0.07
  -5   0   2    1.17    0.07
   4   0  -2    0.13    0.03
  -4   0   2    0.07    0.03
   3   0  -2    0.19    0.03
   3   0  -2    0.20    0.04
  -3   0   2    0.21    0.03
   2   0  -2    1.54    0.05
   2   0  -2    1.45    0.05
  -2   0   2    1.63    0.05
  -2   0   2    1.54    0.04
   1   0  -2  526.30    8.59
   1   0  -2  545.64    7.99
  -1   0   2  511.19    7.39
   0   0   2    2.04    0.03
  -1   0  -2   15.88    0.22
  -1   0  -2   16.28    0.22
   1   0   2   16.02    0.23
  -2   0  -2    0.12    0.02
  -2   0  -2    0.09    0.02
   2   0   2    0.07    0.02
   2   0   2    0.12    0.02
  -3   0  -2    4.29    0.09
  -3   0  -2    4.01    0.09
   3   0   2    4.17    0.09
  -4   0  -2    2.88    0.08
   4   0   2    2.74    0.08
  -5   0  -2    1.29    0.07
   5   0   2    1.31    0.07
   5  -1  -2    0.25    0.04
  -5   1   2    0.09    0.05
   4  -1  -2    0.71    0.05
  -4   1   2    0.58    0.05
   3  -1  -2    1.67    0.06
   3  -1  -2    1.71    0.06
  -3   1   2    1.76    0.06
   2  -1  -2   80.78    1.17
   2  -1  -2   78.76    1.14
  -2   1   2   78.73    1.09
  -2   1   2   80.17    1.09
   1  -1  -2  145.49    2.04
  -1   1   2  147.14    1.98
   0  -1  -2   16.23    0.22
   0   1   2   16.40    0.22
  -1  -1  -2    0.97    0.03
  -1  -1  -2    0.99    0.03
   1   1   2    0.94    0.03
  -2  -1  -2   12.54    0.18
  -2  -1  -2   12.32    0.19
   2   1   2   12.35    0.20
   2   1   2   12.40    0.19
  -3  -1  -2    8.28    0.14
  -3  -1  -2    8.42    0.15
   3   1   2    8.44    0.15
  -4  -1  -2    0.05    0.03
   4   1   2    0.10    0.03
   5   1   2    0.74    0.06
   5  -2  -2    0.09    0.04
  -5   2   2    0.09    0.04
   4  -2  -2    0.04    0.03
  -4   2   2    0.12    0.04
   3  -2  -2    2.92    0.08
   3  -2  -2    2.75    0.08
  -3   2   2    2.69    0.08
   2  -2  -2   44.74    0.63
  -2   2   2   45.24    0.61
  -2   2   2   44.61    0.61
   1  -2  -2    0.72    0.03
  -1   2   2    0.73    0.03
   0  -2  -2    4.11    0.07
   0   2   2    4.17    0.06
  -1  -2  -2    2.18    0.05
  -1  -2  -2    2.27    0.04
  -2  -2  -2    6.84    0.11
  -2  -2  -2    6.74    0.12
   2   2   2    6.84    0.12
  -3  -2  -2    5.77    0.11
  -3  -2  -2    5.69    0.11
   3   2   2    5.53    0.11
  -4  -2  -2    0.06    0.04
   4   2   2    0.02    0.03
   5  -3  -2    0.35    0.05
   4  -3  -2    1.13    0.06
  -4   3   2    1.18    0.06
   3  -3  -2    1.20    0.06
   3  -3  -2    1.27    0.06
  -3   3   2    1.16    0.05
   2  -3  -2    3.24    0.08
  -2   3   2    3.17    0.07
  -2   3   2    3.37    0.05
   1  -3  -2    0.03    0.01
   1  -3  -2    0.04    0.02
  -1   3   2    0.03    0.02
   0  -3  -2   24.08    0.34
   0   3   2   24.85    0.33
  -1  -3  -2    5.81    0.10
  -1  -3  -2    5.96    0.08
  -2  -3  -2   11.09    0.18
  -2  -3  -2   11.27    0.16
  -3  -3  -2    0.63    0.04
  -3  -3  -2    0.55    0.04
  -4  -3  -2    1.17    0.07
   5  -4  -2    0.05    0.04
   4  -4  -2    0.50    0.05
  -4   4   2    0.67    0.05
   3  -4  -2    2.36    0.08
  -3   4   2    2.41    0.07
   2  -4  -2    0.19    0.03
  -2   4   2    0.18    0.03
   1  -4  -2    2.57    0.04
   1  -4  -2    2.54    0.06
  -1   4   2    2.49    0.05
   0  -4  -2   13.26    0.19
   0   4   2   13.68    0.18
  -1  -4  -2   23.63    0.33
  -1  -4  -2   23.60    0.31
  -2  -4  -2    0.31    0.02
  -2  -4  -2    0.20    0.03
  -3  -4  -2    0.02    0.03
  -4  -4  -2    0.33    0.05
   4  -5  -2    0.18    0.04
  -4   5   2    0.19    0.04
   3  -5  -2    0.15    0.04
  -3   5   2    0.13    0.03
   2  -5  -2    0.18    0.03
  -2   5   2    0.18    0.03
   1  -5  -2   24.57    0.33
   1  -5  -2   24.38    0.36
  -1   5   2   24.38    0.33
   0  -5  -2   51.68    0.74
   0  -5  -2   51.14    0.71
   0   5   2   51.96    0.68
  -1  -5  -2    2.66    0.07
  -2  -5  -2    0.06    0.03
  -3  -5  -2    0.02    0.03
  -4  -5  -2    0.01    0.04
   4  -6  -2    0.30    0.05
  -4   6   2    0.29    0.04
   3  -6  -2   -0.01    0.03
  -3   6   2   -0.02    0.03
   2  -6  -2    1.53    0.06
  -2   6   2    1.67    0.06
   1  -6  -2   11.32    0.19
   1  -6  -2   11.64    0.17
  -1   6   2   11.38    0.17
   0  -6  -2   15.83    0.23
   0  -6  -2   15.69    0.24
   0   6   2   15.48    0.21
  -1  -6  -2    0.01    0.02
  -2  -6  -2    0.64    0.05
  -3  -6  -2    0.31    0.04
  -4  -6  -2    0.02    0.05
   4  -7  -2    0.09    0.04
  -4   7   2    0.01    0.04
   3  -7  -2    2.75    0.09
  -3   7   2    2.87    0.08
   2  -7  -2    1.23    0.06
  -2   7   2    1.17    0.05
   1  -7  -2   21.97    0.30
   1  -7  -2   21.16    0.32
  -1   7   2   20.92    0.30
   0  -7  -2    1.58    0.05
   0  -7  -2    1.62    0.05
  -1  -7  -2    2.70    0.08
  -2  -7  -2    0.03    0.03
  -3  -7  -2    0.03    0.04
  -4  -7  -2    3.37    0.11
   4  -8  -2    0.01    0.04
  -4   8   2    0.04    0.04
   3  -8  -2    2.54    0.09
  -3   8   2    2.56    0.08
   2  -8  -2    1.31    0.06
  -2   8   2    1.29    0.05
   1  -8  -2    0.97    0.05
   1  -8  -2    0.92    0.05
  -1   8   2    1.10    0.04
   0  -8  -2    0.23    0.03
   0  -8  -2    0.20    0.03
  -1  -8  -2    2.20    0.07
  -2  -8  -2    0.65    0.05
  -3  -8  -2    0.29    0.05
   4  -9  -2    0.87    0.07
  -4   9   2    0.70    0.06
   3  -9  -2    8.72    0.18
  -3   9   2    8.77    0.16
   2  -9  -2    1.18    0.06
  -2   9   2    1.09    0.05
   1  -9  -2    0.06    0.03
   1  -9  -2    0.08    0.03
   0  -9  -2    1.31    0.06
   0  -9  -2    1.24    0.06
  -1  -9  -2    1.38    0.06
  -2  -9  -2    6.64    0.14
  -3  -9  -2    2.28    0.09
  -4  10   2    1.06    0.07
   3 -10  -2    0.06    0.04
  -3  10   2    0.11    0.04
   2 -10  -2    0.20    0.04
   1 -10  -2    0.09    0.03
   0 -10  -2    1.70    0.07
   0 -10  -2    1.71    0.06
  -1 -10  -2    5.12    0.11
  -1 -10  -2    4.99    0.12
  -2 -10  -2   -0.03    0.04
  -3 -10  -2    0.40    0.06
   3 -11  -2    0.00    0.04
   2 -11  -2   -0.03    0.04
   1 -11  -2    0.08    0.04
   0 -11  -2    1.45    0.07
   0 -11  -2    1.39    0.06
  -1 -11  -2    9.64    0.17
  -1 -11  -2    9.21    0.17
  -2 -11  -2   -0.02    0.04
   3 -12  -2   -0.05    0.05
   2 -12  -2    0.28    0.05
   1 -12  -2    0.62    0.05
   0 -12  -2    6.01    0.13
   0 -12  -2    6.04    0.13
  -1 -12  -2    0.22    0.04
  -2 -12  -2    0.06    0.05
   2 -13  -2    0.04    0.04
   1 -13  -2    0.54    0.06
   0 -13  -2    2.52    0.09
   0 -13  -2    2.25    0.09
  -1 -13  -2    0.06    0.04
   2 -14  -2    1.18    0.08
   1 -14  -2    1.37    0.08
  -1 -14  -2    0.62    0.06
   0 -15   3    0.14    0.05
  -1 -14   3    0.06    0.04
   0 -14   3    0.49    0.05
  -2 -13   3    0.09    0.04
  -1 -13   3    0.07    0.04
   0 -13   3    0.80    0.06
   1 -13   3    0.14    0.04
   2 -13   3    0.04    0.04
   3 -13   3    1.09    0.08
  -2 -12   3    0.02    0.04
  -1 -12   3    0.07    0.04
   0 -12   3    0.05    0.03
   1 -12   3    0.60    0.05
   2 -12   3   -0.02    0.04
  -3  12  -3    0.23    0.05
   3 -12   3    0.20    0.05
  -3 -11   3   -0.04    0.04
  -2 -11   3    0.05    0.04
  -1 -11   3    0.12    0.04
   0 -11   3    0.05    0.03
   1 -11   3   11.02    0.19
   1 -11   3   11.26    0.19
  -2  11  -3    0.55    0.05
   2 -11   3    0.60    0.05
  -3  11  -3    0.05    0.04
   3 -11   3    0.01    0.04
  -3 -10   3    0.04    0.04
  -2 -10   3    0.11    0.04
  -1 -10   3    0.01    0.03
   0 -10   3    0.27    0.04
  -1  10  -3    0.04    0.03
   1 -10   3    0.07    0.03
   1 -10   3    0.04    0.03
  -2  10  -3    0.17    0.04
   2 -10   3    0.10    0.04
  -3  10  -3    0.62    0.05
   3 -10   3    0.68    0.06
  -4  10  -3    0.24    0.05
   4 -10   3    0.20    0.05
  -3  -9   3    0.05    0.04
  -2  -9   3    0.03    0.03
  -1  -9   3    0.51    0.04
   0   9  -3    4.77    0.09
   0  -9   3    4.88    0.09
   0  -9   3    4.92    0.10
  -1   9  -3   12.34    0.19
   1  -9   3   12.38    0.20
   1  -9   3   12.72    0.20
  -2   9  -3    1.09    0.05
   2  -9   3    1.07    0.06
  -3   9  -3    0.36    0.04
   3  -9   3    0.39    0.05
  -4   9  -3    0.07    0.04
   4  -9   3    0.05    0.04
  -4  -8   3    0.06    0.05
  -3  -8   3    0.16    0.04
  -2  -8   3    0.32    0.04
  -1  -8   3    0.03    0.03
   0   8  -3    0.36    0.03
   0  -8   3    0.38    0.03
   0  -8   3    0.37    0.03
  -1   8  -3    3.09    0.07
   1  -8   3    3.24    0.07
   1  -8   3    3.22    0.08
  -2   8  -3    3.03    0.08
   2  -8   3    3.10    0.07
   2  -8   3    3.11    0.09
  -3   8  -3    0.69    0.05
   3  -8   3    0.72    0.06
  -4   8  -3    1.06    0.06
   4  -8   3    0.95    0.07
  -4  -7   3    0.25    0.05
  -3  -7   3    0.31    0.04
  -2  -7   3    1.46    0.07
  -1  -7   3   14.35    0.22
  -1  -7   3   14.36    0.20
   0   7  -3    2.43    0.05
   0  -7   3    2.20    0.06
   0  -7   3    2.35    0.05
  -1   7  -3    0.03    0.02
   1  -7   3   -0.03    0.02
   1  -7   3    0.01    0.02
  -2   7  -3    1.87    0.06
   2  -7   3    1.89    0.07
   2  -7   3    1.91    0.05
  -3   7  -3    0.10    0.03
   3  -7   3    0.13    0.03
  -4   7  -3    1.87    0.08
   4  -7   3    1.83    0.08
  -3  -6   3    0.09    0.04
  -2  -6   3    1.86    0.06
  -2  -6   3    1.85    0.05
  -1  -6   3    1.52    0.05
  -1  -6   3    1.60    0.04
   0   6  -3    0.75    0.03
   0  -6   3    0.75    0.03
   0  -6   3    0.77    0.04
  -1   6  -3    7.69    0.12
   1  -6   3    7.71    0.12
   1  -6   3    7.80    0.13
  -2   6  -3    0.38    0.03
   2  -6   3    0.37    0.04
   2  -6   3    0.31    0.02
  -3   6  -3    0.32    0.04
   3  -6   3    0.40    0.04
  -4   6  -3    0.04    0.04
   4  -6   3    0.03    0.03
   3   5  -3    0.07    0.04
  -3  -5   3    0.11    0.03
  -3  -5   3    0.03    0.03
   2   5  -3   28.68    0.45
  -2  -5   3   28.63    0.40
  -2  -5   3   27.83    0.39
  -1  -5   3    8.04    0.12
  -1  -5   3    8.09    0.13
   0   5  -3    0.36    0.02
   0  -5   3    0.28    0.02
   0  -5   3    0.33    0.02
  -1   5  -3   18.20    0.26
   1  -5   3   18.08    0.27
   1  -5   3   18.41    0.26
  -2   5  -3    2.23    0.06
   2  -5   3    2.26    0.07
   2  -5   3    2.28    0.05
  -3   5  -3    2.25    0.07
   3  -5   3    2.15    0.07
  -4   5  -3    0.02    0.03
   4  -5   3    0.04    0.03
   4   4  -3    0.00    0.04
  -4  -4   3    0.05    0.03
   3   4  -3    2.13    0.06
   3   4  -3    2.10    0.08
  -3  -4   3    1.99    0.07
  -3  -4   3    2.10    0.06
   2   4  -3    1.53    0.06
  -2  -4   3    1.54    0.05
  -2  -4   3    1.46    0.04
   1   4  -3    7.28    0.13
  -1  -4   3    7.30    0.11
  -1  -4   3    7.19    0.12
   0   4  -3    0.18    0.02
   0  -4   3    0.20    0.01
   0  -4   3    0.17    0.02
  -1   4  -3   20.16    0.28
   1  -4   3   19.77    0.29
   1  -4   3   20.32    0.28
  -2   4  -3    1.15    0.04
   2  -4   3    1.14    0.03
   2  -4   3    1.07    0.05
  -3   4  -3    0.56    0.04
   3  -4   3    0.49    0.04
  -4   4  -3    0.52    0.05
   4  -4   3    0.58    0.05
   4   3  -3    0.04    0.04
  -4  -3   3    0.05    0.03
   3   3  -3    4.85    0.12
   3   3  -3    5.17    0.10
  -3  -3   3    5.00    0.10
  -3  -3   3    5.04    0.10
   2   3  -3    4.69    0.10
   2   3  -3    4.82    0.08
  -2  -3   3    4.84    0.09
  -2  -3   3    4.74    0.09
   1   3  -3    9.59    0.16
  -1  -3   3    9.68    0.14
  -1  -3   3    9.60    0.14
   0   3  -3   -0.04    0.01
   0  -3   3   -0.03    0.01
   0  -3   3   -0.03    0.01
  -1   3  -3    3.81    0.07
   1  -3   3    3.82    0.07
   1  -3   3    3.93    0.07
  -2   3  -3    7.39    0.12
   2  -3   3    7.20    0.11
   2  -3   3    7.19    0.13
   2  -3   3    7.34    0.12
  -3   3  -3    0.14    0.03
  -3   3  -3    0.10    0.03
   3  -3   3    0.11    0.03
  -4   3  -3    1.23    0.06
   4  -3   3    1.23    0.06
  -5   3  -3    0.17    0.05
  -5  -2   3    0.02    0.04
   4   2  -3    1.94    0.08
   4   2  -3    1.96    0.07
  -4  -2   3    1.98    0.07
   3   2  -3    0.12    0.03
   3   2  -3    0.09    0.04
  -3  -2   3    0.12    0.03
  -3  -2   3    0.12    0.03
   2   2  -3    0.87    0.05
   2   2  -3    0.89    0.04
  -2  -2   3    0.94    0.04
  -2  -2   3    0.92    0.04
   1   2  -3  140.59    1.87
   1   2  -3  134.13    2.03
  -1  -2   3  132.36    1.83
  -1  -2   3  134.96    1.84
   0   2  -3    0.16    0.02
   0  -2   3    0.19    0.02
   0  -2   3    0.16    0.02
   0  -2   3    0.16    0.01
  -1   2  -3    4.61    0.08
   1  -2   3    4.61    0.08
   1  -2   3    4.51    0.07
  -2   2  -3    0.90    0.04
   2  -2   3    0.95    0.03
   2  -2   3    0.93    0.03
   2  -2   3    0.97    0.04
  -3   2  -3    0.06    0.03
  -3   2  -3    0.07    0.03
   3  -2   3    0.04    0.03
  -4   2  -3   -0.09    0.03
   4  -2   3    0.00    0.03
  -5   2  -3    2.91    0.09
  -5  -1   3    0.02    0.04
   4   1  -3    1.46    0.06
  -4  -1   3    1.42    0.06
   3   1  -3    0.49    0.04
   3   1  -3    0.53    0.05
  -3  -1   3    0.51    0.04
   2   1  -3    8.31    0.13
   2   1  -3    8.21    0.15
  -2  -1   3    8.16    0.13
  -2  -1   3    8.14    0.12
   1   1  -3   83.53    1.15
  -1  -1   3   80.89    1.12
  -1  -1   3   82.12    1.12
   0   1  -3    0.09    0.01
   0  -1   3    0.06    0.01
   0  -1   3    0.07    0.01
  -1   1  -3    2.57    0.05
   1  -1   3    2.64    0.05
  -2   1  -3    1.75    0.05
  -2   1  -3    1.83    0.05
   2  -1   3    1.75    0.05
   2  -1   3    1.87    0.04
  -3   1  -3    2.99    0.07
  -3   1  -3    3.11    0.07
   3  -1   3    3.16    0.08
  -4   1  -3    0.90    0.06
   4  -1   3    0.85    0.05
  -5   1  -3    1.67    0.08
   5  -1   3    1.63    0.08
  -5   0   3    1.60    0.08
   4   0  -3    0.05    0.03
  -4   0   3    0.02    0.03
   3   0  -3    0.61    0.05
   3   0  -3    0.60    0.04
  -3   0   3    0.56    0.04
   2   0  -3   63.66    0.96
   2   0  -3   65.74    0.90
  -2   0   3   65.38    0.89
   1   0  -3  202.42    3.57
   1   0  -3  214.20    3.08
  -1   0   3  207.76    3.63
  -1   0   3  207.83    3.09
   0   0   3    0.22    0.02
   0   0   3    0.22    0.01
  -1   0  -3    0.13    0.02
   1   0   3    0.17    0.02
  -2   0  -3    1.39    0.04
  -2   0  -3    1.42    0.04
   2   0   3    1.44    0.05
  -3   0  -3    5.37    0.10
  -3   0  -3    5.25    0.10
   3   0   3    5.30    0.11
  -4   0  -3    0.80    0.05
   4   0   3    0.83    0.05
   5   0   3    0.22    0.05
   5  -1  -3    0.68    0.06
  -5   1   3    0.63    0.06
   4  -1  -3    0.10    0.03
  -4   1   3    0.07    0.04
   3  -1  -3    0.33    0.04
   3  -1  -3    0.31    0.04
  -3   1   3    0.33    0.04
   2  -1  -3    9.45    0.15
   2  -1  -3    9.38    0.16
  -2   1   3    9.35    0.15
  -2   1   3    9.40    0.13
   1  -1  -3    0.78    0.03
  -1   1   3    0.75    0.03
   0   1   3   -0.10    0.01
  -1  -1  -3    3.61    0.07
  -1  -1  -3    3.77    0.06
  -2  -1  -3   12.17    0.18
  -2  -1  -3   12.15    0.18
   2   1   3   12.15    0.19
  -3  -1  -3    4.25    0.10
  -3  -1  -3    4.26    0.09
   3   1   3    4.29    0.10
  -4  -1  -3    0.30    0.04
  -4  -1  -3    0.25    0.04
   4   1   3    0.28    0.04
   5   1   3    0.06    0.04
   5  -2  -3    0.58    0.05
  -5   2   3    0.36    0.05
   4  -2  -3    1.17    0.06
  -4   2   3    1.22    0.06
   3  -2  -3    0.09    0.03
   3  -2  -3    0.09    0.03
  -3   2   3    0.05    0.03
   2  -2  -3   39.88    0.57
  -2   2   3   39.93    0.55
  -2   2   3   40.48    0.53
   1  -2  -3    2.44    0.05
  -1   2   3    2.45    0.05
   0  -2  -3    2.57    0.05
   0   2   3    2.57    0.04
  -1  -2  -3    0.56    0.03
  -1  -2  -3    0.55    0.02
  -2  -2  -3   15.01    0.22
  -2  -2  -3   14.91    0.21
  -3  -2  -3    0.21    0.03
  -3  -2  -3    0.18    0.04
   3   2   3    0.18    0.03
  -4  -2  -3    0.02    0.03
   5  -3  -3    0.13    0.05
   4  -3  -3    0.29    0.04
  -4   3   3    0.27    0.04
   3  -3  -3    0.32    0.04
   3  -3  -3    0.37    0.04
  -3   3   3    0.33    0.04
   2  -3  -3    0.75    0.04
  -2   3   3    0.76    0.04
   1  -3  -3    0.29    0.01
   1  -3  -3    0.25    0.02
  -1   3   3    0.25    0.02
   0  -3  -3    3.64    0.06
   0   3   3    3.73    0.05
  -1  -3  -3    6.08    0.10
  -1  -3  -3    6.29    0.09
  -2  -3  -3    0.96    0.05
  -2  -3  -3    0.97    0.03
  -3  -3  -3    0.29    0.04
  -4  -3  -3    0.06    0.04
   5  -4  -3    0.14    0.05
   4  -4  -3    1.99    0.08
  -4   4   3    1.99    0.07
   3  -4  -3    0.87    0.06
  -3   4   3    0.88    0.05
   2  -4  -3    3.52    0.08
  -2   4   3    3.67    0.08
   1  -4  -3   31.70    0.45
   1  -4  -3   31.75    0.44
  -1   4   3   31.81    0.43
   0  -4  -3    3.35    0.06
   0   4   3    3.38    0.05
  -1  -4  -3    0.07    0.02
  -2  -4  -3    0.86    0.05
  -2  -4  -3    0.97    0.03
  -3  -4  -3    0.20    0.04
  -4  -4  -3    4.65    0.12
   4  -5  -3    0.00    0.04
  -4   5   3   -0.01    0.04
   3  -5  -3   -0.01    0.03
  -3   5   3    0.00    0.03
   2  -5  -3    1.28    0.06
  -2   5   3    1.22    0.05
   1  -5  -3   23.52    0.35
   1  -5  -3   24.42    0.33
  -1   5   3   24.15    0.33
   0  -5  -3    0.16    0.02
   0   5   3    0.16    0.01
  -1  -5  -3    0.02    0.02
  -2  -5  -3    1.38    0.06
  -3  -5  -3    1.07    0.06
  -4  -5  -3    1.05    0.07
   4  -6  -3    0.26    0.05
  -4   6   3    0.29    0.04
   3  -6  -3    0.07    0.03
  -3   6   3    0.05    0.03
   2  -6  -3    1.74    0.06
  -2   6   3    1.65    0.06
   1  -6  -3    7.12    0.13
   1  -6  -3    7.13    0.11
  -1   6   3    7.05    0.11
   0  -6  -3    0.35    0.03
   0  -6  -3    0.29    0.03
   0   6   3    0.35    0.02
  -1  -6  -3    0.32    0.03
  -2  -6  -3    1.29    0.06
  -3  -6  -3   12.24    0.21
  -4  -6  -3    4.58    0.12
   4  -7  -3    0.20    0.05
  -4   7   3    0.06    0.04
   3  -7  -3    4.38    0.11
  -3   7   3    4.50    0.10
   2  -7  -3    4.43    0.11
  -2   7   3    4.48    0.09
   1  -7  -3    0.19    0.03
   1  -7  -3    0.17    0.02
  -1   7   3    0.17    0.02
   0  -7  -3    0.28    0.03
   0  -7  -3    0.25    0.03
  -1  -7  -3    0.09    0.03
  -2  -7  -3    2.55    0.08
  -3  -7  -3    4.72    0.11
  -4  -7  -3    0.34    0.06
   4  -8  -3    0.40    0.06
  -4   8   3    0.42    0.05
   3  -8  -3    3.69    0.10
  -3   8   3    3.56    0.09
   2  -8  -3    0.18    0.04
  -2   8   3    0.16    0.03
   1  -8  -3    0.39    0.04
   1  -8  -3    0.35    0.03
   0  -8  -3    0.52    0.04
   0  -8  -3    0.52    0.04
  -1  -8  -3    0.01    0.03
  -2  -8  -3    2.19    0.07
  -3  -8  -3    8.93    0.18
   4  -9  -3    3.73    0.12
  -4   9   3    3.87    0.11
   3  -9  -3    0.35    0.05
  -3   9   3    0.37    0.04
   2  -9  -3    0.12    0.04
  -2   9   3    0.01    0.03
   1  -9  -3    0.95    0.06
   0  -9  -3    0.26    0.04
   0  -9  -3    0.27    0.04
  -1  -9  -3    0.01    0.04
  -2  -9  -3    2.66    0.08
  -3  -9  -3    0.20    0.05
  -4  10   3    1.93    0.08
   3 -10  -3    0.12    0.04
  -3  10   3    0.16    0.04
   2 -10  -3    0.47    0.05
   1 -10  -3    0.22    0.04
   0 -10  -3    0.10    0.03
   0 -10  -3    0.07    0.03
  -1 -10  -3   -0.02    0.03
  -2 -10  -3    1.40    0.07
  -3 -10  -3    0.28    0.05
   3 -11  -3    0.12    0.05
   2 -11  -3    0.03    0.04
   1 -11  -3    0.02    0.04
   0 -11  -3    0.19    0.04
   0 -11  -3    0.21    0.04
  -1 -11  -3   -0.07    0.04
  -1 -11  -3    0.07    0.03
  -2 -11  -3    0.14    0.04
   3 -12  -3    0.07    0.05
   2 -12  -3   -0.06    0.04
   1 -12  -3    0.00    0.04
   0 -12  -3    0.44    0.05
   0 -12  -3    0.42    0.05
  -1 -12  -3    0.01    0.03
  -1 -12  -3    0.05    0.04
  -2 -12  -3   -0.19    0.05
   2 -13  -3    0.04    0.05
   1 -13  -3    0.46    0.05
   0 -13  -3    0.28    0.05
  -1 -13  -3    0.00    0.04
   1 -14  -3    0.92    0.07
   0 -14  -3    0.09    0.05
  -1 -14  -3    0.05    0.05
   0 -15   4    0.63    0.06
  -1 -14   4    0.80    0.06
   0 -14   4    3.37    0.10
  -2 -13   4    0.03    0.04
  -1 -13   4    0.38    0.05
   0 -13   4    0.43    0.05
   1 -13   4    1.67    0.07
  -3  13  -4    0.14    0.05
   3 -13   4    0.08    0.05
  -2 -12   4    0.55    0.05
  -1 -12   4    0.41    0.05
   0 -12   4    0.48    0.05
   1 -12   4   29.57    0.43
  -2  12  -4    0.51    0.05
   2 -12   4    0.59    0.05
  -3  12  -4    0.45    0.05
   3 -12   4    0.42    0.05
  -3 -11   4    0.06    0.04
  -2 -11   4    0.20    0.04
  -1 -11   4    0.29    0.04
   0 -11   4    4.65    0.11
  -1  11  -4    0.06    0.03
   1 -11   4    0.06    0.03
   1 -11   4    0.02    0.03
  -2  11  -4    0.25    0.04
   2 -11   4    0.24    0.04
  -3  11  -4    0.38    0.05
   3 -11   4    0.39    0.05
  -3 -10   4    1.26    0.08
  -2 -10   4    0.02    0.03
  -1 -10   4    1.07    0.06
   0 -10   4   70.47    0.96
  -1  10  -4   22.54    0.32
   1 -10   4   22.49    0.34
   1 -10   4   21.77    0.33
  -2  10  -4    0.12    0.03
   2 -10   4    0.09    0.03
  -3  10  -4    0.04    0.04
   3 -10   4    0.00    0.04
  -4  10  -4    0.36    0.05
   4 -10   4    0.41    0.05
  -4  -9   4    0.01    0.05
  -3  -9   4    0.05    0.04
  -2  -9   4    0.57    0.05
  -1  -9   4    5.20    0.11
   0   9  -4    3.53    0.07
   0  -9   4    3.59    0.08
   0  -9   4    3.40    0.09
  -1   9  -4    7.79    0.13
   1  -9   4    8.01    0.14
   1  -9   4    7.72    0.14
  -2   9  -4    0.59    0.04
   2  -9   4    0.65    0.04
   2  -9   4    0.61    0.05
  -3   9  -4    1.01    0.06
   3  -9   4    1.09    0.06
  -4   9  -4    0.76    0.06
   4  -9   4    0.60    0.06
  -4  -8   4    0.71    0.06
  -3  -8   4   -0.01    0.04
  -2  -8   4    3.05    0.08
   1   8  -4   28.75    0.38
  -1  -8   4   27.04    0.40
   0   8  -4   36.22    0.49
   0  -8   4   36.03    0.51
   0  -8   4   36.55    0.51
  -1   8  -4    0.55    0.04
   1  -8   4    0.61    0.04
   1  -8   4    0.58    0.04
  -2   8  -4    0.19    0.03
   2  -8   4    0.21    0.03
   2  -8   4    0.14    0.03
  -3   8  -4    0.57    0.05
   3  -8   4    0.66    0.05
  -4   8  -4    0.66    0.06
   4  -8   4    0.61    0.06
  -3  -7   4    0.72    0.06
  -2  -7   4    1.65    0.06
  -2  -7   4    1.58    0.05
  -1  -7   4    0.04    0.02
  -1  -7   4    0.02    0.02
   0   7  -4   19.20    0.27
   0  -7   4   18.97    0.28
   0  -7   4   19.28    0.28
  -1   7  -4    0.10    0.02
   1  -7   4    0.08    0.02
   1  -7   4    0.08    0.02
  -2   7  -4   11.63    0.19
   2  -7   4   11.55    0.18
   2  -7   4   11.27    0.19
  -3   7  -4    0.30    0.04
   3  -7   4    0.23    0.04
  -4   7  -4    0.03    0.04
   4  -7   4    0.04    0.04
  -3  -6   4    0.28    0.03
  -3  -6   4    0.32    0.04
  -2  -6   4    3.52    0.09
  -2  -6   4    3.47    0.07
  -1  -6   4   16.06    0.24
  -1  -6   4   15.75    0.23
   0   6  -4   19.23    0.27
   0  -6   4   19.35    0.28
   0  -6   4   19.73    0.28
  -1   6  -4    1.85    0.05
   1  -6   4    1.72    0.05
   1  -6   4    1.73    0.05
  -2   6  -4    6.18    0.12
   2  -6   4    6.31    0.11
   2  -6   4    6.15    0.12
  -3   6  -4    0.01    0.03
   3  -6   4    0.01    0.03
  -4   6  -4    0.04    0.04
   4  -6   4    0.01    0.03
   4   5  -4    0.09    0.05
   3   5  -4    2.80    0.09
  -3  -5   4    2.96    0.08
  -3  -5   4    2.92    0.07
   2   5  -4    1.21    0.07
  -2  -5   4    1.19    0.04
  -2  -5   4    1.20    0.05
   1   5  -4    3.37    0.08
  -1  -5   4    3.33    0.07
  -1  -5   4    3.36    0.06
   0   5  -4    2.00    0.05
   0  -5   4    2.17    0.04
  -1   5  -4  142.13    1.96
   1  -5   4  145.93    1.98
   1  -5   4  142.51    2.04
  -2   5  -4    0.52    0.04
   2  -5   4    0.51    0.03
   2  -5   4    0.56    0.04
  -3   5  -4    0.01    0.03
   3  -5   4    0.06    0.03
  -4   5  -4   -0.01    0.04
   4  -5   4    0.01    0.03
   4   4  -4   -0.04    0.05
  -4  -4   4    0.03    0.03
   3   4  -4    3.98    0.10
  -3  -4   4    4.05    0.09
  -3  -4   4    3.99    0.09
   2   4  -4    4.31    0.10
  -2  -4   4    4.18    0.09
  -2  -4   4    4.25    0.08
   1   4  -4   22.08    0.34
  -1  -4   4   21.45    0.30
  -1  -4   4   21.73    0.31
   0   4  -4    3.82    0.07
   0  -4   4    3.87    0.07
   0  -4   4    3.90    0.06
  -1   4  -4    8.64    0.13
   1  -4   4    8.47    0.14
   1  -4   4    8.58    0.13
  -2   4  -4    0.39    0.03
   2  -4   4    0.41    0.03
   2  -4   4    0.36    0.03
  -3   4  -4    0.05    0.03
   3  -4   4    0.02    0.03
  -4   4  -4    0.17    0.04
   4  -4   4    0.20    0.04
   4   3  -4    5.30    0.13
  -4  -3   4    4.99    0.11
   3   3  -4    1.79    0.06
   3   3  -4    1.75    0.08
  -3  -3   4    1.81    0.06
  -3  -3   4    1.84    0.06
   2   3  -4    0.62    0.04
   2   3  -4    0.64    0.03
  -2  -3   4    0.67    0.04
  -2  -3   4    0.70    0.04
   1   3  -4   35.65    0.53
  -1  -3   4   35.83    0.48
  -1  -3   4   35.52    0.49
   0   3  -4  345.37    5.91
   0  -3   4  339.81    5.01
  -1   3  -4    1.91    0.05
   1  -3   4    1.88    0.05
   1  -3   4    1.80    0.04
  -2   3  -4    0.28    0.03
   2  -3   4    0.28    0.02
   2  -3   4    0.25    0.03
  -3   3  -4    0.06    0.03
  -3   3  -4    0.06    0.03
   3  -3   4    0.08    0.03
  -4   3  -4    0.13    0.04
   4  -3   4    0.15    0.04
  -5   3  -4    3.54    0.11
  -5  -2   4    0.02    0.04
   4   2  -4    3.14    0.10
  -4  -2   4    3.07    0.09
   3   2  -4    1.09    0.07
   3   2  -4    1.16    0.05
  -3  -2   4    1.13    0.05
   2   2  -4    9.44    0.14
   2   2  -4    9.11    0.16
  -2  -2   4    9.10    0.14
  -2  -2   4    9.11    0.14
   1   2  -4    6.31    0.09
   1   2  -4    6.20    0.11
  -1  -2   4    6.17    0.10
  -1  -2   4    6.20    0.10
   0   2  -4    0.54    0.03
   0  -2   4    0.52    0.03
   0  -2   4    0.69    0.03
  -1   2  -4    0.36    0.03
   1  -2   4    0.27    0.02
   1  -2   4    0.32    0.02
  -2   2  -4    0.21    0.03
   2  -2   4    0.18    0.02
   2  -2   4    0.15    0.02
   2  -2   4    0.20    0.01
  -3   2  -4    0.11    0.03
  -3   2  -4    0.11    0.03
   3  -2   4    0.11    0.03
  -4   2  -4    0.25    0.04
   4  -2   4    0.19    0.04
  -5   2  -4    1.41    0.08
  -5  -1   4    2.30    0.08
   4   1  -4    3.22    0.10
   4   1  -4    3.20    0.09
  -4  -1   4    2.93    0.08
   3   1  -4    0.11    0.03
   3   1  -4    0.07    0.04
  -3  -1   4    0.11    0.03
   2   1  -4   83.22    1.24
   2   1  -4   83.45    1.18
  -2  -1   4   83.25    1.17
  -2  -1   4   80.66    1.14
   1   1  -4   17.32    0.27
   1   1  -4   17.67    0.25
  -1  -1   4   17.58    0.25
  -1  -1   4   18.06    0.24
   0   1  -4    2.75    0.05
   0  -1   4    2.78    0.05
   0  -1   4    2.77    0.05
  -1   1  -4   11.00    0.16
   1  -1   4   11.29    0.17
  -2   1  -4    5.30    0.09
  -2   1  -4    5.09    0.09
   2  -1   4    5.16    0.10
  -3   1  -4    3.59    0.08
  -3   1  -4    3.52    0.08
   3  -1   4    3.62    0.09
  -4   1  -4    2.84    0.08
   4  -1   4    2.68    0.08
  -5   1  -4    0.31    0.05
  -5   0   4    0.92    0.06
   4   0  -4    0.39    0.04
   4   0  -4    0.34    0.05
  -4   0   4    0.43    0.05
   3   0  -4    3.44    0.08
   3   0  -4    3.52    0.09
  -3   0   4    3.36    0.08
   2   0  -4    1.17    0.05
   2   0  -4    1.23    0.04
  -2   0   4    1.26    0.05
  -2   0   4    1.14    0.03
   1   0  -4    1.75    0.05
   1   0  -4    1.91    0.04
  -1   0   4    1.93    0.03
   0   0   4    0.06    0.02
   0   0   4    0.01    0.01
  -1   0  -4    9.53    0.14
   1   0   4    9.50    0.15
   1   0   4    9.86    0.14
  -2   0  -4    1.87    0.05
  -2   0  -4    2.09    0.05
   2   0   4    1.95    0.05
  -3   0  -4    1.05    0.05
  -3   0  -4    1.02    0.05
   3   0   4    0.97    0.05
  -4   0  -4    1.63    0.06
   4   0   4    1.48    0.07
  -5   1   4    0.78    0.06
   4  -1  -4    0.99    0.06
   4  -1  -4    1.02    0.07
  -4   1   4    0.93    0.06
   3  -1  -4    2.05    0.07
   3  -1  -4    1.92    0.07
  -3   1   4    1.96    0.06
   2  -1  -4    0.83    0.05
   2  -1  -4    0.92    0.04
  -2   1   4    0.91    0.04
  -2   1   4    0.93    0.02
   1  -1  -4    3.48    0.07
  -1   1   4    3.58    0.05
  -1   1   4    3.44    0.06
   0   1   4   32.23    0.45
   0   1   4   33.34    0.45
  -1  -1  -4   13.84    0.20
  -1  -1  -4   14.13    0.19
  -2  -1  -4   27.39    0.37
  -2  -1  -4   26.75    0.38
   2   1   4   27.70    0.40
  -3  -1  -4    0.60    0.04
  -3  -1  -4    0.57    0.04
   3   1   4    0.61    0.05
  -4  -1  -4    0.05    0.04
  -4  -1  -4    0.08    0.03
   4   1   4   -0.01    0.03
   5  -2  -4    0.16    0.04
   4  -2  -4    0.19    0.04
  -4   2   4    0.22    0.04
   3  -2  -4    2.23    0.07
   3  -2  -4    2.29    0.08
  -3   2   4    2.29    0.07
   2  -2  -4    2.04    0.06
  -2   2   4    2.11    0.06
   1  -2  -4    1.04    0.04
   1  -2  -4    1.08    0.02
  -1   2   4    1.14    0.04
   0  -2  -4    8.86    0.13
  -1  -2  -4    5.89    0.09
  -1  -2  -4    5.87    0.10
  -2  -2  -4    0.14    0.03
  -2  -2  -4    0.17    0.02
  -3  -2  -4    1.18    0.05
  -3  -2  -4    1.12    0.06
  -4  -2  -4    0.24    0.04
   5  -3  -4    0.53    0.06
   4  -3  -4    2.34    0.08
  -4   3   4    2.32    0.08
   3  -3  -4    2.06    0.07
   3  -3  -4    2.26    0.07
  -3   3   4    2.12    0.07
   2  -3  -4    1.99    0.06
  -2   3   4    1.94    0.06
   1  -3  -4    0.13    0.01
   1  -3  -4    0.15    0.02
  -1   3   4    0.11    0.02
   0  -3  -4   11.24    0.16
   0   3   4   11.48    0.15
  -1  -3  -4    6.08    0.11
  -1  -3  -4    6.20    0.09
  -2  -3  -4    0.04    0.03
  -2  -3  -4    0.05    0.02
  -3  -3  -4   -0.03    0.03
  -4  -3  -4    0.58    0.05
   4  -4  -4    2.29    0.08
  -4   4   4    2.16    0.08
   3  -4  -4    0.03    0.03
  -3   4   4   -0.01    0.03
   2  -4  -4    0.11    0.03
  -2   4   4    0.10    0.03
   1  -4  -4   10.82    0.17
   1  -4  -4   11.36    0.15
  -1   4   4   10.85    0.16
   0  -4  -4    1.37    0.04
   0   4   4    1.39    0.03
  -1  -4  -4    3.54    0.07
  -2  -4  -4    0.15    0.03
  -3  -4  -4   -0.03    0.03
  -4  -4  -4    0.40    0.05
   4  -5  -4    1.54    0.07
  -4   5   4    1.48    0.07
   3  -5  -4    0.29    0.04
  -3   5   4    0.32    0.04
   2  -5  -4    0.69    0.05
  -2   5   4    0.64    0.04
   1  -5  -4   15.21    0.24
   1  -5  -4   15.51    0.21
  -1   5   4   15.37    0.22
   0  -5  -4    1.74    0.05
   0   5   4    1.94    0.03
  -1  -5  -4    4.34    0.09
  -2  -5  -4    0.73    0.05
  -3  -5  -4    0.23    0.04
  -4  -5  -4    0.24    0.05
   4  -6  -4    0.09    0.04
  -4   6   4    0.09    0.04
   3  -6  -4    2.73    0.09
  -3   6   4    2.80    0.08
   2  -6  -4    9.52    0.17
  -2   6   4    9.47    0.16
   1  -6  -4    0.71    0.04
   1  -6  -4    0.78    0.03
  -1   6   4    0.73    0.03
   0  -6  -4    3.75    0.08
   0  -6  -4    3.58    0.08
  -1  -6  -4    0.71    0.05
  -2  -6  -4    1.11    0.06
  -3  -6  -4    5.81    0.13
  -4  -6  -4    0.20    0.05
   4  -7  -4   -0.01    0.04
  -4   7   4    0.05    0.04
   3  -7  -4    0.90    0.06
  -3   7   4    0.80    0.05
   2  -7  -4    1.77    0.07
  -2   7   4    1.87    0.06
   1  -7  -4    0.89    0.05
   1  -7  -4    0.95    0.04
  -1   7   4    0.88    0.04
   0  -7  -4    1.05    0.05
  -2  -7  -4    0.32    0.04
  -3  -7  -4    5.98    0.13
  -4  -7  -4    0.09    0.05
   4  -8  -4    5.94    0.15
  -4   8   4    5.87    0.14
   3  -8  -4    0.03    0.04
  -3   8   4   -0.06    0.03
   2  -8  -4    0.47    0.05
  -2   8   4    0.52    0.04
   1  -8  -4    0.09    0.03
   0  -8  -4    0.21    0.03
   0  -8  -4    0.22    0.03
  -1  -8  -4    0.42    0.04
  -2  -8  -4    4.53    0.11
  -3  -8  -4    0.03    0.04
   4  -9  -4    0.62    0.06
  -4   9   4    0.70    0.06
   3  -9  -4   -0.05    0.04
  -3   9   4    0.06    0.03
   2  -9  -4   -0.03    0.03
   1  -9  -4    0.06    0.03
  -1  -9  -4    6.42    0.13
  -2  -9  -4    4.16    0.11
  -3  -9  -4    0.06    0.04
  -4  10   4    0.73    0.06
   3 -10  -4    0.15    0.05
   2 -10  -4    0.11    0.04
   1 -10  -4    0.15    0.04
   0 -10  -4    5.62    0.12
   0 -10  -4    5.64    0.12
  -1 -10  -4    0.31    0.04
  -2 -10  -4    0.37    0.05
  -3 -10  -4    0.19    0.05
   3 -11  -4    0.00    0.04
   2 -11  -4    0.01    0.04
   1 -11  -4    0.17    0.04
   0 -11  -4    2.98    0.09
   0 -11  -4    2.98    0.09
  -1 -11  -4    1.56    0.07
  -1 -11  -4    1.56    0.07
  -2 -11  -4    0.04    0.04
   2 -12  -4   -0.02    0.04
   1 -12  -4    2.25    0.09
   0 -12  -4    0.59    0.05
   0 -12  -4    0.66    0.05
  -1 -12  -4    0.43    0.05
  -1 -12  -4    0.34    0.05
  -2 -12  -4    0.28    0.05
   2 -13  -4   -0.04    0.04
   1 -13  -4    0.28    0.05
   0 -13  -4    0.40    0.05
  -1 -13  -4    0.15    0.05
   1 -14  -4    0.06    0.05
   0 -14  -4    0.35    0.06
  -1 -14  -4    3.66    0.11
   0 -15   5    0.12    0.05
  -1 -14   5   -0.02    0.04
   0 -14   5    0.15    0.04
   1 -14   5    0.18    0.04
  -2 -13   5    0.90    0.07
  -1 -13   5    0.11    0.04
   0 -13   5    0.13    0.04
   1 -13   5    3.89    0.10
  -3  13  -5    0.59    0.06
   3 -13   5    0.63    0.06
  -2 -12   5    0.25    0.05
  -1 -12   5    0.00    0.04
   0 -12   5    0.02    0.03
   1 -12   5    0.99    0.05
  -2  12  -5    2.52    0.08
   2 -12   5    2.38    0.08
  -3  12  -5    0.08    0.04
   3 -12   5    0.06    0.04
  -3 -11   5    0.80    0.07
  -2 -11   5    1.49    0.07
  -1 -11   5    0.12    0.04
   0 -11   5    0.01    0.03
  -1  11  -5    1.43    0.06
   1 -11   5    1.40    0.06
  -2  11  -5    0.07    0.04
   2 -11   5    0.11    0.04
  -3  11  -5   -0.03    0.04
   3 -11   5    0.06    0.04
  -3 -10   5    0.17    0.05
  -2 -10   5    0.07    0.04
  -1 -10   5    0.84    0.05
   0  10  -5    0.38    0.03
   0 -10   5    0.42    0.04
  -1  10  -5    0.40    0.04
   1 -10   5    0.37    0.04
   1 -10   5    0.37    0.04
  -2  10  -5    0.28    0.04
   2 -10   5    0.34    0.03
   2 -10   5    0.22    0.04
  -3  10  -5    4.51    0.11
   3 -10   5    4.52    0.12
   4 -10   5    0.50    0.06
  -4  -9   5    0.46    0.06
  -3  -9   5    0.96    0.07
  -2  -9   5    1.78    0.07
  -1  -9   5    2.68    0.08
   0   9  -5    0.02    0.03
   0  -9   5    0.00    0.03
  -1   9  -5    2.44    0.07
   1  -9   5    2.43    0.07
   1  -9   5    2.46    0.07
  -2   9  -5    0.54    0.04
   2  -9   5    0.56    0.04
   2  -9   5    0.50    0.04
  -3   9  -5    0.98    0.06
   3  -9   5    1.06    0.06
  -4   9  -5    0.81    0.06
   4  -9   5    0.95    0.07
  -3  -8   5    0.03    0.04
  -2  -8   5   14.57    0.24
  -1  -8   5    3.49    0.08
   0   8  -5    0.10    0.02
   0  -8   5    0.07    0.03
   0  -8   5    0.06    0.02
  -1   8  -5    0.97    0.05
   1  -8   5    0.88    0.05
   1  -8   5    1.05    0.05
  -2   8  -5   16.98    0.26
   2  -8   5   16.75    0.27
   2  -8   5   17.03    0.25
  -3   8  -5    0.24    0.04
   3  -8   5    0.16    0.04
  -4   8  -5    0.31    0.05
   4  -8   5    0.39    0.05
  -3  -7   5    0.59    0.05
  -2  -7   5   13.85    0.22
  -2  -7   5   14.02    0.21
  -1  -7   5    0.01    0.02
  -1  -7   5    0.05    0.03
   0   7  -5    0.02    0.02
   0  -7   5    0.03    0.02
   0  -7   5    0.06    0.02
  -1   7  -5    1.10    0.05
   1  -7   5    1.14    0.05
   1  -7   5    1.11    0.05
  -2   7  -5   -0.03    0.03
   2  -7   5    0.00    0.02
   2  -7   5    0.02    0.03
  -3   7  -5    0.07    0.03
   3  -7   5    0.04    0.03
  -4   7  -5    0.08    0.04
   4  -7   5    0.17    0.04
   3   6  -5   22.11    0.38
  -3  -6   5   22.31    0.33
  -3  -6   5   22.54    0.34
   2   6  -5   35.54    0.55
  -2  -6   5   35.47    0.50
  -2  -6   5   34.85    0.48
  -1  -6   5    1.58    0.04
  -1  -6   5    1.64    0.06
   0   6  -5    0.02    0.02
   0  -6   5    0.05    0.01
   0  -6   5    0.02    0.02
  -1   6  -5    8.16    0.13
   1  -6   5    8.33    0.13
   1  -6   5    8.25    0.14
  -2   6  -5    0.03    0.03
   2  -6   5    0.01    0.02
   2  -6   5    0.00    0.02
  -3   6  -5    0.65    0.05
   3  -6   5    0.53    0.04
  -4   6  -5    0.03    0.04
   4  -6   5    0.04    0.03
   4   5  -5   -0.07    0.05
   3   5  -5    8.10    0.17
  -3  -5   5    8.60    0.15
  -3  -5   5    8.23    0.15
   2   5  -5    0.46    0.04
  -2  -5   5    0.53    0.04
  -2  -5   5    0.52    0.04
   1   5  -5    0.47    0.04
  -1  -5   5    0.41    0.03
  -1  -5   5    0.49    0.03
   0   5  -5    0.14    0.02
   0  -5   5    0.18    0.01
   0  -5   5    0.13    0.02
  -1   5  -5    1.25    0.04
   1  -5   5    1.28    0.04
   1  -5   5    1.20    0.04
  -2   5  -5    0.05    0.03
   2  -5   5    0.03    0.02
   2  -5   5    0.03    0.02
  -3   5  -5    0.20    0.04
   3  -5   5    0.18    0.03
   3  -5   5    0.18    0.03
  -4   5  -5    0.06    0.04
   4  -5   5    0.00    0.03
   4   4  -5    9.43    0.20
  -4  -4   5    9.08    0.17
   3   4  -5   22.15    0.36
  -3  -4   5   21.68    0.32
  -3  -4   5   21.77    0.32
   2   4  -5    2.92    0.09
   2   4  -5    3.04    0.06
  -2  -4   5    2.98    0.07
  -2  -4   5    2.91    0.07
   1   4  -5   23.75    0.36
  -1  -4   5   23.28    0.32
  -1  -4   5   23.10    0.33
   0   4  -5    0.01    0.01
   0   4  -5    0.02    0.02
   0  -4   5    0.04    0.02
   0  -4   5    0.06    0.01
  -1   4  -5    1.65    0.04
   1  -4   5    1.60    0.04
   1  -4   5    1.59    0.04
  -2   4  -5    3.08    0.07
   2  -4   5    3.13    0.07
   2  -4   5    3.08    0.06
  -3   4  -5    1.18    0.06
   3  -4   5    1.20    0.04
   3  -4   5    1.29    0.06
  -4   4  -5    1.22    0.06
   4  -4   5    1.19    0.06
  -5  -3   5    0.16    0.04
   4   3  -5    1.81    0.08
  -4  -3   5    1.84    0.07
   3   3  -5    0.38    0.05
  -3  -3   5    0.39    0.03
  -3  -3   5    0.40    0.04
   2   3  -5    1.67    0.06
   2   3  -5    1.65    0.04
  -2  -3   5    1.71    0.05
  -2  -3   5    1.61    0.05
   1   3  -5    0.73    0.02
   1   3  -5    0.74    0.04
  -1  -3   5    0.72    0.03
  -1  -3   5    0.71    0.03
   0   3  -5    0.02    0.02
   0  -3   5    0.00    0.01
   0  -3   5    0.00    0.01
   0  -3   5   -0.01    0.01
  -1   3  -5    0.23    0.02
   1  -3   5    0.21    0.02
   1  -3   5    0.21    0.02
  -2   3  -5    2.20    0.06
   2  -3   5    2.25    0.06
   2  -3   5    2.18    0.05
  -3   3  -5    0.08    0.03
  -3   3  -5    0.01    0.03
   3  -3   5   -0.01    0.03
  -4   3  -5    1.54    0.06
   4  -3   5    1.33    0.06
  -5  -2   5    4.06    0.11
   4   2  -5    4.58    0.12
  -4  -2   5    4.52    0.11
   3   2  -5    0.09    0.03
   3   2  -5    0.09    0.04
  -3  -2   5    0.08    0.03
   2   2  -5  121.79    1.79
   2   2  -5  125.53    1.81
  -2  -2   5  119.96    1.65
  -2  -2   5  122.52    1.66
   1   2  -5   25.12    0.39
   1   2  -5   26.37    0.35
  -1  -2   5   25.54    0.35
  -1  -2   5   25.89    0.35
   0   2  -5    0.08    0.02
   0  -2   5    0.06    0.01
   0  -2   5    0.08    0.02
  -1   2  -5    3.19    0.06
   1  -2   5    3.26    0.06
  -2   2  -5    2.03    0.05
   2  -2   5    2.05    0.05
   2  -2   5    2.00    0.06
  -3   2  -5    0.01    0.03
  -3   2  -5    0.01    0.03
   3  -2   5    0.01    0.03
  -4   2  -5    7.51    0.14
   4  -2   5    7.57    0.15
  -5   2  -5    0.45    0.05
   4   1  -5    0.15    0.05
  -4  -1   5    0.14    0.04
   3   1  -5    1.91    0.07
   3   1  -5    2.09    0.07
  -3  -1   5    1.86    0.06
   2   1  -5   24.24    0.35
   2   1  -5   24.54    0.38
  -2  -1   5   24.00    0.33
  -2  -1   5   24.54    0.34
   1   1  -5    3.67    0.08
   1   1  -5    3.95    0.06
  -1  -1   5    3.87    0.07
  -1  -1   5    3.92    0.06
   0   1  -5    0.03    0.02
   0  -1   5    0.03    0.01
   0  -1   5    0.03    0.01
  -1   1  -5    2.03    0.04
   1  -1   5    1.97    0.05
   1  -1   5    2.14    0.05
  -2   1  -5    1.15    0.04
  -2   1  -5    1.22    0.04
   2  -1   5    1.20    0.04
  -3   1  -5    3.73    0.09
  -3   1  -5    3.67    0.08
   3  -1   5    3.71    0.09
  -4   1  -5    0.46    0.04
   4  -1   5    0.49    0.05
   4   0  -5    0.36    0.05
   4   0  -5    0.45    0.04
  -4   0   5    0.35    0.04
   3   0  -5   36.02    0.57
   3   0  -5   36.83    0.53
  -3   0   5   36.81    0.51
   2   0  -5   68.88    0.97
   2   0  -5   69.08    1.02
  -2   0   5   68.40    0.92
  -2   0   5   69.37    0.97
   1   0  -5    4.33    0.07
  -1   0   5    4.23    0.07
  -1   0   5    4.27    0.07
   0   0   5    1.29    0.03
   0   0   5    1.29    0.03
  -1   0  -5    0.01    0.01
   1   0   5    0.01    0.01
  -2   0  -5   11.79    0.18
  -2   0  -5   11.78    0.18
   2   0   5   11.88    0.19
  -3   0  -5    0.01    0.03
  -3   0  -5   -0.01    0.03
   3   0   5    0.01    0.03
  -4   0  -5    0.12    0.04
  -4   0  -5    0.24    0.04
   4   0   5    0.19    0.04
   4  -1  -5    0.06    0.03
   4  -1  -5   -0.03    0.04
  -4   1   5    0.00    0.03
   3  -1  -5   11.07    0.20
   3  -1  -5   11.08    0.19
  -3   1   5   11.18    0.19
   2  -1  -5   11.19    0.19
   2  -1  -5   10.91    0.18
  -2   1   5   11.22    0.17
   1  -1  -5    3.01    0.06
  -1   1   5    2.99    0.06
  -1   1   5    3.12    0.05
   0   1   5    0.53    0.02
   0   1   5    0.49    0.02
  -1  -1  -5    9.63    0.14
  -1  -1  -5    9.68    0.15
  -2  -1  -5    0.74    0.04
  -2  -1  -5    0.75    0.03
  -3  -1  -5    2.89    0.08
  -3  -1  -5    2.95    0.07
   3   1   5    2.96    0.08
  -4  -1  -5    0.04    0.04
   4   1   5    0.07    0.03
   4  -2  -5    1.41    0.07
   4  -2  -5    1.45    0.07
  -4   2   5    1.44    0.06
   3  -2  -5   11.85    0.21
   3  -2  -5   11.98    0.20
  -3   2   5   12.19    0.20
   2  -2  -5    0.30    0.03
  -2   2   5    0.29    0.03
   1  -2  -5    5.35    0.09
   1  -2  -5    5.38    0.08
  -1   2   5    5.40    0.09
   0  -2  -5    0.09    0.02
   0   2   5    0.09    0.01
  -1  -2  -5    6.42    0.09
  -1  -2  -5    6.47    0.11
  -2  -2  -5    6.46    0.12
  -2  -2  -5    6.63    0.11
  -3  -2  -5    0.04    0.03
  -3  -2  -5    0.02    0.02
  -4  -2  -5   -0.03    0.04
   5  -3  -5    0.31    0.05
   4  -3  -5    0.64    0.05
   4  -3  -5    0.69    0.05
  -4   3   5    0.61    0.05
   3  -3  -5    1.27    0.07
   3  -3  -5    1.35    0.06
  -3   3   5    1.27    0.06
   2  -3  -5    6.09    0.12
  -2   3   5    6.35    0.11
   1  -3  -5    5.48    0.10
   1  -3  -5    5.66    0.08
  -1   3   5    5.49    0.09
   0  -3  -5   11.07    0.16
   0   3   5   11.31    0.15
  -1  -3  -5    0.01    0.02
  -1  -3  -5    0.01    0.01
  -2  -3  -5    2.58    0.07
  -2  -3  -5    2.63    0.05
  -3  -3  -5    0.05    0.04
  -4  -3  -5    0.17    0.04
   4  -4  -5    1.45    0.08
   4  -4  -5    1.42    0.07
  -4   4   5    1.28    0.06
   3  -4  -5    0.72    0.05
  -3   4   5    0.67    0.05
   2  -4  -5    0.62    0.04
  -2   4   5    0.48    0.03
   1  -4  -5    4.07    0.06
   1  -4  -5    3.92    0.08
  -1   4   5    3.98    0.07
   0  -4  -5    0.15    0.02
   0   4   5    0.13    0.01
  -1  -4  -5    0.22    0.03
  -1  -4  -5    0.27    0.01
  -2  -4  -5    0.03    0.03
  -3  -4  -5    2.37    0.08
  -4  -4  -5    0.44    0.05
   4  -5  -5    0.39    0.05
  -4   5   5    0.28    0.04
   3  -5  -5   -0.03    0.03
  -3   5   5    0.06    0.03
   2  -5  -5   14.32    0.23
  -2   5   5   14.49    0.22
   1  -5  -5    7.34    0.13
   1  -5  -5    7.43    0.11
  -1   5   5    7.44    0.12
   0  -5  -5    0.24    0.02
   0   5   5    0.28    0.02
  -1  -5  -5    0.05    0.03
  -2  -5  -5    1.65    0.06
  -3  -5  -5    3.78    0.10
  -4  -5  -5   -0.06    0.04
   4  -6  -5    0.08    0.04
  -4   6   5    0.08    0.04
   3  -6  -5    0.73    0.06
  -3   6   5    0.68    0.05
   2  -6  -5    0.73    0.06
  -2   6   5    0.76    0.05
   1  -6  -5    0.55    0.05
   1  -6  -5    0.49    0.03
  -1   6   5    0.55    0.03
   0  -6  -5    0.01    0.02
  -1  -6  -5    0.01    0.03
  -2  -6  -5    2.55    0.08
  -3  -6  -5    0.25    0.05
  -4  -6  -5    0.27    0.05
   4  -7  -5    3.63    0.11
  -4   7   5    3.49    0.10
   3  -7  -5    1.07    0.06
  -3   7   5    1.12    0.06
   2  -7  -5    2.20    0.08
  -2   7   5    2.21    0.06
   1  -7  -5    0.59    0.05
  -1   7   5    0.59    0.03
   0  -7  -5    1.70    0.06
   0  -7  -5    1.69    0.06
  -1  -7  -5    0.13    0.04
  -2  -7  -5   12.60    0.21
  -3  -7  -5    1.03    0.07
   4  -8  -5    0.30    0.06
  -4   8   5    0.31    0.05
   3  -8  -5    0.16    0.05
  -3   8   5    0.16    0.04
   2  -8  -5    0.01    0.03
  -2   8   5    0.01    0.03
   1  -8  -5    0.03    0.03
   0  -8  -5    0.21    0.03
   0  -8  -5    0.15    0.03
  -1  -8  -5   -0.01    0.03
  -2  -8  -5    0.30    0.04
  -3  -8  -5    0.68    0.06
  -4   9   5    0.76    0.06
   3  -9  -5    1.66    0.08
  -3   9   5    1.84    0.07
   2  -9  -5    0.01    0.04
   1  -9  -5    3.67    0.10
   0  -9  -5    3.36    0.09
   0  -9  -5    3.23    0.09
  -1  -9  -5    0.00    0.04
  -2  -9  -5    0.88    0.07
  -3  -9  -5    0.19    0.05
   3 -10  -5    0.04    0.04
   2 -10  -5   -0.01    0.04
   1 -10  -5    0.88    0.06
   0 -10  -5    0.37    0.04
   0 -10  -5    0.35    0.04
  -1 -10  -5    0.01    0.04
  -2 -10  -5    0.21    0.04
   3 -11  -5   -0.04    0.04
   2 -11  -5    1.63    0.08
   1 -11  -5    2.23    0.08
   0 -11  -5    3.69    0.10
   0 -11  -5    3.87    0.10
  -1 -11  -5   -0.02    0.04
  -1 -11  -5    0.03    0.03
  -2 -11  -5    0.68    0.06
   2 -12  -5    0.11    0.05
   1 -12  -5    1.53    0.08
   0 -12  -5    0.02    0.04
  -1 -12  -5    0.04    0.04
  -1 -12  -5   -0.13    0.04
  -2 -12  -5    0.35    0.06
   2 -13  -5    0.04    0.05
   1 -13  -5    0.85    0.07
   0 -13  -5    0.15    0.05
  -1 -13  -5    0.28    0.05
  -1 -13  -5    0.22    0.05
   1 -14  -5    0.54    0.07
   0 -14  -5    0.62    0.06
   0 -15   6    2.66    0.09
   1 -15   6    2.49    0.09
  -1 -14   6    2.92    0.10
   0 -14   6    0.61    0.05
   1 -14   6    5.90    0.13
  -2 -13   6    0.46    0.06
  -1 -13   6    4.35    0.12
   0 -13   6   11.75    0.21
   1 -13   6    1.54    0.06
  -2  13  -6    0.28    0.04
  -3  13  -6    0.06    0.05
  -2 -12   6    0.61    0.06
  -1 -12   6    0.15    0.04
   0 -12   6   21.88    0.34
   1 -12   6    0.94    0.06
  -2  12  -6    0.21    0.04
  -3  12  -6    0.07    0.04
   3 -12   6    0.05    0.04
  -3 -11   6    0.39    0.06
  -2 -11   6    2.32    0.09
  -1 -11   6   26.97    0.41
   0 -11   6   33.77    0.49
  -1  11  -6    4.90    0.10
   1 -11   6    4.96    0.11
  -2  11  -6   -0.02    0.03
   2 -11   6    0.03    0.03
   2 -11   6    0.00    0.03
  -3  11  -6    3.84    0.10
   3 -11   6    3.69    0.11
  -3 -10   6    0.10    0.04
  -2 -10   6    0.76    0.06
  -1 -10   6   22.45    0.34
   0  10  -6    1.52    0.05
   0 -10   6    1.52    0.06
  -1  10  -6    0.04    0.03
   1 -10   6   -0.01    0.03
  -2  10  -6    0.19    0.04
   2 -10   6    0.21    0.04
   2 -10   6    0.19    0.03
  -3  10  -6   -0.04    0.04
   3 -10   6   -0.01    0.03
   4 -10   6    0.74    0.06
  -3  -9   6    1.72    0.08
  -2  -9   6   13.78    0.23
   1   9  -6   57.22    0.76
  -1  -9   6   56.22    0.79
   0   9  -6   19.01    0.27
   0  -9   6   18.75    0.29
  -1   9  -6    0.07    0.03
   1  -9   6    0.06    0.03
   1  -9   6    0.04    0.03
  -2   9  -6    5.25    0.11
   2  -9   6    5.33    0.10
   2  -9   6    5.32    0.11
  -3   9  -6    4.25    0.11
   3  -9   6    4.34    0.11
  -4   9  -6    0.50    0.06
   4  -9   6    0.49    0.05
  -3  -8   6    0.54    0.05
  -2  -8   6    7.81    0.13
  -2  -8   6    7.50    0.14
  -1  -8   6   -0.04    0.02
  -1  -8   6    0.01    0.03
   0   8  -6    2.01    0.06
   0  -8   6    1.97    0.06
  -1   8  -6    4.76    0.09
   1  -8   6    4.92    0.10
   1  -8   6    4.83    0.10
  -2   8  -6    0.10    0.03
   2  -8   6    0.10    0.03
   2  -8   6    0.13    0.03
  -3   8  -6    0.23    0.04
   3  -8   6    0.17    0.04
  -4   8  -6    0.11    0.04
   4  -8   6    0.10    0.04
  -3  -7   6    3.24    0.09
  -2  -7   6   15.18    0.24
  -2  -7   6   15.63    0.23
  -1  -7   6    9.59    0.16
  -1  -7   6    9.36    0.15
   0   7  -6    6.66    0.11
   0  -7   6    6.83    0.11
   0  -7   6    6.63    0.12
  -1   7  -6   25.36    0.36
   1  -7   6   25.11    0.36
   1  -7   6   25.23    0.37
   2  -7   6    2.56    0.07
   2  -7   6    2.51    0.06
  -3   7  -6    0.69    0.05
   3  -7   6    0.63    0.05
  -4   7  -6    0.85    0.06
   4  -7   6    0.90    0.06
   4   6  -6    0.19    0.06
   3   6  -6    1.78    0.08
  -3  -6   6    1.71    0.06
  -3  -6   6    1.73    0.07
   2   6  -6    0.20    0.05
  -2  -6   6    0.21    0.03
  -2  -6   6    0.20    0.03
   1   6  -6    9.00    0.16
  -1  -6   6    9.11    0.14
  -1  -6   6    8.81    0.15
   0   6  -6   31.84    0.44
   0  -6   6   32.14    0.44
   0  -6   6   31.86    0.45
  -1   6  -6    0.39    0.03
   1  -6   6    0.32    0.03
   1  -6   6    0.41    0.03
  -2   6  -6    0.04    0.03
   2  -6   6    0.03    0.02
   2  -6   6    0.00    0.02
  -3   6  -6    0.02    0.03
   3  -6   6    0.03    0.03
   3  -6   6    0.07    0.02
  -4   6  -6    0.16    0.04
   4  -6   6    0.18    0.04
   4   5  -6    3.58    0.12
  -4  -5   6    3.50    0.10
   3   5  -6    2.62    0.09
  -3  -5   6    2.66    0.08
  -3  -5   6    2.54    0.07
   2   5  -6    0.84    0.06
  -2  -5   6    0.84    0.04
  -2  -5   6    0.91    0.05
   1   5  -6   10.57    0.19
  -1  -5   6   10.79    0.16
  -1  -5   6   10.49    0.17
   0   5  -6  108.32    1.48
   0  -5   6  106.77    1.48
   0  -5   6  108.15    1.49
  -1   5  -6   11.59    0.17
   1  -5   6   11.45    0.18
   1  -5   6   11.48    0.17
  -2   5  -6    0.79    0.05
   2  -5   6    0.69    0.03
   2  -5   6    0.67    0.04
  -3   5  -6    0.16    0.03
   3  -5   6    0.16    0.03
   3  -5   6    0.14    0.03
  -4   5  -6    0.04    0.04
   4  -5   6   -0.01    0.03
   4   4  -6    0.03    0.05
  -4  -4   6    0.12    0.04
   3   4  -6    0.13    0.05
  -3  -4   6    0.15    0.03
  -3  -4   6    0.19    0.03
   2   4  -6   12.04    0.21
  -2  -4   6   11.71    0.18
  -2  -4   6   11.68    0.18
   1   4  -6   56.62    0.84
  -1  -4   6   57.06    0.77
  -1  -4   6   56.52    0.77
   0   4  -6    7.17    0.12
   0  -4   6    7.37    0.12
   0  -4   6    7.38    0.11
  -1   4  -6    1.17    0.04
   1  -4   6    1.04    0.04
   1  -4   6    1.04    0.04
  -2   4  -6    0.25    0.03
   2  -4   6    0.27    0.03
   2  -4   6    0.27    0.02
  -3   4  -6    0.57    0.05
   3  -4   6    0.53    0.04
   3  -4   6    0.60    0.05
  -4   4  -6    0.81    0.06
   4  -4   6    0.87    0.06
   4   3  -6    3.19    0.11
  -4  -3   6    3.08    0.09
   3   3  -6    0.41    0.05
  -3  -3   6    0.62    0.05
   2   3  -6    6.07    0.13
   2   3  -6    6.23    0.10
  -2  -3   6    5.93    0.10
  -2  -3   6    5.90    0.11
   1   3  -6   81.19    1.25
  -1  -3   6   83.07    1.13
  -1  -3   6   83.98    1.12
   0   3  -6    7.35    0.12
   0  -3   6    7.28    0.11
   0  -3   6    7.27    0.11
  -1   3  -6    5.20    0.09
   1  -3   6    5.18    0.09
   1  -3   6    5.16    0.09
  -2   3  -6    0.04    0.02
   2  -3   6    0.00    0.02
   2  -3   6   -0.01    0.02
  -3   3  -6    0.76    0.05
  -3   3  -6    0.76    0.05
   3  -3   6    0.86    0.05
  -4   3  -6    8.74    0.16
   4  -3   6    8.85    0.17
   4   2  -6   -0.01    0.04
  -4  -2   6    0.07    0.04
   3   2  -6   10.17    0.19
  -3  -2   6    9.98    0.17
   2   2  -6    2.62    0.07
   2   2  -6    2.59    0.06
  -2  -2   6    2.63    0.06
  -2  -2   6    2.61    0.07
   1   2  -6    8.63    0.12
   1   2  -6    8.06    0.14
  -1  -2   6    8.33    0.13
  -1  -2   6    8.31    0.13
   0   2  -6    9.25    0.15
   0  -2   6    9.41    0.14
   0  -2   6    9.15    0.14
  -1   2  -6    2.51    0.04
  -1   2  -6    2.44    0.05
   1  -2   6    2.49    0.05
   1  -2   6    2.53    0.05
  -2   2  -6   13.34    0.20
   2  -2   6   13.13    0.20
   2  -2   6   13.29    0.21
  -3   2  -6    1.42    0.06
  -3   2  -6    1.45    0.06
   3  -2   6    1.34    0.06
  -4   2  -6    0.20    0.04
   4  -2   6    0.29    0.04
  -5   2  -6    0.62    0.06
   4   1  -6    0.06    0.04
  -4  -1   6    0.08    0.03
   3   1  -6   10.33    0.17
   3   1  -6    9.55    0.19
  -3  -1   6    9.98    0.17
   2   1  -6    2.57    0.06
   2   1  -6    2.67    0.08
  -2  -1   6    2.67    0.05
   1   1  -6    0.00    0.02
   1   1  -6   -0.01    0.01
  -1  -1   6    0.00    0.01
  -1  -1   6    0.01    0.02
   0   1  -6    6.87    0.12
   0  -1   6    7.13    0.11
   0  -1   6    6.90    0.11
  -1   1  -6    0.41    0.03
   1  -1   6    0.46    0.03
   1  -1   6    0.46    0.03
  -2   1  -6   15.94    0.23
   2  -1   6   16.10    0.25
  -3   1  -6    3.34    0.08
  -3   1  -6    3.37    0.08
   3  -1   6    3.49    0.09
  -4   1  -6    1.05    0.06
  -4   1  -6    0.98    0.06
   4  -1   6    1.01    0.06
   4   0  -6    0.94    0.07
  -4   0   6    0.93    0.06
   3   0  -6    1.01    0.05
   3   0  -6    0.96    0.06
  -3   0   6    1.02    0.06
   2   0  -6    0.57    0.05
   2   0  -6    0.65    0.04
  -2   0   6    0.63    0.03
  -2   0   6    0.60    0.04
   1   0  -6    6.49    0.10
  -1   0   6    6.35    0.09
  -1   0   6    6.37    0.10
   0   0   6    1.95    0.04
   0   0   6    1.94    0.04
  -1   0  -6  137.51    1.86
   1   0   6  140.03    1.87
  -2   0  -6    1.39    0.04
  -2   0  -6    1.42    0.05
   2   0   6    1.44    0.05
  -3   0  -6    0.11    0.03
  -3   0  -6    0.08    0.03
   3   0   6    0.08    0.03
  -4   0  -6    0.90    0.06
  -4   0  -6    0.96    0.05
   4   0   6    0.88    0.06
   4  -1  -6    0.46    0.05
   4  -1  -6    0.54    0.05
  -4   1   6    0.47    0.05
   3  -1  -6    0.13    0.03
   3  -1  -6    0.17    0.04
  -3   1   6    0.14    0.03
   2  -1  -6    0.19    0.03
   2  -1  -6    0.07    0.03
  -2   1   6    0.24    0.03
   1  -1  -6    0.02    0.02
  -1   1   6    0.04    0.02
  -1   1   6    0.01    0.01
   0   1   6    1.65    0.04
   0   1   6    1.67    0.04
  -1  -1  -6   22.37    0.30
  -1  -1  -6   22.70    0.32
  -2  -1  -6    1.13    0.04
  -2  -1  -6    1.11    0.05
  -3  -1  -6    0.46    0.03
  -3  -1  -6    0.35    0.04
  -4  -1  -6    0.92    0.07
   4  -2  -6    0.67    0.06
   4  -2  -6    0.75    0.06
  -4   2   6    0.59    0.05
   3  -2  -6    0.01    0.03
   3  -2  -6    0.03    0.04
  -3   2   6    0.01    0.03
   2  -2  -6    0.36    0.03
  -2   2   6    0.37    0.03
   1  -2  -6    3.31    0.05
   1  -2  -6    3.18    0.07
  -1   2   6    3.17    0.06
   0  -2  -6  101.11    1.40
   0   2   6  101.66    1.36
  -1  -2  -6    9.23    0.13
  -1  -2  -6    9.60    0.15
  -2  -2  -6    1.75    0.05
  -2  -2  -6    1.67    0.06
  -3  -2  -6    0.92    0.05
  -4  -2  -6    1.04    0.07
   4  -3  -6    0.23    0.05
   4  -3  -6    0.22    0.04
  -4   3   6    0.21    0.04
   3  -3  -6    1.78    0.07
   3  -3  -6    1.62    0.07
  -3   3   6    1.68    0.06
   2  -3  -6    0.71    0.05
  -2   3   6    0.71    0.04
   1  -3  -6    3.14    0.07
   1  -3  -6    3.15    0.05
  -1   3   6    3.22    0.06
   0  -3  -6    0.03    0.02
   0   3   6    0.01    0.01
  -1  -3  -6    0.43    0.02
  -1  -3  -6    0.47    0.03
  -2  -3  -6    0.10    0.03
  -3  -3  -6    0.76    0.06
  -4  -3  -6    0.12    0.04
   4  -4  -6    0.31    0.05
   4  -4  -6    0.35    0.05
  -4   4   6    0.28    0.04
   3  -4  -6    1.05    0.06
  -3   4   6    1.06    0.06
   2  -4  -6   16.93    0.27
  -2   4   6   17.10    0.25
   1  -4  -6   23.31    0.35
   1  -4  -6   23.79    0.32
  -1   4   6   23.00    0.32
   0  -4  -6    0.71    0.04
   0   4   6    0.73    0.02
  -1  -4  -6    2.84    0.07
  -2  -4  -6    7.37    0.14
  -3  -4  -6   15.56    0.25
  -4  -4  -6    0.80    0.06
   4  -5  -6    1.18    0.07
   4  -5  -6    1.12    0.07
  -4   5   6    1.07    0.06
   3  -5  -6    0.78    0.06
  -3   5   6    0.63    0.05
   2  -5  -6    0.02    0.03
  -2   5   6    0.00    0.02
   1  -5  -6    0.30    0.03
   1  -5  -6    0.29    0.02
  -1   5   6    0.31    0.02
   0  -5  -6    0.33    0.03
  -1  -5  -6    0.62    0.04
  -2  -5  -6    2.14    0.08
  -3  -5  -6    0.60    0.05
  -4  -5  -6    0.04    0.05
   4  -6  -6    0.75    0.06
   4  -6  -6    0.88    0.07
  -4   6   6    0.74    0.06
   3  -6  -6    6.58    0.14
  -3   6   6    6.77    0.13
   2  -6  -6   10.97    0.19
  -2   6   6   11.07    0.18
   1  -6  -6    1.92    0.07
  -1   6   6    2.11    0.05
   0  -6  -6    4.53    0.09
  -1  -6  -6    9.13    0.16
  -2  -6  -6   64.41    0.89
  -3  -6  -6    0.07    0.04
  -4  -6  -6    0.07    0.05
   4  -7  -6    0.07    0.05
  -4   7   6    0.06    0.04
   3  -7  -6    0.35    0.05
  -3   7   6    0.42    0.04
   2  -7  -6    0.14    0.04
  -2   7   6    0.23    0.03
   1  -7  -6    0.16    0.04
   0  -7  -6    0.65    0.05
   0  -7  -6    0.46    0.04
  -1  -7  -6   11.28    0.19
  -2  -7  -6    0.38    0.04
  -3  -7  -6    0.36    0.05
   4  -8  -6    0.03    0.05
  -4   8   6   -0.03    0.04
   3  -8  -6    2.39    0.09
  -3   8   6    2.42    0.08
   2  -8  -6    0.52    0.05
   1  -8  -6    0.29    0.04
   0  -8  -6    0.11    0.03
   0  -8  -6    0.08    0.03
  -1  -8  -6   38.24    0.54
  -2  -8  -6    1.55    0.07
  -3  -8  -6    0.50    0.05
  -4   9   6    0.08    0.04
   3  -9  -6    0.03    0.04
  -3   9   6    0.01    0.03
   2  -9  -6    0.00    0.04
   1  -9  -6    0.12    0.04
   0  -9  -6    6.82    0.13
   0  -9  -6    6.73    0.14
  -1  -9  -6    0.47    0.05
  -2  -9  -6    0.40    0.05
  -3  -9  -6    0.23    0.05
   3 -10  -6   -0.05    0.04
   2 -10  -6    0.01    0.04
   1 -10  -6    0.23    0.04
   0 -10  -6    5.21    0.12
   0 -10  -6    5.42    0.12
  -1 -10  -6    0.15    0.04
  -2 -10  -6    2.93    0.10
   3 -11  -6   -0.03    0.05
   2 -11  -6   -0.06    0.04
   1 -11  -6    2.07    0.08
   0 -11  -6    0.78    0.06
  -1 -11  -6    0.11    0.04
  -1 -11  -6    0.06    0.04
  -2 -11  -6    1.10    0.08
   2 -12  -6    0.14    0.05
   1 -12  -6    2.28    0.09
   0 -12  -6    0.10    0.04
  -1 -12  -6    1.19    0.07
  -1 -12  -6    1.32    0.07
   1 -13  -6    0.05    0.05
   0 -13  -6    0.07    0.05
  -1 -13  -6   -0.11    0.05
  -1 -13  -6    0.07    0.04
   0 -15   7    0.11    0.05
   1 -15   7    2.05    0.09
  -1 -14   7    0.08    0.04
   0 -14   7    0.53    0.05
   1 -14   7    9.74    0.19
  -2 -13   7    0.01    0.05
  -1 -13   7   -0.02    0.04
   0 -13   7    0.61    0.05
   1 -13   7    0.45    0.05
  -2  13  -7    0.15    0.04
  -3  13  -7    0.34    0.06
  -2 -12   7    0.07    0.04
  -1 -12   7    0.19    0.04
   0 -12   7    1.63    0.07
  -1  12  -7    5.30    0.11
   1 -12   7    5.53    0.12
  -2  12  -7    0.36    0.05
  -3  12  -7    1.02    0.07
   3 -12   7    1.14    0.07
  -3 -11   7    0.11    0.04
  -2 -11   7   -0.01    0.04
  -1 -11   7    0.06    0.03
   0  11  -7    0.10    0.03
   0 -11   7    0.07    0.04
  -1  11  -7    0.26    0.04
   1 -11   7    0.21    0.04
  -2  11  -7    1.02    0.06
   2 -11   7    1.04    0.05
  -3  11  -7    0.61    0.06
   3 -11   7    0.57    0.05
  -3 -10   7    0.06    0.04
  -2 -10   7    0.42    0.05
  -1 -10   7    1.44    0.06
   0  10  -7    0.21    0.03
   0 -10   7    0.11    0.03
  -1  10  -7    0.64    0.05
   1 -10   7    0.70    0.04
  -2  10  -7    2.89    0.08
   2 -10   7    3.09    0.08
   2 -10   7    2.97    0.08
  -3  10  -7    0.43    0.05
   3 -10   7    0.44    0.05
  -3  -9   7    0.10    0.04
  -2  -9   7   -0.01    0.03
   1   9  -7    0.17    0.03
  -1  -9   7    0.15    0.04
   0   9  -7    0.03    0.03
   0  -9   7    0.09    0.03
  -1   9  -7    2.08    0.06
   1  -9   7    1.99    0.06
  -2   9  -7    0.16    0.03
   2  -9   7    0.22    0.03
   2  -9   7    0.12    0.03
  -3   9  -7    0.09    0.04
   3  -9   7    0.07    0.03
  -4   9  -7    0.09    0.05
   4  -9   7    0.10    0.04
  -3  -8   7    7.49    0.15
  -2  -8   7    0.24    0.04
  -2  -8   7    0.24    0.03
  -1  -8   7    0.14    0.03
  -1  -8   7    0.17    0.03
   0   8  -7    0.36    0.03
   0  -8   7    0.36    0.04
  -1   8  -7    4.59    0.10
   1  -8   7    4.63    0.10
   1  -8   7    4.61    0.09
  -2   8  -7    0.11    0.04
   2  -8   7    0.10    0.03
   2  -8   7    0.12    0.03
  -3   8  -7    0.40    0.05
   3  -8   7    0.44    0.04
  -4   8  -7    0.16    0.05
   4  -8   7    0.20    0.04
   3   7  -7    0.62    0.06
  -3  -7   7    0.66    0.05
  -3  -7   7    0.64    0.05
   2   7  -7    0.68    0.06
  -2  -7   7    0.73    0.05
  -2  -7   7    0.80    0.05
  -1  -7   7    0.86    0.05
  -1  -7   7    0.83    0.04
   0   7  -7    0.04    0.02
   0  -7   7    0.05    0.02
  -1   7  -7    1.48    0.05
   1  -7   7    1.39    0.05
   1  -7   7    1.40    0.05
  -2   7  -7    0.28    0.04
   2  -7   7    0.29    0.03
   2  -7   7    0.28    0.03
  -3   7  -7   -0.03    0.03
   3  -7   7   -0.01    0.02
   3  -7   7    0.01    0.03
  -4   7  -7    0.23    0.05
   4  -7   7    0.27    0.04
   4   6  -7    5.78    0.15
   3   6  -7    4.79    0.13
  -3  -6   7    5.01    0.11
  -3  -6   7    4.92    0.10
   2   6  -7    1.95    0.08
  -2  -6   7    2.07    0.06
  -2  -6   7    1.95    0.06
   1   6  -7    1.84    0.07
  -1  -6   7    1.83    0.06
  -1  -6   7    1.88    0.05
   0   6  -7    0.01    0.02
   0  -6   7    0.02    0.01
   0  -6   7    0.01    0.02
  -1   6  -7    0.02    0.02
   1  -6   7    0.04    0.02
   1  -6   7    0.02    0.02
  -2   6  -7    0.31    0.03
   2  -6   7    0.28    0.03
   2  -6   7    0.25    0.03
  -3   6  -7   -0.03    0.03
   3  -6   7    0.08    0.02
   3  -6   7    0.03    0.03
  -4   6  -7    1.08    0.07
   4  -6   7    1.05    0.06
   4   5  -7    0.51    0.06
  -4  -5   7    0.60    0.05
   3   5  -7    3.75    0.11
  -3  -5   7    4.11    0.09
  -3  -5   7    4.02    0.09
   2   5  -7    4.11    0.10
  -2  -5   7    4.12    0.09
  -2  -5   7    4.37    0.09
   1   5  -7    5.25    0.11
  -1  -5   7    5.17    0.09
  -1  -5   7    5.25    0.10
   0   5  -7    0.10    0.02
   0   5  -7    0.08    0.02
   0  -5   7    0.09    0.01
   0  -5   7    0.09    0.02
  -1   5  -7    1.37    0.04
   1  -5   7    1.27    0.04
   1  -5   7    1.14    0.04
  -2   5  -7    0.27    0.03
   2  -5   7    0.28    0.03
   2  -5   7    0.25    0.03
  -3   5  -7    3.36    0.09
   3  -5   7    3.22    0.09
   3  -5   7    3.37    0.08
  -4   5  -7    5.33    0.12
   4  -5   7    5.37    0.13
   4   4  -7    2.16    0.10
  -4  -4   7    2.14    0.07
   3   4  -7    1.31    0.07
  -3  -4   7    1.13    0.05
   2   4  -7    0.34    0.04
  -2  -4   7    0.39    0.03
  -2  -4   7    0.39    0.03
   1   4  -7    0.93    0.05
  -1  -4   7    0.97    0.04
  -1  -4   7    0.99    0.04
   0   4  -7    0.04    0.02
   0  -4   7    0.06    0.02
  -2   4  -7    0.27    0.03
   2  -4   7    0.33    0.03
   2  -4   7    0.31    0.03
  -3   4  -7    1.46    0.06
   3  -4   7    1.46    0.05
   3  -4   7    1.46    0.06
  -4   4  -7    7.87    0.16
   4  -4   7    7.86    0.16
   4   3  -7    1.30    0.08
  -4  -3   7    1.41    0.06
   3   3  -7   10.40    0.20
  -3  -3   7   10.60    0.18
   2   3  -7    1.10    0.06
  -2  -3   7    1.05    0.04
  -2  -3   7    1.12    0.04
   1   3  -7    1.40    0.05
  -1  -3   7    1.35    0.04
  -1  -3   7    1.39    0.04
   0   3  -7    0.22    0.02
   0  -3   7    0.25    0.02
   0  -3   7    0.21    0.02
  -1   3  -7    0.10    0.02
   1  -3   7    0.09    0.02
   1  -3   7    0.07    0.02
   2  -3   7   11.62    0.19
   2  -3   7   11.28    0.18
  -3   3  -7   18.83    0.28
  -3   3  -7   18.58    0.28
   3  -3   7   18.56    0.30
  -4   3  -7    2.56    0.08
   4  -3   7    2.74    0.09
   4   2  -7    0.25    0.06
  -4  -2   7    0.39    0.05
   3   2  -7    3.69    0.11
  -3  -2   7    3.82    0.09
   2   2  -7    0.72    0.04
   2   2  -7    0.78    0.06
  -2  -2   7    0.73    0.04
  -2  -2   7    0.73    0.04
   1   2  -7    4.39    0.09
   1   2  -7    4.43    0.07
  -1  -2   7    4.33    0.08
  -1  -2   7    4.30    0.08
   0   2  -7    0.08    0.02
   0  -2   7    0.08    0.02
   0  -2   7    0.09    0.02
  -1   2  -7    0.45    0.03
  -1   2  -7    0.48    0.02
   1  -2   7    0.45    0.03
   1  -2   7    0.47    0.03
  -2   2  -7    0.46    0.03
   2  -2   7    0.48    0.03
   2  -2   7    0.47    0.03
  -3   2  -7   10.24    0.17
  -3   2  -7   10.26    0.17
   3  -2   7   10.18    0.18
  -4   2  -7    0.23    0.04
  -4   2  -7    0.22    0.04
   4  -2   7    0.28    0.04
   4   1  -7    4.16    0.12
  -4  -1   7    4.06    0.10
   3   1  -7   20.87    0.31
   3   1  -7   19.73    0.34
  -3  -1   7   20.12    0.30
   2   1  -7    2.55    0.06
   2   1  -7    2.75    0.08
  -2  -1   7    2.63    0.07
  -2  -1   7    2.66    0.05
   1   1  -7    5.74    0.09
   1   1  -7    5.62    0.11
  -1  -1   7    5.65    0.09
  -1  -1   7    5.53    0.10
   0   1  -7   -0.03    0.02
   0  -1   7   -0.02    0.01
   0  -1   7   -0.02    0.01
  -1   1  -7    3.06    0.06
   1  -1   7    3.01    0.06
  -2   1  -7    7.82    0.13
   2  -1   7    7.82    0.14
   2  -1   7    7.82    0.13
  -3   1  -7    2.26    0.07
  -3   1  -7    2.21    0.07
   3  -1   7    2.29    0.07
  -4   1  -7    0.16    0.04
  -4   1  -7    0.08    0.04
   4  -1   7    0.12    0.04
   4   0  -7    0.80    0.07
  -4   0   7    0.82    0.05
   3   0  -7    0.65    0.05
   3   0  -7    0.62    0.05
  -3   0   7    0.63    0.05
   2   0  -7    3.07    0.07
   2   0  -7    3.25    0.09
  -2   0   7    3.29    0.07
   1   0  -7    0.09    0.02
  -1   0   7    0.08    0.02
  -1   0   7    0.07    0.01
   0   0   7    0.76    0.03
   0   0   7    0.81    0.03
  -1   0  -7    3.03    0.06
   1   0   7    3.03    0.06
  -2   0  -7    1.18    0.05
  -2   0  -7    1.19    0.04
  -3   0  -7    0.57    0.04
  -3   0  -7    0.52    0.04
   3   0   7    0.45    0.04
  -4   0  -7    0.03    0.04
   4  -1  -7    5.41    0.13
  -4   1   7    5.23    0.12
   3  -1  -7    3.31    0.09
   3  -1  -7    3.36    0.09
  -3   1   7    3.27    0.08
   2  -1  -7    2.06    0.06
   2  -1  -7    1.92    0.07
  -2   1   7    2.03    0.06
   1  -1  -7    0.55    0.03
  -1   1   7    0.56    0.03
  -1   1   7    0.56    0.02
   0   1   7    1.27    0.04
   0   1   7    1.31    0.04
  -1  -1  -7    0.15    0.02
  -1  -1  -7    0.20    0.02
  -2  -1  -7    1.74    0.06
  -2  -1  -7    1.71    0.05
  -3  -1  -7    1.42    0.06
  -3  -1  -7    1.40    0.05
  -4  -1  -7   16.12    0.27
   4  -2  -7    0.14    0.05
   4  -2  -7    0.11    0.04
  -4   2   7    0.14    0.04
   3  -2  -7    0.15    0.04
   3  -2  -7    0.06    0.04
  -3   2   7    0.14    0.03
   2  -2  -7    3.18    0.08
  -2   2   7    3.27    0.07
   1  -2  -7   14.27    0.22
  -1   2   7   14.36    0.21
   0  -2  -7    3.32    0.06
   0   2   7    3.21    0.06
  -1  -2  -7   -0.02    0.01
  -1  -2  -7    0.00    0.02
  -2  -2  -7    1.79    0.05
  -2  -2  -7    1.82    0.06
  -3  -2  -7    0.49    0.05
  -4  -2  -7   -0.02    0.04
   4  -3  -7    0.38    0.05
   4  -3  -7    0.31    0.05
  -4   3   7    0.29    0.04
   3  -3  -7    0.08    0.03
   3  -3  -7    0.06    0.03
  -3   3   7    0.02    0.03
   2  -3  -7    1.27    0.06
  -2   3   7    1.29    0.05
   1  -3  -7   18.97    0.26
   1  -3  -7   19.52    0.29
  -1   3   7   19.50    0.27
   0  -3  -7    4.16    0.07
   0   3   7    4.12    0.07
  -1  -3  -7    0.83    0.03
  -1  -3  -7    0.79    0.04
  -2  -3  -7    0.61    0.05
  -3  -3  -7   17.06    0.27
  -4  -3  -7    4.60    0.12
   4  -4  -7    0.13    0.05
   4  -4  -7    0.22    0.05
  -4   4   7    0.13    0.04
   3  -4  -7    3.54    0.10
  -3   4   7    3.59    0.09
   2  -4  -7    5.97    0.12
  -2   4   7    5.98    0.11
   1  -4  -7    1.09    0.03
   1  -4  -7    1.03    0.05
  -1   4   7    1.07    0.04
   0  -4  -7   -0.04    0.02
   0   4   7    0.00    0.01
  -1  -4  -7    0.12    0.03
  -2  -4  -7    1.34    0.06
  -3  -4  -7    0.40    0.05
  -4  -4  -7    0.04    0.04
   4  -5  -7    0.25    0.05
   4  -5  -7    0.32    0.05
  -4   5   7    0.27    0.05
   3  -5  -7    2.59    0.09
  -3   5   7    2.59    0.07
   2  -5  -7    4.50    0.11
  -2   5   7    4.66    0.10
   1  -5  -7    3.38    0.08
  -1   5   7    3.40    0.07
   0  -5  -7    1.47    0.05
  -1  -5  -7    0.07    0.03
  -2  -5  -7    0.41    0.04
  -3  -5  -7    3.47    0.10
  -4  -5  -7    0.41    0.06
   4  -6  -7    0.70    0.06
   4  -6  -7    0.59    0.06
  -4   6   7    0.51    0.05
   3  -6  -7    0.77    0.06
  -3   6   7    0.86    0.05
   2  -6  -7   -0.02    0.03
  -2   6   7   -0.02    0.03
   1  -6  -7    0.23    0.04
  -1   6   7    0.24    0.02
   0  -6  -7    0.07    0.03
  -1  -6  -7    0.08    0.03
  -2  -6  -7    0.00    0.03
  -3  -6  -7    0.01    0.04
   4  -7  -7    0.03    0.05
  -4   7   7    0.09    0.04
   3  -7  -7    2.07    0.09
  -3   7   7    2.08    0.07
   2  -7  -7    0.39    0.04
  -2   7   7    0.40    0.04
   1  -7  -7    0.00    0.03
   0  -7  -7    3.36    0.08
   0  -7  -7    3.27    0.09
  -1  -7  -7    0.15    0.04
  -2  -7  -7    0.12    0.04
  -3  -7  -7    0.79    0.06
   4  -8  -7    0.76    0.07
  -4   8   7    0.83    0.06
   3  -8  -7    0.17    0.05
  -3   8   7    0.13    0.04
   2  -8  -7    0.17    0.04
   1  -8  -7    1.98    0.07
   0  -8  -7    4.52    0.11
   0  -8  -7    4.55    0.10
  -1  -8  -7    0.14    0.04
  -2  -8  -7    0.26    0.04
  -3  -8  -7    0.37    0.05
   3  -9  -7    0.22    0.05
   2  -9  -7    0.33    0.05
   1  -9  -7    5.89    0.13
   0  -9  -7    6.51    0.13
   0  -9  -7    6.46    0.14
  -1  -9  -7   -0.02    0.04
  -2  -9  -7    0.05    0.04
   3 -10  -7    0.01    0.04
   2 -10  -7    3.37    0.11
   1 -10  -7   14.62    0.26
   0 -10  -7    4.40    0.11
  -1 -10  -7   -0.04    0.03
  -2 -10  -7   -0.01    0.04
   2 -11  -7    0.78    0.07
   1 -11  -7    5.77    0.14
   0 -11  -7    0.07    0.04
  -1 -11  -7    0.09    0.04
  -1 -11  -7    0.04    0.04
  -2 -11  -7    0.08    0.05
   2 -12  -7    8.40    0.19
   1 -12  -7    2.19    0.09
   0 -12  -7    0.28    0.05
  -1 -12  -7    0.14    0.05
  -1 -12  -7    0.21    0.04
   1 -13  -7    0.01    0.05
   0 -13  -7    0.09    0.05
  -1 -13  -7   -0.23    0.05
   0 -15   8    1.21    0.08
   1 -15   8    0.93    0.07
  -1 -14   8    0.70    0.06
   0 -14   8    0.50    0.05
   1 -14   8    0.03    0.04
  -2 -13   8    1.97    0.08
  -1 -13   8    6.59    0.15
   0 -13   8    0.06    0.04
   1 -13   8    0.03    0.04
  -2  13  -8    0.03    0.04
  -2 -12   8    0.92    0.06
  -1 -12   8    0.01    0.03
   0 -12   8    0.19    0.04
  -1  12  -8    0.00    0.03
   1 -12   8    0.02    0.03
  -2  12  -8    0.08    0.04
   2 -12   8    0.10    0.03
  -3  12  -8    0.17    0.05
  -3 -11   8    1.12    0.08
  -2 -11   8    9.16    0.18
  -1 -11   8    7.82    0.15
   0  11  -8    2.14    0.07
   0 -11   8    1.94    0.07
  -1  11  -8    0.94    0.05
   1 -11   8    1.01    0.05
  -2  11  -8    0.62    0.05
   2 -11   8    0.54    0.04
  -3  11  -8    2.46    0.09
   3 -11   8    2.56    0.09
  -3 -10   8    0.45    0.06
  -2 -10   8    0.36    0.04
   1  10  -8    4.68    0.10
  -1 -10   8    4.50    0.11
   0  10  -8    0.19    0.03
   0 -10   8    0.14    0.04
  -1  10  -8    0.00    0.03
   1 -10   8    0.00    0.03
  -2  10  -8    0.81    0.06
   2 -10   8    0.92    0.05
  -3  10  -8   -0.04    0.04
   3 -10   8    0.06    0.04
  -3  -9   8    1.26    0.07
  -2  -9   8    7.60    0.15
  -2  -9   8    7.58    0.14
   1   9  -8    2.90    0.07
  -1  -9   8    2.82    0.08
   0   9  -8    5.71    0.11
   0  -9   8    5.83    0.12
  -1   9  -8    0.70    0.05
   1  -9   8    0.61    0.04
   2  -9   8    2.97    0.08
   2  -9   8    3.06    0.08
  -3   9  -8    1.55    0.07
   3  -9   8    1.60    0.07
   4  -9   8    0.07    0.04
  -3  -8   8    0.30    0.04
  -2  -8   8    3.38    0.08
  -2  -8   8    3.48    0.09
  -1  -8   8    0.89    0.04
  -1  -8   8    0.86    0.05
   0   8  -8    1.42    0.05
   0  -8   8    1.31    0.05
  -1   8  -8    0.08    0.03
   1  -8   8    0.07    0.03
  -2   8  -8    1.20    0.05
   2  -8   8    1.12    0.05
   2  -8   8    1.11    0.05
  -3   8  -8    1.18    0.06
   3  -8   8    1.20    0.05
   3  -8   8    1.16    0.06
  -4   8  -8    1.46    0.08
   4  -8   8    1.56    0.08
   4   7  -8    0.10    0.06
   3   7  -8    0.61    0.06
  -3  -7   8    0.62    0.05
  -3  -7   8    0.64    0.05
   2   7  -8   -0.02    0.04
  -2  -7   8    0.08    0.03
  -2  -7   8    0.00    0.03
   1   7  -8    2.00    0.07
  -1  -7   8    2.00    0.06
  -1  -7   8    2.01    0.06
   0   7  -8    4.19    0.09
   0  -7   8    4.13    0.09
  -1   7  -8    3.38    0.08
   1  -7   8    3.34    0.08
   1  -7   8    3.45    0.07
  -2   7  -8    0.47    0.04
   2  -7   8    0.49    0.04
   2  -7   8    0.47    0.04
  -3   7  -8    0.16    0.04
   3  -7   8    0.15    0.03
   3  -7   8    0.14    0.03
  -4   7  -8    0.35    0.05
   4  -7   8    0.37    0.05
   4   6  -8    0.95    0.08
  -4  -6   8    0.93    0.06
   3   6  -8   -0.02    0.04
  -3  -6   8    0.02    0.03
  -3  -6   8    0.01    0.03
   2   6  -8    1.91    0.08
  -2  -6   8    1.94    0.06
  -2  -6   8    1.80    0.06
   1   6  -8   21.61    0.35
  -1  -6   8   21.96    0.32
  -1  -6   8   22.20    0.31
   0   6  -8    0.48    0.03
   0  -6   8    0.50    0.04
  -1   6  -8    4.35    0.09
   1  -6   8    4.17    0.08
   1  -6   8    4.40    0.09
  -2   6  -8    0.46    0.04
   2  -6   8    0.34    0.03
   2  -6   8    0.41    0.03
  -3   6  -8    2.64    0.08
   3  -6   8    2.74    0.07
   3  -6   8    2.65    0.08
  -4   6  -8    0.07    0.04
   4  -6   8    0.13    0.04
   4   5  -8   -0.01    0.05
  -4  -5   8    0.03    0.04
   3   5  -8    0.20    0.05
  -3  -5   8    0.12    0.03
   2   5  -8    1.45    0.07
  -2  -5   8    1.36    0.05
  -2  -5   8    1.42    0.05
   1   5  -8    6.63    0.13
  -1  -5   8    6.63    0.11
  -1  -5   8    6.53    0.12
   0   5  -8   11.90    0.18
   0   5  -8   12.09    0.20
   0  -5   8   11.98    0.18
  -1   5  -8    0.02    0.02
   1  -5   8    0.00    0.02
   1  -5   8   -0.01    0.02
  -2   5  -8    0.91    0.05
   2  -5   8    0.89    0.04
   2  -5   8    0.91    0.05
  -3   5  -8    0.75    0.06
   3  -5   8    0.68    0.04
   3  -5   8    0.76    0.05
  -4   5  -8    1.02    0.07
   4  -5   8    1.08    0.06
   4   4  -8    0.05    0.05
  -4  -4   8    0.18    0.04
   3   4  -8    7.86    0.17
  -3  -4   8    7.75    0.14
   2   4  -8   13.69    0.24
  -2  -4   8   13.67    0.21
  -2  -4   8   13.85    0.21
   1   4  -8    7.38    0.14
  -1  -4   8    7.19    0.12
  -1  -4   8    7.02    0.12
   0   4  -8    9.88    0.17
   0  -4   8   10.07    0.16
  -1   4  -8    0.41    0.03
   1  -4   8    0.39    0.03
   1  -4   8    0.32    0.03
  -2   4  -8    4.61    0.09
   2  -4   8    4.53    0.09
   2  -4   8    4.55    0.09
  -3   4  -8    5.80    0.12
   3  -4   8    5.73    0.12
   3  -4   8    5.78    0.11
  -4   4  -8    0.04    0.04
   4  -4   8    0.09    0.03
   4   3  -8    0.01    0.05
  -4  -3   8    0.16    0.04
   3   3  -8    1.21    0.07
  -3  -3   8    1.09    0.05
   2   3  -8    1.62    0.07
  -2  -3   8    1.66    0.05
  -2  -3   8    1.62    0.05
   1   3  -8    4.39    0.09
   1   3  -8    4.54    0.07
  -1  -3   8    4.37    0.08
  -1  -3   8    4.38    0.08
   0   3  -8    0.21    0.02
   0  -3   8    0.15    0.02
   0  -3   8    0.18    0.02
  -1   3  -8   10.94    0.17
  -1   3  -8   10.66    0.16
   1  -3   8   10.80    0.17
   1  -3   8   10.88    0.17
  -2   3  -8    7.80    0.13
   2  -3   8    7.61    0.13
   2  -3   8    7.53    0.14
  -3   3  -8    4.29    0.10
   3  -3   8    4.31    0.10
  -4   3  -8    0.07    0.04
   4  -3   8    0.04    0.03
   4   2  -8    7.69    0.17
  -4  -2   8    7.57    0.16
   3   2  -8    1.93    0.08
  -3  -2   8    2.04    0.07
   2   2  -8    1.51    0.05
   2   2  -8    1.46    0.07
  -2  -2   8    1.42    0.05
  -2  -2   8    1.48    0.05
   1   2  -8    1.35    0.03
   1   2  -8    1.24    0.05
  -1  -2   8    1.35    0.04
  -1  -2   8    1.36    0.04
   0   2  -8    1.58    0.05
   0  -2   8    1.61    0.04
   0  -2   8    1.60    0.04
  -1   2  -8   32.06    0.47
  -1   2  -8   31.73    0.43
   1  -2   8   31.91    0.44
  -2   2  -8    0.09    0.03
   2  -2   8    0.06    0.02
   2  -2   8    0.13    0.03
  -3   2  -8    1.87    0.07
  -3   2  -8    1.66    0.06
   3  -2   8    1.71    0.07
  -4   2  -8    1.39    0.07
  -4   2  -8    1.63    0.07
   4  -2   8    1.42    0.07
   4   1  -8    0.00    0.05
  -4  -1   8    0.08    0.04
   3   1  -8    0.83    0.06
  -3  -1   8    0.70    0.05
   2   1  -8    0.23    0.03
   2   1  -8    0.22    0.04
  -2  -1   8    0.22    0.02
  -2  -1   8    0.16    0.03
   1   1  -8    0.59    0.03
   1   1  -8    0.52    0.04
  -1  -1   8    0.58    0.03
  -1  -1   8    0.56    0.03
   0   1  -8   33.29    0.50
   0  -1   8   33.27    0.45
   0  -1   8   33.40    0.45
  -1   1  -8   17.95    0.26
   1  -1   8   18.40    0.26
  -2   1  -8    3.00    0.07
   2  -1   8    2.97    0.07
  -3   1  -8    0.01    0.03
  -3   1  -8    0.00    0.03
   3  -1   8    0.02    0.03
  -4   1  -8    1.89    0.08
  -4   1  -8    1.85    0.07
   4  -1   8    1.72    0.07
   4   0  -8    3.75    0.11
  -4   0   8    3.57    0.10
   3   0  -8    0.10    0.04
   3   0  -8    0.13    0.03
  -3   0   8    0.17    0.03
   2   0  -8    0.15    0.04
   2   0  -8    0.20    0.03
  -2   0   8    0.16    0.03
   1   0  -8    2.11    0.05
  -1   0   8    2.06    0.04
  -1   0   8    2.11    0.05
   0   0   8  103.30    1.41
   0   0   8  102.60    1.42
  -1   0  -8   32.73    0.45
   1   0   8   33.26    0.46
  -2   0  -8    2.33    0.07
  -2   0  -8    2.35    0.06
  -3   0  -8    1.39    0.05
  -3   0  -8    1.45    0.06
  -4   0  -8    5.43    0.13
   4  -1  -8    0.23    0.05
  -4   1   8    0.22    0.04
   3  -1  -8    0.03    0.03
   3  -1  -8    0.03    0.04
  -3   1   8    0.04    0.03
   2  -1  -8    0.77    0.05
   2  -1  -8    0.75    0.06
  -2   1   8    0.70    0.04
   1  -1  -8    7.89    0.13
  -1   1   8    7.76    0.11
  -1   1   8    7.65    0.12
   0   1   8    0.19    0.02
   0   1   8    0.16    0.02
  -1  -1  -8    3.50    0.07
  -1  -1  -8    3.39    0.06
  -2  -1  -8    1.64    0.05
  -2  -1  -8    1.67    0.06
  -3  -1  -8    6.45    0.13
  -4  -1  -8   -0.02    0.04
   4  -2  -8    0.09    0.05
  -4   2   8    0.08    0.04
   3  -2  -8   -0.02    0.03
   3  -2  -8    0.02    0.04
  -3   2   8    0.01    0.03
   2  -2  -8    1.28    0.06
  -2   2   8    1.36    0.05
   1  -2  -8   24.47    0.35
  -1   2   8   23.83    0.34
   0  -2  -8   30.84    0.42
   0   2   8   30.54    0.41
  -1  -2  -8   12.21    0.17
  -1  -2  -8   12.46    0.19
  -2  -2  -8    3.45    0.08
  -3  -2  -8    7.62    0.15
  -4  -2  -8   -0.04    0.04
   4  -3  -8    0.02    0.04
   4  -3  -8    0.02    0.04
  -4   3   8    0.07    0.04
   3  -3  -8    4.58    0.11
   3  -3  -8    4.57    0.11
  -3   3   8    4.63    0.10
   2  -3  -8    0.75    0.05
  -2   3   8    0.72    0.04
   1  -3  -8    0.54    0.04
   1  -3  -8    0.51    0.03
  -1   3   8    0.55    0.03
   0  -3  -8    1.60    0.04
   0   3   8    1.53    0.04
  -1  -3  -8    1.39    0.04
  -1  -3  -8    1.44    0.05
  -2  -3  -8   22.72    0.34
  -3  -3  -8    0.10    0.04
  -4  -3  -8    0.13    0.05
   4  -4  -8    0.11    0.05
   4  -4  -8   -0.01    0.04
  -4   4   8    0.02    0.04
   3  -4  -8    2.12    0.08
  -3   4   8    1.99    0.07
   2  -4  -8    9.19    0.17
  -2   4   8    9.15    0.15
   1  -4  -8    2.51    0.07
  -1   4   8    2.62    0.06
   0  -4  -8    0.56    0.04
   0   4   8    0.55    0.03
  -1  -4  -8   11.76    0.19
  -2  -4  -8   38.17    0.54
  -3  -4  -8    0.52    0.05
  -4  -4  -8    0.04    0.05
   4  -5  -8    2.36    0.09
   4  -5  -8    2.09    0.09
  -4   5   8    2.25    0.08
   3  -5  -8    2.13    0.08
  -3   5   8    2.34    0.07
   2  -5  -8    0.30    0.04
  -2   5   8    0.32    0.03
   1  -5  -8    1.00    0.05
  -1   5   8    0.95    0.04
   0  -5  -8    1.16    0.05
  -1  -5  -8   77.64    1.05
  -2  -5  -8    7.22    0.14
  -3  -5  -8    0.22    0.04
   4  -6  -8    0.44    0.06
   4  -6  -8    0.48    0.06
  -4   6   8    0.41    0.05
   3  -6  -8    4.12    0.11
  -3   6   8    4.11    0.10
   2  -6  -8    1.69    0.07
  -2   6   8    1.70    0.06
   1  -6  -8    0.11    0.03
   0  -6  -8    3.05    0.07
  -1  -6  -8   70.52    0.96
  -2  -6  -8    0.21    0.04
  -3  -6  -8    0.09    0.04
   4  -7  -8    1.03    0.08
  -4   7   8    1.00    0.07
   3  -7  -8    0.09    0.04
  -3   7   8    0.07    0.03
   2  -7  -8    1.87    0.08
  -2   7   8    1.86    0.06
   1  -7  -8    0.12    0.04
   0  -7  -8   63.30    0.85
   0  -7  -8   61.82    0.89
  -1  -7  -8   24.20    0.36
  -2  -7  -8    0.77    0.06
  -3  -7  -8    1.07    0.07
  -4   8   8    1.05    0.07
   3  -8  -8    0.43    0.06
  -3   8   8    0.41    0.04
   2  -8  -8    0.07    0.04
   1  -8  -8    0.04    0.04
   0  -8  -8   21.48    0.31
   0  -8  -8   20.82    0.34
  -1  -8  -8    0.13    0.04
  -2  -8  -8    0.58    0.05
  -3  -8  -8    0.36    0.05
   3  -9  -8    0.86    0.07
   2  -9  -8    0.39    0.05
   1  -9  -8   14.11    0.25
   0  -9  -8    7.06    0.13
   0  -9  -8    6.74    0.15
  -1  -9  -8    0.02    0.03
  -2  -9  -8    4.79    0.12
   3 -10  -8   -0.01    0.05
   2 -10  -8   -0.01    0.04
   1 -10  -8    2.95    0.10
   0 -10  -8    0.13    0.04
  -1 -10  -8    0.97    0.06
  -2 -10  -8    1.29    0.07
   2 -11  -8    4.13    0.12
   1 -11  -8    0.70    0.06
   0 -11  -8    0.32    0.05
  -1 -11  -8    7.99    0.17
  -1 -11  -8    8.18    0.17
   1 -12  -8    0.05    0.05
   0 -12  -8    0.21    0.05
  -1 -12  -8    2.32    0.09
  -1 -12  -8    2.49    0.10
   1 -15   9    0.07    0.04
  -1 -14   9    0.31    0.05
   0 -14   9    0.49    0.05
   1 -14   9    1.45    0.07
  -2  14  -9    0.95    0.06
  -1 -13   9    0.64    0.06
   0 -13   9    0.30    0.04
  -1  13  -9    0.11    0.04
   1 -13   9    0.12    0.04
  -2  13  -9   -0.01    0.04
   2 -13   9    0.03    0.04
  -2 -12   9    2.80    0.09
  -1 -12   9    1.84    0.07
   0 -12   9    0.18    0.04
  -1  12  -9    1.08    0.06
   1 -12   9    1.26    0.06
  -2  12  -9    0.07    0.04
   2 -12   9    0.10    0.03
  -3  12  -9    0.21    0.05
  -3 -11   9    0.06    0.05
  -2 -11   9    5.72    0.13
  -1 -11   9    1.83    0.07
   0  11  -9   -0.02    0.03
   0 -11   9    0.03    0.03
  -1  11  -9   -0.01    0.03
   1 -11   9    0.02    0.03
  -2  11  -9    1.58    0.07
   2 -11   9    1.64    0.06
  -3  11  -9    0.34    0.05
  -3 -10   9    0.99    0.07
  -2 -10   9    5.29    0.12
   1  10  -9    0.04    0.03
  -1 -10   9    0.07    0.03
   0  10  -9    0.00    0.03
   0 -10   9   -0.01    0.03
  -1  10  -9    0.08    0.03
   1 -10   9    0.10    0.03
  -2  10  -9    0.14    0.04
   2 -10   9    0.17    0.03
  -3  10  -9    0.19    0.04
   3 -10   9    0.20    0.04
  -3  -9   9    2.23    0.08
  -2  -9   9    4.94    0.10
  -2  -9   9    4.87    0.11
   1   9  -9    0.06    0.03
  -1  -9   9    0.10    0.03
   0   9  -9   -0.02    0.03
   0  -9   9    0.00    0.03
  -1   9  -9    0.33    0.04
   1  -9   9    0.29    0.04
  -2   9  -9    0.07    0.03
   2  -9   9    0.10    0.03
   2  -9   9    0.11    0.03
  -3   9  -9    0.48    0.05
   3  -9   9    0.66    0.05
   4  -9   9    0.31    0.05
   3   8  -9    1.93    0.09
  -3  -8   9    2.14    0.08
  -3  -8   9    1.99    0.07
   2   8  -9    0.49    0.05
  -2  -8   9    0.45    0.04
  -2  -8   9    0.48    0.04
  -1  -8   9    0.15    0.03
  -1  -8   9    0.19    0.03
   0   8  -9   -0.02    0.03
   0  -8   9    0.01    0.03
  -1   8  -9    0.32    0.04
   1  -8   9    0.34    0.04
  -2   8  -9    0.66    0.05
   2  -8   9    0.62    0.05
   2  -8   9    0.59    0.04
  -3   8  -9    0.34    0.05
   3  -8   9    0.39    0.04
   3  -8   9    0.43    0.04
  -4   8  -9    0.21    0.05
   4  -8   9    0.22    0.04
   4   7  -9   -0.01    0.06
   3   7  -9    0.36    0.06
  -3  -7   9    0.28    0.04
  -3  -7   9    0.32    0.04
   2   7  -9    0.00    0.04
  -2  -7   9    0.01    0.03
  -2  -7   9   -0.01    0.03
   1   7  -9    7.23    0.15
  -1  -7   9    6.94    0.13
  -1  -7   9    7.00    0.13
   0   7  -9    0.00    0.03
   0  -7   9   -0.01    0.02
  -1   7  -9    0.11    0.03
   1  -7   9    0.12    0.02
   1  -7   9    0.10    0.03
  -2   7  -9    0.54    0.04
   2  -7   9    0.49    0.04
   2  -7   9    0.49    0.04
  -3   7  -9    0.24    0.04
   3  -7   9    0.24    0.04
   3  -7   9    0.26    0.03
  -4   7  -9    1.32    0.08
   4  -7   9    1.43    0.07
   4   6  -9    0.54    0.07
  -4  -6   9    0.46    0.05
   3   6  -9    1.17    0.07
  -3  -6   9    1.30    0.06
   2   6  -9    0.23    0.04
  -2  -6   9    0.20    0.03
  -2  -6   9    0.26    0.03
   1   6  -9    0.02    0.04
  -1  -6   9    0.03    0.02
  -1  -6   9    0.07    0.03
   0   6  -9    0.03    0.03
   0   6  -9    0.03    0.02
   0  -6   9    0.01    0.02
  -1   6  -9   -0.03    0.03
   1  -6   9    0.03    0.02
   1  -6   9    0.01    0.02
  -2   6  -9    1.06    0.05
   2  -6   9    1.18    0.05
   2  -6   9    1.14    0.05
  -3   6  -9    0.32    0.04
   3  -6   9    0.31    0.04
   3  -6   9    0.30    0.03
  -4   6  -9    0.05    0.04
   4  -6   9    0.04    0.04
   4   5  -9    0.12    0.06
  -4  -5   9    0.12    0.04
   3   5  -9    0.57    0.06
  -3  -5   9    0.48    0.04
   2   5  -9   16.76    0.29
  -2  -5   9   16.74    0.25
  -2  -5   9   16.73    0.25
   1   5  -9    1.21    0.06
  -1  -5   9    1.35    0.05
  -1  -5   9    1.25    0.05
   0   5  -9    0.01    0.02
   0   5  -9    0.04    0.03
   0  -5   9    0.03    0.02
  -1   5  -9    0.04    0.02
   1  -5   9    0.06    0.02
   1  -5   9    0.04    0.02
  -2   5  -9    2.44    0.08
   2  -5   9    2.51    0.07
   2  -5   9    2.55    0.07
  -3   5  -9   22.61    0.34
   3  -5   9   22.00    0.35
   3  -5   9   22.86    0.34
  -4   5  -9    0.94    0.06
   4  -5   9    0.86    0.06
   4   4  -9    0.86    0.07
  -4  -4   9    1.01    0.06
   3   4  -9    0.07    0.04
  -3  -4   9    0.05    0.03
   2   4  -9    0.85    0.06
  -2  -4   9    0.78    0.04
  -2  -4   9    0.74    0.04
   1   4  -9    0.16    0.03
  -1  -4   9    0.15    0.02
  -1  -4   9    0.14    0.03
   0   4  -9    0.01    0.02
   0  -4   9    0.06    0.02
  -1   4  -9    0.90    0.04
   1  -4   9    0.86    0.04
   1  -4   9    0.90    0.04
  -2   4  -9    0.10    0.03
   2  -4   9    0.10    0.03
   2  -4   9    0.13    0.03
  -3   4  -9    0.03    0.03
   3  -4   9    0.03    0.03
   3  -4   9    0.11    0.03
  -4   4  -9    0.71    0.06
   4  -4   9    0.70    0.06
   4   3  -9    2.80    0.10
  -4  -3   9    2.87    0.09
   3   3  -9    0.47    0.05
  -3  -3   9    0.63    0.05
   2   3  -9    0.28    0.04
  -2  -3   9    0.26    0.03
  -2  -3   9    0.25    0.03
   1   3  -9    0.31    0.03
  -1  -3   9    0.26    0.03
  -1  -3   9    0.25    0.02
   0   3  -9    0.06    0.02
   0  -3   9    0.09    0.02
   0  -3   9    0.08    0.02
  -1   3  -9    2.12    0.05
  -1   3  -9    2.10    0.05
   1  -3   9    2.03    0.05
  -2   3  -9   39.68    0.54
   2  -3   9   39.44    0.56
   2  -3   9   38.48    0.55
  -3   3  -9   15.08    0.24
   3  -3   9   15.51    0.25
  -4   3  -9    0.05    0.04
  -4   3  -9    0.07    0.04
   4  -3   9    0.01    0.03
   4   2  -9    0.30    0.05
  -4  -2   9    0.41    0.05
   3   2  -9    0.04    0.04
  -3  -2   9    0.07    0.03
   2   2  -9    0.02    0.03
  -2  -2   9    0.04    0.02
  -2  -2   9    0.04    0.02
   1   2  -9    1.46    0.06
   1   2  -9    1.53    0.04
  -1  -2   9    1.49    0.05
  -1  -2   9    1.43    0.04
   0   2  -9    1.23    0.05
   0  -2   9    1.23    0.04
   0  -2   9    1.25    0.04
  -1   2  -9    0.96    0.04
  -1   2  -9    1.03    0.03
   1  -2   9    1.01    0.04
  -2   2  -9    0.55    0.04
   2  -2   9    0.48    0.04
   2  -2   9    0.49    0.04
  -3   2  -9    2.92    0.08
  -3   2  -9    2.99    0.08
   3  -2   9    2.89    0.08
  -4   2  -9    2.16    0.08
  -4   2  -9    2.20    0.08
   4  -2   9    2.22    0.08
   4   1  -9    1.48    0.08
  -4  -1   9    1.48    0.07
   3   1  -9    0.97    0.06
  -3  -1   9    1.02    0.05
   2   1  -9    2.02    0.06
   2   1  -9    1.80    0.07
  -2  -1   9    1.98    0.06
   1   1  -9    3.86    0.07
   1   1  -9    3.65    0.09
  -1  -1   9    3.76    0.07
  -1  -1   9    3.65    0.08
   0   1  -9    0.91    0.04
   0  -1   9    0.93    0.04
   0  -1   9    0.93    0.03
  -1   1  -9    4.16    0.08
   1  -1   9    4.36    0.08
  -2   1  -9   12.66    0.19
   2  -1   9   12.89    0.20
  -3   1  -9    0.38    0.04
  -3   1  -9    0.43    0.04
  -4   1  -9    6.37    0.14
   4   0  -9    0.88    0.07
  -4   0   9    1.06    0.06
   3   0  -9    0.11    0.04
  -3   0   9    0.15    0.03
   2   0  -9    0.38    0.03
   2   0  -9    0.35    0.04
  -2   0   9    0.37    0.03
   1   0  -9    1.36    0.04
  -1   0   9    1.32    0.05
  -1   0   9    1.46    0.04
   0   0   9    3.88    0.07
   0   0   9    3.85    0.07
  -1   0  -9    0.07    0.02
   1   0   9    0.09    0.02
  -2   0  -9    1.11    0.05
  -2   0  -9    1.22    0.05
  -3   0  -9    7.03    0.14
  -3   0  -9    6.95    0.13
  -4   0  -9    2.75    0.09
   4  -1  -9    0.42    0.06
  -4   1   9    0.43    0.05
   3  -1  -9    1.36    0.06
   3  -1  -9    1.35    0.07
  -3   1   9    1.36    0.06
   2  -1  -9    3.75    0.10
   2  -1  -9    3.62    0.08
  -2   1   9    3.66    0.08
   1  -1  -9    0.72    0.04
  -1   1   9    0.79    0.03
  -1   1   9    0.72    0.04
   0   1   9    0.74    0.03
   0   1   9    0.76    0.03
  -1  -1  -9    0.27    0.03
  -1  -1  -9    0.24    0.02
  -2  -1  -9    1.36    0.06
  -2  -1  -9    1.44    0.05
  -3  -1  -9   16.55    0.26
  -4  -1  -9    0.16    0.05
   4  -2  -9    0.06    0.05
  -4   2   9    0.07    0.04
   3  -2  -9    1.31    0.07
   3  -2  -9    1.38    0.06
  -3   2   9    1.38    0.06
   2  -2  -9    1.67    0.06
  -2   2   9    1.57    0.06
   1  -2  -9    5.26    0.10
  -1   2   9    5.12    0.09
   0  -2  -9    0.76    0.04
   0   2   9    0.74    0.03
  -1  -2  -9    0.00    0.02
  -1  -2  -9    0.06    0.02
  -2  -2  -9   10.00    0.17
  -3  -2  -9   13.24    0.22
  -4  -2  -9    0.70    0.06
   4  -3  -9    0.35    0.05
   4  -3  -9    0.37    0.06
  -4   3   9    0.28    0.04
   3  -3  -9    2.29    0.08
   3  -3  -9    2.24    0.08
  -3   3   9    2.23    0.07
   2  -3  -9    2.29    0.07
  -2   3   9    2.38    0.07
   1  -3  -9    2.00    0.06
   1  -3  -9    1.91    0.05
  -1   3   9    2.04    0.05
   0  -3  -9    0.10    0.02
   0   3   9    0.07    0.02
  -1  -3  -9    0.03    0.03
  -2  -3  -9    9.76    0.17
  -3  -3  -9    0.45    0.05
  -4  -3  -9   -0.02    0.04
   4  -4  -9    2.68    0.10
   4  -4  -9    2.76    0.10
  -4   4   9    2.72    0.09
   3  -4  -9    0.29    0.04
  -3   4   9    0.27    0.04
   2  -4  -9    0.30    0.04
  -2   4   9    0.35    0.04
   1  -4  -9    6.18    0.12
  -1   4   9    6.20    0.11
   0  -4  -9    1.50    0.05
  -1  -4  -9    0.33    0.04
  -2  -4  -9   12.42    0.21
  -3  -4  -9    1.20    0.07
  -4  -4  -9    0.39    0.05
   4  -5  -9    0.75    0.07
   4  -5  -9    0.79    0.07
  -4   5   9    0.80    0.06
   3  -5  -9    0.63    0.06
  -3   5   9    0.68    0.05
   2  -5  -9    0.59    0.05
  -2   5   9    0.67    0.04
   1  -5  -9    0.05    0.03
  -1   5   9   -0.02    0.02
   0  -5  -9    0.10    0.03
  -1  -5  -9   -0.04    0.03
  -2  -5  -9    0.10    0.03
  -3  -5  -9    0.23    0.04
   4  -6  -9   -0.04    0.05
   4  -6  -9    0.07    0.05
  -4   6   9    0.00    0.04
   3  -6  -9    0.07    0.04
  -3   6   9    0.12    0.04
   2  -6  -9    1.22    0.07
  -2   6   9    1.31    0.05
   1  -6  -9    0.46    0.05
   0  -6  -9    0.44    0.04
  -1  -6  -9   -0.04    0.03
  -2  -6  -9    0.09    0.04
  -3  -6  -9    1.54    0.08
   4  -7  -9    0.27    0.06
  -4   7   9    0.28    0.05
   3  -7  -9    0.02    0.04
  -3   7   9    0.02    0.03
   2  -7  -9   -0.06    0.03
   1  -7  -9    0.84    0.06
   0  -7  -9    0.09    0.03
   0  -7  -9    0.03    0.03
  -1  -7  -9    0.04    0.03
  -2  -7  -9    0.06    0.04
  -3  -7  -9    0.68    0.06
   3  -8  -9    0.02    0.04
   2  -8  -9    1.32    0.07
   1  -8  -9    6.18    0.14
   0  -8  -9    0.04    0.03
   0  -8  -9    0.07    0.03
  -1  -8  -9    0.03    0.03
  -2  -8  -9    0.93    0.07
   3  -9  -9    0.07    0.05
   2  -9  -9    0.07    0.04
   1  -9  -9    0.02    0.04
   0  -9  -9    0.32    0.04
  -1  -9  -9   -0.01    0.04
  -2  -9  -9    0.39    0.05
   2 -10  -9   10.14    0.21
   1 -10  -9    1.43    0.07
   0 -10  -9    0.23    0.04
  -1 -10  -9    0.22    0.05
  -2 -10  -9    0.55    0.06
   2 -11  -9    0.03    0.05
   1 -11  -9    0.59    0.06
   0 -11  -9    0.06    0.04
  -1 -11  -9    0.05    0.04
  -1 -11  -9    0.12    0.04
   1 -12  -9    0.18    0.05
   0 -12  -9    0.02    0.04
   0 -14  10    2.86    0.09
   1 -14  10    0.13    0.04
  -2  14 -10   -0.04    0.04
  -1 -13  10    1.65    0.08
   0 -13  10    0.47    0.05
  -1  13 -10    0.02    0.03
   1 -13  10    0.12    0.04
  -2  13 -10    0.04    0.04
   2 -13  10    0.13    0.04
  -2 -12  10    0.08    0.04
  -1 -12  10    0.85    0.06
   0  12 -10    0.00    0.03
   0 -12  10    0.06    0.03
  -1  12 -10    0.06    0.04
   1 -12  10    0.11    0.03
  -2  12 -10    0.85    0.06
   2 -12  10    0.80    0.05
  -2 -11  10    0.17    0.04
   1  11 -10    0.03    0.03
  -1 -11  10   -0.03    0.03
   0  11 -10    0.05    0.03
   0 -11  10    0.04    0.03
  -1  11 -10   -0.06    0.03
   1 -11  10   -0.04    0.03
  -2  11 -10    0.82    0.06
   2 -11  10    0.86    0.05
  -3  11 -10    0.01    0.05
  -3 -10  10    0.22    0.04
  -2 -10  10    0.34    0.04
   1  10 -10    1.13    0.05
  -1 -10  10    1.16    0.06
   0  10 -10    1.08    0.05
   0 -10  10    1.14    0.06
  -1  10 -10    1.53    0.06
   1 -10  10    1.57    0.06
  -2  10 -10    1.60    0.07
   2 -10  10    1.61    0.06
  -3  10 -10    0.17    0.05
  -3  -9  10    0.07    0.04
  -2  -9  10    0.23    0.03
  -2  -9  10    0.22    0.04
   1   9 -10    0.95    0.05
  -1  -9  10    0.95    0.05
   0   9 -10    0.84    0.04
   0  -9  10    0.82    0.05
  -1   9 -10    0.04    0.03
   1  -9  10    0.00    0.03
  -2   9 -10    0.01    0.04
   2  -9  10    0.08    0.03
  -3   9 -10    0.46    0.05
   3  -9  10    0.53    0.05
   3  -9  10    0.48    0.04
   3   8 -10   -0.01    0.05
  -3  -8  10    0.00    0.03
  -3  -8  10    0.02    0.04
   2   8 -10    0.69    0.06
  -2  -8  10    0.58    0.05
  -2  -8  10    0.56    0.04
   1   8 -10    0.12    0.04
  -1  -8  10    0.04    0.03
  -1  -8  10    0.02    0.03
  -1   8 -10    1.78    0.06
   1  -8  10    1.72    0.06
  -2   8 -10    1.70    0.06
   2  -8  10    1.63    0.06
   2  -8  10    1.58    0.06
  -3   8 -10    1.25    0.07
   3  -8  10    1.41    0.06
   3  -8  10    1.34    0.06
   4  -8  10    0.06    0.04
   3   7 -10    0.97    0.08
  -3  -7  10    0.99    0.06
   2   7 -10    1.79    0.08
  -2  -7  10    1.69    0.06
  -2  -7  10    1.73    0.06
   1   7 -10    0.73    0.06
  -1  -7  10    0.75    0.05
  -1  -7  10    0.74    0.05
   0   7 -10    0.03    0.03
   0  -7  10    0.02    0.02
  -1   7 -10    0.42    0.04
   1  -7  10    0.41    0.04
  -2   7 -10    0.42    0.04
   2  -7  10    0.49    0.04
   2  -7  10    0.45    0.04
  -3   7 -10    1.39    0.07
   3  -7  10    1.38    0.06
   3  -7  10    1.42    0.06
  -4   7 -10    0.54    0.06
   4  -7  10    0.53    0.05
   4   6 -10    1.05    0.09
  -4  -6  10    1.06    0.06
   3   6 -10    0.25    0.05
  -3  -6  10    0.44    0.04
   2   6 -10    3.41    0.10
  -2  -6  10    3.33    0.08
  -2  -6  10    3.30    0.08
   1   6 -10    2.16    0.07
  -1  -6  10    2.25    0.07
  -1  -6  10    2.23    0.07
   0   6 -10    2.31    0.06
   0   6 -10    2.22    0.07
   0  -6  10    2.37    0.06
  -1   6 -10    0.29    0.03
   1  -6  10    0.29    0.02
   1  -6  10    0.29    0.03
  -2   6 -10    1.50    0.06
   2  -6  10    1.40    0.05
   2  -6  10    1.37    0.05
  -3   6 -10    4.88    0.11
   3  -6  10    5.03    0.11
   3  -6  10    5.10    0.11
  -4   6 -10    1.85    0.08
   4  -6  10    1.83    0.08
   4   5 -10    1.16    0.08
  -4  -5  10    1.10    0.06
   3   5 -10    0.47    0.06
  -3  -5  10    0.55    0.04
   2   5 -10    0.43    0.05
  -2  -5  10    0.51    0.04
  -2  -5  10    0.42    0.04
   1   5 -10    0.01    0.03
  -1  -5  10    0.02    0.02
  -1  -5  10    0.05    0.02
   0   5 -10    2.16    0.06
   0   5 -10    2.14    0.06
   0  -5  10    2.08    0.06
  -1   5 -10    0.18    0.03
   1  -5  10    0.10    0.02
   1  -5  10    0.14    0.02
  -2   5 -10    9.79    0.17
   2  -5  10    9.76    0.17
   2  -5  10    9.83    0.17
  -3   5 -10    0.50    0.05
   3  -5  10    0.50    0.04
   3  -5  10    0.46    0.04
  -4   5 -10    0.00    0.04
   4  -5  10    0.05    0.04
   4   4 -10    1.24    0.09
  -4  -4  10    1.29    0.07
   3   4 -10    0.71    0.06
  -3  -4  10    0.86    0.05
   2   4 -10    2.94    0.09
  -2  -4  10    2.88    0.07
  -2  -4  10    2.74    0.07
   1   4 -10    3.00    0.08
  -1  -4  10    2.95    0.07
  -1  -4  10    3.11    0.07
   0   4 -10    3.61    0.08
   0  -4  10    3.59    0.07
  -1   4 -10    3.50    0.08
   1  -4  10    3.46    0.08
  -2   4 -10   23.88    0.35
   2  -4  10   23.97    0.36
   2  -4  10   23.75    0.35
  -3   4 -10    1.25    0.06
   3  -4  10    1.13    0.05
   3  -4  10    1.07    0.06
  -4   4 -10    0.07    0.04
  -4   4 -10   -0.01    0.04
   4  -4  10   -0.02    0.03
   4   3 -10    0.76    0.07
  -4  -3  10    0.89    0.06
   3   3 -10    0.32    0.05
  -3  -3  10    0.40    0.04
   2   3 -10    0.04    0.04
  -2  -3  10    0.08    0.03
  -2  -3  10    0.08    0.02
   1   3 -10    0.91    0.06
  -1  -3  10    0.90    0.04
  -1  -3  10    0.92    0.04
   0   3 -10    1.92    0.06
   0  -3  10    1.84    0.05
   0  -3  10    1.85    0.05
  -1   3 -10   21.91    0.31
   1  -3  10   21.94    0.32
  -2   3 -10   -0.01    0.03
   2  -3  10    0.00    0.02
   2  -3  10    0.00    0.02
  -3   3 -10    0.67    0.05
   3  -3  10    0.73    0.05
  -4   3 -10    1.97    0.07
  -4   3 -10    1.86    0.07
   4  -3  10    1.81    0.08
   4   2 -10    0.59    0.06
  -4  -2  10    0.60    0.05
   3   2 -10    0.33    0.05
  -3  -2  10    0.33    0.04
   2   2 -10    0.18    0.04
  -2  -2  10    0.17    0.03
   1   2 -10    1.50    0.04
   1   2 -10    1.50    0.06
  -1  -2  10    1.43    0.04
  -1  -2  10    1.53    0.05
   0   2 -10   15.75    0.25
   0  -2  10   15.71    0.23
   0  -2  10   15.94    0.23
  -1   2 -10    4.37    0.08
   1  -2  10    4.34    0.09
  -2   2 -10    6.58    0.12
   2  -2  10    6.64    0.12
  -3   2 -10    0.05    0.03
  -3   2 -10    0.04    0.03
  -4   2 -10    2.62    0.08
  -4   2 -10    2.51    0.09
   4   1 -10    0.14    0.05
  -4  -1  10    0.22    0.04
   3   1 -10    0.01    0.04
  -3  -1  10   -0.01    0.03
   2   1 -10    0.00    0.03
  -2  -1  10    0.05    0.03
   1   1 -10    8.89    0.14
   1   1 -10    8.59    0.16
  -1  -1  10    8.60    0.13
  -1  -1  10    8.48    0.14
   0   1 -10    4.57    0.09
   0  -1  10    4.70    0.08
   0  -1  10    4.66    0.09
  -1   1 -10    6.79    0.11
   1  -1  10    6.80    0.12
  -2   1 -10    0.37    0.03
   2  -1  10    0.37    0.03
  -3   1 -10    2.92    0.09
  -3   1 -10    2.89    0.08
  -4   1 -10    0.26    0.05
   4   0 -10    0.03    0.04
  -4   0  10    0.06    0.04
   3   0 -10    0.43    0.05
  -3   0  10    0.34    0.04
   2   0 -10   -0.01    0.03
   2   0 -10    0.05    0.03
  -2   0  10    0.04    0.03
   1   0 -10    9.20    0.15
  -1   0  10    9.54    0.14
  -1   0  10    9.15    0.15
   0   0  10    3.27    0.07
   0   0  10    3.18    0.07
  -1   0 -10    2.67    0.06
   1   0  10    2.56    0.06
  -2   0 -10    0.35    0.03
  -2   0 -10    0.35    0.04
  -3   0 -10    0.93    0.06
  -4   0 -10    0.00    0.04
   4  -1 -10   -0.05    0.05
  -4   1  10    0.03    0.03
   3  -1 -10    0.25    0.05
  -3   1  10    0.24    0.04
   2  -1 -10    0.59    0.05
   2  -1 -10    0.52    0.05
  -2   1  10    0.58    0.05
   1  -1 -10    0.35    0.03
  -1   1  10    0.43    0.03
  -1   1  10    0.39    0.03
   0   1  10   23.61    0.33
   0   1  10   23.93    0.33
  -1  -1 -10    1.67    0.05
  -1  -1 -10    1.64    0.04
  -2  -1 -10    5.27    0.10
  -2  -1 -10    5.07    0.11
  -3  -1 -10    1.18    0.06
  -4  -1 -10    0.15    0.05
   4  -2 -10    0.50    0.06
  -4   2  10    0.49    0.05
   3  -2 -10    0.07    0.04
   3  -2 -10    0.13    0.04
  -3   2  10    0.08    0.03
   2  -2 -10    1.69    0.06
  -2   2  10    1.62    0.06
   1  -2 -10    0.06    0.03
  -1   2  10    0.04    0.02
   0  -2 -10    0.99    0.04
   0   2  10    0.90    0.04
  -1  -2 -10    0.03    0.03
  -1  -2 -10    0.02    0.02
  -2  -2 -10    0.39    0.04
  -3  -2 -10    0.68    0.05
  -4  -2 -10    0.04    0.05
   4  -3 -10    1.44    0.08
  -4   3  10    1.54    0.07
   3  -3 -10    0.13    0.04
   3  -3 -10    0.10    0.04
  -3   3  10    0.11    0.03
   2  -3 -10    0.44    0.04
  -2   3  10    0.44    0.04
   1  -3 -10    2.79    0.07
  -1   3  10    2.74    0.06
   0  -3 -10    0.28    0.03
   0   3  10    0.27    0.02
  -1  -3 -10   32.32    0.46
  -2  -3 -10    4.19    0.10
  -3  -3 -10    0.04    0.04
   4  -4 -10   -0.01    0.04
   4  -4 -10    0.06    0.05
  -4   4  10   -0.01    0.04
   3  -4 -10    1.08    0.07
  -3   4  10    1.17    0.06
   2  -4 -10    0.80    0.06
  -2   4  10    0.79    0.05
   1  -4 -10    0.68    0.05
  -1   4  10    0.60    0.04
   0  -4 -10    0.59    0.04
  -1  -4 -10    2.09    0.07
  -2  -4 -10    2.00    0.07
  -3  -4 -10    0.00    0.04
   4  -5 -10    0.46    0.06
   4  -5 -10    0.48    0.06
  -4   5  10    0.47    0.05
   3  -5 -10    0.31    0.05
  -3   5  10    0.32    0.04
   2  -5 -10   -0.03    0.03
  -2   5  10    0.01    0.03
   1  -5 -10    0.68    0.05
   0  -5 -10   75.11    1.01
  -1  -5 -10    0.37    0.04
  -2  -5 -10   -0.01    0.03
  -3  -5 -10   -0.03    0.04
   4  -6 -10    0.61    0.06
   4  -6 -10    0.53    0.06
  -4   6  10    0.51    0.06
   3  -6 -10    0.36    0.05
  -3   6  10    0.37    0.04
   2  -6 -10    0.60    0.05
  -2   6  10    0.61    0.04
   1  -6 -10    4.09    0.10
   0  -6 -10    0.29    0.03
  -1  -6 -10    4.41    0.10
  -2  -6 -10    0.22    0.04
  -3  -6 -10    0.30    0.05
   3  -7 -10    0.06    0.05
  -3   7  10    0.10    0.04
   2  -7 -10    0.13    0.04
   1  -7 -10   22.49    0.36
   0  -7 -10    5.76    0.13
   0  -7 -10    5.57    0.11
  -1  -7 -10    0.05    0.04
  -2  -7 -10    0.40    0.05
  -3  -7 -10    0.85    0.07
   3  -8 -10    0.73    0.07
   2  -8 -10    1.06    0.07
   1  -8 -10   -0.01    0.04
   0  -8 -10    3.61    0.10
  -1  -8 -10    0.23    0.04
  -2  -8 -10    0.58    0.06
   3  -9 -10    0.55    0.06
   2  -9 -10    0.89    0.07
   1  -9 -10    0.12    0.04
   0  -9 -10    0.38    0.05
  -1  -9 -10    0.03    0.04
  -2  -9 -10    0.25    0.05
   2 -10 -10    0.33    0.06
   1 -10 -10    0.15    0.05
   0 -10 -10    0.72    0.06
  -1 -10 -10    3.03    0.09
  -2 -10 -10    0.16    0.05
   1 -11 -10    0.15    0.05
   0 -11 -10    0.29    0.05
  -1 -11 -10    0.63    0.06
  -1 -11 -10    0.77    0.06
   0 -14  11    0.07    0.04
   1 -14  11    0.06    0.04
   2 -14  11    0.17    0.04
  -1 -13  11    0.20    0.05
   0 -13  11    0.06    0.04
  -1  13 -11    0.04    0.04
   1 -13  11    0.11    0.04
  -2  13 -11    0.00    0.05
   2 -13  11    0.01    0.04
  -2 -12  11    0.06    0.04
  -1 -12  11    0.09    0.04
   0  12 -11   -0.02    0.03
   0 -12  11    0.00    0.04
  -1  12 -11    0.28    0.04
   1 -12  11    0.25    0.04
  -2  12 -11    0.43    0.05
   2 -12  11    0.54    0.05
  -2 -11  11    4.54    0.12
   1  11 -11    0.91    0.05
  -1 -11  11    0.81    0.06
   0  11 -11    0.09    0.03
   0 -11  11    0.05    0.03
  -1  11 -11    0.39    0.04
   1 -11  11    0.34    0.04
  -2  11 -11    0.04    0.04
   2 -11  11    0.03    0.03
  -3  11 -11    0.43    0.06
  -3 -10  11    0.00    0.04
  -2 -10  11    0.09    0.04
  -2 -10  11    0.06    0.03
   1  10 -11    0.33    0.04
  -1 -10  11    0.32    0.04
   0  10 -11    0.08    0.03
   0 -10  11    0.06    0.03
  -1  10 -11    0.03    0.03
   1 -10  11    0.07    0.03
  -2  10 -11    0.07    0.04
   2 -10  11    0.03    0.03
  -3  10 -11    0.10    0.05
   3 -10  11    0.01    0.03
  -3  -9  11    3.86    0.11
  -2  -9  11    1.60    0.07
  -2  -9  11    1.67    0.06
   1   9 -11    0.02    0.03
  -1  -9  11   -0.04    0.03
   0   9 -11    0.11    0.03
   1  -9  11    0.57    0.04
  -2   9 -11    1.87    0.07
   2  -9  11    1.79    0.06
  -3   9 -11    0.08    0.04
   3  -9  11    0.15    0.04
   3  -9  11    0.20    0.04
   3   8 -11    0.63    0.07
  -3  -8  11    0.77    0.06
   2   8 -11    2.40    0.09
  -2  -8  11    2.47    0.08
  -2  -8  11    2.43    0.07
   1   8 -11    0.83    0.06
  -1  -8  11    0.83    0.04
  -1  -8  11    0.78    0.05
   0   8 -11    0.04    0.03
   0  -8  11    0.02    0.03
  -1   8 -11    0.05    0.03
   1  -8  11    0.07    0.03
  -2   8 -11    0.61    0.05
   2  -8  11    0.66    0.05
  -3   8 -11    0.47    0.05
   3  -8  11    0.52    0.04
   3  -8  11    0.49    0.04
  -4  -7  11    0.54    0.06
   3   7 -11    0.64    0.07
  -3  -7  11    0.59    0.05
   2   7 -11    1.72    0.08
  -2  -7  11    1.59    0.06
  -2  -7  11    1.61    0.06
   1   7 -11    0.00    0.04
  -1  -7  11   -0.02    0.03
  -1  -7  11   -0.02    0.03
  -1   7 -11    1.21    0.06
   1  -7  11    1.11    0.05
  -2   7 -11    0.01    0.03
   2  -7  11    0.01    0.03
   2  -7  11    0.03    0.02
  -3   7 -11    0.06    0.04
   3  -7  11    0.05    0.03
   3  -7  11    0.04    0.03
   4  -7  11    2.43    0.09
  -4  -6  11    0.99    0.07
   3   6 -11    3.12    0.11
  -3  -6  11    3.22    0.09
   2   6 -11    0.05    0.04
  -2  -6  11    0.00    0.03
  -2  -6  11    0.04    0.03
   1   6 -11    0.03    0.04
  -1  -6  11    0.04    0.03
  -1  -6  11    0.02    0.03
   0   6 -11   -0.01    0.03
   0   6 -11   -0.01    0.03
   0  -6  11    0.00    0.02
  -1   6 -11    0.18    0.03
   1  -6  11    0.17    0.03
  -2   6 -11    0.00    0.03
   2  -6  11    0.04    0.02
   2  -6  11    0.00    0.02
  -3   6 -11   -0.04    0.04
   3  -6  11    0.03    0.03
   3  -6  11    0.02    0.03
  -4   6 -11    0.10    0.05
   4  -6  11    0.16    0.04
   4   5 -11    0.61    0.07
  -4  -5  11    0.62    0.05
   3   5 -11    1.85    0.09
  -3  -5  11    1.90    0.07
   2   5 -11    0.07    0.04
  -2  -5  11    0.04    0.03
  -2  -5  11    0.11    0.03
   1   5 -11    0.27    0.04
  -1  -5  11    0.28    0.03
  -1  -5  11    0.30    0.03
   0   5 -11    0.14    0.03
   0   5 -11    0.13    0.03
   0  -5  11    0.17    0.03
  -1   5 -11    0.23    0.03
   1  -5  11    0.21    0.03
  -2   5 -11    6.74    0.13
   2  -5  11    7.12    0.13
   2  -5  11    6.81    0.13
  -3   5 -11    0.56    0.05
   3  -5  11    0.43    0.04
   3  -5  11    0.49    0.04
  -4   5 -11    0.01    0.04
  -4   5 -11    0.03    0.04
   4  -5  11   -0.02    0.04
   4   4 -11    0.09    0.06
  -4  -4  11    0.11    0.04
   3   4 -11    0.07    0.04
  -3  -4  11    0.10    0.03
   2   4 -11    0.12    0.04
  -2  -4  11    0.13    0.03
  -2  -4  11    0.13    0.03
   1   4 -11    0.13    0.04
  -1  -4  11    0.10    0.03
  -1  -4  11    0.12    0.03
   0   4 -11    0.14    0.03
   0   4 -11    0.15    0.03
   0  -4  11    0.10    0.02
  -1   4 -11    0.83    0.05
   1  -4  11    0.71    0.04
  -2   4 -11    7.53    0.14
   2  -4  11    7.69    0.14
   2  -4  11    7.44    0.14
  -3   4 -11    0.83    0.05
   3  -4  11    0.89    0.05
   3  -4  11    0.84    0.05
  -4   4 -11    0.40    0.05
  -4   4 -11    0.39    0.05
   4  -4  11    0.51    0.05
   4   3 -11    0.15    0.06
  -4  -3  11    0.10    0.04
   3   3 -11    0.04    0.04
  -3  -3  11    0.06    0.03
   2   3 -11    0.30    0.05
  -2  -3  11    0.23    0.03
   1   3 -11    0.52    0.04
  -1  -3  11    0.44    0.03
  -1  -3  11    0.42    0.03
   0   3 -11    0.25    0.03
   0  -3  11    0.22    0.03
  -1   3 -11    3.18    0.07
   1  -3  11    3.08    0.07
  -2   3 -11    0.41    0.04
   2  -3  11    0.43    0.04
  -3   3 -11    0.02    0.03
   3  -3  11    0.08    0.03
  -4   3 -11    0.13    0.04
  -4   3 -11    0.09    0.04
   4   2 -11    1.07    0.08
  -4  -2  11    1.12    0.07
   3   2 -11    0.61    0.06
  -3  -2  11    0.67    0.05
   2   2 -11    0.15    0.04
  -2  -2  11    0.12    0.03
   1   2 -11    4.61    0.11
  -1  -2  11    4.59    0.09
  -1  -2  11    4.58    0.09
   0   2 -11    3.54    0.08
   0  -2  11    3.49    0.07
   0  -2  11    3.47    0.07
  -1   2 -11    3.66    0.08
   1  -2  11    3.74    0.08
  -2   2 -11    4.36    0.09
   2  -2  11    4.42    0.10
  -3   2 -11    1.00    0.06
  -3   2 -11    1.04    0.06
  -4   2 -11    1.00    0.07
   4   1 -11    0.16    0.05
  -4  -1  11    0.17    0.04
   3   1 -11    0.15    0.05
  -3  -1  11    0.23    0.04
   2   1 -11    0.20    0.04
  -2  -1  11    0.24    0.03
   1   1 -11    0.14    0.04
   1   1 -11    0.16    0.02
  -1  -1  11    0.17    0.02
  -1  -1  11    0.16    0.03
   0   1 -11    3.55    0.08
   0  -1  11    3.60    0.07
   0  -1  11    3.45    0.07
  -1   1 -11    0.08    0.02
   1  -1  11    0.03    0.02
  -2   1 -11    0.20    0.03
   2  -1  11    0.21    0.03
  -3   1 -11    0.01    0.03
  -3   1 -11    0.12    0.03
  -4   1 -11    0.45    0.05
   4   0 -11    0.94    0.07
  -4   0  11    0.86    0.06
   3   0 -11    0.16    0.04
  -3   0  11    0.12    0.03
   2   0 -11    1.96    0.07
  -2   0  11    2.09    0.07
   1   0 -11   27.58    0.43
   1   0 -11   27.28    0.40
  -1   0  11   27.91    0.38
  -1   0  11   27.36    0.39
   0   0  11    7.37    0.12
   0   0  11    7.72    0.13
  -1   0 -11    0.24    0.03
   1   0  11    0.24    0.03
  -2   0 -11    5.15    0.10
  -2   0 -11    4.94    0.11
  -3   0 -11    0.03    0.03
  -4   0 -11    0.25    0.05
   4  -1 -11    0.97    0.07
  -4   1  11    0.93    0.06
   3  -1 -11    0.72    0.06
  -3   1  11    0.77    0.05
   2  -1 -11    2.80    0.08
   2  -1 -11    2.78    0.09
  -2   1  11    2.89    0.08
   1  -1 -11    3.41    0.08
  -1   1  11    3.53    0.07
  -1   1  11    3.47    0.08
   0   1  11    0.07    0.02
   0   1  11    0.03    0.02
  -1  -1 -11    0.05    0.02
  -1  -1 -11   -0.02    0.03
  -2  -1 -11    0.03    0.03
  -3  -1 -11    0.43    0.05
  -4  -1 -11    0.09    0.04
   4  -2 -11    0.86    0.08
  -4   2  11    0.95    0.07
   3  -2 -11    0.07    0.04
  -3   2  11    0.10    0.03
   2  -2 -11   10.88    0.19
  -2   2  11   10.77    0.18
   1  -2 -11    7.25    0.13
  -1   2  11    7.47    0.13
   0  -2 -11    0.26    0.03
   0   2  11    0.30    0.03
  -1  -2 -11    0.28    0.04
  -2  -2 -11    1.70    0.06
  -3  -2 -11    0.04    0.04
   4  -3 -11    0.11    0.05
  -4   3  11    0.14    0.04
   3  -3 -11    1.20    0.07
   3  -3 -11    1.24    0.07
  -3   3  11    1.21    0.06
   2  -3 -11    0.51    0.04
  -2   3  11    0.44    0.04
   1  -3 -11    0.37    0.04
  -1   3  11    0.46    0.03
   0  -3 -11    0.05    0.03
   0   3  11    0.08    0.02
  -1  -3 -11   -0.01    0.03
  -2  -3 -11    0.65    0.05
  -3  -3 -11    0.10    0.04
   4  -4 -11    0.14    0.05
  -4   4  11    0.20    0.04
   3  -4 -11    4.13    0.11
  -3   4  11    3.96    0.10
   2  -4 -11    0.40    0.04
  -2   4  11    0.39    0.04
   1  -4 -11    0.33    0.04
  -1   4  11    0.38    0.03
   0  -4 -11   16.65    0.25
  -1  -4 -11   -0.01    0.03
  -2  -4 -11    0.01    0.03
  -3  -4 -11    0.34    0.05
   4  -5 -11    0.56    0.06
   4  -5 -11    0.58    0.07
   3  -5 -11   -0.06    0.04
  -3   5  11    0.02    0.03
   2  -5 -11    0.28    0.04
  -2   5  11    0.35    0.04
   1  -5 -11    2.18    0.08
   0  -5 -11    2.54    0.07
  -1  -5 -11    0.08    0.03
  -2  -5 -11   -0.04    0.04
  -3  -5 -11    0.06    0.04
   4  -6 -11    2.06    0.10
   3  -6 -11    0.45    0.06
  -3   6  11    0.43    0.05
   2  -6 -11    0.05    0.04
   1  -6 -11   13.48    0.23
   0  -6 -11    8.44    0.15
  -1  -6 -11    0.00    0.03
  -2  -6 -11    0.04    0.04
  -3  -6 -11    0.00    0.04
   3  -7 -11    0.06    0.05
   2  -7 -11    0.25    0.05
   1  -7 -11    4.36    0.11
   0  -7 -11    2.04    0.08
  -1  -7 -11    0.07    0.04
  -2  -7 -11    0.15    0.04
   3  -8 -11    0.00    0.05
   2  -8 -11    0.27    0.05
   1  -8 -11    4.16    0.11
   0  -8 -11    0.31    0.04
  -1  -8 -11    0.03    0.04
  -2  -8 -11    0.00    0.04
   2  -9 -11    0.23    0.05
   1  -9 -11    0.24    0.05
   0  -9 -11    0.87    0.06
  -1  -9 -11    0.12    0.04
  -2  -9 -11    0.16    0.05
   2 -10 -11    0.48    0.06
   1 -10 -11    0.49    0.06
   0 -10 -11    0.28    0.05
  -1 -10 -11   -0.06    0.04
   0 -11 -11    2.71    0.10
  -1  14 -12    0.00    0.04
   1 -14  12    0.02    0.04
  -1 -13  12    0.01    0.04
   0  13 -12    0.09    0.04
   0 -13  12    0.05    0.04
  -1  13 -12    1.00    0.06
   1 -13  12    1.10    0.06
  -2  13 -12    0.28    0.05
   2 -13  12    0.32    0.05
  -2 -12  12    0.85    0.06
  -1 -12  12    0.29    0.04
   0  12 -12    0.05    0.04
   0 -12  12    0.03    0.03
  -1  12 -12    1.94    0.08
   1 -12  12    2.09    0.08
  -2  12 -12    0.02    0.04
   2 -12  12    0.05    0.04
  -2 -11  12    0.06    0.04
   1  11 -12    0.06    0.03
  -1 -11  12    0.13    0.04
   0  11 -12    1.34    0.06
   0 -11  12    1.43    0.07
  -1  11 -12    0.12    0.04
   1 -11  12    0.17    0.04
  -2  11 -12    0.24    0.04
   2 -11  12    0.22    0.04
  -3 -10  12    0.11    0.04
  -2 -10  12    0.08    0.03
  -2 -10  12    0.15    0.04
   1  10 -12    0.02    0.03
  -1 -10  12    0.05    0.03
   0  10 -12    1.43    0.06
   0 -10  12    1.56    0.06
  -1  10 -12    2.83    0.08
   1 -10  12    2.77    0.08
  -2  10 -12    0.45    0.05
   2 -10  12    0.42    0.04
  -3  10 -12    0.02    0.05
   3 -10  12    0.01    0.04
   3   9 -12    0.41    0.07
  -3  -9  12    0.48    0.05
   2   9 -12    0.08    0.05
  -2  -9  12    0.05    0.03
  -2  -9  12    0.12    0.03
   1   9 -12    0.29    0.04
  -1  -9  12    0.33    0.04
   0   9 -12    1.64    0.06
   0  -9  12    1.61    0.06
  -1   9 -12    1.47    0.06
   1  -9  12    1.48    0.06
  -2   9 -12    1.67    0.07
   2  -9  12    1.57    0.06
  -3   9 -12    2.93    0.10
   3  -9  12    3.10    0.09
   3   8 -12    0.02    0.05
  -3  -8  12    0.02    0.03
   2   8 -12    0.11    0.05
  -2  -8  12    0.08    0.03
  -2  -8  12    0.09    0.03
   1   8 -12    1.14    0.06
  -1  -8  12    1.18    0.05
  -1  -8  12    1.23    0.06
   0   8 -12    0.64    0.04
   0  -8  12    0.65    0.04
  -1   8 -12    2.00    0.07
   1  -8  12    1.90    0.06
  -2   8 -12    0.80    0.06
   2  -8  12    0.71    0.05
  -3   8 -12    2.16    0.08
   3  -8  12    2.13    0.07
   3  -8  12    1.99    0.07
   3   7 -12    1.72    0.09
  -3  -7  12    1.78    0.07
   2   7 -12    1.51    0.08
  -2  -7  12    1.63    0.06
  -2  -7  12    1.61    0.06
   1   7 -12    1.73    0.07
  -1  -7  12    1.65    0.06
  -1  -7  12    1.70    0.06
   0   7 -12    0.57    0.04
   0   7 -12    0.57    0.05
   0  -7  12    0.63    0.05
  -1   7 -12    2.34    0.07
   1  -7  12    2.30    0.07
  -2   7 -12   14.39    0.23
   2  -7  12   13.89    0.23
  -3   7 -12   -0.02    0.04
   3  -7  12    0.02    0.03
   3  -7  12    0.02    0.03
   3   6 -12    0.13    0.05
  -3  -6  12    0.13    0.04
   2   6 -12    1.59    0.08
  -2  -6  12    1.81    0.06
  -2  -6  12    1.74    0.06
   1   6 -12    0.17    0.04
  -1  -6  12    0.19    0.03
  -1  -6  12    0.21    0.03
   0   6 -12   -0.01    0.03
   0   6 -12    0.03    0.03
   0  -6  12    0.00    0.02
  -1   6 -12    2.03    0.06
   1  -6  12    2.13    0.07
   2  -6  12   16.21    0.25
   2  -6  12   15.72    0.25
  -3   6 -12    0.11    0.04
   3  -6  12    0.06    0.03
   3  -6  12    0.08    0.03
  -4   6 -12    0.27    0.05
   4  -6  12    0.20    0.04
  -4  -5  12    0.49    0.05
   3   5 -12    4.30    0.12
  -3  -5  12    4.52    0.11
   2   5 -12    1.99    0.08
  -2  -5  12    2.02    0.06
  -2  -5  12    1.96    0.06
   1   5 -12    0.39    0.05
  -1  -5  12    0.42    0.04
  -1  -5  12    0.48    0.04
   0   5 -12    0.36    0.04
   0   5 -12    0.41    0.04
   0  -5  12    0.35    0.03
  -1   5 -12   50.45    0.69
   1  -5  12   50.60    0.70
  -2   5 -12   16.65    0.26
   2  -5  12   16.56    0.26
   2  -5  12   16.19    0.26
  -3   5 -12    0.30    0.04
   3  -5  12    0.31    0.04
   3  -5  12    0.32    0.04
  -4   5 -12    0.05    0.04
  -4   5 -12    0.08    0.05
   4  -5  12    0.07    0.04
   4   4 -12   -0.11    0.06
  -4  -4  12   -0.03    0.04
   3   4 -12    0.53    0.06
  -3  -4  12    0.60    0.05
   2   4 -12    0.51    0.05
  -2  -4  12    0.52    0.04
  -2  -4  12    0.58    0.04
   1   4 -12    0.73    0.06
  -1  -4  12    0.91    0.05
  -1  -4  12    0.93    0.04
   0   4 -12    8.10    0.15
   0   4 -12    8.11    0.14
   0  -4  12    7.96    0.14
  -1   4 -12   22.53    0.33
   1  -4  12   22.43    0.33
  -2   4 -12    0.39    0.04
   2  -4  12    0.34    0.04
  -3   4 -12    0.33    0.04
   3  -4  12    0.35    0.04
   3  -4  12    0.31    0.04
  -4   4 -12    0.24    0.05
  -4   4 -12    0.24    0.05
   4   3 -12    1.29    0.09
  -4  -3  12    1.25    0.07
   3   3 -12    0.87    0.07
  -3  -3  12    0.95    0.06
   2   3 -12    0.89    0.07
  -2  -3  12    0.80    0.05
   1   3 -12    1.56    0.07
  -1  -3  12    1.60    0.05
  -1  -3  12    1.55    0.06
   0   3 -12   42.91    0.64
   0  -3  12   42.75    0.59
  -1   3 -12   48.75    0.67
   1  -3  12   50.36    0.68
  -2   3 -12    6.88    0.12
   2  -3  12    6.63    0.13
  -3   3 -12    0.06    0.04
  -4   3 -12    1.10    0.07
  -4   3 -12    1.09    0.08
   4   2 -12    0.25    0.06
  -4  -2  12    0.28    0.05
   3   2 -12    0.13    0.04
  -3  -2  12    0.12    0.04
   2   2 -12    0.34    0.05
  -2  -2  12    0.31    0.03
   1   2 -12    6.53    0.14
  -1  -2  12    6.57    0.12
  -1  -2  12    6.59    0.11
   0   2 -12    7.29    0.14
   0  -2  12    7.18    0.13
   0  -2  12    7.27    0.13
  -1   2 -12    0.47    0.04
   1  -2  12    0.36    0.03
  -2   2 -12    2.48    0.07
   2  -2  12    2.35    0.07
  -3   2 -12    1.34    0.06
  -3   2 -12    1.37    0.07
  -4   2 -12   -0.02    0.04
   4   1 -12    0.04    0.05
  -4  -1  12    0.11    0.04
   3   1 -12    0.73    0.06
  -3  -1  12    0.67    0.05
   2   1 -12    1.88    0.08
  -2  -1  12    1.92    0.06
   1   1 -12    7.88    0.16
   1   1 -12    8.00    0.13
  -1  -1  12    7.90    0.13
  -1  -1  12    7.69    0.14
   0   1 -12   13.57    0.23
   0  -1  12   13.42    0.21
   0  -1  12   13.59    0.21
  -1   1 -12    4.34    0.08
   1  -1  12    4.35    0.09
  -2   1 -12    1.64    0.05
   2  -1  12    1.70    0.06
  -3   1 -12    3.17    0.09
  -4   1 -12    0.51    0.06
   4   0 -12    0.09    0.05
  -4   0  12    0.10    0.04
   3   0 -12    0.08    0.04
  -3   0  12    0.07    0.03
   2   0 -12    0.60    0.05
  -2   0  12    0.64    0.04
   1   0 -12    1.80    0.07
   1   0 -12    1.77    0.06
  -1   0  12    1.85    0.05
  -1   0  12    1.82    0.06
   0   0  12    1.61    0.05
   0   0  12    1.70    0.05
  -1   0 -12    4.65    0.09
   1   0  12    4.74    0.10
  -2   0 -12    5.69    0.12
  -2   0 -12    5.75    0.11
  -3   0 -12    0.01    0.03
  -4   0 -12   -0.04    0.04
   4  -1 -12    0.51    0.07
  -4   1  12    0.59    0.05
   3  -1 -12    0.07    0.04
  -3   1  12    0.08    0.03
   2  -1 -12    5.29    0.13
   2  -1 -12    5.28    0.11
  -2   1  12    5.26    0.11
   1  -1 -12    0.99    0.05
  -1   1  12    0.98    0.05
   0   1  12    0.22    0.03
   0   1  12    0.22    0.03
  -1  -1 -12    3.71    0.08
  -1  -1 -12    3.74    0.09
  -2  -1 -12   16.83    0.27
  -3  -1 -12   -0.02    0.03
   4  -2 -12    0.00    0.05
  -4   2  12    0.01    0.04
   3  -2 -12    0.98    0.07
  -3   2  12    1.06    0.06
   2  -2 -12    0.22    0.04
  -2   2  12    0.26    0.03
   1  -2 -12    0.51    0.04
  -1   2  12    0.44    0.03
   0  -2 -12    5.33    0.10
   0   2  12    5.35    0.10
  -1  -2 -12   11.23    0.19
  -2  -2 -12    1.47    0.07
  -3  -2 -12    0.04    0.04
   4  -3 -12    0.01    0.05
  -4   3  12   -0.04    0.04
   3  -3 -12    5.72    0.14
  -3   3  12    6.04    0.13
   2  -3 -12    3.52    0.09
  -2   3  12    3.38    0.08
   1  -3 -12    0.01    0.03
  -1   3  12    0.03    0.02
   0  -3 -12    1.55    0.06
  -1  -3 -12   22.86    0.34
  -2  -3 -12    0.04    0.04
  -3  -3 -12    0.01    0.04
   3  -4 -12    0.06    0.04
  -3   4  12    0.13    0.04
   2  -4 -12    0.43    0.05
  -2   4  12    0.39    0.04
   1  -4 -12   11.18    0.20
  -1   4  12   11.11    0.18
   0  -4 -12    2.44    0.07
  -1  -4 -12    2.01    0.07
  -2  -4 -12    0.20    0.04
  -3  -4 -12    0.05    0.04
   3  -5 -12    2.38    0.09
  -3   5  12    2.51    0.08
   2  -5 -12    0.04    0.04
  -2   5  12    0.06    0.03
   1  -5 -12    6.66    0.14
   0  -5 -12    4.22    0.10
  -1  -5 -12    0.25    0.04
  -2  -5 -12    0.27    0.05
  -3  -5 -12    0.39    0.05
   3  -6 -12    0.05    0.05
  -3   6  12    0.06    0.04
   2  -6 -12    4.04    0.11
   1  -6 -12    0.29    0.04
   0  -6 -12    0.10    0.04
  -1  -6 -12    0.38    0.04
  -2  -6 -12    0.10    0.04
   3  -7 -12    0.34    0.06
   2  -7 -12    0.45    0.05
   1  -7 -12    0.39    0.05
   0  -7 -12    0.07    0.04
  -1  -7 -12    0.77    0.06
  -2  -7 -12    0.46    0.06
   3  -8 -12   -0.01    0.05
   2  -8 -12    0.74    0.07
   1  -8 -12    0.02    0.04
   0  -8 -12    0.01    0.04
  -1  -8 -12    0.18    0.04
  -2  -8 -12    1.60    0.09
   2  -9 -12    0.11    0.05
   1  -9 -12    0.03    0.04
   0  -9 -12    0.53    0.05
  -1  -9 -12    0.16    0.05
   1 -10 -12    0.46    0.06
   0 -10 -12    1.10    0.07
  -1  14 -13   -0.06    0.04
   0  13 -13    0.01    0.04
   0 -13  13    0.04    0.04
  -1  13 -13    0.03    0.04
   1 -13  13    0.01    0.04
   2 -13  13    2.04    0.08
   1  12 -13   -0.08    0.03
  -1 -12  13    0.05    0.04
   0  12 -13    0.05    0.04
   0 -12  13    0.00    0.03
  -1  12 -13    0.47    0.05
   1 -12  13    0.52    0.05
  -2  12 -13    0.97    0.07
   2 -12  13    0.99    0.06
  -2 -11  13    1.04    0.07
   1  11 -13    0.08    0.04
  -1 -11  13    0.22    0.04
   0  11 -13    0.09    0.04
   0 -11  13    0.10    0.03
  -1  11 -13    0.08    0.04
   1 -11  13   -0.02    0.03
  -2  11 -13    1.37    0.08
   2 -11  13    1.55    0.07
   3 -11  13    0.63    0.06
  -2 -10  13   -0.02    0.03
  -2 -10  13    0.01    0.04
   1  10 -13    1.03    0.06
  -1 -10  13    1.10    0.06
   0  10 -13    0.04    0.03
   0 -10  13    0.03    0.03
  -1  10 -13    0.06    0.03
   1 -10  13    0.01    0.03
  -2  10 -13    0.14    0.04
   2 -10  13    0.18    0.04
   3 -10  13    1.67    0.07
  -3  -9  13    1.33    0.07
   2   9 -13    0.45    0.06
  -2  -9  13    0.35    0.04
  -2  -9  13    0.29    0.04
   1   9 -13    0.31    0.04
  -1  -9  13    0.28    0.04
   0   9 -13    0.00    0.03
   0  -9  13    0.04    0.03
  -1   9 -13    0.00    0.03
   1  -9  13    0.04    0.03
  -2   9 -13    0.12    0.04
   2  -9  13    0.05    0.03
  -3   9 -13    1.97    0.08
   3  -9  13    2.12    0.08
   3   8 -13    0.63    0.07
  -3  -8  13    0.58    0.05
   2   8 -13    1.64    0.08
  -2  -8  13    1.71    0.07
  -2  -8  13    1.65    0.06
   1   8 -13    0.06    0.04
  -1  -8  13    0.11    0.03
  -1  -8  13    0.10    0.03
   0   8 -13    0.10    0.03
   0  -8  13    0.13    0.03
  -1   8 -13    0.43    0.04
   1  -8  13    0.56    0.04
  -2   8 -13    3.08    0.09
   2  -8  13    2.93    0.08
  -3   8 -13   14.40    0.25
   3  -8  13   14.04    0.24
   3   7 -13    0.31    0.06
  -3  -7  13    0.29    0.04
   2   7 -13    0.06    0.04
  -2  -7  13    0.06    0.03
  -2  -7  13    0.09    0.03
   1   7 -13    0.50    0.05
  -1  -7  13    0.51    0.04
  -1  -7  13    0.54    0.04
   0   7 -13    0.04    0.03
   0   7 -13    0.06    0.03
   0  -7  13    0.01    0.03
  -1   7 -13    0.07    0.03
   1  -7  13    0.04    0.03
  -2   7 -13    0.39    0.05
   2  -7  13    0.39    0.04
  -3   7 -13    0.39    0.05
   3  -7  13    0.43    0.05
   3  -7  13    0.37    0.04
   3   6 -13    0.10    0.05
  -3  -6  13    0.09    0.04
   2   6 -13    0.04    0.05
  -2  -6  13    0.12    0.03
  -2  -6  13    0.14    0.04
   1   6 -13    1.71    0.08
  -1  -6  13    1.77    0.06
  -1  -6  13    1.85    0.06
   0   6 -13   -0.01    0.03
   0   6 -13    0.05    0.03
   0  -6  13    0.02    0.03
  -1   6 -13    0.09    0.03
   1  -6  13    0.09    0.03
   2  -6  13    8.01    0.15
   2  -6  13    8.30    0.15
  -3   6 -13    4.53    0.11
   3  -6  13    4.46    0.11
   3  -6  13    4.62    0.11
  -4   6 -13    0.13    0.05
   3   5 -13    0.04    0.05
  -3  -5  13    0.04    0.03
   2   5 -13    0.14    0.05
  -2  -5  13    0.13    0.03
  -2  -5  13    0.15    0.03
   1   5 -13    0.42    0.05
  -1  -5  13    0.41    0.04
  -1  -5  13    0.45    0.04
   0   5 -13    0.10    0.04
   0   5 -13    0.18    0.03
   0  -5  13    0.16    0.03
  -1   5 -13    0.02    0.03
   1  -5  13    0.01    0.03
  -2   5 -13    0.12    0.04
   2  -5  13    0.08    0.03
  -3   5 -13    0.55    0.05
   3  -5  13    0.60    0.05
  -4   5 -13    1.03    0.08
  -4   5 -13    0.96    0.08
   3   4 -13    0.13    0.05
  -3  -4  13    0.29    0.04
   2   4 -13    1.11    0.07
  -2  -4  13    1.11    0.05
   1   4 -13    0.02    0.04
  -1  -4  13    0.06    0.03
  -1  -4  13    0.03    0.03
   0   4 -13    1.24    0.06
   0   4 -13    1.40    0.06
   0  -4  13    1.32    0.05
  -1   4 -13    0.10    0.03
   1  -4  13    0.12    0.03
  -2   4 -13    0.23    0.04
   2  -4  13    0.26    0.04
  -3   4 -13    0.89    0.06
   3  -4  13    0.82    0.05
  -4   4 -13    2.61    0.10
  -4   4 -13    2.58    0.10
   3   3 -13    0.01    0.05
  -3  -3  13    0.05    0.03
   2   3 -13    0.45    0.05
  -2  -3  13    0.56    0.04
   1   3 -13   -0.04    0.03
  -1  -3  13    0.02    0.03
  -1  -3  13    0.01    0.02
   0   3 -13   -0.01    0.03
   0  -3  13   -0.01    0.03
  -1   3 -13    0.13    0.03
   1  -3  13    0.12    0.03
  -2   3 -13    0.18    0.03
   2  -3  13    0.27    0.03
  -3   3 -13    2.16    0.07
  -4   3 -13    0.06    0.05
   3   2 -13    0.19    0.05
  -3  -2  13    0.14    0.04
   2   2 -13    0.15    0.04
  -2  -2  13    0.14    0.03
   1   2 -13   23.07    0.38
  -1  -2  13   23.26    0.34
  -1  -2  13   23.22    0.33
   0   2 -13    2.21    0.07
   0  -2  13    2.15    0.06
   0  -2  13    2.16    0.06
  -1   2 -13    0.08    0.03
   1  -2  13    0.10    0.03
  -2   2 -13    0.94    0.05
   2  -2  13    1.00    0.05
  -3   2 -13    5.99    0.12
  -3   2 -13    5.79    0.13
   3   1 -13   -0.12    0.04
  -3  -1  13   -0.01    0.03
   2   1 -13    4.81    0.12
  -2  -1  13    4.81    0.10
   1   1 -13    2.34    0.08
  -1  -1  13    2.37    0.07
  -1  -1  13    2.29    0.06
   0   1 -13    2.61    0.08
   0  -1  13    2.58    0.07
   0  -1  13    2.63    0.07
  -1   1 -13    0.00    0.02
   1  -1  13    0.01    0.03
  -2   1 -13    1.12    0.05
  -3   1 -13    0.79    0.05
   4   0 -13   -0.01    0.05
   3   0 -13   -0.05    0.04
  -3   0  13    0.05    0.04
   2   0 -13   25.21    0.41
  -2   0  13   24.30    0.36
   1   0 -13   16.79    0.26
   1   0 -13   16.51    0.28
  -1   0  13   16.69    0.25
   0   0  13    0.01    0.02
   0   0  13    0.05    0.03
  -1   0 -13    0.05    0.02
   1   0  13   -0.02    0.02
  -2   0 -13    2.27    0.07
  -3   0 -13    0.19    0.04
   3  -1 -13    4.45    0.13
  -3   1  13    4.42    0.11
   2  -1 -13    4.81    0.12
  -2   1  13    4.88    0.10
   1  -1 -13    9.77    0.17
  -1   1  13    9.68    0.16
   0   1  13    0.58    0.04
   0   1  13    0.57    0.04
  -1  -1 -13   -0.01    0.02
  -1  -1 -13    0.01    0.03
  -2  -1 -13    0.55    0.05
  -3  -1 -13    0.05    0.04
   3  -2 -13    7.40    0.17
  -3   2  13    7.36    0.15
   2  -2 -13    7.63    0.15
  -2   2  13    7.61    0.14
   1  -2 -13    0.00    0.03
  -1   2  13   -0.02    0.02
   0  -2 -13    2.20    0.07
   0   2  13    2.31    0.06
  -1  -2 -13    0.00    0.03
  -2  -2 -13    0.04    0.04
  -3  -2 -13    0.20    0.04
   3  -3 -13    1.93    0.09
  -3   3  13    1.99    0.07
   2  -3 -13    2.49    0.08
  -2   3  13    2.45    0.07
   1  -3 -13    8.37    0.16
  -1   3  13    8.34    0.14
   0  -3 -13    2.39    0.07
  -1  -3 -13   -0.03    0.03
  -2  -3 -13    0.02    0.03
  -3  -3 -13    0.21    0.05
   3  -4 -13    1.10    0.07
  -3   4  13    1.04    0.06
   2  -4 -13   -0.04    0.04
  -2   4  13    0.04    0.03
   1  -4 -13    6.72    0.14
   0  -4 -13    0.03    0.03
  -1  -4 -13    0.04    0.03
  -2  -4 -13    0.20    0.04
  -3  -4 -13    0.20    0.05
   3  -5 -13    0.57    0.06
  -3   5  13    0.62    0.05
   2  -5 -13   10.49    0.20
   1  -5 -13   23.46    0.37
  -1  -5 -13   -0.08    0.03
  -2  -5 -13    0.20    0.04
   3  -6 -13    0.04    0.05
   2  -6 -13    1.02    0.07
   1  -6 -13   -0.02    0.04
   0  -6 -13    0.05    0.04
  -1  -6 -13    0.06    0.04
  -2  -6 -13    0.05    0.04
   3  -7 -13    1.08    0.08
   2  -7 -13   12.66    0.24
   1  -7 -13    2.26    0.09
   0  -7 -13    0.13    0.04
  -1  -7 -13    0.03    0.04
  -2  -7 -13    0.45    0.06
   2  -8 -13    0.02    0.05
   1  -8 -13    0.15    0.05
   0  -8 -13    0.65    0.06
  -1  -8 -13    0.03    0.04
   2  -9 -13    0.17    0.06
   1  -9 -13    1.01    0.08
   0  -9 -13    0.13    0.05
   0  13 -14    1.56    0.07
  -1  13 -14    0.03    0.05
   1  12 -14    0.16    0.04
  -1 -12  14    0.14    0.04
   0  12 -14    0.69    0.05
   0 -12  14    0.69    0.05
  -1  12 -14    0.21    0.05
   1 -12  14    0.34    0.05
   2 -12  14    0.45    0.05
  -2 -11  14    0.08    0.04
   1  11 -14    1.69    0.06
  -1 -11  14    1.57    0.07
   0  11 -14    1.28    0.06
   0 -11  14    1.17    0.06
  -1  11 -14    2.36    0.08
   1 -11  14    2.41    0.08
  -2  11 -14    0.03    0.05
   2 -11  14    0.01    0.04
  -2 -10  14    0.02    0.03
  -2 -10  14    0.05    0.04
   1  10 -14    0.21    0.04
  -1 -10  14    0.21    0.04
   0  10 -14    0.83    0.06
   0 -10  14    0.85    0.06
  -1  10 -14   -0.05    0.03
   1 -10  14    0.09    0.03
  -2  10 -14    0.42    0.05
   2 -10  14    0.32    0.04
   3 -10  14    0.49    0.05
  -3  -9  14    0.04    0.04
   2   9 -14    0.71    0.07
  -2  -9  14    0.69    0.05
  -2  -9  14    0.74    0.06
   1   9 -14    1.56    0.06
   1   9 -14    1.59    0.08
  -1  -9  14    1.49    0.06
   0   9 -14    8.09    0.15
   0  -9  14    7.98    0.15
  -1   9 -14    5.43    0.12
   1  -9  14    5.35    0.12
  -2   9 -14    7.32    0.15
   2  -9  14    7.66    0.15
   3  -9  14    0.18    0.04
  -3  -8  14    0.12    0.04
   2   8 -14    0.26    0.05
  -2  -8  14    0.31    0.04
  -2  -8  14    0.30    0.04
   1   8 -14    0.06    0.04
  -1  -8  14    0.06    0.03
   0   8 -14    0.24    0.04
   0  -8  14    0.32    0.04
  -1   8 -14    1.05    0.06
   1  -8  14    1.05    0.05
  -2   8 -14    0.69    0.06
   2  -8  14    0.62    0.05
  -3   8 -14    0.64    0.06
   3  -8  14    0.48    0.05
   3   7 -14    1.36    0.08
  -3  -7  14    1.36    0.07
   2   7 -14    1.24    0.08
  -2  -7  14    1.00    0.05
  -2  -7  14    1.18    0.05
   1   7 -14    2.95    0.09
  -1  -7  14    2.96    0.08
  -1  -7  14    2.92    0.08
   0   7 -14    6.96    0.13
   0  -7  14    6.63    0.13
  -1   7 -14   31.31    0.45
   1  -7  14   31.31    0.46
  -2   7 -14    1.49    0.07
   2  -7  14    1.56    0.06
  -3   7 -14   -0.01    0.04
   3  -7  14   -0.01    0.03
   3   6 -14    0.11    0.05
  -3  -6  14    0.17    0.04
   2   6 -14    0.06    0.04
  -2  -6  14    0.06    0.03
  -2  -6  14    0.08    0.03
   1   6 -14    0.85    0.06
  -1  -6  14    0.90    0.05
  -1  -6  14    0.81    0.04
   0   6 -14    5.12    0.11
   0  -6  14    5.17    0.11
  -1   6 -14    0.11    0.03
   1  -6  14    0.09    0.03
  -2   6 -14    2.82    0.08
   2  -6  14    2.91    0.08
  -3   6 -14    0.17    0.04
   3  -6  14    0.16    0.04
   3   5 -14    1.23    0.08
  -3  -5  14    1.09    0.06
   2   5 -14    0.85    0.07
  -2  -5  14    0.95    0.05
   1   5 -14    3.39    0.10
  -1  -5  14    3.32    0.08
  -1  -5  14    3.39    0.08
   0   5 -14   58.79    0.87
   0   5 -14   57.63    0.79
   0  -5  14   57.82    0.80
  -1   5 -14   30.16    0.43
   1  -5  14   29.61    0.43
  -2   5 -14    0.22    0.04
   2  -5  14    0.32    0.04
  -3   5 -14   -0.01    0.04
   3  -5  14   -0.03    0.03
   3   4 -14    0.02    0.05
  -3  -4  14    0.15    0.04
   2   4 -14    1.77    0.08
  -2  -4  14    1.98    0.07
   1   4 -14    8.92    0.17
  -1  -4  14    8.47    0.15
  -1  -4  14    8.75    0.16
   0   4 -14    5.81    0.12
   0   4 -14    5.98    0.12
   0  -4  14    5.92    0.12
  -1   4 -14   19.64    0.29
   1  -4  14   19.68    0.30
  -2   4 -14    0.61    0.05
   2  -4  14    0.61    0.04
  -3   4 -14    1.48    0.07
   3  -4  14    1.39    0.06
   3   3 -14    1.15    0.08
  -3  -3  14    1.06    0.06
   2   3 -14    1.84    0.08
  -2  -3  14    1.80    0.06
   1   3 -14   24.13    0.40
  -1  -3  14   24.80    0.36
  -1  -3  14   24.46    0.35
   0   3 -14   39.92    0.60
   0   3 -14   39.50    0.55
   0  -3  14   39.72    0.56
  -1   3 -14    0.98    0.05
   1  -3  14    0.86    0.05
  -2   3 -14    0.03    0.03
   2  -3  14    0.06    0.03
  -3   3 -14    0.65    0.05
  -3   3 -14    0.66    0.05
   3   2 -14    1.19    0.08
  -3  -2  14    1.49    0.07
   2   2 -14    1.48    0.07
  -2  -2  14    1.52    0.06
   1   2 -14    3.47    0.10
  -1  -2  14    3.45    0.09
  -1  -2  14    3.28    0.08
   0   2 -14   22.76    0.36
   0  -2  14   21.97    0.33
  -1   2 -14    0.95    0.04
   1  -2  14    0.92    0.05
  -2   2 -14    5.68    0.11
   2  -2  14    5.56    0.12
  -3   2 -14    0.85    0.06
   3   1 -14    0.44    0.06
  -3  -1  14    0.48    0.05
   2   1 -14    4.43    0.12
  -2  -1  14    4.17    0.10
   1   1 -14    8.73    0.17
  -1  -1  14    8.93    0.16
  -1  -1  14    9.15    0.15
   1  -1  14    0.80    0.04
  -2   1 -14    0.55    0.04
  -3   1 -14    0.31    0.04
   3   0 -14    0.36    0.06
  -3   0  14    0.39    0.04
   2   0 -14    0.23    0.04
  -2   0  14    0.25    0.04
   1   0 -14    3.48    0.10
  -1   0  14    3.38    0.08
   0   0  14    0.38    0.03
   0   0  14    0.31    0.03
  -1   0 -14   24.88    0.35
   1   0  14   24.52    0.36
  -2   0 -14    0.39    0.04
  -3   0 -14    0.13    0.04
   3  -1 -14    2.32    0.09
  -3   1  14    2.15    0.08
   2  -1 -14    0.86    0.06
  -2   1  14    0.82    0.05
   1  -1 -14    0.80    0.05
  -1  -1 -14    0.67    0.05
  -2  -1 -14    0.02    0.03
  -3  -1 -14    0.07    0.04
   3  -2 -14    0.96    0.07
  -3   2  14    1.00    0.06
   2  -2 -14    0.93    0.07
  -2   2  14    0.83    0.05
   1  -2 -14    3.04    0.08
  -1   2  14    2.98    0.08
   0  -2 -14   28.93    0.41
  -1  -2 -14    1.99    0.07
  -2  -2 -14   -0.01    0.03
  -3  -2 -14    0.15    0.05
   3  -3 -14    0.15    0.04
  -3   3  14    0.24    0.04
   2  -3 -14    1.11    0.06
  -2   3  14    1.12    0.06
   1  -3 -14    1.14    0.06
  -1   3  14    1.19    0.05
   0  -3 -14    0.44    0.04
  -1  -3 -14    0.10    0.03
  -2  -3 -14    0.35    0.05
  -3  -3 -14    0.21    0.05
   3  -4 -14    0.97    0.07
  -3   4  14    0.94    0.06
   2  -4 -14    6.84    0.15
  -2   4  14    7.05    0.14
   1  -4 -14    1.97    0.08
  -1  -4 -14    0.41    0.04
  -2  -4 -14    0.96    0.07
  -3   5  14    1.04    0.06
   2  -5 -14    0.18    0.05
   1  -5 -14    0.35    0.05
  -1  -5 -14    0.51    0.05
  -2  -5 -14    0.99    0.07
   3  -6 -14    1.11    0.08
   2  -6 -14    0.40    0.05
   1  -6 -14   -0.02    0.04
   0  -6 -14    0.65    0.06
  -1  -6 -14    0.57    0.05
  -2  -6 -14    7.36    0.16
   2  -7 -14    0.17    0.05
   1  -7 -14   -0.01    0.04
   0  -7 -14    0.00    0.04
  -1  -7 -14    0.79    0.06
  -2  -7 -14    1.03    0.07
   2  -8 -14   -0.03    0.05
   1  -8 -14    0.02    0.05
   0  -8 -14    0.36    0.05
   1  -9 -14    1.02    0.08
   0  -9 -14    0.25    0.05
   0  13 -15    0.01    0.04
   1  12 -15    0.00    0.04
   0  12 -15   -0.02    0.04
   0 -12  15    0.02    0.04
  -1  12 -15    2.37    0.09
   1 -12  15    2.63    0.09
   1  11 -15    0.48    0.05
  -1 -11  15    0.60    0.05
   0  11 -15   -0.02    0.04
   0 -11  15   -0.03    0.03
  -1  11 -15    0.07    0.04
   1 -11  15   -0.01    0.03
   2 -11  15    0.03    0.04
  -2 -10  15    0.18    0.04
  -2 -10  15    0.18    0.04
   1  10 -15    0.34    0.04
  -1 -10  15    0.34    0.04
   0  10 -15    0.04    0.04
   0 -10  15    0.02    0.03
  -1  10 -15    0.67    0.05
   1 -10  15    0.70    0.05
  -2  10 -15    1.99    0.08
   2 -10  15    1.92    0.07
   2   9 -15    0.54    0.06
  -2  -9  15    0.60    0.05
  -2  -9  15    0.55    0.05
   1   9 -15    0.01    0.04
   1   9 -15    0.10    0.03
  -1  -9  15    0.02    0.03
   0   9 -15    0.01    0.03
   0  -9  15    0.08    0.03
  -1   9 -15   -0.03    0.03
   1  -9  15   -0.02    0.03
  -2   9 -15    0.86    0.07
   2  -9  15    0.80    0.05
   2   8 -15    0.02    0.05
  -2  -8  15    0.03    0.03
  -2  -8  15    0.03    0.03
   1   8 -15    0.10    0.04
  -1  -8  15    0.08    0.03
   0   8 -15    0.14    0.04
   0  -8  15    0.18    0.04
  -1   8 -15    1.11    0.06
   1  -8  15    1.11    0.06
  -2   8 -15   10.66    0.19
   2  -8  15   10.47    0.19
   3  -8  15    1.29    0.07
  -3  -7  15    0.31    0.05
   2   7 -15   -0.03    0.05
  -2  -7  15    0.02    0.03
  -2  -7  15   -0.01    0.03
   1   7 -15    0.07    0.04
  -1  -7  15    0.09    0.03
  -1  -7  15    0.07    0.03
   0   7 -15    0.16    0.03
   0  -7  15    0.09    0.03
  -1   7 -15    0.69    0.05
   1  -7  15    0.70    0.05
  -2   7 -15    6.11    0.13
   2  -7  15    5.99    0.13
  -3   7 -15    0.51    0.06
   3  -7  15    0.53    0.05
   3   6 -15    0.00    0.05
  -3  -6  15    0.10    0.04
   2   6 -15    0.81    0.07
  -2  -6  15    0.81    0.05
   1   6 -15   -0.03    0.04
  -1  -6  15    0.02    0.03
  -1  -6  15    0.05    0.03
   0   6 -15    0.12    0.03
   0  -6  15    0.17    0.03
  -1   6 -15    1.62    0.06
   1  -6  15    1.59    0.06
  -2   6 -15    0.74    0.06
   2  -6  15    0.75    0.05
  -3   6 -15   -0.05    0.04
   3  -6  15    0.03    0.03
   3   5 -15   -0.08    0.05
  -3  -5  15    0.02    0.04
   2   5 -15    0.28    0.05
  -2  -5  15    0.28    0.04
   1   5 -15    0.68    0.06
  -1  -5  15    0.57    0.04
  -1  -5  15    0.51    0.04
   0   5 -15    1.20    0.05
   0  -5  15    1.16    0.06
  -1   5 -15    0.83    0.05
   1  -5  15    0.86    0.05
  -2   5 -15    0.45    0.04
   2  -5  15    0.46    0.04
  -3   5 -15    2.12    0.08
   3  -5  15    2.11    0.08
   3   4 -15    0.09    0.05
  -3  -4  15    0.11    0.04
   2   4 -15    0.03    0.05
  -2  -4  15    0.04    0.03
   1   4 -15    0.15    0.04
  -1  -4  15    0.20    0.03
  -1  -4  15    0.21    0.03
   0   4 -15    1.23    0.05
   0  -4  15    1.34    0.05
  -1   4 -15    0.03    0.03
   1  -4  15    0.01    0.03
  -2   4 -15    0.17    0.04
   2  -4  15    0.16    0.04
  -3   4 -15    0.14    0.04
   3  -4  15    0.11    0.04
   3   3 -15    0.04    0.05
  -3  -3  15    0.02    0.04
   2   3 -15    0.61    0.06
  -2  -3  15    0.59    0.05
   1   3 -15    0.04    0.04
  -1  -3  15    0.10    0.03
  -1  -3  15    0.06    0.03
   0   3 -15    0.49    0.04
   0  -3  15    0.50    0.04
  -1   3 -15    0.02    0.03
   1  -3  15    0.01    0.03
  -2   3 -15    4.02    0.10
   2  -3  15    4.03    0.10
  -3   3 -15    0.25    0.05
  -3   3 -15    0.37    0.05
   3   2 -15    0.02    0.05
  -3  -2  15    0.07    0.04
   2   2 -15    2.51    0.09
  -2  -2  15    2.51    0.08
   1   2 -15    0.85    0.06
  -1  -2  15    1.00    0.05
  -1  -2  15    1.05    0.05
   0   2 -15    0.06    0.03
   0  -2  15    0.06    0.03
  -1   2 -15    0.08    0.03
   1  -2  15    0.06    0.03
  -2   2 -15    0.00    0.03
   2  -2  15   -0.02    0.03
  -3   2 -15    0.25    0.05
   3   1 -15    3.05    0.11
  -3  -1  15    3.17    0.09
   2   1 -15    4.16    0.12
  -2  -1  15    4.11    0.10
   1   1 -15    1.04    0.06
  -1  -1  15    1.10    0.05
   0   1 -15   -0.02    0.03
   0  -1  15   -0.03    0.02
  -1   1 -15    0.04    0.03
   1  -1  15    0.06    0.03
  -3   1 -15    0.65    0.06
   3   0 -15    0.81    0.07
  -3   0  15    0.81    0.06
   2   0 -15    0.26    0.05
  -2   0  15    0.32    0.04
   1   0 -15    0.06    0.04
  -1   0  15    0.04    0.03
   0   0 -15    0.02    0.03
   0   0  15    0.00    0.03
  -1   0 -15    0.01    0.03
   1   0  15    0.03    0.03
  -2   0 -15    0.11    0.03
  -3   0 -15    0.17    0.05
   3  -1 -15    2.79    0.10
  -3   1  15    2.98    0.09
   2  -1 -15    3.30    0.10
  -2   1  15    3.44    0.09
  -1   1  15    0.82    0.05
   0   1  15    3.79    0.09
  -1  -1 -15    0.05    0.03
  -2  -1 -15    0.12    0.04
  -3  -1 -15    0.17    0.04
   3  -2 -15    0.13    0.05
  -3   2  15    0.11    0.04
   2  -2 -15    0.25    0.05
  -2   2  15    0.28    0.04
   1  -2 -15    0.02    0.03
  -1   2  15   -0.01    0.03
   0  -2 -15   -0.01    0.03
  -1  -2 -15    0.04    0.03
  -2  -2 -15    0.11    0.04
   3  -3 -15    0.70    0.06
  -3   3  15    0.79    0.06
  -2   3  15    5.39    0.12
   1  -3 -15    0.11    0.04
   0  -3 -15    0.46    0.04
  -1  -3 -15    0.00    0.03
  -2  -3 -15    0.08    0.04
   3  -4 -15    0.74    0.07
  -3   4  15    0.88    0.06
   2  -4 -15    1.21    0.07
   1  -4 -15    0.45    0.05
  -1  -4 -15    0.00    0.04
  -2  -4 -15    0.04    0.04
   2  -5 -15    3.04    0.10
   1  -5 -15   -0.01    0.04
   0  -5 -15    0.80    0.06
  -1  -5 -15    0.00    0.03
  -2  -5 -15   -0.04    0.04
   2  -6 -15    1.75    0.09
   1  -6 -15   -0.01    0.04
   0  -6 -15    0.11    0.04
  -1  -6 -15    0.05    0.04
  -2  -6 -15    0.37    0.06
   2  -7 -15    0.02    0.05
   1  -7 -15    0.60    0.06
   0  -7 -15    0.13    0.04
   1  -8 -15    0.28    0.06
   0  -8 -15    1.78    0.09
   0  12 -16    0.01    0.04
   1  11 -16    0.04    0.04
  -1 -11  16    0.10    0.04
   0  11 -16    0.06    0.04
   0 -11  16    0.02    0.03
  -1  11 -16    0.11    0.05
   1 -11  16    0.19    0.04
   2  10 -16    0.20    0.06
  -2 -10  16    0.17    0.04
  -2 -10  16    0.22    0.04
   1  10 -16    0.18    0.04
  -1 -10  16    0.18    0.04
   0  10 -16    2.42    0.08
   0 -10  16    2.30    0.08
  -1  10 -16    1.52    0.07
   1 -10  16    1.65    0.07
   2 -10  16    0.76    0.06
   2   9 -16    0.02    0.06
  -2  -9  16    0.00    0.04
  -2  -9  16    0.06    0.04
   1   9 -16    0.39    0.05
   1   9 -16    0.37    0.05
  -1  -9  16    0.32    0.04
   0   9 -16    0.95    0.06
   0  -9  16    0.98    0.06
  -1   9 -16    1.94    0.08
   1  -9  16    2.15    0.08
  -2   9 -16    1.82    0.08
   2  -9  16    1.84    0.08
   2   8 -16    0.02    0.05
  -2  -8  16   -0.01    0.04
  -2  -8  16   -0.01    0.03
   1   8 -16    3.30    0.09
   1   8 -16    3.29    0.11
  -1  -8  16    3.33    0.09
   0   8 -16    2.41    0.08
   0  -8  16    2.45    0.08
  -1   8 -16    0.86    0.06
   1  -8  16    1.00    0.06
  -2   8 -16    0.37    0.05
   2  -8  16    0.43    0.05
   2   7 -16    0.19    0.05
  -2  -7  16    0.15    0.04
   1   7 -16    1.28    0.07
  -1  -7  16    1.30    0.06
  -1  -7  16    1.33    0.06
   0   7 -16    7.12    0.14
   0  -7  16    6.79    0.14
  -1   7 -16    1.90    0.07
   1  -7  16    1.72    0.07
  -2   7 -16    0.23    0.04
   2  -7  16    0.21    0.04
   2   6 -16    0.99    0.08
  -2  -6  16    1.02    0.06
   1   6 -16    6.03    0.14
  -1  -6  16    5.74    0.12
  -1  -6  16    5.88    0.12
   0   6 -16    3.52    0.09
   0  -6  16    3.44    0.09
  -1   6 -16    0.04    0.03
   1  -6  16    0.00    0.03
  -2   6 -16    0.01    0.04
   2  -6  16    0.00    0.03
  -3   6 -16    0.08    0.05
   3  -6  16    0.16    0.04
   3   5 -16    0.39    0.06
  -3  -5  16    0.40    0.05
   2   5 -16    0.81    0.07
  -2  -5  16    0.89    0.06
   1   5 -16    5.44    0.13
  -1  -5  16    5.29    0.12
  -1  -5  16    5.54    0.11
   0   5 -16    0.13    0.03
   0  -5  16    0.13    0.03
  -1   5 -16    0.16    0.04
   1  -5  16    0.21    0.04
  -2   5 -16    0.45    0.05
   2  -5  16    0.48    0.04
  -3   5 -16    0.01    0.04
   3  -5  16    0.02    0.04
   3   4 -16    0.53    0.07
  -3  -4  16    0.49    0.05
   2   4 -16    2.43    0.10
  -2  -4  16    2.28    0.08
   1   4 -16    8.24    0.17
  -1  -4  16    8.33    0.15
  -1  -4  16    8.34    0.16
   0   4 -16    8.19    0.15
   0  -4  16    8.20    0.15
  -1   4 -16    0.66    0.05
   1  -4  16    0.65    0.05
  -2   4 -16    0.17    0.04
   2  -4  16    0.17    0.03
  -3   4 -16    1.60    0.08
   3  -4  16    1.57    0.07
   3   3 -16    0.07    0.05
  -3  -3  16    0.05    0.04
   2   3 -16    0.85    0.07
  -2  -3  16    0.75    0.05
   1   3 -16    0.07    0.04
  -1  -3  16    0.08    0.03
  -1  -3  16    0.05    0.03
   0   3 -16    1.37    0.06
   0  -3  16    1.30    0.05
  -1   3 -16    1.75    0.06
   1  -3  16    1.71    0.06
  -2   3 -16    0.06    0.03
   2  -3  16    0.11    0.03
  -3   3 -16    0.07    0.04
   3   2 -16   -0.02    0.05
  -3  -2  16    0.03    0.04
   2   2 -16    0.06    0.05
  -2  -2  16    0.02    0.03
   1   2 -16    3.92    0.11
  -1  -2  16    3.79    0.09
   0   2 -16    0.33    0.04
   0  -2  16    0.36    0.04
  -1   2 -16   -0.01    0.03
   1  -2  16   -0.03    0.03
  -2   2 -16    0.08    0.03
   2  -2  16    0.11    0.04
  -3   2 -16    1.50    0.08
   3   1 -16    0.37    0.06
  -3  -1  16    0.41    0.05
   2   1 -16    0.01    0.04
  -2  -1  16    0.00    0.03
   1   1 -16    1.81    0.08
  -1  -1  16    1.69    0.06
   0   1 -16    3.02    0.08
   0  -1  16    3.00    0.08
  -1   1 -16    0.02    0.03
   1  -1  16    0.05    0.03
  -2   1 -16    0.18    0.04
  -3   1 -16    0.15    0.04
   3   0 -16    0.85    0.08
  -3   0  16    0.89    0.06
   2   0 -16   -0.02    0.04
  -2   0  16    0.00    0.03
   1   0 -16    0.28    0.05
  -1   0  16    0.25    0.04
   0   0 -16    3.87    0.09
   0   0  16    4.02    0.09
   1   0  16    0.02    0.03
  -2   0 -16    1.08    0.06
   3  -1 -16    0.05    0.05
  -3   1  16    0.05    0.04
   2  -1 -16    1.27    0.07
  -2   1  16    1.28    0.06
   1  -1 -16    3.06    0.10
  -1   1  16    2.92    0.08
   0  -1 -16    0.56    0.04
  -1  -1 -16    0.43    0.05
  -2  -1 -16    0.21    0.04
   3  -2 -16    0.18    0.05
  -3   2  16    0.23    0.05
   2  -2 -16    2.55    0.09
  -2   2  16    2.53    0.08
  -1   2  16    3.22    0.08
   0  -2 -16    0.14    0.03
  -1  -2 -16    0.87    0.06
  -2  -2 -16   -0.01    0.04
  -3   3  16    2.11    0.08
  -2   3  16    0.01    0.03
   1  -3 -16    0.33    0.05
  -1  -3 -16    0.17    0.04
  -2  -3 -16    2.85    0.09
  -3   4  16    2.28    0.09
   1  -4 -16    0.13    0.04
  -1  -4 -16    0.16    0.04
  -2  -4 -16    1.43    0.08
   2  -5 -16    0.59    0.06
   1  -5 -16    0.01    0.04
   0  -5 -16    0.08    0.04
  -1  -5 -16    7.11    0.15
  -2  -5 -16    0.03    0.05
   2  -6 -16   -0.03    0.05
   1  -6 -16    0.05    0.05
   0  -6 -16    0.10    0.04
  -1  -6 -16    1.41    0.08
   1  -7 -16    0.05    0.05
   0  -7 -16    3.17    0.11
   0  11 -17    0.19    0.05
   1  10 -17    1.22    0.07
  -1 -10  17    1.22    0.06
   0  10 -17    0.08    0.04
   0 -10  17    0.11    0.04
  -1  10 -17    0.05    0.04
   1 -10  17    0.04    0.04
   2   9 -17    1.70    0.10
   1   9 -17    3.19    0.09
  -1  -9  17    3.29    0.09
   0   9 -17    0.03    0.04
   0  -9  17    0.10    0.03
  -1   9 -17    0.41    0.05
   1  -9  17    0.42    0.05
   2  -9  17    0.34    0.05
   2   8 -17    0.61    0.07
  -2  -8  17    0.49    0.05
   1   8 -17    0.45    0.06
   1   8 -17    0.53    0.05
  -1  -8  17    0.54    0.05
   0   8 -17    0.05    0.04
   0  -8  17    0.04    0.03
  -1   8 -17    0.01    0.04
   1  -8  17   -0.05    0.03
  -2   8 -17   -0.07    0.04
   2  -8  17   -0.01    0.03
   2   7 -17    1.57    0.09
  -2  -7  17    1.76    0.08
   1   7 -17    0.95    0.07
  -1  -7  17    0.97    0.06
   0   7 -17    2.76    0.09
   0  -7  17    2.70    0.08
  -1   7 -17    0.79    0.06
   1  -7  17    0.77    0.06
  -2   7 -17    0.33    0.05
   2  -7  17    0.32    0.04
   2   6 -17    0.57    0.07
  -2  -6  17    0.51    0.05
   1   6 -17    0.02    0.05
  -1  -6  17    0.01    0.03
  -1  -6  17    0.08    0.03
   0   6 -17   -0.04    0.03
   0  -6  17    0.00    0.03
  -1   6 -17    0.03    0.04
   1  -6  17    0.02    0.03
  -2   6 -17    0.29    0.05
   2  -6  17    0.25    0.04
   2   5 -17    0.67    0.07
  -2  -5  17    0.85    0.06
   1   5 -17   18.03    0.31
  -1  -5  17   17.32    0.29
  -1  -5  17   18.73    0.28
   0   5 -17    2.33    0.07
   0  -5  17    2.50    0.08
  -1   5 -17   -0.02    0.03
   1  -5  17    0.02    0.03
  -2   5 -17    0.00    0.03
   2  -5  17    0.08    0.03
  -3   5 -17    1.65    0.09
   2   4 -17    0.12    0.05
  -2  -4  17    0.27    0.04
   1   4 -17    0.28    0.05
  -1  -4  17    0.33    0.04
  -1  -4  17    0.32    0.04
   0   4 -17    0.67    0.05
   0  -4  17    0.65    0.05
  -1   4 -17   -0.02    0.03
   1  -4  17   -0.01    0.03
  -2   4 -17    0.17    0.04
   2  -4  17    0.18    0.04
  -3   4 -17    0.09    0.05
   2   3 -17    8.47    0.19
  -2  -3  17    8.18    0.16
   1   3 -17    5.61    0.13
  -1  -3  17    5.69    0.12
   0   3 -17    0.02    0.03
   0  -3  17    0.03    0.03
  -1   3 -17    0.03    0.03
   1  -3  17    0.03    0.03
  -2   3 -17    0.79    0.05
   2  -3  17    0.80    0.05
   2   2 -17   -0.03    0.05
  -2  -2  17    0.02    0.03
   1   2 -17    1.70    0.08
  -1  -2  17    1.69    0.06
   0   2 -17    1.10    0.05
   0  -2  17    1.03    0.05
  -1   2 -17   -0.01    0.03
   1  -2  17    0.00    0.03
   2  -2  17    0.30    0.04
   2   1 -17    0.78    0.07
  -2  -1  17    0.71    0.05
   1   1 -17    0.16    0.04
  -1  -1  17    0.23    0.04
   0   1 -17    1.46    0.06
   0  -1  17    1.64    0.06
  -1   1 -17    0.00    0.03
   1  -1  17    0.01    0.03
  -2   1 -17    0.04    0.03
   2   0 -17    0.83    0.06
  -2   0  17    0.93    0.06
   1   0 -17    4.21    0.11
  -1   0  17    4.05    0.10
   0   0 -17    0.74    0.05
   0   0  17    0.70    0.05
  -2   0 -17    0.02    0.04
  -3   1  17    0.02    0.04
   2  -1 -17    0.05    0.05
  -2   1  17    0.00    0.04
   1  -1 -17    3.72    0.11
  -1   1  17    3.73    0.09
  -1  -1 -17    0.05    0.04
  -2  -1 -17    0.06    0.04
   2  -2 -17    0.67    0.06
  -2   2  17    0.69    0.05
  -1  -2 -17    0.02    0.04
  -2  -2 -17    0.50    0.05
   2  -3 -17    0.61    0.06
  -1  -3 -17    0.02    0.04
  -2  -3 -17   -0.01    0.04
   1  -4 -17    0.10    0.04
   0  -4 -17    0.10    0.04
  -1  -4 -17    0.19    0.04
   1  -5 -17    0.11    0.05
   0  -5 -17    0.47    0.05
  -1  -5 -17    0.05    0.04
   2  -6 -17    0.16    0.06
   1  -6 -17    0.00    0.05
   0  -6 -17    0.32    0.05
   0 -10  18    2.52    0.09
   1   9 -18    0.29    0.05
  -1  -9  18    0.26    0.04
   0   9 -18    0.46    0.05
   0  -9  18    0.41    0.05
  -1   9 -18    0.00    0.04
   1  -9  18    0.00    0.04
   2   8 -18   -0.04    0.06
   1   8 -18    2.65    0.09
  -1  -8  18    2.61    0.09
   0   8 -18    7.73    0.16
   0  -8  18    8.10    0.16
  -1   8 -18    6.95    0.15
   1  -8  18    7.37    0.15
   2   7 -18    0.79    0.08
  -1  -7  18    0.14    0.04
   0   7 -18   -0.02    0.03
   0  -7  18    0.04    0.03
  -1   7 -18    0.70    0.06
   1  -7  18    0.62    0.05
  -2   7 -18    0.04    0.04
   2  -7  18    0.07    0.04
   2   6 -18    2.43    0.11
  -2  -6  18    2.48    0.09
  -1  -6  18    0.10    0.04
  -1  -6  18    0.11    0.04
   0   6 -18    3.32    0.09
   0  -6  18    3.32    0.09
  -1   6 -18    0.11    0.04
   1  -6  18    0.08    0.03
  -2   6 -18    0.02    0.04
   2  -6  18    0.05    0.04
   2   5 -18    0.00    0.05
  -2  -5  18   -0.05    0.03
   1   5 -18    0.67    0.06
  -1  -5  18    0.62    0.05
  -1  -5  18    0.76    0.06
   0   5 -18    0.10    0.04
   0  -5  18    0.17    0.04
  -1   5 -18    0.17    0.04
   1  -5  18    0.19    0.04
  -2   5 -18    0.08    0.04
   2  -5  18    0.05    0.04
   2   4 -18    0.08    0.05
  -2  -4  18    0.03    0.04
   1   4 -18    0.06    0.05
  -1  -4  18    0.07    0.04
   0   4 -18    1.06    0.06
   0  -4  18    0.97    0.06
  -1   4 -18    0.46    0.05
   1  -4  18    0.45    0.04
  -2   4 -18    2.00    0.08
   2  -4  18    1.83    0.08
   2   3 -18    0.08    0.05
  -2  -3  18    0.19    0.04
   1   3 -18    0.49    0.06
  -1  -3  18    0.63    0.05
   0   3 -18    0.00    0.03
   0  -3  18    0.00    0.03
  -1   3 -18    0.38    0.04
   1  -3  18    0.38    0.04
  -2   3 -18    1.49    0.07
   2  -3  18    1.47    0.07
   2   2 -18    0.18    0.05
  -2  -2  18    0.18    0.04
   1   2 -18    0.41    0.05
  -1  -2  18    0.44    0.04
   0   2 -18    0.16    0.03
   0  -2  18    0.12    0.03
  -1   2 -18    1.09    0.05
   1  -2  18    1.01    0.06
   2   1 -18    0.40    0.06
  -2  -1  18    0.41    0.05
   1   1 -18    1.51    0.07
  -1  -1  18    1.54    0.06
   0   1 -18    0.13    0.03
   0  -1  18    0.09    0.03
   1  -1  18    0.92    0.06
  -2   1 -18    1.15    0.06
   2   0 -18    0.20    0.05
  -2   0  18    0.33    0.05
   1   0 -18    0.13    0.04
  -1   0  18    0.13    0.04
   0   0  18    0.40    0.04
  -1   0 -18    0.16    0.04
  -2   0 -18    0.40    0.05
   2  -1 -18    1.09    0.08
  -2   1  18    1.03    0.06
   1  -1 -18    1.54    0.08
  -1   1  18    1.37    0.06
  -1  -1 -18    0.62    0.05
  -2  -1 -18   -0.03    0.04
   2  -2 -18    0.16    0.05
  -2   2  18    0.05    0.04
   1  -2 -18    0.10    0.04
  -1  -2 -18    1.27    0.07
   2  -3 -18    0.98    0.08
   0  -3 -18    0.55    0.05
  -1  -3 -18    0.36    0.05
   0  -4 -18    0.76    0.06
  -1  -4 -18    1.62    0.08
   1  -5 -18   -0.03    0.05
   0  -5 -18    1.76    0.09
   1  -6 -18    0.03    0.05
  -1  -9  19    0.08    0.04
   0  -9  19    0.02    0.04
  -1  -8  19    0.19    0.04
   0   8 -19    0.01    0.04
   0  -8  19    0.02    0.04
  -1   8 -19    0.06    0.05
   1  -8  19    0.09    0.04
   1   7 -19    2.10    0.08
  -1  -7  19    2.10    0.08
   0   7 -19    0.02    0.04
   0  -7  19   -0.01    0.03
  -1   7 -19    0.00    0.04
   1  -7  19    0.03    0.04
   2   6 -19    2.52    0.11
  -1  -6  19    3.58    0.10
   0   6 -19    0.02    0.04
   0  -6  19    0.04    0.04
  -1   6 -19   -0.02    0.04
   1  -6  19    0.08    0.03
  -2   6 -19    0.72    0.06
   2   5 -19    4.60    0.14
  -1  -5  19    0.38    0.05
   0   5 -19    0.22    0.04
   0  -5  19    0.18    0.04
  -1   5 -19    0.00    0.04
   1  -5  19    0.04    0.03
  -2   5 -19    0.04    0.04
   2   4 -19    6.84    0.17
  -2  -4  19    6.29    0.14
  -1  -4  19    1.59    0.07
   0   4 -19    0.01    0.03
   0  -4  19    0.05    0.03
  -1   4 -19    0.01    0.03
   1  -4  19    0.00    0.03
  -2   4 -19    0.06    0.04
   2   3 -19    0.10    0.06
  -2  -3  19    0.15    0.04
  -1  -3  19    0.44    0.05
   0   3 -19    0.03    0.03
   0  -3  19   -0.01    0.03
  -1   3 -19   -0.07    0.03
   1  -3  19    0.01    0.03
   2   2 -19    1.74    0.09
  -2  -2  19    1.71    0.07
  -1  -2  19    1.80    0.07
   0   2 -19    1.07    0.06
   0  -2  19    0.96    0.06
  -1   2 -19   -0.03    0.03
   1  -2  19   -0.03    0.03
   2   1 -19    0.40    0.06
  -2  -1  19    0.40    0.05
   1   1 -19   -0.02    0.04
  -1  -1  19   -0.03    0.03
   0   1 -19   -0.02    0.03
   0  -1  19    0.02    0.03
   1  -1  19    0.00    0.04
   2   0 -19    3.51    0.12
  -2   0  19    3.48    0.10
   1   0 -19    0.09    0.05
  -1   0  19    0.06    0.03
  -1   0 -19    0.07    0.04
   2  -1 -19    0.05    0.05
  -2   1  19    0.00    0.04
   1  -1 -19    0.07    0.05
  -1  -1 -19    0.03    0.04
   1  -2 -19    0.61    0.06
  -1  -2 -19    0.00    0.04
  -1  -3 -19    0.07    0.05
   0  -4 -19    0.76    0.07
  -1  -7  20    1.22    0.07
   0  -7  20    1.04    0.07
   0   6 -20   -0.02    0.04
   0  -6  20    0.06    0.04
  -1   6 -20    0.00    0.04
   0   5 -20    0.23    0.05
   0  -5  20    0.19    0.04
  -1   5 -20    2.88    0.10
   1  -5  20    2.84    0.09
  -1  -4  20    0.19    0.04
   0   4 -20    0.01    0.04
   0  -4  20    0.00    0.03
  -1   4 -20    0.04    0.04
   1  -4  20    0.07    0.04
   2   3 -20    0.28    0.06
  -1  -3  20   -0.05    0.04
   0   3 -20    0.93    0.06
   0  -3  20    1.00    0.06
  -1   3 -20    4.85    0.12
   1  -3  20    4.60    0.12
   2   2 -20    0.18    0.06
  -1  -2  20    0.03    0.04
   0   2 -20    0.04    0.03
   0  -2  20    0.05    0.03
   1  -2  20    0.79    0.06
  -1  -1  20    1.15    0.07
  -1   0  20    0.03    0.04
  -1   0 -20    0.24    0.05
  -1  -1 -20    0.01    0.04
  -1  -2 -20    9.51    0.19
   0  -6  21    0.06    0.04
   0  -5  21    0.38    0.05
   0   4 -21    0.47    0.05
   0  -4  21    0.35    0.05
  -1   4 -21   -0.01    0.04
   0   3 -21    0.05    0.04
   0  -3  21    0.00    0.03
  -1  -2  21    1.06    0.07
   0   2 -21    0.01    0.04
  -1  -1  21    0.15    0.05
   0   0   0    0.00    0.00
;
_shelx_hkl_checksum              12591
#END Tags that were not found in dictionaries
loop_
_space_group_symop_operation_xyz
'x, y, z'
'-x, -y, -z'
loop_
_atom_site_label
_atom_site_type_symbol
_atom_site_fract_x
_atom_site_fract_y
_atom_site_fract_z
_atom_site_U_iso_or_equiv
_atom_site_adp_type
_atom_site_occupancy
_atom_site_site_symmetry_order
_atom_site_calc_flag
_atom_site_refinement_flags_posn
_atom_site_refinement_flags_adp
C1A C 0.3417(3) 0.22940(10) 0.23658(7) 0.0303(3) Uani 1 1 d . .
C2A C 0.3862(3) 0.34679(10) 0.27051(7) 0.0393(3) Uani 1 1 d . .
H2A H 0.3081 0.3996 0.2389 0.047 Uiso 1 1 calc R U
C3A C 0.5406(3) 0.38810(10) 0.34874(7) 0.0401(3) Uani 1 1 d . .
H3A H 0.5690 0.4684 0.3704 0.048 Uiso 1 1 calc R U
C4A C 0.6543(3) 0.31131(10) 0.39557(7) 0.0327(3) Uani 1 1 d . .
C5A C 0.6135(3) 0.19375(10) 0.36271(7) 0.0335(3) Uani 1 1 d . .
H5A H 0.6925 0.1411 0.3944 0.040 Uiso 1 1 calc R U
C6A C 0.4596(3) 0.15378(10) 0.28481(7) 0.0327(3) Uani 1 1 d . .
H6A H 0.4326 0.0735 0.2632 0.039 Uiso 1 1 calc R U
C7A C 0.1711(3) 0.19003(10) 0.15421(7) 0.0330(3) Uani 1 1 d . .
H7A H 0.0489 0.2442 0.1324 0.040 Uiso 1 1 calc R U
C8A C 0.1698(3) 0.08499(10) 0.10632(7) 0.0316(3) Uani 1 1 d . .
H8A H 0.2927 0.0298 0.1267 0.038 Uiso 1 1 calc R U
C9A C -0.0065(3) 0.05106(10) 0.02595(7) 0.0318(3) Uani 1 1 d . .
H9A H -0.1430 0.1048 0.0080 0.038 Uiso 1 1 calc R U
C10A C 0.8103(3) 0.35028(10) 0.47812(7) 0.0376(3) Uani 1 1 d . .
C1B C 0.5672(3) 0.77575(9) 0.26933(7) 0.0295(2) Uani 1 1 d . .
C2B C 0.3683(3) 0.67087(10) 0.24461(7) 0.0338(3) Uani 1 1 d . .
H2B H 0.2844 0.6308 0.2863 0.041 Uiso 1 1 calc R U
C3B C 0.2907(3) 0.62410(10) 0.16118(7) 0.0352(3) Uani 1 1 d . .
H3B H 0.1572 0.5524 0.1458 0.042 Uiso 1 1 calc R U
C4B C 0.4107(3) 0.68329(10) 0.09978(7) 0.0323(3) Uani 1 1 d . .
C5B C 0.6063(3) 0.78851(10) 0.12307(7) 0.0336(3) Uani 1 1 d . .
H5B H 0.6861 0.8291 0.0812 0.040 Uiso 1 1 calc R U
C6B C 0.6841(3) 0.83379(9) 0.20627(7) 0.0321(3) Uani 1 1 d . .
H6B H 0.8188 0.9053 0.2213 0.038 Uiso 1 1 calc R U
C7B C 0.6414(3) 0.81998(10) 0.35824(7) 0.0322(3) Uani 1 1 d . .
H7B H 0.5311 0.7781 0.3960 0.039 Uiso 1 1 calc R U
C8B C 0.8482(3) 0.91332(9) 0.39273(7) 0.0310(3) Uani 1 1 d . .
H8B H 0.9663 0.9557 0.3565 0.037 Uiso 1 1 calc R U
C9B C 0.9007(3) 0.95259(10) 0.48163(7) 0.0320(3) Uani 1 1 d . .
H9B H 0.7864 0.9082 0.5172 0.038 Uiso 1 1 calc R U
C10B C 0.3287(3) 0.63829(10) 0.01235(8) 0.0381(3) Uani 1 1 d . .
N1A N 0.9323(3) 0.37762(10) 0.54451(6) 0.0484(3) Uani 1 1 d . .
N1B N 0.2641(3) 0.60633(10) -0.05769(6) 0.0501(3) Uani 1 1 d . .
loop_
_atom_site_aniso_label
_atom_site_aniso_U_11
_atom_site_aniso_U_22
_atom_site_aniso_U_33
_atom_site_aniso_U_23
_atom_site_aniso_U_13
_atom_site_aniso_U_12
C1A 0.0293(5) 0.0336(6) 0.0284(6) 0.0061(5) 0.0036(4) 0.0040(4)
C2A 0.0517(7) 0.0328(6) 0.0351(6) 0.0090(5) -0.0033(5) 0.0086(5)
C3A 0.0540(7) 0.0291(6) 0.0358(7) 0.0034(5) -0.0028(5) 0.0043(5)
C4A 0.0336(6) 0.0360(6) 0.0276(6) 0.0050(5) 0.0021(4) 0.0011(5)
C5A 0.0366(6) 0.0352(6) 0.0308(6) 0.0105(5) 0.0017(4) 0.0066(5)
C6A 0.0366(6) 0.0286(6) 0.0324(6) 0.0043(5) 0.0021(4) 0.0035(4)
C7A 0.0332(6) 0.0364(6) 0.0308(6) 0.0091(5) 0.0009(4) 0.0050(5)
C8A 0.0300(5) 0.0368(6) 0.0289(6) 0.0084(5) 0.0024(4) 0.0022(4)
C9A 0.0298(5) 0.0373(6) 0.0293(6) 0.0098(5) 0.0026(4) 0.0008(4)
C10A 0.0432(7) 0.0350(6) 0.0350(7) 0.0088(5) 0.0018(5) 0.0002(5)
C1B 0.0281(5) 0.0278(6) 0.0325(6) 0.0048(4) 0.0000(4) 0.0054(4)
C2B 0.0382(6) 0.0304(6) 0.0337(6) 0.0094(5) 0.0006(5) 0.0021(5)
C3B 0.0386(6) 0.0276(6) 0.0385(7) 0.0056(5) -0.0043(5) 0.0006(5)
C4B 0.0340(6) 0.0320(6) 0.0309(6) 0.0043(5) -0.0020(4) 0.0081(5)
C5B 0.0348(6) 0.0343(6) 0.0330(6) 0.0093(5) 0.0029(4) 0.0043(5)
C6B 0.0320(6) 0.0278(6) 0.0357(6) 0.0054(5) 0.0003(4) 0.0004(4)
C7B 0.0331(6) 0.0321(6) 0.0321(6) 0.0076(5) 0.0007(4) 0.0040(5)
C8B 0.0319(6) 0.0315(6) 0.0304(6) 0.0066(5) 0.0011(4) 0.0057(4)
C9B 0.0318(6) 0.0337(6) 0.0313(6) 0.0073(5) 0.0006(4) 0.0052(4)
C10B 0.0429(7) 0.0345(6) 0.0370(7) 0.0065(5) -0.0030(5) 0.0056(5)
N1A 0.0628(7) 0.0461(7) 0.0345(6) 0.0083(5) -0.0076(5) -0.0043(5)
N1B 0.0665(8) 0.0472(7) 0.0347(6) 0.0052(5) -0.0079(5) 0.0027(6)
loop_
_atom_type_symbol
_atom_type_description
_atom_type_scat_dispersion_real
_atom_type_scat_dispersion_imag
_atom_type_scat_source
C C 0.0033 0.0016 'International Tables Vol C Tables 4.2.6.8 and 6.1.1.4'
H H 0.0000 0.0000 'International Tables Vol C Tables 4.2.6.8 and 6.1.1.4'
N N 0.0061 0.0033 'International Tables Vol C Tables 4.2.6.8 and 6.1.1.4'
loop_
_geom_angle_atom_site_label_1
_geom_angle_atom_site_label_2
_geom_angle_atom_site_label_3
_geom_angle
_geom_angle_site_symmetry_1
C2A C1A C6A 117.69(10) .
C2A C1A C7A 119.60(10) .
C6A C1A C7A 122.70(10) .
C3A C2A C1A 121.75(10) .
C3A C2A H2A 119.1 .
C1A C2A H2A 119.1 .
C2A C3A C4A 119.49(11) .
C2A C3A H3A 120.3 .
C4A C3A H3A 120.3 .
C3A C4A C5A 119.66(11) .
C3A C4A C10A 121.43(11) .
C5A C4A C10A 118.90(10) .
C6A C5A C4A 120.27(10) .
C6A C5A H5A 119.9 .
C4A C5A H5A 119.9 .
C5A C6A C1A 121.13(11) .
C5A C6A H6A 119.4 .
C1A C6A H6A 119.4 .
C8A C7A C1A 126.42(10) .
C8A C7A H7A 116.8 .
C1A C7A H7A 116.8 .
C7A C8A C9A 123.77(11) .
C7A C8A H8A 118.1 .
C9A C8A H8A 118.1 .
C9A C9A C8A 125.05(13) 2
C9A C9A H9A 117.5 2
C8A C9A H9A 117.5 .
N1A C10A C4A 177.63(12) .
C2B C1B C6B 117.83(10) .
C2B C1B C7B 119.06(10) .
C6B C1B C7B 123.11(10) .
C3B C2B C1B 121.79(10) .
C3B C2B H2B 119.1 .
C1B C2B H2B 119.1 .
C2B C3B C4B 119.26(11) .
C2B C3B H3B 120.4 .
C4B C3B H3B 120.4 .
C5B C4B C3B 119.89(10) .
C5B C4B C10B 119.35(10) .
C3B C4B C10B 120.75(11) .
C6B C5B C4B 120.34(10) .
C6B C5B H5B 119.8 .
C4B C5B H5B 119.8 .
C5B C6B C1B 120.89(10) .
C5B C6B H6B 119.6 .
C1B C6B H6B 119.6 .
C8B C7B C1B 127.12(10) .
C8B C7B H7B 116.4 .
C1B C7B H7B 116.4 .
C7B C8B C9B 123.47(10) .
C7B C8B H8B 118.3 .
C9B C8B H8B 118.3 .
C9B C9B C8B 125.05(13) 2_776
C9B C9B H9B 117.5 2_776
C8B C9B H9B 117.5 .
N1B C10B C4B 177.62(12) .
loop_
_geom_bond_atom_site_label_1
_geom_bond_atom_site_label_2
_geom_bond_distance
_geom_bond_site_symmetry_2
C1A C2A 1.3960(16) .
C1A C6A 1.4008(15) .
C1A C7A 1.4593(15) .
C2A C3A 1.3800(16) .
C2A H2A 0.9500 .
C3A C4A 1.3904(16) .
C3A H3A 0.9500 .
C4A C5A 1.3942(16) .
C4A C10A 1.4387(16) .
C5A C6A 1.3723(15) .
C5A H5A 0.9500 .
C6A H6A 0.9500 .
C7A C8A 1.3409(16) .
C7A H7A 0.9500 .
C8A C9A 1.4356(15) .
C8A H8A 0.9500 .
C9A C9A 1.347(2) 2
C9A H9A 0.9500 .
C10A N1A 1.1477(15) .
C1B C2B 1.3998(16) .
C1B C6B 1.4053(15) .
C1B C7B 1.4550(15) .
C2B C3B 1.3812(16) .
C2B H2B 0.9500 .
C3B C4B 1.3950(16) .
C3B H3B 0.9500 .
C4B C5B 1.3947(16) .
C4B C10B 1.4394(16) .
C5B C6B 1.3746(15) .
C5B H5B 0.9500 .
C6B H6B 0.9500 .
C7B C8B 1.3410(16) .
C7B H7B 0.9500 .
C8B C9B 1.4362(15) .
C8B H8B 0.9500 .
C9B C9B 1.346(2) 2_776
C9B H9B 0.9500 .
C10B N1B 1.1452(15) .
loop_
_geom_torsion_atom_site_label_1
_geom_torsion_atom_site_label_2
_geom_torsion_atom_site_label_3
_geom_torsion_atom_site_label_4
_geom_torsion
_geom_torsion_site_symmetry_4
C6A C1A C2A C3A 0.02(18) .
C7A C1A C2A C3A 178.87(10) .
C1A C2A C3A C4A -0.28(19) .
C2A C3A C4A C5A 0.50(17) .
C2A C3A C4A C10A -178.70(11) .
C3A C4A C5A C6A -0.49(17) .
C10A C4A C5A C6A 178.74(10) .
C4A C5A C6A C1A 0.23(17) .
C2A C1A C6A C5A 0.00(16) .
C7A C1A C6A C5A -178.81(10) .
C2A C1A C7A C8A 165.59(11) .
C6A C1A C7A C8A -15.62(18) .
C1A C7A C8A C9A 179.30(10) .
C7A C8A C9A C9A 175.27(13) 2
C6B C1B C2B C3B 0.78(16) .
C7B C1B C2B C3B -179.64(10) .
C1B C2B C3B C4B -0.61(17) .
C2B C3B C4B C5B -0.07(16) .
C2B C3B C4B C10B -178.66(10) .
C3B C4B C5B C6B 0.57(16) .
C10B C4B C5B C6B 179.18(10) .
C4B C5B C6B C1B -0.40(16) .
C2B C1B C6B C5B -0.26(16) .
C7B C1B C6B C5B -179.83(10) .
C2B C1B C7B C8B 174.22(10) .
C6B C1B C7B C8B -6.22(17) .
C1B C7B C8B C9B 178.44(10) .
C7B C8B C9B C9B -178.22(13) 2_776
loop_
_cod_changelog_entry_id
_cod_changelog_entry_author
_cod_changelog_entry_date
_cod_changelog_entry_text
1 'Vaitkus, Antanas' 2023-12-21T10:51:51+02:00
;
 Changed data name '_shelx1_res_file' to '_shelx_res_file'.
;
