#------------------------------------------------------------------------------
#$Date: 2016-03-24 14:18:17 +0200 (Thu, 24 Mar 2016) $
#$Revision: 179659 $
#$URL: svn://www.crystallography.net/cod/cif/4/51/12/4511296.cif $
#------------------------------------------------------------------------------
#
# This file is available in the Crystallography Open Database (COD),
# http://www.crystallography.net/
#
# All data on this site have been placed in the public domain by the
# contributors.
#
data_4511296
loop_
_publ_author_name
'Jarzembska, Katarzyna N.'
'Hoser, Anna A.'
'Kami\'nski, Rados\/law'
'Madsen, Anders \/O.'
'Durka, Krzysztof'
'Wo\'zniak, Krzysztof'
_publ_section_title
;
 Combined Experimental and Computational Studies of Pyrazinamide and
 Nicotinamide in the Context of Crystal Engineering and Thermodynamics
;
_journal_issue                   7
_journal_name_full               'Crystal Growth &amp; Design'
_journal_page_first              3453
_journal_paper_doi               10.1021/cg500376z
_journal_volume                  14
_journal_year                    2014
_chemical_formula_moiety         'C6 H6 N2 O'
_chemical_formula_sum            'C6 H6 N2 O'
_chemical_formula_weight         122.12
_space_group_IT_number           14
_symmetry_cell_setting           monoclinic
_symmetry_Int_Tables_number      14
_symmetry_space_group_name_Hall  '-P 2ybc'
_symmetry_space_group_name_H-M   'P 1 21/c 1'
_cell_angle_alpha                90.00
_cell_angle_beta                 98.1880(6)
_cell_angle_gamma                90.00
_cell_formula_units_Z            4
_cell_length_a                   3.8563(1)
_cell_length_b                   15.6302(5)
_cell_length_c                   9.3702(3)
_cell_measurement_temperature    90
_cell_volume                     559.03(3)
_diffrn_ambient_temperature      90
_diffrn_measured_fraction_theta_full 0.98
_diffrn_measured_fraction_theta_max 0.97
_diffrn_measurement_device
;
Bruker AXS Kappa APEX II Ultra diffractometer
;
_diffrn_measurement_device_type  'APEX II CCD detector'
_diffrn_measurement_method       \w-scans
_diffrn_radiation_monochromator  'multi-layer optics'
_diffrn_radiation_source         'TXS rotating anode'
_diffrn_radiation_type           'Mo K\a'
_diffrn_radiation_wavelength     0.71073
_diffrn_reflns_av_R_equivalents  0.0302
_diffrn_reflns_av_sigmaI/netI    0.0302
_diffrn_reflns_limit_h_max       8
_diffrn_reflns_limit_h_min       -4
_diffrn_reflns_limit_k_max       37
_diffrn_reflns_limit_k_min       -37
_diffrn_reflns_limit_l_max       22
_diffrn_reflns_limit_l_min       -22
_diffrn_reflns_number            53360
_diffrn_reflns_theta_full        56.23
_diffrn_reflns_theta_max         58.015
_diffrn_reflns_theta_min         2.554
_exptl_absorpt_coefficient_mu    0.103
_exptl_absorpt_correction_T_max  1.010
_exptl_absorpt_correction_T_min  0.959
_exptl_absorpt_correction_type   multi-scan
_exptl_absorpt_process_details
;
 Absorption correction done by SORTAV
 Blessing, R. H.: (1995) Acta Cryst. A51, 33-38
;
_exptl_crystal_colour            colourless
_exptl_crystal_density_diffrn    1.451
_exptl_crystal_description       block
_exptl_crystal_F_000             256
_exptl_crystal_size_max          0.287
_exptl_crystal_size_mid          0.139
_exptl_crystal_size_min          0.102
_refine_diff_density_max         +0.13
_refine_diff_density_min         -0.12
_refine_ls_extinction_method     none
_refine_ls_goodness_of_fit_ref   1.141
_refine_ls_hydrogen_treatment    mixed
_refine_ls_number_parameters     211
_refine_ls_number_reflns         6464
_refine_ls_number_restraints     6
_refine_ls_R_factor_all          0.0200
_refine_ls_R_factor_gt           0.0147
_refine_ls_shift/su_max          0.002
_refine_ls_shift/su_mean         0.000
_refine_ls_structure_factor_coef F
_refine_ls_weighting_details
;
w=1/[\s^2^(Fo)]
;
_refine_ls_weighting_scheme      sigma
_refine_ls_wR_factor_gt          0.0226
_refine_ls_wR_factor_ref         0.0226
_reflns_number_gt                6464
_reflns_number_total             7733
_reflns_threshold_expression     I>3\s(I)
_iucr_refine_instructions_details
;
 Multipole refinement with MOPRO program
;
_cod_data_source_file            cg500376z_si_003.cif
_cod_data_source_block           alpha-nico-90K
_cod_depositor_comments
'Adding full bibliography for 4511295--4511296.cif.'
_cod_original_sg_symbol_H-M      'P 21/c'
_cod_database_code               4511296
loop_
_symmetry_equiv_pos_as_xyz
'x, y, z'
'-x, y+1/2, -z+1/2'
'-x, -y, -z'
'x, -y-1/2, z-1/2'
loop_
_atom_site_type_symbol
_atom_site_label
_atom_site_fract_x
_atom_site_fract_y
_atom_site_fract_z
_atom_site_U_iso_or_equiv
_atom_site_adp_type
_atom_site_occupancy
_atom_site_calc_flag
O O1 0.39448(4) 0.19141(1) 1.05859(2) 0.01588(4) Uani 1 d
N N1 0.40371(3) 0.283514(1) 0.87223(1) 0.01417(4) Uani 1 d
N N2 -0.19999(3) 0.100316(1) 0.60541(1) 0.01285(3) Uani 1 d
C C1 0.32617(3) 0.208284(1) 0.92861(1) 0.01133(3) Uani 1 d
C C2 0.15065(3) 0.142073(1) 0.82752(1) 0.01044(3) Uani 1 d
C C3 -0.04143(3) 0.160605(1) 0.69335(1) 0.01161(3) Uani 1 d
C C4 -0.16596(3) 0.018596(1) 0.64867(2) 0.01372(3) Uani 1 d
C C5 0.01798(4) -0.006277(1) 0.78073(2) 0.01528(4) Uani 1 d
C C6 0.17403(3) 0.057093(1) 0.87201(1) 0.01344(3) Uani 1 d
H H1A 0.385(1) 0.2909(3) 0.7643(1) 0.02887 Uani 1 d
H H1B 0.530(1) 0.3276(2) 0.9395(4) 0.02976 Uani 1 d
H H3 -0.082(1) 0.2259(1) 0.6560(6) 0.02920 Uani 1 d
H H4 -0.293(1) -0.0288(3) 0.5746(5) 0.03106 Uani 1 d
H H5 0.031(1) -0.0731(1) 0.8114(6) 0.03563 Uani 1 d
H H6 0.311(1) 0.0424(4) 0.9783(2) 0.03231 Uani 1 d
loop_
_atom_site_aniso_label
_atom_site_aniso_U_11
_atom_site_aniso_U_22
_atom_site_aniso_U_33
_atom_site_aniso_U_12
_atom_site_aniso_U_13
_atom_site_aniso_U_23
O1 0.02198(5) 0.01697(5) 0.00776(4) -0.00087(3) -0.00110(3) -0.00012(3)
N1 0.01900(5) 0.01270(4) 0.01003(4) -0.00152(3) -0.00064(2) -0.00050(3)
N2 0.01497(4) 0.01322(4) 0.00948(3) -0.00085(2) -0.00129(2) -0.00034(3)
C1 0.01332(4) 0.01242(4) 0.00777(3) 0.00072(2) -0.00015(2) -0.00065(3)
C2 0.01160(4) 0.01117(4) 0.00810(3) 0.00096(2) -0.00011(2) -0.00003(2)
C3 0.01367(4) 0.01156(4) 0.00881(3) 0.00016(2) -0.00108(2) 0.00037(3)
C4 0.01614(4) 0.01247(4) 0.01204(4) -0.00129(3) 0.00029(3) -0.00133(3)
C5 0.01947(5) 0.01121(4) 0.01428(5) 0.00025(3) -0.00066(3) 0.00062(3)
C6 0.01625(4) 0.01196(4) 0.01116(4) 0.00141(3) -0.00131(3) 0.00125(3)
H1A 0.0411 0.0291 0.0153 -0.0073 0.0006 0.0013
H1B 0.0392 0.0260 0.0223 -0.0090 -0.0019 -0.0058
H3 0.0400 0.0180 0.0265 0.0010 -0.0059 0.0047
H4 0.0390 0.0246 0.0271 -0.0072 -0.0038 -0.0069
H5 0.0509 0.0167 0.0360 -0.0008 -0.0047 0.0045
H6 0.0434 0.0281 0.0211 0.0009 -0.0100 0.0057
loop_
_atom_type_symbol
_atom_type_description
_atom_type_scat_dispersion_real
_atom_type_scat_dispersion_imag
_atom_type_scat_source
C C 0.0033 0.0016 'Su & Coppens, Acta. Cryst. (1997) A53, 749'
H H 0.0000 0.0000 'Su & Coppens, Acta. Cryst. (1997) A53, 749'
N N 0.0060 0.0030 'Su & Coppens. Acta. Cryst. (1997) A53, 749'
O O 0.0106 0.0060 'Su & Coppens, Acta. Cryst. (1997) A53, 749'
loop_
_geom_angle_atom_site_label_1
_geom_angle_atom_site_label_2
_geom_angle_atom_site_label_3
_geom_angle
O1 C1 N1 123.15(2)
O1 C1 C2 119.27(2)
N1 C1 C2 117.58(1)
N2 C3 C2 123.02(1)
N2 C3 H3 115.6(3)
N2 C4 C5 123.41(1)
N2 C4 H4 116.3(3)
C1 N1 H1B 117.8(3)
C1 N1 H1A 120.4(3)
C1 C2 C3 124.08(1)
C1 C2 C6 117.77(1)
C2 C3 H3 121.4(3)
C2 C6 C5 119.50(2)
C2 C6 H6 118.7(3)
C3 N2 C4 117.86(2)
C3 C2 C6 118.13(1)
C4 C5 C6 118.03(1)
C4 C5 H5 120.3(3)
C5 C4 H4 120.3(3)
C5 C6 H6 121.8(3)
C6 C5 H5 121.6(3)
H1A N1 H1B 120.5(4)
loop_
_geom_bond_atom_site_label_1
_geom_bond_atom_site_label_2
_geom_bond_distance
O1 C1 1.2373(2)
N1 C1 1.3402(2)
N1 H1B 1.010(1)
N1 H1A 1.010(1)
N2 C3 1.3407(2)
N2 C4 1.3408(2)
C1 C2 1.4980(2)
C2 C3 1.3956(2)
C2 C6 1.3912(2)
C3 H3 1.083(1)
C4 C5 1.3912(2)
C4 H4 1.083(1)
C5 C6 1.3886(2)
C5 H5 1.083(1)
C6 H6 1.083(1)
loop_
_geom_torsion_atom_site_label_1
_geom_torsion_atom_site_label_2
_geom_torsion_atom_site_label_3
_geom_torsion_atom_site_label_4
_geom_torsion
O1 C1 N1 H1B 1.7(3)
O1 C1 N1 H1A 168.7(2)
O1 C1 C2 C3 157.65(1)
O1 C1 C2 C6 -20.73(1)
N1 C1 C2 C3 -22.76(1)
N1 C1 C2 C6 158.86(1)
N2 C3 C2 C1 -179.14(1)
N2 C3 C2 C6 -0.77(1)
N2 C4 C5 C6 -0.03(1)
N2 C4 C5 H5 178.4(1)
C1 C2 C3 H3 -2.2(3)
C1 C2 C6 C5 -179.31(1)
C1 C2 C6 H6 1.7(3)
C2 C1 N1 H1B -177.89(10)
C2 C1 N1 H1A -10.9(3)
C2 C3 N2 C4 -1.05(1)
C2 C6 C5 C4 -1.83(1)
C2 C6 C5 H5 179.8(1)
C3 N2 C4 C5 1.46(1)
C3 N2 C4 H4 -178.90(10)
C3 C2 C6 C5 2.21(1)
C3 C2 C6 H6 -176.79(10)
C4 N2 C3 H3 -178.1(1)
C4 C5 C6 H6 177.1(1)
C6 C2 C3 H3 176.1(1)
C6 C5 C4 H4 -179.7(1)
H4 C4 C5 H5 -1.2(4)
H5 C5 C6 H6 -1.3(4)
loop_
_refln_index_h
_refln_index_k
_refln_index_l
_refln_F_squared_calc
_refln_F_squared_meas
_refln_F_squared_sigma
_refln_observed_status
-8 0 6 1.882 2.138 0.220 o
-8 0 8 5.029 5.821 0.334 o
-8 0 10 2.167 2.406 0.226 o
-8 1 8 1.470 1.584 0.115 o
-8 1 12 1.832 2.001 0.114 o
-8 1 13 0.935 0.962 0.092 o
-8 2 5 5.590 5.741 0.798 o
-8 2 6 2.405 2.456 0.149 o
-8 2 7 1.283 1.155 0.124 o
-8 2 8 2.176 2.086 0.135 o
-8 2 9 2.069 2.118 0.120 o
-8 2 10 0.709 0.666 0.092 o
-8 2 12 5.926 5.920 0.201 o
-8 3 5 6.900 7.265 0.364 o
-8 3 8 1.467 1.462 0.128 o
-8 3 9 1.085 1.015 0.113 o
-8 3 11 3.208 3.258 0.157 o
-8 3 12 1.115 0.984 0.094 o
-8 3 13 10.557 10.800 0.336 o
-8 4 6 1.610 1.613 0.213 o
-8 4 7 6.904 7.221 0.294 o
-8 4 8 1.317 1.353 0.120 o
-8 4 9 0.443 0.602 0.105 o
-8 4 10 1.663 1.854 0.124 o
-8 4 11 5.732 5.872 0.256 o
-8 5 3 7.567 6.996 0.509 o
-8 5 5 0.711 0.750 0.185 o
-8 5 6 0.706 0.694 0.113 o
-8 5 8 1.648 1.761 0.118 o
-8 5 10 1.637 1.530 0.107 o
-8 5 11 3.342 3.326 0.159 o
-8 5 12 5.026 4.988 0.167 o
-8 6 2 2.743 2.752 0.325 o
-8 6 4 3.563 3.485 0.244 o
-8 6 5 1.077 1.142 0.160 o
-8 6 6 3.686 3.571 0.265 o
-8 6 8 0.812 0.802 0.100 o
-8 6 9 0.422 0.487 0.094 o
-8 6 10 1.044 0.847 0.099 o
-8 6 12 1.189 1.069 0.089 o
-8 6 13 0.634 0.594 0.096 o
-8 7 3 4.982 4.765 0.301 o
-8 7 4 0.515 0.568 0.146 o
-8 7 7 0.890 0.731 0.107 o
-8 7 8 0.763 0.575 0.097 o
-8 7 10 1.226 1.173 0.097 o
-8 7 11 1.000 1.006 0.089 o
-8 8 1 9.977 9.256 0.388 o
-8 8 2 2.936 2.621 0.252 o
-8 8 3 2.118 2.443 0.288 o
-8 8 6 1.933 1.995 0.145 o
-8 8 8 0.482 0.793 0.117 o
-8 8 9 1.628 1.742 0.109 o
-8 8 10 2.090 1.862 0.110 o
-8 8 12 0.894 1.118 0.088 o
-8 9 2 0.543 0.502 0.142 o
-8 9 3 0.899 0.934 0.224 o
-8 9 5 4.331 4.194 0.335 o
-8 9 6 2.128 2.372 0.152 o
-8 9 9 8.975 8.836 0.287 o
-8 9 10 1.139 1.166 0.136 o
-8 9 11 3.161 3.207 0.148 o
-8 9 12 0.234 0.288 0.095 o
-8 10 2 2.334 2.112 0.198 o
-8 10 4 0.831 0.732 0.150 o
-8 10 6 2.218 2.644 0.181 o
-8 10 7 2.356 2.419 0.142 o
-8 10 9 1.140 1.167 0.123 o
-8 10 10 4.597 4.575 0.173 o
-8 10 11 0.800 0.747 0.086 o
-8 11 1 3.207 3.108 0.219 o
-8 11 5 3.740 3.668 0.211 o
-8 11 6 6.198 6.631 0.329 o
-8 11 7 2.241 2.376 0.130 o
-8 11 9 0.695 0.585 0.092 o
-8 11 10 7.529 7.727 0.230 o
-8 11 11 2.774 2.693 0.129 o
-8 12 1 1.150 1.138 0.155 o
-8 12 3 0.498 0.403 0.124 o
-8 12 5 1.081 1.097 0.152 o
-8 12 6 9.198 9.384 0.301 o
-8 12 8 0.511 0.410 0.091 o
-8 12 10 0.233 0.277 0.081 o
-8 12 11 1.376 1.626 0.334 o
-8 13 2 16.353 15.915 0.824 o
-8 13 4 5.062 4.840 0.309 o
-8 13 6 11.891 11.987 0.459 o
-8 13 7 1.114 1.150 0.108 o
-8 13 8 1.159 1.105 0.133 o
-8 13 10 0.463 0.442 0.088 o
-8 14 2 8.294 8.482 0.355 o
-8 14 4 1.442 1.172 0.137 o
-8 14 5 3.038 2.968 0.165 o
-8 14 6 0.988 1.237 0.112 o
-8 15 1 6.547 6.265 0.292 o
-8 15 3 5.362 5.378 0.272 o
-8 15 4 0.828 0.806 0.129 o
-8 15 5 6.328 6.171 0.217 o
-8 15 7 1.518 1.476 0.100 o
-8 15 8 1.489 1.458 0.096 o
-8 16 3 1.929 2.047 0.137 o
-8 16 4 0.547 0.648 0.107 o
-8 16 5 0.320 0.432 0.097 o
-8 16 7 1.080 1.050 0.089 o
-8 17 4 1.089 1.177 0.105 o
-8 17 5 0.195 0.388 0.094 o
-8 18 1 2.711 2.451 0.183 o
-8 18 3 1.554 1.471 0.168 o
-8 18 5 1.945 1.727 0.338 o
-7 0 6 0.994 1.062 0.158 o
-7 0 12 2.766 2.930 0.174 o
-7 0 14 1.561 2.846 0.238 o
-7 0 16 0.339 0.492 0.107 o
-7 1 5 0.664 0.623 0.106 o
-7 1 6 3.075 2.831 0.141 o
-7 1 7 0.342 0.349 0.079 o
-7 1 10 1.291 1.282 0.110 o
-7 1 11 1.878 2.052 0.118 o
-7 1 12 14.621 14.611 0.417 o
-7 1 14 0.709 0.738 0.079 o
-7 1 15 0.603 0.574 0.075 o
-7 1 16 3.320 3.342 0.142 o
-7 2 3 32.660 32.477 1.009 o
-7 2 4 14.284 14.518 0.488 o
-7 2 5 3.697 3.451 0.198 o
-7 2 6 18.983 19.060 0.493 o
-7 2 7 10.293 10.258 0.287 o
-7 2 8 1.645 1.650 0.103 o
-7 2 9 1.456 1.558 0.105 o
-7 2 10 23.683 23.796 0.628 o
-7 2 11 0.543 0.648 0.088 o
-7 2 14 1.090 1.232 0.088 o
-7 3 2 1.881 1.772 0.326 o
-7 3 3 40.446 39.866 1.171 o
-7 3 5 0.366 0.311 0.095 o
-7 3 6 1.718 1.785 0.113 o
-7 3 7 0.604 0.633 0.086 o
-7 3 8 1.126 0.983 0.085 o
-7 3 9 12.215 11.889 0.325 o
-7 3 10 3.805 3.921 0.163 o
-7 3 11 31.637 31.410 0.867 o
-7 3 13 0.280 0.261 0.081 o
-7 3 15 2.352 2.562 0.117 o
-7 4 3 0.730 0.855 0.142 o
-7 4 4 3.639 3.731 0.232 o
-7 4 5 3.393 3.320 0.172 o
-7 4 6 6.343 6.046 0.211 o
-7 4 7 4.532 4.405 0.181 o
-7 4 8 4.122 4.355 0.170 o
-7 4 9 1.344 1.492 0.099 o
-7 4 10 0.822 0.802 0.104 o
-7 4 11 4.209 4.231 0.288 o
-7 4 12 1.023 1.050 0.093 o
-7 4 13 2.675 2.884 0.132 o
-7 4 15 0.203 0.238 0.076 o
-7 4 16 2.288 2.358 0.114 o
-7 5 1 17.160 16.539 0.530 o
-7 5 2 3.217 3.343 0.248 o
-7 5 3 3.971 3.976 0.236 o
-7 5 4 6.300 6.116 0.303 o
-7 5 5 1.023 1.077 0.110 o
-7 5 6 3.994 4.089 0.192 o
-7 5 8 4.872 4.869 0.189 o
-7 5 9 2.217 2.100 0.110 o
-7 5 10 10.893 10.653 0.322 o
-7 5 12 2.923 3.045 0.136 o
-7 5 13 2.880 2.985 0.154 o
-7 5 14 0.444 0.383 0.079 o
-7 5 15 0.772 0.735 0.080 o
-7 5 16 4.496 4.639 0.169 o
-7 6 1 1.103 1.145 0.178 o
-7 6 2 8.224 8.158 0.316 o
-7 6 3 0.623 0.755 0.141 o
-7 6 4 2.933 2.873 0.313 o
-7 6 5 5.205 5.412 0.209 o
-7 6 6 8.037 7.549 0.240 o
-7 6 8 0.489 0.472 0.088 o
-7 6 9 0.845 0.773 0.092 o
-7 6 10 1.344 1.200 0.096 o
-7 6 12 2.598 2.711 0.126 o
-7 6 13 0.617 0.692 0.084 o
-7 6 15 5.178 5.132 0.184 o
-7 6 16 2.160 2.313 0.123 o
-7 7 1 16.792 16.413 0.487 o
-7 7 2 0.529 0.534 0.121 o
-7 7 3 3.349 3.261 0.226 o
-7 7 4 4.157 4.509 0.251 o
-7 7 5 1.644 1.701 0.119 o
-7 7 7 0.859 1.904 0.113 o
-7 7 8 8.094 8.248 0.258 o
-7 7 9 0.495 0.456 0.088 o
-7 7 13 6.042 6.164 0.211 o
-7 7 14 1.435 2.001 0.103 o
-7 7 15 0.448 0.453 0.076 o
-7 8 1 2.319 2.523 0.188 o
-7 8 3 0.244 0.383 0.120 o
-7 8 4 9.129 9.193 0.299 o
-7 8 5 2.884 2.750 0.214 o
-7 8 6 3.329 3.507 0.173 o
-7 8 7 0.397 0.396 0.089 o
-7 8 8 1.498 1.528 0.109 o
-7 8 9 1.815 1.714 0.109 o
-7 8 10 1.637 1.656 0.109 o
-7 8 14 2.749 2.826 0.128 o
-7 8 15 0.410 0.460 0.080 o
-7 9 1 3.047 3.182 0.198 o
-7 9 2 1.332 1.191 0.134 o
-7 9 3 4.794 4.753 0.229 o
-7 9 4 1.917 1.939 0.139 o
-7 9 5 4.583 4.838 0.181 o
-7 9 6 1.164 1.275 0.103 o
-7 9 7 6.313 6.442 0.229 o
-7 9 8 2.052 1.963 0.118 o
-7 9 9 15.073 14.794 0.429 o
-7 9 10 3.921 4.080 0.267 o
-7 9 13 0.492 0.471 0.080 o
-7 9 14 1.711 1.631 0.107 o
-7 9 15 1.616 1.713 0.097 o
-7 10 1 6.746 6.987 0.274 o
-7 10 2 0.796 0.631 0.124 o
-7 10 4 3.323 3.779 0.181 o
-7 10 5 9.166 9.375 0.348 o
-7 10 6 3.237 3.346 0.162 o
-7 10 7 5.915 6.267 0.241 o
-7 10 8 3.815 3.788 0.184 o
-7 10 9 2.778 2.816 0.148 o
-7 10 10 0.386 0.411 0.087 o
-7 10 11 3.452 3.542 0.182 o
-7 10 12 0.440 0.485 0.085 o
-7 10 13 4.914 4.645 0.176 o
-7 10 14 0.369 0.312 0.075 o
-7 11 1 4.831 4.835 0.577 o
-7 11 2 0.563 0.511 0.132 o
-7 11 3 8.771 8.774 0.281 o
-7 11 4 18.958 18.578 0.648 o
-7 11 5 20.698 21.076 0.644 o
-7 11 6 4.844 4.997 0.242 o
-7 11 7 6.052 5.926 0.254 o
-7 11 8 21.450 21.053 0.619 o
-7 11 9 10.903 10.925 0.352 o
-7 11 10 7.529 7.727 0.256 o
-7 11 12 3.957 3.880 0.166 o
-7 12 1 9.571 9.504 0.338 o
-7 12 4 21.423 21.157 0.670 o
-7 12 6 0.758 0.823 0.097 o
-7 12 7 0.529 0.489 0.092 o
-7 12 9 2.580 2.910 0.142 o
-7 12 10 4.584 4.520 0.181 o
-7 12 12 2.191 2.071 0.111 o
-7 12 13 0.487 0.567 0.083 o
-7 12 14 2.282 2.267 0.117 o
-7 13 2 0.739 0.820 0.107 o
-7 13 4 19.879 20.331 0.643 o
-7 13 5 10.177 10.022 0.351 o
-7 13 7 0.586 0.515 0.086 o
-7 13 8 0.843 0.738 0.086 o
-7 13 9 3.835 4.030 0.160 o
-7 13 13 0.267 0.271 0.075 o
-7 13 14 1.064 1.161 0.089 o
-7 14 2 2.160 2.062 0.125 o
-7 14 3 1.874 1.792 0.120 o
-7 14 4 1.235 1.334 0.112 o
-7 14 5 1.374 1.392 0.112 o
-7 14 6 0.839 0.787 0.089 o
-7 14 7 0.213 0.360 0.081 o
-7 14 9 0.229 0.280 0.077 o
-7 14 10 4.697 4.985 0.172 o
-7 14 12 1.003 1.036 0.083 o
-7 14 13 0.830 0.757 0.078 o
-7 14 14 3.974 3.824 0.390 o
-7 15 1 18.203 17.941 0.528 o
-7 15 2 5.753 5.709 0.233 o
-7 15 3 7.072 6.648 0.230 o
-7 15 4 1.178 1.038 0.105 o
-7 15 5 2.414 2.377 0.118 o
-7 15 6 2.703 2.661 0.137 o
-7 15 8 4.830 4.820 0.194 o
-7 15 10 1.102 1.153 0.088 o
-7 15 11 0.245 0.305 0.071 o
-7 15 12 7.927 8.052 0.320 o
-7 15 13 2.312 2.361 0.126 o
-7 16 1 5.843 5.712 0.253 o
-7 16 4 0.455 0.324 0.095 o
-7 16 5 6.184 6.385 0.210 o
-7 16 7 2.490 2.357 0.119 o
-7 16 8 0.722 0.701 0.086 o
-7 16 9 4.007 4.215 0.158 o
-7 16 10 1.213 1.178 0.089 o
-7 16 12 1.922 2.137 0.120 o
-7 16 13 8.451 8.455 0.266 o
-7 17 1 0.529 0.536 0.087 o
-7 17 2 8.092 8.052 0.267 o
-7 17 3 2.662 2.746 0.136 o
-7 17 4 0.724 0.635 0.097 o
-7 17 5 0.452 0.324 0.082 o
-7 17 6 2.968 3.071 0.172 o
-7 17 8 1.841 1.867 0.106 o
-7 17 10 0.617 0.527 0.076 o
-7 17 11 7.545 7.531 0.240 o
-7 17 12 0.473 0.534 0.081 o
-7 18 1 2.619 2.616 0.132 o
-7 18 3 4.550 4.562 0.185 o
-7 18 4 3.338 3.325 0.154 o
-7 18 6 2.195 2.183 0.112 o
-7 18 7 1.784 1.829 0.105 o
-7 18 8 7.263 7.068 0.231 o
-7 18 10 0.680 0.678 0.076 o
-7 18 12 5.543 5.415 0.455 o
-7 19 3 4.326 4.334 0.162 o
-7 19 4 1.880 1.869 0.118 o
-7 19 6 2.059 2.097 0.110 o
-7 19 7 1.109 1.026 0.089 o
-7 19 10 1.026 0.973 0.088 o
-7 19 11 0.621 0.550 0.093 o
-7 20 1 1.693 1.508 0.099 o
-7 20 2 8.898 8.721 0.247 o
-7 20 3 1.282 1.261 0.105 o
-7 20 5 0.591 0.552 0.081 o
-7 20 6 0.372 0.296 0.078 o
-7 20 7 0.783 0.755 0.083 o
-7 20 10 0.192 0.257 0.084 o
-7 21 1 0.473 0.432 0.078 o
-7 21 2 1.400 1.451 0.094 o
-7 21 3 0.365 0.301 0.086 o
-7 21 6 1.093 1.059 0.086 o
-7 21 7 2.224 2.567 0.155 o
-7 22 2 0.328 0.355 0.076 o
-7 22 3 0.739 0.606 0.078 o
-7 22 5 2.250 2.368 0.109 o
-7 22 6 0.750 0.675 0.079 o
-7 22 7 7.702 8.310 0.247 o
-7 22 8 0.460 0.538 0.091 o
-7 23 1 2.460 2.480 0.116 o
-7 23 5 2.271 2.538 0.114 o
-7 23 6 1.505 1.479 0.110 o
-7 24 1 1.440 1.433 0.150 o
-7 24 2 2.486 2.434 0.166 o
-6 0 6 11.888 15.829 0.507 o
-6 0 8 9.495 9.240 0.308 o
-6 0 10 24.486 24.298 0.614 o
-6 0 12 0.584 2.009 0.135 o
-6 0 14 6.953 6.467 0.324 o
-6 0 16 2.949 2.950 0.172 o
-6 0 18 1.272 1.460 0.159 o
-6 1 2 29.267 28.817 1.183 o
-6 1 3 0.677 0.677 0.156 o
-6 1 4 6.891 6.699 0.215 o
-6 1 6 6.080 6.012 0.192 o
-6 1 7 0.441 0.362 0.068 o
-6 1 8 7.354 7.118 0.210 o
-6 1 9 0.465 0.510 0.072 o
-6 1 10 69.883 68.072 1.655 o
-6 1 12 9.444 8.892 0.264 o
-6 1 13 0.918 0.822 0.081 o
-6 1 14 5.150 5.092 0.207 o
-6 1 15 1.905 1.966 0.099 o
-6 1 17 2.008 2.271 0.130 o
-6 1 18 3.194 3.529 0.159 o
-6 2 1 69.776 75.443 2.612 o
-6 2 2 16.888 16.132 0.586 o
-6 2 3 11.710 11.256 0.360 o
-6 2 4 33.158 32.166 0.763 o
-6 2 5 12.169 12.118 0.332 o
-6 2 6 0.862 0.915 0.077 o
-6 2 7 1.865 1.984 0.099 o
-6 2 8 37.545 36.509 0.855 o
-6 2 9 4.933 4.888 0.169 o
-6 2 10 2.355 2.441 0.129 o
-6 2 11 0.866 0.823 0.077 o
-6 2 12 5.320 5.274 0.180 o
-6 2 13 7.823 7.749 0.231 o
-6 2 14 0.226 0.299 0.078 o
-6 2 16 0.487 0.545 0.092 o
-6 3 1 91.634 90.317 3.331 o
-6 3 2 0.817 0.746 0.219 o
-6 3 3 8.239 8.226 0.302 o
-6 3 4 1.297 1.494 0.129 o
-6 3 5 0.421 0.379 0.078 o
-6 3 6 6.996 7.685 0.231 o
-6 3 7 29.034 27.664 0.675 o
-6 3 8 1.666 1.801 0.094 o
-6 3 9 41.799 40.283 0.988 o
-6 3 10 2.337 2.287 0.128 o
-6 3 11 5.346 5.209 0.174 o
-6 3 12 2.697 2.904 0.119 o
-6 3 13 0.997 0.988 0.087 o
-6 3 15 2.428 2.375 0.111 o
-6 3 16 0.402 0.521 0.092 o
-6 4 2 0.922 1.006 0.135 o
-6 4 3 7.616 7.533 0.332 o
-6 4 4 12.196 11.785 0.317 o
-6 4 5 61.350 58.419 1.361 o
-6 4 6 5.550 5.599 0.181 o
-6 4 7 0.511 0.622 0.071 o
-6 4 8 3.523 3.387 0.135 o
-6 4 9 24.622 23.460 0.570 o
-6 4 10 3.095 3.106 0.128 o
-6 4 11 7.486 7.443 0.221 o
-6 4 12 2.786 2.764 0.116 o
-6 4 13 1.100 1.166 0.091 o
-6 4 14 6.285 6.235 0.231 o
-6 4 15 0.839 0.897 0.085 o
-6 4 16 0.656 0.670 0.093 o
-6 4 17 0.365 0.513 0.088 o
-6 4 18 2.540 2.770 0.162 o
-6 5 1 0.353 0.440 0.109 o
-6 5 2 23.601 22.857 0.589 o
-6 5 3 1.814 1.903 0.148 o
-6 5 4 3.067 2.746 0.148 o
-6 5 5 0.480 0.499 0.078 o
-6 5 6 4.704 4.621 0.182 o
-6 5 7 0.609 0.674 0.071 o
-6 5 8 15.248 14.636 0.371 o
-6 5 9 11.515 10.770 0.287 o
-6 5 10 11.331 10.807 0.309 o
-6 5 11 3.031 3.149 0.129 o
-6 5 13 5.936 6.091 0.203 o
-6 5 14 6.547 6.823 0.279 o
-6 5 16 5.685 5.870 0.305 o
-6 5 17 7.054 7.458 0.282 o
-6 6 1 5.654 5.603 0.228 o
-6 6 2 2.150 2.316 0.161 o
-6 6 3 50.003 48.873 1.161 o
-6 6 4 17.303 16.514 0.414 o
-6 6 5 4.140 3.815 0.158 o
-6 6 6 1.103 2.668 0.144 o
-6 6 7 3.502 3.441 0.144 o
-6 6 8 0.260 0.314 0.068 o
-6 6 9 1.094 5.069 0.400 o
-6 6 10 1.292 1.308 0.089 o
-6 6 11 2.585 2.521 0.112 o
-6 6 12 0.817 1.551 0.092 o
-6 6 13 15.203 15.466 0.496 o
-6 6 14 1.948 2.183 0.108 o
-6 6 16 10.007 10.274 0.405 o
-6 6 17 12.386 12.749 0.521 o
-6 7 1 8.123 8.492 0.392 o
-6 7 2 21.146 20.635 0.546 o
-6 7 3 2.994 3.087 0.170 o
-6 7 4 0.296 0.270 0.075 o
-6 7 5 8.275 8.105 0.233 o
-6 7 6 6.631 6.483 0.202 o
-6 7 7 0.435 0.365 0.073 o
-6 7 9 4.612 4.488 0.162 o
-6 7 10 0.270 0.285 0.071 o
-6 7 11 7.597 7.554 0.225 o
-6 7 13 1.652 1.772 0.105 o
-6 7 14 6.741 6.697 0.214 o
-6 7 15 20.635 21.229 0.632 o
-6 7 16 0.757 0.942 0.104 o
-6 7 17 1.853 1.940 0.129 o
-6 7 18 7.437 7.598 0.269 o
-6 8 2 6.091 6.164 0.234 o
-6 8 3 13.183 12.939 0.347 o
-6 8 4 2.676 2.807 0.136 o
-6 8 5 2.430 2.478 0.117 o
-6 8 7 6.570 6.773 0.213 o
-6 8 9 0.679 0.625 0.080 o
-6 8 10 2.214 2.143 0.105 o
-6 8 11 2.564 2.469 0.109 o
-6 8 12 5.336 5.472 0.197 o
-6 8 13 1.541 1.763 0.099 o
-6 8 15 10.180 10.349 0.330 o
-6 8 16 1.210 1.452 0.104 o
-6 8 17 4.520 4.921 0.207 o
-6 8 18 2.997 2.969 0.407 o
-6 9 1 0.378 0.389 0.094 o
-6 9 3 41.910 41.249 1.043 o
-6 9 4 15.489 15.380 0.425 o
-6 9 5 0.500 0.607 0.082 o
-6 9 6 10.738 10.272 0.276 o
-6 9 7 62.902 59.866 1.459 o
-6 9 8 8.113 7.913 0.227 o
-6 9 9 4.902 4.921 0.187 o
-6 9 10 1.779 1.776 0.092 o
-6 9 12 15.356 15.555 0.415 o
-6 9 13 2.419 2.403 0.112 o
-6 9 14 0.310 0.253 0.080 o
-6 9 15 0.736 0.935 0.086 o
-6 9 16 9.766 9.869 0.321 o
-6 10 2 0.583 0.600 0.082 o
-6 10 3 21.661 21.494 0.609 o
-6 10 4 8.710 8.695 0.248 o
-6 10 5 17.987 17.869 0.452 o
-6 10 6 0.249 0.278 0.070 o
-6 10 7 2.423 2.468 0.113 o
-6 10 9 2.148 2.188 0.103 o
-6 10 10 0.420 0.541 0.074 o
-6 10 11 3.210 3.081 0.130 o
-6 10 12 0.197 0.311 0.073 o
-6 10 13 0.679 0.710 0.080 o
-6 11 1 32.012 31.214 0.839 o
-6 11 2 26.846 25.798 0.655 o
-6 11 3 41.324 40.511 0.956 o
-6 11 4 34.634 33.973 0.845 o
-6 11 5 13.971 13.714 0.392 o
-6 11 6 47.876 46.158 1.125 o
-6 11 7 17.021 16.496 0.449 o
-6 11 8 23.811 23.078 0.570 o
-6 11 9 2.431 2.300 0.106 o
-6 11 10 12.639 12.532 0.370 o
-6 11 11 0.640 0.741 0.081 o
-6 11 12 1.059 1.054 0.083 o
-6 11 15 1.975 2.002 0.109 o
-6 11 16 3.756 3.992 0.227 o
-6 11 17 3.001 3.038 0.184 o
-6 12 1 0.623 0.715 0.086 o
-6 12 2 19.021 18.771 0.490 o
-6 12 3 0.455 0.721 0.085 o
-6 12 4 4.141 4.265 0.164 o
-6 12 6 5.735 6.369 0.236 o
-6 12 8 16.392 16.016 0.432 o
-6 12 9 0.514 0.807 0.077 o
-6 12 10 3.559 3.634 0.150 o
-6 12 11 0.428 0.441 0.077 o
-6 12 12 8.238 8.173 0.299 o
-6 12 13 1.032 1.115 0.090 o
-6 12 16 0.595 0.756 0.101 o
-6 12 17 0.452 0.574 0.105 o
-6 13 1 4.821 4.822 0.165 o
-6 13 2 27.927 27.078 0.652 o
-6 13 3 14.728 14.183 0.393 o
-6 13 4 6.977 6.635 0.208 o
-6 13 5 1.901 1.884 0.103 o
-6 13 6 2.317 2.238 0.114 o
-6 13 7 1.723 1.720 0.097 o
-6 13 8 8.693 8.671 0.263 o
-6 13 9 1.308 1.368 0.088 o
-6 13 12 14.642 14.766 0.499 o
-6 13 13 0.816 0.884 0.086 o
-6 13 14 0.310 0.254 0.077 o
-6 13 15 0.706 0.732 0.083 o
-6 14 2 0.637 0.744 0.076 o
-6 14 3 10.120 9.735 0.277 o
-6 14 4 1.655 1.654 0.095 o
-6 14 5 3.229 3.256 0.145 o
-6 14 6 1.017 0.940 0.086 o
-6 14 8 15.878 15.740 0.416 o
-6 14 9 3.079 3.211 0.139 o
-6 14 10 7.007 7.026 0.229 o
-6 14 11 6.067 6.274 0.203 o
-6 14 12 15.531 15.866 0.491 o
-6 14 14 3.078 2.881 0.131 o
-6 14 15 0.526 0.507 0.084 o
-6 14 16 0.958 0.888 0.092 o
-6 15 2 4.018 4.052 0.151 o
-6 15 3 5.721 6.048 0.188 o
-6 15 5 0.245 0.243 0.075 o
-6 15 6 7.985 8.058 0.238 o
-6 15 7 2.282 2.371 0.112 o
-6 15 8 2.907 3.112 0.142 o
-6 15 9 1.727 1.901 0.139 o
-6 15 10 19.602 19.595 0.551 o
-6 15 11 9.280 9.298 0.272 o
-6 15 12 1.962 2.065 0.114 o
-6 15 14 2.725 2.829 0.136 o
-6 15 16 1.514 1.788 0.127 o
-6 16 2 1.073 1.023 0.083 o
-6 16 3 26.196 25.878 0.666 o
-6 16 4 0.444 0.476 0.069 o
-6 16 5 2.341 2.483 0.111 o
-6 16 6 0.882 0.954 0.086 o
-6 16 7 9.168 9.239 0.285 o
-6 16 8 8.132 8.048 0.307 o
-6 16 9 1.235 1.272 0.089 o
-6 16 11 20.801 20.976 0.593 o
-6 16 12 0.746 0.922 0.092 o
-6 16 13 0.912 0.950 0.090 o
-6 16 14 2.028 2.346 0.148 o
-6 16 15 0.797 0.705 0.095 o
-6 17 1 14.292 14.066 0.433 o
-6 17 2 1.735 1.681 0.097 o
-6 17 3 2.313 2.358 0.110 o
-6 17 5 0.365 0.299 0.067 o
-6 17 6 1.940 2.055 0.108 o
-6 17 7 2.503 2.520 0.126 o
-6 17 8 2.362 2.311 0.113 o
-6 17 9 10.704 10.486 0.295 o
-6 17 10 2.054 2.053 0.120 o
-6 17 11 5.020 4.934 0.199 o
-6 17 12 0.432 0.446 0.084 o
-6 17 13 0.512 0.624 0.084 o
-6 17 14 3.938 4.099 0.251 o
-6 18 1 3.827 3.982 0.164 o
-6 18 2 9.457 9.769 0.391 o
-6 18 3 0.050 0.408 0.077 o
-6 18 4 7.600 7.488 0.235 o
-6 18 5 4.554 4.602 0.182 o
-6 18 6 14.652 14.996 0.432 o
-6 18 7 2.686 2.792 0.153 o
-6 18 8 0.499 0.526 0.080 o
-6 18 9 0.017 0.490 0.083 o
-6 18 10 0.951 0.926 0.087 o
-6 18 11 1.109 1.202 0.101 o
-6 18 12 3.752 4.047 0.186 o
-6 18 13 0.998 0.961 0.091 o
-6 18 14 3.706 3.459 0.213 o
-6 18 15 0.952 1.099 0.296 o
-6 19 1 24.659 24.565 0.813 o
-6 19 2 8.596 8.614 0.331 o
-6 19 4 0.356 0.377 0.087 o
-6 19 5 6.248 6.203 0.195 o
-6 19 7 1.068 1.050 0.087 o
-6 19 9 2.057 2.013 0.110 o
-6 19 10 1.802 1.671 0.102 o
-6 19 11 0.350 0.291 0.085 o
-6 19 12 4.272 4.522 0.172 o
-6 19 13 2.512 2.462 0.125 o
-6 19 14 1.835 1.863 0.173 o
-6 20 1 0.336 0.402 0.083 o
-6 20 2 1.892 1.899 0.108 o
-6 20 3 0.720 0.686 0.082 o
-6 20 4 0.664 0.758 0.079 o
-6 20 5 0.277 0.351 0.075 o
-6 20 7 2.410 2.336 0.110 o
-6 20 8 3.695 3.759 0.172 o
-6 20 9 0.978 0.939 0.084 o
-6 20 11 3.610 3.750 0.159 o
-6 20 12 2.393 2.465 0.122 o
-6 20 13 7.206 7.214 0.289 o
-6 21 1 1.383 1.427 0.100 o
-6 21 2 3.192 3.153 0.148 o
-6 21 3 0.468 0.791 0.084 o
-6 21 4 2.483 2.531 0.116 o
-6 21 5 8.081 8.226 0.236 o
-6 21 6 0.011 0.410 0.073 o
-6 21 7 2.506 2.689 0.122 o
-6 21 9 0.413 0.552 0.082 o
-6 21 10 2.790 2.713 0.130 o
-6 21 11 0.275 0.316 0.087 o
-6 21 13 2.585 2.362 0.161 o
-6 22 1 7.925 8.078 0.306 o
-6 22 3 1.518 1.586 0.098 o
-6 22 4 0.906 0.886 0.080 o
-6 22 5 20.795 21.214 0.688 o
-6 22 6 2.501 2.592 0.122 o
-6 22 7 1.635 1.726 0.110 o
-6 22 8 0.975 0.973 0.088 o
-6 22 9 1.842 1.954 0.111 o
-6 22 11 1.090 1.101 0.097 o
-6 22 12 0.759 0.698 0.094 o
-6 23 1 1.008 0.941 0.089 o
-6 23 3 1.137 1.162 0.088 o
-6 23 4 0.269 0.456 0.077 o
-6 23 5 2.522 2.911 0.137 o
-6 23 6 0.319 0.336 0.079 o
-6 23 9 0.797 0.809 0.093 o
-6 23 11 1.564 1.626 0.104 o
-6 24 1 0.543 0.553 0.086 o
-6 24 2 1.608 1.523 0.103 o
-6 24 3 9.640 10.019 0.369 o
-6 24 4 16.387 16.344 0.502 o
-6 24 5 18.518 19.089 0.582 o
-6 24 6 21.397 21.663 0.823 o
-6 24 8 6.584 6.687 0.206 o
-6 24 9 3.117 3.077 0.170 o
-6 24 10 0.901 0.904 0.090 o
-6 25 1 0.885 0.887 0.090 o
-6 25 4 0.242 0.378 0.084 o
-6 25 5 0.524 0.627 0.081 o
-6 25 8 0.333 0.311 0.079 o
-6 25 9 0.182 0.236 0.076 o
-6 26 1 3.091 3.041 0.133 o
-6 26 4 10.740 10.384 0.432 o
-6 26 5 6.231 6.009 0.261 o
-6 26 6 1.566 1.385 0.090 o
-6 27 1 0.255 0.341 0.082 o
-6 27 2 0.701 0.804 0.088 o
-6 27 3 1.337 1.272 0.107 o
-6 27 6 2.889 2.943 0.132 o
-6 28 1 2.028 2.136 0.123 o
-5 0 2 25.183 23.116 0.979 o
-5 0 4 36.864 34.525 1.086 o
-5 0 6 44.289 43.241 1.598 o
-5 0 8 120.869 119.955 3.521 o
-5 0 10 8.221 8.268 0.260 o
-5 0 12 86.170 81.542 2.188 o
-5 0 14 5.063 5.101 0.220 o
-5 0 16 0.513 0.629 0.136 o
-5 0 18 11.971 12.013 0.751 o
-5 0 20 2.919 2.921 0.334 o
-5 1 2 1.063 1.021 0.179 o
-5 1 3 5.538 5.465 0.272 o
-5 1 4 20.970 20.523 0.646 o
-5 1 5 4.329 4.027 0.242 o
-5 1 6 54.922 52.367 1.342 o
-5 1 8 81.870 81.085 2.094 o
-5 1 9 6.908 6.621 0.226 o
-5 1 10 19.166 17.885 0.436 o
-5 1 11 3.913 3.707 0.139 o
-5 1 12 0.596 0.722 0.070 o
-5 1 13 5.294 5.276 0.178 o
-5 1 15 3.708 3.603 0.152 o
-5 1 16 2.834 2.931 0.143 o
-5 1 17 6.725 6.964 0.310 o
-5 1 20 0.296 0.438 0.126 o
-5 2 1 3.716 3.212 0.405 o
-5 2 3 7.517 7.605 0.317 o
-5 2 4 11.802 12.020 0.421 o
-5 2 5 4.072 3.924 0.247 o
-5 2 6 34.533 34.483 0.924 o
-5 2 7 37.504 35.722 0.964 o
-5 2 8 19.303 19.345 0.705 o
-5 2 9 9.559 9.180 0.249 o
-5 2 10 13.589 13.151 0.331 o
-5 2 11 21.984 20.800 0.499 o
-5 2 12 3.042 3.075 0.120 o
-5 2 13 0.253 0.220 0.064 o
-5 2 15 0.928 0.926 0.094 o
-5 2 16 3.047 3.217 0.153 o
-5 2 17 12.532 12.624 0.430 o
-5 2 18 1.360 1.411 0.119 o
-5 2 19 0.810 0.853 0.111 o
-5 2 20 1.781 1.793 0.154 o
-5 3 1 73.046 72.087 2.409 o
-5 3 3 6.802 6.956 0.353 o
-5 3 4 13.791 13.821 0.461 o
-5 3 5 8.838 8.814 0.472 o
-5 3 6 2.841 2.890 0.224 o
-5 3 7 54.203 52.176 1.369 o
-5 3 9 89.670 84.387 2.012 o
-5 3 10 19.320 18.710 0.452 o
-5 3 11 4.687 4.619 0.158 o
-5 3 12 4.544 4.531 0.160 o
-5 3 13 3.957 3.858 0.141 o
-5 3 14 2.098 2.165 0.109 o
-5 3 16 0.868 0.971 0.101 o
-5 3 17 0.528 0.727 0.105 o
-5 3 18 0.915 0.837 0.106 o
-5 3 19 3.318 3.288 0.195 o
-5 4 1 41.523 40.912 1.274 o
-5 4 2 4.606 4.585 0.339 o
-5 4 3 240.811 233.722 7.067 o
-5 4 4 9.884 9.955 0.384 o
-5 4 5 2.933 3.219 0.234 o
-5 4 6 1.864 1.708 0.173 o
-5 4 7 37.339 36.499 0.984 o
-5 4 8 5.227 5.327 0.285 o
-5 4 9 2.739 2.763 0.116 o
-5 4 10 8.226 8.166 0.244 o
-5 4 12 14.118 13.726 0.408 o
-5 4 13 1.067 1.159 0.080 o
-5 4 14 1.313 1.513 0.096 o
-5 4 15 8.331 8.557 0.336 o
-5 4 16 10.402 10.495 0.432 o
-5 4 17 7.804 8.176 0.417 o
-5 4 18 1.203 1.242 0.114 o
-5 4 19 3.881 3.878 0.203 o
-5 4 20 2.976 3.039 0.231 o
-5 5 1 2.132 2.459 0.252 o
-5 5 2 2.851 2.683 0.282 o
-5 5 3 14.888 15.242 0.619 o
-5 5 5 17.961 17.847 0.542 o
-5 5 6 18.211 17.826 0.549 o
-5 5 7 33.589 33.401 1.013 o
-5 5 8 27.893 27.682 1.055 o
-5 5 9 1.870 1.919 0.092 o
-5 5 10 8.321 8.247 0.228 o
-5 5 11 0.657 0.829 0.069 o
-5 5 12 8.774 8.544 0.235 o
-5 5 13 1.550 1.589 0.086 o
-5 5 14 26.943 27.129 0.767 o
-5 5 15 15.885 16.035 0.497 o
-5 5 17 11.182 11.569 0.506 o
-5 5 18 1.659 1.588 0.279 o
-5 5 19 12.684 12.430 1.023 o
-5 6 1 74.673 74.510 1.991 o
-5 6 2 6.922 6.866 0.343 o
-5 6 3 34.781 33.844 1.303 o
-5 6 4 37.306 36.641 1.016 o
-5 6 6 6.426 6.163 0.298 o
-5 6 7 6.350 6.179 0.305 o
-5 6 9 1.853 1.905 0.090 o
-5 6 10 21.003 20.135 0.496 o
-5 6 11 14.557 14.519 0.360 o
-5 6 12 1.850 2.068 0.094 o
-5 6 13 0.259 0.332 0.070 o
-5 6 14 34.643 34.644 0.941 o
-5 6 15 5.884 6.412 0.253 o
-5 6 16 2.605 2.835 0.142 o
-5 6 19 1.182 1.257 0.153 o
-5 7 1 3.986 4.307 0.297 o
-5 7 2 1.094 1.045 0.186 o
-5 7 3 34.403 35.165 1.075 o
-5 7 5 13.035 12.672 0.579 o
-5 7 6 19.536 19.477 0.591 o
-5 7 7 11.635 11.438 0.522 o
-5 7 8 0.225 0.196 0.065 o
-5 7 11 0.250 0.259 0.064 o
-5 7 12 37.305 36.797 0.951 o
-5 7 13 28.670 29.118 0.785 o
-5 7 14 1.962 2.156 0.108 o
-5 7 15 9.138 9.564 0.339 o
-5 7 16 12.473 13.462 0.468 o
-5 7 17 0.471 0.500 0.131 o
-5 7 19 0.771 0.625 0.139 o
-5 8 1 9.749 10.616 0.575 o
-5 8 2 6.048 5.858 0.352 o
-5 8 3 28.413 29.103 0.845 o
-5 8 4 2.951 2.866 0.418 o
-5 8 5 4.052 4.750 0.341 o
-5 8 7 13.034 12.559 0.343 o
-5 8 8 17.885 17.343 0.430 o
-5 8 9 8.755 8.730 0.233 o
-5 8 10 1.231 1.295 0.076 o
-5 8 11 1.376 1.415 0.080 o
-5 8 12 8.127 8.248 0.237 o
-5 8 13 31.031 31.304 0.825 o
-5 8 14 2.587 2.701 0.119 o
-5 8 15 12.082 12.210 0.534 o
-5 8 16 16.651 16.838 0.799 o
-5 8 17 10.443 10.586 0.731 o
-5 8 18 0.789 0.900 0.132 o
-5 9 1 180.369 180.040 5.547 o
-5 9 2 37.138 37.611 1.219 o
-5 9 3 32.735 32.695 0.935 o
-5 9 4 27.193 27.516 0.916 o
-5 9 5 166.334 164.940 4.618 o
-5 9 6 1.359 0.984 0.186 o
-5 9 7 32.110 30.481 0.726 o
-5 9 9 2.568 2.597 0.105 o
-5 9 10 33.273 32.324 0.782 o
-5 9 11 2.660 2.683 0.111 o
-5 9 12 1.434 1.409 0.085 o
-5 9 13 4.567 4.718 0.163 o
-5 9 14 7.509 7.538 0.228 o
-5 9 15 0.670 0.724 0.100 o
-5 9 16 1.728 1.846 0.131 o
-5 9 17 2.613 2.603 0.157 o
-5 9 19 2.338 2.439 0.237 o
-5 10 1 39.154 41.433 1.097 o
-5 10 2 1.560 1.721 0.182 o
-5 10 3 21.691 22.582 0.659 o
-5 10 4 2.239 2.313 0.229 o
-5 10 5 1.833 2.116 0.307 o
-5 10 6 0.306 0.257 0.071 o
-5 10 7 7.154 6.823 0.200 o
-5 10 9 5.549 5.317 0.167 o
-5 10 10 1.004 1.180 0.076 o
-5 10 11 11.328 10.950 0.284 o
-5 10 12 4.086 4.078 0.151 o
-5 10 14 4.069 4.001 0.191 o
-5 10 16 2.832 2.767 0.156 o
-5 10 17 1.301 1.390 0.116 o
-5 10 18 3.470 3.243 0.275 o
-5 11 1 25.394 25.169 0.825 o
-5 11 2 102.574 102.777 2.755 o
-5 11 4 50.054 50.121 1.938 o
-5 11 5 26.772 25.731 0.626 o
-5 11 6 36.815 35.111 0.849 o
-5 11 7 21.186 20.340 0.500 o
-5 11 8 4.000 4.028 0.149 o
-5 11 9 4.190 4.199 0.154 o
-5 11 10 2.813 2.947 0.120 o
-5 11 11 2.227 2.205 0.099 o
-5 11 12 1.298 1.325 0.084 o
-5 11 13 1.566 1.739 0.099 o
-5 11 14 3.728 3.876 0.196 o
-5 11 15 5.976 5.939 0.261 o
-5 11 16 0.369 0.419 0.094 o
-5 11 17 1.361 1.372 0.107 o
-5 11 18 1.168 1.453 0.141 o
-5 11 19 3.996 3.782 0.451 o
-5 12 1 1.338 1.317 0.117 o
-5 12 2 34.938 33.733 0.910 o
-5 12 4 21.120 20.723 0.498 o
-5 12 5 23.671 22.960 0.554 o
-5 12 6 32.726 31.295 0.784 o
-5 12 7 3.561 3.597 0.151 o
-5 12 8 1.960 1.947 0.093 o
-5 12 10 13.518 13.742 0.394 o
-5 12 11 12.688 12.773 0.349 o
-5 12 12 2.470 2.530 0.115 o
-5 12 13 2.639 2.588 0.122 o
-5 12 14 3.566 3.276 0.152 o
-5 12 15 0.606 0.881 0.106 o
-5 12 16 5.664 5.878 0.296 o
-5 12 17 1.562 1.601 0.111 o
-5 12 18 1.022 1.200 0.106 o
-5 13 1 1.357 1.312 0.082 o
-5 13 2 43.328 41.858 1.057 o
-5 13 3 2.927 2.835 0.115 o
-5 13 4 9.478 9.037 0.277 o
-5 13 5 2.139 2.223 0.097 o
-5 13 6 57.515 55.356 1.346 o
-5 13 7 8.190 8.050 0.226 o
-5 13 8 0.238 0.281 0.064 o
-5 13 9 0.956 0.821 0.076 o
-5 13 10 80.137 78.297 1.986 o
-5 13 11 1.290 1.417 0.097 o
-5 13 12 1.660 1.733 0.097 o
-5 13 13 4.873 4.759 0.175 o
-5 13 14 6.924 6.502 0.297 o
-5 13 15 13.702 13.790 0.450 o
-5 13 16 1.524 1.588 0.112 o
-5 13 18 0.817 0.865 0.117 o
-5 14 1 10.788 10.430 0.275 o
-5 14 3 8.685 8.387 0.227 o
-5 14 4 0.227 0.191 0.059 o
-5 14 5 6.689 6.757 0.193 o
-5 14 6 10.832 11.086 0.285 o
-5 14 7 1.067 1.040 0.073 o
-5 14 8 25.446 25.081 0.625 o
-5 14 9 5.175 5.173 0.174 o
-5 14 10 21.939 22.375 0.712 o
-5 14 11 0.268 0.387 0.080 o
-5 14 12 5.660 5.216 0.182 o
-5 14 13 5.763 5.777 0.196 o
-5 14 14 2.142 2.157 0.122 o
-5 14 15 2.275 2.390 0.133 o
-5 14 16 0.356 0.328 0.091 o
-5 14 17 0.586 0.735 0.095 o
-5 14 18 0.652 0.567 0.127 o
-5 15 1 14.015 14.044 0.357 o
-5 15 2 1.360 1.440 0.080 o
-5 15 4 1.222 1.264 0.076 o
-5 15 5 7.158 7.194 0.202 o
-5 15 6 0.301 0.252 0.059 o
-5 15 7 0.641 0.684 0.068 o
-5 15 8 37.009 35.816 1.019 o
-5 15 9 17.163 16.444 0.450 o
-5 15 10 3.399 3.584 0.159 o
-5 15 11 14.125 13.973 0.440 o
-5 15 12 2.427 2.460 0.131 o
-5 15 13 0.644 0.595 0.086 o
-5 15 15 0.411 0.441 0.095 o
-5 15 16 3.001 2.648 0.136 o
-5 15 17 0.420 0.357 0.099 o
-5 16 1 51.942 51.118 1.262 o
-5 16 2 2.685 2.757 0.115 o
-5 16 3 2.249 2.377 0.103 o
-5 16 4 2.371 2.334 0.102 o
-5 16 5 22.588 21.937 0.570 o
-5 16 6 6.456 6.367 0.191 o
-5 16 7 8.408 8.423 0.228 o
-5 16 8 9.988 9.894 0.263 o
-5 16 9 29.393 29.134 0.787 o
-5 16 10 1.680 1.677 0.102 o
-5 16 11 5.404 5.578 0.196 o
-5 16 12 6.083 6.221 0.247 o
-5 16 13 0.491 0.396 0.090 o
-5 16 15 1.057 1.001 0.116 o
-5 16 16 0.551 0.676 0.105 o
-5 16 17 0.642 0.694 0.100 o
-5 17 1 4.811 4.960 0.163 o
-5 17 2 6.644 6.708 0.208 o
-5 17 3 3.988 3.844 0.139 o
-5 17 4 0.817 0.896 0.072 o
-5 17 5 14.200 13.922 0.371 o
-5 17 6 0.131 0.226 0.062 o
-5 17 7 10.491 10.067 0.291 o
-5 17 8 8.566 8.550 0.241 o
-5 17 9 24.173 23.715 0.681 o
-5 17 10 0.746 0.828 0.085 o
-5 17 12 11.782 12.202 0.426 o
-5 17 13 0.998 0.935 0.097 o
-5 17 14 6.694 6.721 0.237 o
-5 17 15 1.989 2.023 0.124 o
-5 17 17 0.282 0.386 0.106 o
-5 18 2 27.066 26.462 0.698 o
-5 18 3 16.151 15.811 0.397 o
-5 18 4 6.874 6.475 0.191 o
-5 18 5 11.209 11.092 0.287 o
-5 18 6 6.602 6.421 0.190 o
-5 18 7 0.487 0.377 0.069 o
-5 18 8 6.906 7.157 0.220 o
-5 18 10 19.888 19.909 0.638 o
-5 18 11 1.030 1.040 0.089 o
-5 18 12 10.663 10.721 0.487 o
-5 18 13 0.540 0.606 0.091 o
-5 18 14 1.087 1.176 0.111 o
-5 18 16 0.665 0.668 0.149 o
-5 19 1 0.254 0.217 0.069 o
-5 19 2 8.895 8.922 0.243 o
-5 19 3 3.902 3.962 0.143 o
-5 19 4 1.702 1.687 0.088 o
-5 19 5 6.625 6.861 0.200 o
-5 19 6 0.230 0.237 0.070 o
-5 19 7 5.020 5.066 0.177 o
-5 19 8 2.612 2.575 0.115 o
-5 19 10 3.256 3.530 0.150 o
-5 19 11 1.710 1.773 0.100 o
-5 19 12 5.822 5.907 0.225 o
-5 19 13 0.457 0.567 0.100 o
-5 19 14 5.329 5.447 0.470 o
-5 19 15 0.914 0.932 0.141 o
-5 19 16 0.568 0.478 0.126 o
-5 20 1 1.866 2.019 0.097 o
-5 20 2 0.471 0.556 0.067 o
-5 20 3 0.851 1.031 0.077 o
-5 20 5 11.260 11.166 0.296 o
-5 20 6 6.088 5.923 0.205 o
-5 20 7 0.780 0.800 0.075 o
-5 20 8 0.614 0.651 0.080 o
-5 20 9 1.497 1.641 0.101 o
-5 20 10 0.872 0.904 0.094 o
-5 20 11 6.471 6.749 0.220 o
-5 20 13 4.699 4.692 0.207 o
-5 20 14 2.312 2.411 0.175 o
-5 20 15 3.816 3.557 0.214 o
-5 20 16 1.107 1.047 0.293 o
-5 21 1 13.597 13.856 0.392 o
-5 21 2 3.090 3.135 0.122 o
-5 21 3 1.806 1.850 0.094 o
-5 21 4 0.249 0.329 0.072 o
-5 21 5 12.095 12.487 0.346 o
-5 21 8 7.108 7.235 0.220 o
-5 21 9 0.494 0.545 0.082 o
-5 21 10 1.112 1.213 0.093 o
-5 21 11 16.496 16.298 0.557 o
-5 21 12 2.551 2.559 0.144 o
-5 21 13 6.558 6.422 0.237 o
-5 21 14 0.616 0.544 0.135 o
-5 21 15 5.709 6.309 0.303 o
-5 22 2 0.967 1.102 0.080 o
-5 22 3 53.122 53.120 1.595 o
-5 22 4 5.847 6.134 0.198 o
-5 22 5 28.928 29.106 0.838 o
-5 22 6 1.024 0.917 0.089 o
-5 22 7 21.964 21.785 0.587 o
-5 22 9 3.663 3.624 0.155 o
-5 22 10 0.898 0.898 0.087 o
-5 22 11 4.854 5.034 0.194 o
-5 22 12 8.562 8.356 0.290 o
-5 22 13 0.576 0.510 0.104 o
-5 23 1 2.898 2.988 0.137 o
-5 23 3 1.345 1.586 0.098 o
-5 23 4 0.265 0.485 0.084 o
-5 23 5 1.192 1.217 0.095 o
-5 23 6 1.538 1.528 0.100 o
-5 23 7 0.336 0.381 0.083 o
-5 23 9 3.022 2.988 0.140 o
-5 23 10 0.311 0.295 0.078 o
-5 23 12 0.439 0.489 0.097 o
-5 23 14 0.540 0.555 0.127 o
-5 24 1 8.334 8.506 0.301 o
-5 24 2 23.719 23.898 0.754 o
-5 24 3 30.258 30.681 1.020 o
-5 24 4 48.591 48.846 1.413 o
-5 24 5 0.839 0.790 0.088 o
-5 24 6 3.583 3.593 0.157 o
-5 24 8 1.345 1.222 0.127 o
-5 24 11 0.930 0.990 0.126 o
-5 24 12 1.603 1.841 0.117 o
-5 24 13 1.088 1.074 0.109 o
-5 25 1 2.050 2.151 0.118 o
-5 25 3 3.053 3.336 0.145 o
-5 25 4 0.485 0.621 0.084 o
-5 25 5 0.848 0.801 0.087 o
-5 25 7 0.947 1.096 0.094 o
-5 25 8 1.627 1.703 0.105 o
-5 25 9 0.617 0.605 0.084 o
-5 25 12 0.215 0.410 0.110 o
-5 26 2 10.539 10.647 0.366 o
-5 26 3 4.796 4.683 0.210 o
-5 26 4 17.375 17.632 0.502 o
-5 26 5 0.421 0.455 0.080 o
-5 26 6 0.944 0.843 0.085 o
-5 26 7 1.270 1.141 0.094 o
-5 26 8 16.850 17.731 0.563 o
-5 26 11 2.815 2.983 0.151 o
-5 27 1 0.539 0.417 0.082 o
-5 27 2 0.145 0.283 0.081 o
-5 27 5 0.940 0.935 0.089 o
-5 27 6 0.445 0.398 0.082 o
-5 27 7 1.312 1.193 0.106 o
-5 27 8 0.681 0.743 0.097 o
-5 27 10 4.221 4.639 0.204 o
-5 28 1 1.654 1.828 0.137 o
-5 28 3 0.891 0.766 0.085 o
-5 28 4 1.483 1.607 0.101 o
-5 28 6 4.678 4.552 0.258 o
-5 28 7 1.968 1.865 0.127 o
-5 28 8 1.196 1.122 0.100 o
-5 28 9 1.779 1.853 0.124 o
-5 28 10 2.528 2.711 0.413 o
-5 29 1 1.417 1.501 0.104 o
-5 29 2 1.755 1.621 0.131 o
-5 29 5 2.329 2.514 0.169 o
-5 29 6 1.271 1.224 0.110 o
-5 29 7 4.081 4.531 0.212 o
-5 29 8 0.588 0.440 0.127 o
-5 30 1 5.344 5.366 0.272 o
-5 30 2 1.570 1.620 0.141 o
-5 30 3 1.855 1.839 0.110 o
-5 30 4 2.405 2.439 0.146 o
-5 30 5 2.225 2.526 0.176 o
-5 30 6 1.121 0.874 0.135 o
-5 30 7 5.292 5.536 0.474 o
-5 31 1 1.008 0.895 0.200 o
-5 31 2 2.036 2.587 0.355 o
-4 0 2 13.679 13.145 0.495 o
-4 0 4 24.353 24.140 0.773 o
-4 0 6 543.111 533.538 16.561 o
-4 0 8 52.474 54.910 2.322 o
-4 0 10 301.068 281.665 13.621 o
-4 0 12 0.806 0.839 0.098 o
-4 0 16 57.613 57.723 2.975 o
-4 0 18 6.163 6.662 0.652 o
-4 0 20 2.281 2.032 0.357 o
-4 1 1 30.534 30.451 0.821 o
-4 1 2 0.589 0.617 0.112 o
-4 1 3 26.422 26.027 0.705 o
-4 1 4 70.368 69.538 1.715 o
-4 1 6 18.594 19.457 0.585 o
-4 1 7 16.663 15.871 0.503 o
-4 1 8 0.857 1.005 0.154 o
-4 1 9 10.069 10.223 0.397 o
-4 1 11 7.019 7.235 0.326 o
-4 1 12 0.144 0.252 0.061 o
-4 1 13 11.646 11.636 0.320 o
-4 1 14 3.288 3.392 0.137 o
-4 1 15 9.450 9.594 0.281 o
-4 1 16 10.762 11.202 0.409 o
-4 1 18 2.214 2.415 0.161 o
-4 1 19 0.563 0.690 0.161 o
-4 1 20 1.722 1.926 0.165 o
-4 1 21 3.552 3.498 0.240 o
-4 2 1 29.932 29.895 0.773 o
-4 2 2 126.678 123.986 2.974 o
-4 2 3 46.741 45.270 1.140 o
-4 2 4 36.226 36.632 0.963 o
-4 2 5 110.850 107.762 2.757 o
-4 2 6 47.180 46.398 1.207 o
-4 2 7 49.172 47.787 1.251 o
-4 2 8 0.607 0.719 0.138 o
-4 2 9 6.233 6.033 0.300 o
-4 2 10 18.198 17.669 0.550 o
-4 2 11 12.330 12.019 0.651 o
-4 2 12 23.664 22.434 0.576 o
-4 2 13 6.789 6.812 0.205 o
-4 2 14 0.235 0.247 0.071 o
-4 2 15 8.173 8.298 0.303 o
-4 2 16 15.032 14.608 0.513 o
-4 2 17 1.530 1.585 0.124 o
-4 2 18 8.460 8.920 0.434 o
-4 2 19 12.264 11.900 0.877 o
-4 2 20 1.494 1.709 0.162 o
-4 2 21 4.524 4.310 0.253 o
-4 3 1 8.506 8.815 0.306 o
-4 3 3 37.289 36.469 0.944 o
-4 3 4 7.512 6.948 0.287 o
-4 3 5 183.991 182.330 4.575 o
-4 3 6 15.276 14.413 0.464 o
-4 3 7 233.838 226.978 6.149 o
-4 3 8 20.970 20.229 0.612 o
-4 3 9 17.386 16.646 0.544 o
-4 3 10 13.606 13.620 0.461 o
-4 3 12 8.665 8.569 0.250 o
-4 3 13 0.660 0.856 0.074 o
-4 3 14 8.486 8.264 0.239 o
-4 3 15 2.639 2.857 0.133 o
-4 3 17 9.214 9.053 0.341 o
-4 3 18 3.184 3.216 0.275 o
-4 3 19 15.313 15.258 1.003 o
-4 3 20 2.636 2.658 0.189 o
-4 4 1 244.253 244.815 6.031 o
-4 4 2 39.028 38.609 0.959 o
-4 4 3 40.514 40.202 1.024 o
-4 4 4 1.523 1.515 0.152 o
-4 4 5 30.839 30.261 0.824 o
-4 4 6 1.955 2.305 0.188 o
-4 4 7 4.403 4.269 0.246 o
-4 4 8 5.173 5.011 0.264 o
-4 4 9 51.507 50.435 1.345 o
-4 4 10 13.151 13.125 0.450 o
-4 4 13 50.956 50.532 1.324 o
-4 4 14 16.669 16.764 0.470 o
-4 4 15 4.832 5.223 0.193 o
-4 4 16 2.100 2.198 0.124 o
-4 4 17 1.080 1.162 0.126 o
-4 4 18 3.284 3.626 0.314 o
-4 4 19 4.976 5.357 0.595 o
-4 4 20 13.811 13.209 0.556 o
-4 5 1 34.699 34.661 0.898 o
-4 5 2 4.084 4.250 0.211 o
-4 5 3 192.400 188.266 4.538 o
-4 5 4 18.986 18.238 0.543 o
-4 5 6 48.661 47.932 1.249 o
-4 5 7 6.163 5.928 0.310 o
-4 5 8 46.082 45.150 1.208 o
-4 5 9 19.291 19.189 0.579 o
-4 5 10 18.256 18.243 0.662 o
-4 5 11 23.999 22.802 0.641 o
-4 5 12 55.392 55.109 1.398 o
-4 5 13 39.532 39.134 1.024 o
-4 5 14 1.065 1.163 0.088 o
-4 5 15 23.573 23.958 0.814 o
-4 5 16 2.587 2.922 0.182 o
-4 5 17 19.808 20.837 1.102 o
-4 5 18 0.412 0.378 0.123 o
-4 5 19 6.588 6.454 0.290 o
-4 5 20 0.778 0.879 0.169 o
-4 6 1 26.032 26.607 0.721 o
-4 6 2 154.480 150.002 3.650 o
-4 6 3 6.113 6.094 0.246 o
-4 6 4 7.536 7.757 0.284 o
-4 6 5 19.800 19.092 0.570 o
-4 6 6 6.895 7.224 0.305 o
-4 6 8 82.211 80.472 2.080 o
-4 6 9 0.381 0.404 0.132 o
-4 6 11 9.488 9.253 0.277 o
-4 6 12 52.263 51.417 1.261 o
-4 6 13 0.132 0.213 0.068 o
-4 6 14 36.617 36.098 1.161 o
-4 6 15 19.205 18.868 0.631 o
-4 6 17 2.483 2.561 0.177 o
-4 6 18 5.582 5.310 0.283 o
-4 6 19 1.091 1.127 0.132 o
-4 6 20 0.707 0.567 0.132 o
-4 7 1 33.874 34.150 0.964 o
-4 7 2 12.137 12.425 0.404 o
-4 7 3 95.586 94.330 2.274 o
-4 7 4 57.165 56.550 1.390 o
-4 7 5 1.573 1.721 0.171 o
-4 7 6 5.182 5.019 0.284 o
-4 7 7 4.736 4.472 0.253 o
-4 7 8 3.483 3.590 0.241 o
-4 7 9 32.733 33.267 1.079 o
-4 7 10 43.748 42.794 1.396 o
-4 7 11 38.893 37.889 0.903 o
-4 7 12 1.010 1.100 0.076 o
-4 7 13 28.483 27.928 0.836 o
-4 7 14 9.467 9.653 0.282 o
-4 7 15 2.596 2.722 0.132 o
-4 7 16 9.232 9.410 0.477 o
-4 7 17 1.087 1.138 0.141 o
-4 7 18 2.546 2.422 0.189 o
-4 7 19 13.400 13.149 0.729 o
-4 8 1 99.905 97.717 2.411 o
-4 8 2 40.480 40.805 1.060 o
-4 8 3 0.755 0.756 0.124 o
-4 8 4 23.643 25.592 0.688 o
-4 8 5 59.343 59.652 1.457 o
-4 8 6 13.755 13.602 0.430 o
-4 8 7 6.912 7.373 0.317 o
-4 8 8 2.011 2.141 0.194 o
-4 8 10 56.509 56.103 1.807 o
-4 8 11 23.290 23.222 0.570 o
-4 8 12 20.763 20.063 0.513 o
-4 8 13 32.804 31.871 0.896 o
-4 8 14 17.813 17.876 0.543 o
-4 8 15 2.902 3.206 0.159 o
-4 8 16 0.612 0.852 0.110 o
-4 8 17 0.847 0.910 0.122 o
-4 8 18 1.454 1.505 0.212 o
-4 8 19 0.556 0.743 0.142 o
-4 8 20 1.365 1.336 0.184 o
-4 9 1 113.130 112.461 2.838 o
-4 9 2 1.009 1.117 0.147 o
-4 9 3 225.003 222.065 5.708 o
-4 9 4 1.014 1.011 0.130 o
-4 9 5 75.942 76.506 2.007 o
-4 9 6 20.875 20.641 0.594 o
-4 9 7 17.804 18.394 0.548 o
-4 9 8 8.862 8.986 0.363 o
-4 9 9 8.491 8.715 0.637 o
-4 9 10 1.427 1.612 0.108 o
-4 9 11 50.212 48.532 1.197 o
-4 9 12 6.804 6.940 0.237 o
-4 9 13 2.608 2.946 0.147 o
-4 9 14 11.226 11.072 0.450 o
-4 9 15 9.796 9.887 0.369 o
-4 9 16 5.476 5.680 0.212 o
-4 9 17 4.287 4.374 0.300 o
-4 9 18 3.349 3.413 0.306 o
-4 9 19 1.876 2.165 0.212 o
-4 10 1 4.841 4.937 0.254 o
-4 10 2 47.342 47.320 1.237 o
-4 10 3 24.440 23.850 0.687 o
-4 10 4 6.367 6.557 0.272 o
-4 10 5 68.070 68.210 1.700 o
-4 10 6 2.852 2.776 0.197 o
-4 10 7 33.757 34.273 0.952 o
-4 10 8 0.723 0.803 0.208 o
-4 10 9 20.771 20.061 0.641 o
-4 10 10 31.675 30.444 0.750 o
-4 10 11 1.078 1.143 0.075 o
-4 10 12 53.668 51.933 1.472 o
-4 10 13 0.487 0.512 0.084 o
-4 10 14 6.087 6.090 0.305 o
-4 10 15 2.346 2.318 0.126 o
-4 10 16 14.873 15.116 0.582 o
-4 10 17 8.086 7.896 0.363 o
-4 10 18 3.123 2.966 0.207 o
-4 10 19 1.880 1.904 0.164 o
-4 10 20 5.445 5.297 0.277 o
-4 11 1 58.060 57.321 1.779 o
-4 11 3 56.983 55.948 1.455 o
-4 11 4 84.223 83.276 2.114 o
-4 11 5 60.049 58.904 1.601 o
-4 11 6 11.451 11.484 0.419 o
-4 11 8 1.369 1.477 0.210 o
-4 11 10 2.971 3.217 0.132 o
-4 11 11 0.950 1.093 0.079 o
-4 11 12 2.060 2.405 0.113 o
-4 11 13 0.899 0.935 0.097 o
-4 11 15 1.954 1.928 0.119 o
-4 11 16 0.619 0.583 0.097 o
-4 11 17 3.614 3.699 0.197 o
-4 11 18 3.542 3.477 0.193 o
-4 11 19 2.227 2.077 0.170 o
-4 12 1 15.906 15.720 0.528 o
-4 12 2 18.119 17.932 0.580 o
-4 12 3 35.187 33.568 1.027 o
-4 12 4 56.267 55.700 1.467 o
-4 12 5 18.867 19.280 0.601 o
-4 12 6 0.515 0.653 0.152 o
-4 12 7 17.936 17.757 0.542 o
-4 12 8 3.672 4.367 0.289 o
-4 12 9 15.392 15.196 0.393 o
-4 12 10 11.434 11.493 0.298 o
-4 12 11 2.561 2.691 0.118 o
-4 12 12 22.743 22.461 0.657 o
-4 12 13 3.401 3.402 0.235 o
-4 12 14 15.341 15.372 0.557 o
-4 12 15 10.061 10.380 0.394 o
-4 12 16 3.340 3.395 0.164 o
-4 13 1 48.257 46.343 1.247 o
-4 13 2 22.711 21.956 0.763 o
-4 13 3 17.321 17.906 0.566 o
-4 13 4 140.288 136.076 3.541 o
-4 13 5 3.220 3.117 0.232 o
-4 13 8 199.088 192.460 4.841 o
-4 13 9 7.164 7.036 0.207 o
-4 13 10 5.836 5.918 0.182 o
-4 13 11 30.194 29.400 0.858 o
-4 13 12 20.392 20.419 0.627 o
-4 13 13 5.549 5.481 0.204 o
-4 13 14 10.190 10.180 0.333 o
-4 13 15 0.407 0.363 0.095 o
-4 13 17 2.360 2.503 0.143 o
-4 13 18 9.876 9.699 0.334 o
-4 13 19 1.769 1.992 0.162 o
-4 14 2 0.522 0.576 0.136 o
-4 14 3 3.532 4.006 0.247 o
-4 14 4 3.319 3.369 0.233 o
-4 14 6 21.938 23.012 0.670 o
-4 14 7 1.910 1.822 0.126 o
-4 14 8 20.794 20.815 0.551 o
-4 14 9 1.394 1.653 0.093 o
-4 14 10 0.910 0.944 0.076 o
-4 14 11 7.279 7.348 0.219 o
-4 14 12 2.221 2.382 0.113 o
-4 14 13 5.319 5.347 0.281 o
-4 14 14 0.249 0.323 0.093 o
-4 14 15 2.387 2.338 0.142 o
-4 14 16 5.969 5.815 0.221 o
-4 14 17 8.384 8.505 0.274 o
-4 14 18 1.759 2.002 0.167 o
-4 14 19 3.955 4.008 0.232 o
-4 15 1 2.037 2.170 0.191 o
-4 15 3 3.152 3.397 0.237 o
-4 15 4 5.916 6.100 0.355 o
-4 15 5 17.090 17.286 0.544 o
-4 15 6 37.534 36.791 1.044 o
-4 15 7 36.528 35.475 0.892 o
-4 15 8 2.991 3.076 0.126 o
-4 15 9 86.402 83.150 2.046 o
-4 15 10 7.234 7.075 0.212 o
-4 15 11 4.746 4.932 0.172 o
-4 15 12 1.488 1.586 0.093 o
-4 15 13 3.413 3.556 0.176 o
-4 15 14 26.991 25.891 1.140 o
-4 15 15 2.657 2.622 0.149 o
-4 15 16 0.874 0.799 0.106 o
-4 15 17 17.636 18.047 0.893 o
-4 15 18 5.403 5.396 0.290 o
-4 16 1 13.313 13.503 0.608 o
-4 16 2 17.540 17.163 0.540 o
-4 16 3 30.970 31.095 0.863 o
-4 16 4 4.683 4.988 0.272 o
-4 16 5 23.160 22.290 0.652 o
-4 16 6 8.069 8.036 0.217 o
-4 16 7 21.733 21.363 0.540 o
-4 16 8 13.104 13.056 0.336 o
-4 16 9 23.924 23.732 0.607 o
-4 16 10 4.946 5.013 0.175 o
-4 16 11 1.462 1.520 0.101 o
-4 16 12 0.123 0.268 0.073 o
-4 16 13 6.173 6.454 0.238 o
-4 16 16 0.919 1.082 0.130 o
-4 16 17 2.649 3.129 0.291 o
-4 16 18 0.598 0.704 0.181 o
-4 17 1 9.972 10.024 0.286 o
-4 17 2 4.219 4.335 0.165 o
-4 17 3 33.925 33.025 0.776 o
-4 17 4 2.704 2.789 0.121 o
-4 17 5 8.003 7.849 0.214 o
-4 17 6 13.330 13.287 0.367 o
-4 17 7 56.581 54.780 1.370 o
-4 17 8 4.137 4.327 0.153 o
-4 17 10 0.961 1.109 0.083 o
-4 17 11 2.053 2.096 0.124 o
-4 17 12 9.131 9.451 0.323 o
-4 17 13 2.875 3.320 0.181 o
-4 17 14 2.235 2.362 0.157 o
-4 17 15 1.100 1.219 0.136 o
-4 17 16 4.535 4.757 0.220 o
-4 17 17 9.397 9.621 0.310 o
-4 17 18 6.524 6.504 0.303 o
-4 18 1 48.309 47.539 1.158 o
-4 18 2 0.577 0.616 0.061 o
-4 18 3 10.089 10.076 0.259 o
-4 18 4 66.039 64.390 1.705 o
-4 18 5 1.330 1.350 0.085 o
-4 18 6 17.064 17.112 0.514 o
-4 18 7 11.208 11.422 0.298 o
-4 18 8 39.063 38.357 1.001 o
-4 18 9 1.600 1.761 0.093 o
-4 18 10 11.230 11.578 0.331 o
-4 18 13 1.976 2.123 0.146 o
-4 18 14 7.176 7.153 0.301 o
-4 18 15 20.711 20.459 0.829 o
-4 18 17 0.726 0.937 0.126 o
-4 18 18 7.898 8.375 0.482 o
-4 19 1 0.421 0.563 0.061 o
-4 19 3 8.087 8.117 0.231 o
-4 19 4 1.011 1.187 0.079 o
-4 19 5 4.910 4.833 0.168 o
-4 19 6 3.166 3.231 0.129 o
-4 19 7 7.817 7.596 0.245 o
-4 19 9 3.755 3.851 0.147 o
-4 19 10 36.008 36.492 1.135 o
-4 19 11 1.979 2.010 0.115 o
-4 19 12 20.972 21.576 0.892 o
-4 19 13 1.060 1.001 0.153 o
-4 19 14 6.107 6.226 0.252 o
-4 19 15 0.918 0.986 0.128 o
-4 19 16 3.614 3.657 0.196 o
-4 19 17 4.995 5.337 0.241 o
-4 20 1 11.562 11.685 0.299 o
-4 20 2 1.972 2.010 0.092 o
-4 20 3 2.448 2.500 0.115 o
-4 20 5 10.662 10.491 0.283 o
-4 20 6 11.442 11.205 0.295 o
-4 20 7 9.666 9.626 0.266 o
-4 20 8 1.522 1.431 0.090 o
-4 20 9 11.851 12.143 0.364 o
-4 20 10 4.761 4.942 0.191 o
-4 20 11 20.876 20.604 0.836 o
-4 20 12 4.486 4.728 0.252 o
-4 20 13 3.047 3.185 0.228 o
-4 20 14 1.017 0.929 0.148 o
-4 20 16 11.333 11.303 0.497 o
-4 20 17 4.200 4.396 0.220 o
-4 21 1 6.605 7.351 0.207 o
-4 21 2 2.673 2.793 0.119 o
-4 21 3 19.373 19.509 0.531 o
-4 21 4 1.447 1.452 0.086 o
-4 21 5 1.514 1.519 0.092 o
-4 21 6 12.664 12.275 0.374 o
-4 21 7 6.300 6.439 0.199 o
-4 21 8 5.631 5.535 0.181 o
-4 21 9 27.427 26.242 0.790 o
-4 21 10 3.866 3.984 0.178 o
-4 21 11 5.889 5.886 0.211 o
-4 21 12 3.183 3.109 0.155 o
-4 21 15 1.530 1.343 0.152 o
-4 21 16 1.199 1.334 0.145 o
-4 22 1 123.033 121.656 3.202 o
-4 22 2 7.925 8.061 0.228 o
-4 22 3 59.119 58.462 1.650 o
-4 22 4 0.412 0.316 0.069 o
-4 22 5 56.502 55.917 1.578 o
-4 22 7 0.594 0.555 0.077 o
-4 22 9 8.992 9.140 0.270 o
-4 22 10 12.177 12.373 0.376 o
-4 22 12 1.978 1.989 0.122 o
-4 22 13 0.671 0.755 0.143 o
-4 22 14 0.728 0.701 0.212 o
-4 22 15 1.681 1.379 0.299 o
-4 22 16 0.957 0.913 0.206 o
-4 23 1 0.982 1.187 0.085 o
-4 23 2 3.603 4.153 0.155 o
-4 23 3 0.176 0.273 0.069 o
-4 23 4 6.416 6.713 0.205 o
-4 23 6 2.291 2.510 0.135 o
-4 23 7 0.552 0.550 0.081 o
-4 23 8 2.408 2.570 0.129 o
-4 23 9 2.250 2.275 0.126 o
-4 23 10 3.888 3.845 0.221 o
-4 23 11 8.295 7.980 0.315 o
-4 23 12 3.082 3.008 0.155 o
-4 23 14 12.469 11.817 0.841 o
-4 23 15 2.571 2.432 0.229 o
-4 24 1 21.885 22.402 0.656 o
-4 24 2 79.326 80.510 2.651 o
-4 24 3 20.678 21.586 0.654 o
-4 24 4 3.449 3.465 0.143 o
-4 24 5 4.256 4.286 0.167 o
-4 24 6 9.756 9.480 0.298 o
-4 24 7 3.188 3.328 0.159 o
-4 24 8 1.802 2.011 0.112 o
-4 24 9 0.604 0.642 0.094 o
-4 24 13 0.756 0.695 0.119 o
-4 25 1 2.486 2.564 0.129 o
-4 25 2 0.156 0.407 0.072 o
-4 25 3 0.404 0.409 0.076 o
-4 25 4 1.428 1.478 0.095 o
-4 25 5 0.683 0.704 0.080 o
-4 25 6 5.668 5.855 0.260 o
-4 25 7 2.605 2.750 0.201 o
-4 25 8 2.977 3.050 0.153 o
-4 25 10 3.938 4.170 0.190 o
-4 25 11 8.280 8.731 0.261 o
-4 25 12 14.087 13.840 0.478 o
-4 25 14 3.325 3.606 0.257 o
-4 26 1 1.882 1.854 0.125 o
-4 26 2 52.009 51.869 1.540 o
-4 26 3 4.844 5.046 0.252 o
-4 26 5 0.351 0.502 0.088 o
-4 26 6 19.470 20.242 0.847 o
-4 26 7 0.981 0.910 0.108 o
-4 26 9 7.616 7.827 0.294 o
-4 26 10 5.950 6.173 0.235 o
-4 26 11 2.960 3.083 0.207 o
-4 26 12 0.457 0.540 0.101 o
-4 26 13 1.171 1.094 0.216 o
-4 26 14 3.464 3.070 0.379 o
-4 27 2 5.337 5.644 0.266 o
-4 27 4 1.616 1.823 0.115 o
-4 27 6 0.713 0.760 0.101 o
-4 27 8 11.376 11.779 0.352 o
-4 27 9 1.707 1.736 0.129 o
-4 27 10 8.620 8.906 0.331 o
-4 27 11 8.258 8.089 0.334 o
-4 28 2 1.907 1.875 0.103 o
-4 28 4 0.514 0.482 0.099 o
-4 28 5 2.679 2.882 0.196 o
-4 28 7 12.618 12.419 0.405 o
-4 28 9 4.962 5.273 0.228 o
-4 28 10 3.214 3.116 0.282 o
-4 28 11 1.148 1.127 0.217 o
-4 28 12 2.864 2.989 0.233 o
-4 29 1 1.385 1.338 0.136 o
-4 29 2 1.924 1.966 0.116 o
-4 29 4 1.495 1.477 0.126 o
-4 29 5 0.939 1.075 0.118 o
-4 29 8 1.150 0.986 0.236 o
-4 29 9 5.552 5.473 0.419 o
-4 29 11 5.201 5.012 0.269 o
-4 30 1 0.884 0.993 0.110 o
-4 30 2 3.423 3.715 0.219 o
-4 30 3 3.319 3.295 0.174 o
-4 30 5 18.276 18.037 1.480 o
-4 30 7 2.285 2.479 0.191 o
-4 30 9 1.706 1.656 0.152 o
-4 31 2 0.606 0.683 0.102 o
-4 31 4 1.947 1.885 0.130 o
-4 31 6 7.602 7.729 0.601 o
-4 31 8 2.812 3.009 0.432 o
-4 32 2 1.991 1.999 0.124 o
-4 32 4 4.270 4.549 0.231 o
-4 32 5 2.020 2.051 0.161 o
-4 32 7 5.869 6.255 0.506 o
-3 0 2 0.525 0.475 0.151 o
-3 0 4 1823.585 1750.636 48.008 o
-3 0 6 122.012 165.733 4.167 o
-3 0 8 230.794 223.963 6.139 o
-3 0 10 1.042 0.870 0.248 o
-3 0 12 31.095 32.336 3.508 o
-3 0 14 68.616 65.448 2.293 o
-3 0 16 0.429 0.666 0.177 o
-3 0 18 10.831 15.567 1.556 o
-3 0 20 4.216 4.177 0.440 o
-3 1 1 25.143 26.410 0.663 o
-3 1 2 55.478 55.281 1.359 o
-3 1 3 4.951 5.477 0.286 o
-3 1 4 20.268 20.779 0.573 o
-3 1 5 2.757 2.866 0.183 o
-3 1 6 119.421 114.197 2.726 o
-3 1 7 2.483 2.436 0.205 o
-3 1 8 7.282 7.601 0.305 o
-3 1 9 13.773 14.181 0.461 o
-3 1 10 10.023 10.295 0.386 o
-3 1 11 24.602 24.131 0.713 o
-3 1 12 31.336 31.711 1.067 o
-3 1 13 5.944 6.120 0.336 o
-3 1 14 5.259 5.769 0.205 o
-3 1 15 9.990 9.809 0.321 o
-3 1 16 26.076 25.948 0.816 o
-3 1 18 10.121 10.053 0.436 o
-3 1 19 10.597 10.310 0.520 o
-3 2 1 99.229 100.787 2.370 o
-3 2 2 8.152 7.843 0.267 o
-3 2 3 62.613 61.391 1.513 o
-3 2 4 99.871 100.430 2.436 o
-3 2 5 379.223 369.461 9.215 o
-3 2 6 105.354 103.125 2.542 o
-3 2 7 7.057 7.006 0.286 o
-3 2 9 186.393 181.534 5.218 o
-3 2 10 97.806 94.685 2.827 o
-3 2 11 0.653 0.731 0.150 o
-3 2 12 22.492 21.799 0.790 o
-3 2 13 7.122 7.093 0.246 o
-3 2 14 28.410 28.467 0.800 o
-3 2 15 23.319 22.844 0.739 o
-3 2 16 12.529 12.719 0.593 o
-3 2 17 24.723 24.826 0.976 o
-3 2 18 12.221 12.058 0.565 o
-3 2 19 5.487 5.361 0.257 o
-3 2 20 5.875 5.542 0.298 o
-3 2 21 1.216 1.251 0.140 o
-3 3 1 146.564 150.359 3.653 o
-3 3 2 33.095 33.537 0.897 o
-3 3 3 576.936 578.243 14.791 o
-3 3 4 17.505 17.846 0.520 o
-3 3 5 167.431 164.259 4.487 o
-3 3 6 4.224 4.032 0.214 o
-3 3 7 1.113 0.996 0.133 o
-3 3 8 6.687 6.657 0.283 o
-3 3 9 2.350 2.444 0.189 o
-3 3 10 27.702 27.472 0.793 o
-3 3 12 50.388 51.679 2.383 o
-3 3 13 47.747 47.909 1.322 o
-3 3 14 0.497 0.575 0.086 o
-3 3 15 1.765 1.961 0.133 o
-3 3 16 33.892 33.344 1.173 o
-3 3 17 21.411 21.986 1.106 o
-3 3 18 15.389 15.484 0.802 o
-3 3 20 3.143 3.156 0.251 o
-3 4 1 411.435 409.069 10.071 o
-3 4 2 35.934 35.896 1.038 o
-3 4 3 88.774 89.123 2.163 o
-3 4 4 4.155 3.951 0.217 o
-3 4 5 0.804 0.880 0.114 o
-3 4 7 194.626 188.454 4.602 o
-3 4 9 36.924 36.738 1.013 o
-3 4 10 5.290 5.048 0.270 o
-3 4 11 18.500 18.607 0.578 o
-3 4 12 7.385 7.906 0.335 o
-3 4 13 19.045 18.519 0.480 o
-3 4 14 5.279 5.445 0.309 o
-3 4 15 3.317 3.467 0.263 o
-3 4 17 25.000 23.766 1.067 o
-3 4 18 24.016 23.796 1.232 o
-3 4 19 3.079 3.250 0.260 o
-3 4 20 14.377 13.847 0.657 o
-3 4 21 2.066 2.309 0.215 o
-3 5 1 369.017 366.986 9.279 o
-3 5 2 16.998 17.317 0.520 o
-3 5 3 169.795 165.666 3.985 o
-3 5 4 72.955 70.955 1.696 o
-3 5 5 22.007 21.527 0.590 o
-3 5 6 76.934 76.644 1.827 o
-3 5 7 48.137 46.057 1.351 o
-3 5 8 29.107 29.472 0.797 o
-3 5 9 60.553 58.605 1.769 o
-3 5 10 41.092 40.589 1.089 o
-3 5 11 32.855 33.461 0.929 o
-3 5 12 1.323 1.329 0.255 o
-3 5 13 33.556 33.882 0.887 o
-3 5 14 3.051 3.224 0.210 o
-3 5 15 0.297 0.336 0.098 o
-3 5 16 0.549 0.597 0.107 o
-3 5 17 1.631 1.859 0.148 o
-3 5 18 5.032 5.119 0.397 o
-3 5 19 0.506 0.750 0.145 o
-3 5 20 0.390 0.513 0.137 o
-3 6 1 1.404 1.311 0.130 o
-3 6 2 27.633 26.136 0.720 o
-3 6 3 130.876 151.251 3.662 o
-3 6 4 131.555 128.928 3.047 o
-3 6 5 17.425 17.346 0.468 o
-3 6 6 100.492 101.263 2.399 o
-3 6 7 18.351 17.451 0.614 o
-3 6 8 21.262 21.685 0.754 o
-3 6 9 172.444 172.807 4.385 o
-3 6 10 57.635 57.171 1.477 o
-3 6 11 8.768 9.312 0.374 o
-3 6 12 148.614 152.613 4.558 o
-3 6 13 64.626 63.822 1.937 o
-3 6 14 1.508 1.680 0.116 o
-3 6 15 3.036 3.468 0.253 o
-3 6 16 3.631 3.753 0.210 o
-3 6 18 2.925 3.208 0.221 o
-3 6 19 34.900 32.968 0.964 o
-3 6 20 1.931 2.057 0.172 o
-3 6 21 0.931 1.039 0.139 o
-3 7 1 133.617 132.501 3.357 o
-3 7 2 3.794 4.111 0.195 o
-3 7 3 120.701 122.635 2.914 o
-3 7 4 5.813 6.141 0.224 o
-3 7 5 0.331 0.385 0.084 o
-3 7 6 3.809 3.781 0.183 o
-3 7 7 114.002 114.647 2.993 o
-3 7 8 9.295 10.005 0.356 o
-3 7 9 39.818 39.585 1.274 o
-3 7 10 92.418 93.192 2.384 o
-3 7 11 90.917 89.433 3.052 o
-3 7 12 17.287 16.890 0.871 o
-3 7 13 22.380 22.077 0.733 o
-3 7 14 40.398 40.437 1.242 o
-3 7 15 2.916 3.194 0.164 o
-3 7 16 12.260 11.582 0.380 o
-3 7 17 16.165 15.988 0.734 o
-3 7 18 0.877 0.850 0.147 o
-3 7 19 5.307 5.323 0.226 o
-3 7 20 0.390 0.463 0.134 o
-3 7 21 5.749 5.500 0.334 o
-3 8 1 18.382 18.652 0.528 o
-3 8 2 95.730 95.488 2.275 o
-3 8 3 143.491 142.324 3.342 o
-3 8 4 0.497 0.621 0.093 o
-3 8 5 0.414 0.422 0.088 o
-3 8 6 69.150 70.303 1.745 o
-3 8 7 8.696 9.210 0.310 o
-3 8 8 57.226 57.293 1.449 o
-3 8 9 1.240 1.439 0.153 o
-3 8 10 28.553 29.435 0.901 o
-3 8 11 129.609 122.441 4.176 o
-3 8 12 4.406 4.560 0.348 o
-3 8 13 8.359 8.133 0.253 o
-3 8 14 8.180 8.352 0.328 o
-3 8 15 7.584 7.454 0.338 o
-3 8 18 3.525 3.498 0.236 o
-3 8 19 14.297 14.269 0.680 o
-3 8 20 7.559 7.739 0.290 o
-3 8 21 3.045 3.320 0.316 o
-3 9 1 96.896 96.201 2.397 o
-3 9 2 86.391 85.683 2.029 o
-3 9 3 107.641 106.432 2.521 o
-3 9 4 13.673 13.266 0.383 o
-3 9 5 21.311 21.921 0.579 o
-3 9 6 0.717 0.932 0.109 o
-3 9 7 31.373 31.357 0.808 o
-3 9 8 44.798 44.346 1.175 o
-3 9 9 89.646 89.048 2.521 o
-3 9 10 26.992 28.473 1.244 o
-3 9 11 7.513 7.619 0.605 o
-3 9 12 1.675 1.794 0.154 o
-3 9 13 2.611 2.790 0.139 o
-3 9 14 4.667 5.033 0.213 o
-3 9 15 5.258 5.409 0.227 o
-3 9 17 2.682 2.736 0.255 o
-3 9 18 15.602 14.589 0.539 o
-3 9 19 0.593 0.822 0.156 o
-3 9 20 4.674 4.925 0.257 o
-3 9 21 5.798 6.269 0.292 o
-3 10 1 187.456 180.993 4.977 o
-3 10 2 29.177 28.511 0.760 o
-3 10 3 65.265 62.130 1.531 o
-3 10 4 21.855 21.730 0.601 o
-3 10 5 75.730 74.081 1.786 o
-3 10 6 12.932 12.885 0.392 o
-3 10 7 7.072 7.530 0.289 o
-3 10 8 21.427 21.598 0.611 o
-3 10 9 4.903 5.102 0.281 o
-3 10 10 129.743 127.942 6.329 o
-3 10 11 6.078 6.192 0.569 o
-3 10 12 5.111 4.926 0.213 o
-3 10 13 0.494 0.626 0.095 o
-3 10 14 9.232 8.645 0.350 o
-3 10 15 21.955 22.126 0.922 o
-3 10 16 0.857 0.839 0.128 o
-3 10 18 2.751 2.824 0.246 o
-3 10 19 4.164 4.146 0.228 o
-3 10 20 13.978 12.898 0.468 o
-3 11 1 48.735 48.735 1.367 o
-3 11 2 321.304 313.269 7.915 o
-3 11 3 141.470 138.819 3.385 o
-3 11 4 46.261 45.572 1.163 o
-3 11 5 23.197 23.416 0.666 o
-3 11 6 30.973 30.570 0.793 o
-3 11 7 74.972 74.475 1.848 o
-3 11 8 1.936 2.118 0.173 o
-3 11 9 0.361 0.539 0.163 o
-3 11 10 1.838 2.112 0.288 o
-3 11 11 52.539 52.018 2.712 o
-3 11 12 15.255 15.078 0.452 o
-3 11 13 0.599 0.606 0.100 o
-3 11 14 4.805 4.778 0.224 o
-3 11 15 7.924 7.974 0.387 o
-3 11 16 34.146 34.387 2.076 o
-3 11 17 5.413 4.887 0.249 o
-3 11 18 2.198 2.169 0.199 o
-3 11 19 2.211 2.285 0.178 o
-3 12 2 81.599 79.968 1.961 o
-3 12 3 2.761 4.091 0.223 o
-3 12 4 29.352 29.223 0.815 o
-3 12 5 50.700 50.090 1.313 o
-3 12 6 6.027 6.492 0.260 o
-3 12 7 6.591 6.802 0.283 o
-3 12 8 7.566 7.873 0.338 o
-3 12 9 3.053 4.124 0.285 o
-3 12 10 43.795 44.158 1.572 o
-3 12 11 34.808 33.773 0.941 o
-3 12 12 11.622 12.048 0.457 o
-3 12 13 6.648 6.766 0.257 o
-3 12 14 2.384 2.400 0.142 o
-3 12 15 1.244 1.780 0.149 o
-3 12 16 3.417 3.861 0.224 o
-3 12 17 13.517 12.922 0.483 o
-3 12 19 4.910 4.787 0.235 o
-3 13 1 18.517 18.784 0.615 o
-3 13 2 157.917 152.587 3.806 o
-3 13 4 23.293 23.020 0.655 o
-3 13 5 29.298 29.212 0.826 o
-3 13 6 239.890 238.896 6.261 o
-3 13 7 2.140 2.180 0.204 o
-3 13 8 38.722 37.857 1.075 o
-3 13 9 26.476 27.535 0.882 o
-3 13 10 13.692 14.377 0.871 o
-3 13 11 0.283 0.425 0.080 o
-3 13 12 19.155 19.172 0.535 o
-3 13 13 18.567 17.812 0.462 o
-3 13 14 0.284 0.348 0.096 o
-3 13 15 1.476 1.634 0.119 o
-3 13 16 27.513 26.918 1.005 o
-3 13 19 2.399 2.581 0.447 o
-3 13 20 2.105 2.245 0.201 o
-3 14 1 19.581 18.466 0.560 o
-3 14 2 52.250 50.831 1.458 o
-3 14 3 17.460 17.882 0.540 o
-3 14 5 13.893 14.035 0.517 o
-3 14 6 43.377 43.452 1.207 o
-3 14 7 10.463 10.240 0.458 o
-3 14 8 5.654 6.272 0.323 o
-3 14 11 37.933 36.579 1.263 o
-3 14 12 4.070 4.139 0.167 o
-3 14 13 5.345 5.199 0.205 o
-3 14 14 32.482 32.039 0.953 o
-3 14 15 14.374 14.485 0.609 o
-3 14 16 0.324 0.360 0.120 o
-3 14 18 2.406 2.655 0.504 o
-3 14 19 3.333 3.459 0.389 o
-3 15 1 4.074 3.821 0.240 o
-3 15 2 29.738 29.264 0.819 o
-3 15 3 133.018 131.040 3.747 o
-3 15 4 3.699 3.449 0.225 o
-3 15 5 66.813 65.594 2.008 o
-3 15 6 21.603 21.056 0.677 o
-3 15 7 170.029 165.502 5.852 o
-3 15 8 82.453 83.936 2.359 o
-3 15 9 0.236 0.611 0.093 o
-3 15 10 2.709 2.802 0.131 o
-3 15 11 7.811 8.209 0.257 o
-3 15 12 47.390 46.573 1.361 o
-3 15 13 3.242 3.122 0.168 o
-3 15 14 6.495 6.893 0.417 o
-3 15 15 9.719 10.040 0.497 o
-3 15 16 13.105 13.290 0.456 o
-3 15 17 4.387 4.435 0.383 o
-3 16 1 18.277 17.776 0.539 o
-3 16 2 25.587 25.595 0.927 o
-3 16 3 55.132 54.208 1.693 o
-3 16 4 6.859 7.369 0.350 o
-3 16 5 14.203 14.882 0.537 o
-3 16 6 1.122 1.114 0.179 o
-3 16 7 44.160 43.976 1.540 o
-3 16 8 7.495 7.776 0.433 o
-3 16 9 8.659 8.702 0.325 o
-3 16 11 6.561 6.723 0.301 o
-3 16 12 0.428 0.373 0.093 o
-3 16 13 1.584 1.503 0.144 o
-3 16 14 36.182 35.985 1.360 o
-3 16 15 4.619 4.685 0.286 o
-3 16 16 6.947 7.085 0.371 o
-3 16 17 10.156 10.005 0.403 o
-3 16 18 28.993 28.070 1.086 o
-3 16 19 2.042 1.949 0.234 o
-3 17 1 31.464 30.467 1.155 o
-3 17 2 2.940 2.845 0.226 o
-3 17 3 3.061 3.744 0.236 o
-3 17 5 62.484 62.146 2.847 o
-3 17 8 16.689 16.702 0.501 o
-3 17 9 0.273 0.296 0.081 o
-3 17 10 2.583 2.642 0.140 o
-3 17 11 2.560 2.521 0.139 o
-3 17 12 0.625 0.815 0.101 o
-3 17 13 0.960 1.099 0.126 o
-3 17 15 19.403 18.620 0.709 o
-3 17 16 24.905 24.514 0.930 o
-3 17 18 0.836 0.895 0.214 o
-3 17 19 0.876 0.512 0.159 o
-3 18 1 1.104 1.105 0.154 o
-3 18 2 129.604 129.725 5.057 o
-3 18 3 0.266 0.748 0.166 o
-3 18 4 3.203 3.209 0.257 o
-3 18 5 63.215 63.626 3.545 o
-3 18 6 7.466 8.605 0.389 o
-3 18 7 2.279 2.429 0.123 o
-3 18 8 14.545 14.847 0.422 o
-3 18 9 3.392 5.052 0.195 o
-3 18 11 5.408 5.418 0.264 o
-3 18 12 21.062 21.801 0.714 o
-3 18 13 16.263 15.810 0.630 o
-3 18 14 11.931 11.833 0.494 o
-3 18 15 7.939 8.315 0.356 o
-3 18 16 7.459 7.568 0.380 o
-3 18 17 1.881 2.123 0.172 o
-3 18 18 1.237 1.162 0.179 o
-3 19 1 7.387 7.820 0.334 o
-3 19 2 1.195 1.407 0.191 o
-3 19 3 4.577 4.793 0.330 o
-3 19 4 15.818 16.106 0.527 o
-3 19 5 31.956 30.968 0.946 o
-3 19 7 28.152 27.243 0.808 o
-3 19 8 107.169 105.354 3.251 o
-3 19 9 1.460 1.586 0.111 o
-3 19 10 18.673 18.122 0.683 o
-3 19 11 17.439 16.985 0.508 o
-3 19 12 3.339 3.417 0.199 o
-3 19 13 4.501 4.639 0.272 o
-3 19 14 4.519 4.333 0.308 o
-3 19 15 9.843 9.739 0.319 o
-3 19 16 0.674 0.785 0.122 o
-3 19 17 11.862 11.792 0.375 o
-3 19 18 2.194 2.155 0.169 o
-3 20 1 20.423 20.726 1.187 o
-3 20 2 6.508 6.493 0.262 o
-3 20 3 2.392 2.436 0.143 o
-3 20 4 61.881 61.953 2.029 o
-3 20 5 51.793 51.695 1.573 o
-3 20 6 12.543 12.293 0.318 o
-3 20 7 23.199 22.531 0.645 o
-3 20 8 13.799 13.527 0.390 o
-3 20 9 41.854 41.155 1.303 o
-3 20 10 2.450 2.479 0.137 o
-3 20 13 3.364 3.408 0.275 o
-3 20 14 9.621 9.178 0.541 o
-3 20 15 8.056 8.572 0.309 o
-3 20 16 1.227 1.222 0.113 o
-3 20 17 0.646 0.474 0.110 o
-3 21 1 36.973 36.536 1.012 o
-3 21 2 7.165 7.133 0.215 o
-3 21 3 5.480 5.534 0.178 o
-3 21 4 15.383 15.304 0.423 o
-3 21 5 24.326 23.787 0.690 o
-3 21 6 8.109 8.946 0.247 o
-3 21 7 3.438 3.541 0.145 o
-3 21 8 4.376 4.538 0.254 o
-3 21 9 31.706 31.435 0.986 o
-3 21 10 16.264 15.934 0.506 o
-3 21 11 19.388 18.582 0.624 o
-3 21 13 18.091 16.892 1.014 o
-3 21 14 2.413 2.541 0.183 o
-3 21 15 0.347 0.531 0.122 o
-3 21 16 1.176 1.137 0.159 o
-3 21 17 0.592 0.606 0.109 o
-3 22 1 41.955 42.230 1.120 o
-3 22 2 0.331 0.308 0.068 o
-3 22 3 15.264 15.024 0.389 o
-3 22 5 0.536 0.553 0.076 o
-3 22 6 2.788 2.693 0.137 o
-3 22 7 2.032 2.019 0.107 o
-3 22 8 18.181 17.432 0.529 o
-3 22 9 4.650 4.584 0.206 o
-3 22 10 6.972 7.117 0.354 o
-3 22 11 3.910 3.846 0.195 o
-3 22 15 5.866 6.060 0.236 o
-3 22 16 3.829 3.786 0.212 o
-3 22 17 4.414 4.453 0.321 o
-3 23 1 0.636 0.729 0.073 o
-3 23 2 9.762 9.579 0.287 o
-3 23 3 2.344 2.517 0.115 o
-3 23 4 2.048 2.269 0.148 o
-3 23 5 1.296 1.408 0.098 o
-3 23 6 3.428 3.491 0.148 o
-3 23 7 33.875 33.879 1.133 o
-3 23 8 12.445 11.841 0.348 o
-3 23 9 12.905 12.547 0.407 o
-3 23 10 5.262 5.318 0.207 o
-3 23 11 6.558 6.367 0.350 o
-3 23 12 15.690 15.983 0.712 o
-3 23 14 1.775 1.855 0.164 o
-3 23 16 1.086 1.141 0.138 o
-3 24 1 105.323 104.260 2.866 o
-3 24 2 34.954 34.852 1.047 o
-3 24 3 6.326 6.147 0.223 o
-3 24 4 37.027 36.980 1.214 o
-3 24 5 16.267 16.687 0.728 o
-3 24 6 0.467 0.501 0.081 o
-3 24 7 0.619 0.557 0.093 o
-3 24 8 0.682 0.707 0.096 o
-3 24 9 2.953 4.019 0.177 o
-3 24 10 0.634 0.749 0.119 o
-3 24 12 0.383 0.501 0.138 o
-3 24 13 3.931 3.771 0.297 o
-3 24 14 6.832 6.097 0.386 o
-3 24 15 1.846 1.898 0.160 o
-3 25 1 2.085 2.205 0.117 o
-3 25 2 1.339 1.390 0.099 o
-3 25 4 2.696 2.838 0.152 o
-3 25 5 2.496 2.532 0.195 o
-3 25 6 2.772 2.911 0.162 o
-3 25 7 2.640 3.036 0.164 o
-3 25 8 15.738 15.360 0.619 o
-3 25 9 16.064 15.753 0.645 o
-3 25 10 9.524 9.435 0.430 o
-3 25 11 1.415 1.375 0.123 o
-3 25 12 1.304 1.170 0.191 o
-3 25 13 6.103 5.684 0.479 o
-3 25 14 0.336 0.432 0.131 o
-3 26 1 15.415 15.331 0.469 o
-3 26 2 3.596 3.749 0.160 o
-3 26 4 3.281 3.114 0.173 o
-3 26 5 7.769 8.119 0.391 o
-3 26 6 5.461 5.695 0.398 o
-3 26 7 8.665 8.305 0.476 o
-3 26 8 14.971 14.576 0.637 o
-3 26 9 0.564 0.399 0.125 o
-3 26 12 12.570 12.393 0.528 o
-3 26 14 2.951 2.978 0.197 o
-3 27 1 2.553 2.590 0.129 o
-3 27 3 4.910 5.675 0.226 o
-3 27 5 0.751 0.759 0.176 o
-3 27 6 7.951 8.605 0.423 o
-3 27 7 2.890 2.708 0.189 o
-3 27 8 5.319 5.119 0.292 o
-3 27 9 16.572 16.231 0.809 o
-3 27 10 10.541 10.639 0.411 o
-3 27 11 1.669 1.637 0.159 o
-3 27 12 2.178 2.212 0.210 o
-3 27 13 7.275 6.713 0.519 o
-3 27 14 4.012 4.311 0.257 o
-3 28 1 1.475 1.716 0.123 o
-3 28 2 0.419 0.411 0.089 o
-3 28 3 4.334 4.417 0.278 o
-3 28 4 8.281 8.486 0.331 o
-3 28 5 24.458 24.254 1.468 o
-3 28 7 5.690 5.777 0.417 o
-3 28 8 5.945 5.924 0.287 o
-3 28 9 0.480 0.437 0.117 o
-3 28 10 9.177 8.721 0.447 o
-3 28 11 4.962 5.055 0.239 o
-3 28 13 1.711 1.869 0.189 o
-3 29 1 1.215 1.198 0.102 o
-3 29 2 0.436 0.394 0.090 o
-3 29 3 0.269 0.318 0.098 o
-3 29 5 3.962 4.130 0.294 o
-3 29 7 10.559 10.275 0.524 o
-3 29 8 0.870 0.747 0.121 o
-3 29 9 10.819 10.828 0.580 o
-3 29 12 0.802 0.553 0.160 o
-3 30 1 7.892 7.878 0.267 o
-3 30 3 19.657 20.414 0.753 o
-3 30 4 1.723 1.968 0.203 o
-3 30 6 0.372 0.463 0.148 o
-3 30 8 0.907 0.970 0.231 o
-3 30 9 3.164 2.920 0.185 o
-3 30 11 0.820 0.812 0.239 o
-3 31 4 7.106 6.814 0.263 o
-3 31 6 1.882 1.740 0.263 o
-3 31 7 5.490 5.688 0.728 o
-3 31 8 1.029 0.929 0.107 o
-3 31 10 1.066 0.947 0.114 o
-3 32 1 0.853 0.786 0.109 o
-3 32 2 6.809 6.976 0.363 o
-3 32 3 0.736 0.564 0.095 o
-3 32 4 0.394 0.425 0.112 o
-3 32 5 9.161 9.298 0.579 o
-3 32 6 10.481 10.202 0.663 o
-3 32 7 1.301 1.320 0.149 o
-3 32 8 0.431 0.477 0.126 o
-3 33 2 4.824 5.238 0.334 o
-3 33 3 2.975 3.053 0.182 o
-3 33 4 2.421 2.257 0.171 o
-3 33 6 16.856 16.341 1.360 o
-3 33 7 8.887 8.492 0.615 o
-3 33 8 4.057 3.979 0.245 o
-3 34 2 1.869 1.797 0.153 o
-3 34 3 4.032 4.037 0.212 o
-3 34 4 2.397 2.191 0.169 o
-3 34 5 1.024 0.805 0.127 o
-3 34 6 3.666 3.294 0.235 o
-3 35 1 9.085 8.950 0.476 o
-3 35 3 3.380 3.290 0.407 o
-2 0 2 2620.868 2595.315 62.867 o
-2 0 4 1165.133 1190.609 30.760 o
-2 0 6 4.976 4.873 0.466 o
-2 0 8 228.511 225.517 8.933 o
-2 0 10 54.270 53.299 2.516 o
-2 0 12 41.886 43.786 1.592 o
-2 0 14 9.028 8.917 0.440 o
-2 0 16 41.585 45.884 1.449 o
-2 0 20 2.271 2.123 0.365 o
-2 0 22 4.155 3.866 0.282 o
-2 1 1 1.055 1.037 0.069 o
-2 1 2 526.898 535.668 12.142 o
-2 1 3 8.557 8.546 0.240 o
-2 1 4 177.796 181.642 4.217 o
-2 1 5 13.548 13.593 0.406 o
-2 1 6 4.854 4.784 0.287 o
-2 1 7 46.738 47.580 1.279 o
-2 1 8 12.918 12.097 0.387 o
-2 1 9 21.840 22.182 0.620 o
-2 1 10 95.504 92.786 2.478 o
-2 1 11 11.045 10.632 0.419 o
-2 1 12 47.098 45.659 1.365 o
-2 1 13 33.548 32.339 0.994 o
-2 1 14 12.092 12.776 0.423 o
-2 1 16 73.947 79.195 2.098 o
-2 1 17 5.829 7.205 0.617 o
-2 1 21 7.688 7.258 0.276 o
-2 1 22 2.010 1.691 0.166 o
-2 2 1 16.308 16.055 0.398 o
-2 2 2 895.218 909.819 21.173 o
-2 2 3 2846.077 2821.989 66.479 o
-2 2 4 586.105 599.098 14.026 o
-2 2 5 12.477 12.300 0.395 o
-2 2 6 175.032 178.950 4.382 o
-2 2 7 498.390 484.595 12.306 o
-2 2 8 25.104 24.132 0.653 o
-2 2 9 8.488 8.625 0.321 o
-2 2 10 50.999 48.987 1.560 o
-2 2 11 27.508 28.012 0.876 o
-2 2 12 46.134 45.069 1.363 o
-2 2 13 37.112 36.372 1.338 o
-2 2 14 8.076 8.313 0.317 o
-2 2 15 9.286 9.988 0.359 o
-2 2 16 58.396 60.945 2.075 o
-2 2 17 9.700 10.823 0.664 o
-2 2 19 20.491 19.184 0.745 o
-2 2 20 0.757 0.699 0.179 o
-2 2 22 4.000 3.770 0.176 o
-2 3 1 410.505 413.767 9.398 o
-2 3 2 62.133 63.023 1.445 o
-2 3 3 79.821 82.070 1.895 o
-2 3 4 3.893 4.057 0.171 o
-2 3 5 66.008 68.048 2.183 o
-2 3 6 0.506 0.556 0.129 o
-2 3 7 2.143 2.276 0.154 o
-2 3 8 39.336 39.161 1.017 o
-2 3 9 51.278 54.130 1.345 o
-2 3 10 99.941 101.604 2.872 o
-2 3 11 60.631 60.036 1.755 o
-2 3 12 2.736 2.580 0.277 o
-2 3 13 0.769 1.146 0.357 o
-2 3 14 38.755 40.434 1.400 o
-2 3 16 32.980 34.041 1.884 o
-2 3 17 16.104 15.963 1.126 o
-2 3 18 3.289 3.026 0.448 o
-2 3 20 7.648 6.813 0.276 o
-2 3 22 4.244 4.251 0.183 o
-2 4 1 108.938 110.714 2.562 o
-2 4 2 98.624 104.003 2.357 o
-2 4 3 273.762 273.330 6.205 o
-2 4 5 33.030 33.302 1.106 o
-2 4 6 54.036 54.743 1.407 o
-2 4 7 35.626 35.626 0.890 o
-2 4 8 4.514 4.792 0.223 o
-2 4 9 39.904 39.777 1.109 o
-2 4 11 163.189 164.369 4.190 o
-2 4 12 19.177 18.805 1.116 o
-2 4 13 10.852 12.010 0.719 o
-2 4 14 17.359 17.510 0.687 o
-2 4 15 26.415 26.365 0.706 o
-2 4 16 35.034 34.615 1.054 o
-2 4 17 5.995 6.711 0.471 o
-2 4 18 69.912 67.666 1.988 o
-2 4 19 23.418 22.908 0.832 o
-2 4 21 1.046 1.002 0.137 o
-2 4 22 1.745 1.687 0.184 o
-2 5 1 171.239 169.589 3.903 o
-2 5 2 68.029 66.195 1.523 o
-2 5 3 140.132 138.748 3.166 o
-2 5 4 26.685 26.593 0.686 o
-2 5 5 26.445 26.239 0.898 o
-2 5 6 4.632 5.139 0.248 o
-2 5 7 41.463 41.130 1.152 o
-2 5 8 11.592 11.566 0.364 o
-2 5 9 11.150 11.329 0.375 o
-2 5 10 1.389 1.515 0.177 o
-2 5 11 170.545 176.302 4.901 o
-2 5 12 8.194 8.864 0.514 o
-2 5 13 61.568 60.761 2.084 o
-2 5 15 27.277 26.669 0.841 o
-2 5 16 7.113 7.164 0.476 o
-2 5 17 1.314 1.288 0.257 o
-2 5 18 4.557 4.477 0.510 o
-2 5 19 0.566 0.509 0.135 o
-2 5 20 1.320 1.294 0.149 o
-2 5 21 1.461 1.363 0.143 o
-2 5 22 1.638 1.526 0.315 o
-2 6 1 347.249 342.105 8.369 o
-2 6 2 386.793 377.208 8.657 o
-2 6 3 352.237 360.077 8.340 o
-2 6 4 100.450 98.253 2.367 o
-2 6 5 26.179 27.093 0.812 o
-2 6 6 264.520 266.059 6.457 o
-2 6 7 371.372 369.115 9.051 o
-2 6 8 67.288 67.957 1.621 o
-2 6 9 100.289 100.034 2.442 o
-2 6 10 199.650 198.653 6.477 o
-2 6 11 44.171 45.262 1.314 o
-2 6 13 16.155 16.171 0.632 o
-2 6 15 1.227 1.373 0.173 o
-2 6 17 69.095 68.775 2.833 o
-2 6 19 11.987 11.650 0.380 o
-2 6 21 4.708 4.751 0.219 o
-2 7 1 185.359 187.157 4.555 o
-2 7 2 343.024 342.285 8.093 o
-2 7 3 24.957 24.213 0.633 o
-2 7 4 73.911 75.372 1.875 o
-2 7 5 162.255 162.922 3.912 o
-2 7 6 8.870 8.919 0.317 o
-2 7 7 26.065 25.625 0.660 o
-2 7 8 360.709 358.667 8.965 o
-2 7 9 255.643 258.338 6.630 o
-2 7 10 34.574 34.268 1.179 o
-2 7 11 9.414 9.818 0.453 o
-2 7 12 29.662 28.847 1.110 o
-2 7 13 16.565 16.784 0.657 o
-2 7 14 1.774 1.797 0.144 o
-2 7 17 6.695 6.773 0.325 o
-2 7 18 0.815 0.894 0.171 o
-2 7 19 13.908 13.634 0.689 o
-2 7 20 4.363 4.329 0.447 o
-2 7 21 2.190 2.159 0.161 o
-2 8 1 158.144 157.480 3.828 o
-2 8 2 22.691 22.606 0.626 o
-2 8 3 28.183 30.177 0.795 o
-2 8 4 258.793 256.640 6.271 o
-2 8 5 139.115 138.853 3.317 o
-2 8 6 2.591 2.836 0.178 o
-2 8 7 70.009 69.628 1.673 o
-2 8 8 7.442 7.975 0.304 o
-2 8 9 421.981 417.243 12.186 o
-2 8 10 16.283 17.007 0.978 o
-2 8 11 68.912 68.267 2.457 o
-2 8 12 30.396 30.318 1.283 o
-2 8 13 33.382 33.868 0.938 o
-2 8 14 11.519 11.641 0.424 o
-2 8 15 3.276 3.258 0.211 o
-2 8 17 4.986 4.750 0.483 o
-2 8 18 1.362 1.661 0.204 o
-2 8 19 1.309 1.372 0.149 o
-2 8 20 4.046 4.116 0.269 o
-2 8 21 1.045 1.028 0.138 o
-2 9 1 113.968 112.512 2.738 o
-2 9 2 45.549 44.508 1.141 o
-2 9 3 2.574 2.395 0.231 o
-2 9 4 12.177 11.565 0.360 o
-2 9 5 30.046 29.263 0.801 o
-2 9 6 42.473 42.062 1.038 o
-2 9 7 24.245 24.449 0.669 o
-2 9 8 33.051 33.315 0.916 o
-2 9 9 50.189 50.734 1.382 o
-2 9 10 17.338 17.199 0.626 o
-2 9 11 24.337 24.727 1.006 o
-2 9 12 11.703 11.806 0.528 o
-2 9 13 7.369 7.662 0.301 o
-2 9 14 4.717 4.431 0.217 o
-2 9 16 54.869 51.861 3.641 o
-2 9 17 3.276 3.311 0.309 o
-2 9 18 25.998 25.870 0.751 o
-2 9 19 6.638 6.771 0.323 o
-2 9 20 4.369 4.615 0.231 o
-2 9 21 6.375 6.431 0.255 o
-2 10 2 2.031 2.140 0.158 o
-2 10 3 32.759 32.299 0.832 o
-2 10 4 28.761 27.737 0.742 o
-2 10 5 0.789 0.868 0.109 o
-2 10 6 1.684 1.886 0.145 o
-2 10 7 25.772 25.113 0.741 o
-2 10 8 41.732 41.109 1.121 o
-2 10 9 6.505 6.780 0.349 o
-2 10 10 44.031 44.302 1.354 o
-2 10 11 19.670 20.300 0.917 o
-2 10 12 1.281 1.485 0.253 o
-2 10 13 4.390 4.435 0.231 o
-2 10 14 2.016 1.993 0.221 o
-2 10 15 2.142 2.232 0.184 o
-2 10 16 2.786 3.006 0.220 o
-2 10 18 47.325 44.397 1.202 o
-2 10 19 2.099 2.143 0.211 o
-2 10 20 22.997 22.974 0.685 o
-2 11 1 437.925 429.361 10.682 o
-2 11 2 16.464 15.359 0.473 o
-2 11 3 44.635 43.667 1.228 o
-2 11 4 25.393 24.858 0.675 o
-2 11 5 379.300 377.732 9.350 o
-2 11 6 12.909 12.797 0.405 o
-2 11 7 27.121 27.159 0.754 o
-2 11 9 84.229 82.505 2.207 o
-2 11 10 98.085 95.338 2.597 o
-2 11 11 2.211 2.182 0.262 o
-2 11 12 39.259 40.070 1.246 o
-2 11 13 14.708 15.101 0.573 o
-2 11 14 52.774 52.224 1.530 o
-2 11 15 7.026 7.069 0.313 o
-2 11 16 8.223 8.705 0.501 o
-2 11 17 3.141 3.033 0.257 o
-2 11 18 7.347 7.520 0.507 o
-2 11 19 1.975 2.047 0.360 o
-2 11 21 11.807 11.830 0.405 o
-2 12 1 209.457 204.977 5.082 o
-2 12 2 200.304 198.391 5.337 o
-2 12 3 2.830 2.843 0.181 o
-2 12 4 24.918 24.632 0.729 o
-2 12 5 33.488 32.336 0.930 o
-2 12 6 1.125 1.313 0.148 o
-2 12 7 14.571 14.867 0.474 o
-2 12 8 7.084 6.853 0.343 o
-2 12 9 71.310 68.991 1.886 o
-2 12 10 4.695 4.838 0.374 o
-2 12 11 0.857 0.763 0.215 o
-2 12 13 7.468 7.478 0.296 o
-2 12 14 20.661 20.981 0.902 o
-2 12 15 22.540 23.848 0.881 o
-2 12 16 4.314 4.571 0.303 o
-2 12 17 13.696 13.466 0.612 o
-2 12 18 6.239 5.762 0.474 o
-2 12 19 10.092 9.544 0.609 o
-2 13 1 21.574 21.365 0.599 o
-2 13 2 234.246 233.055 6.037 o
-2 13 3 28.489 28.341 0.801 o
-2 13 4 130.677 127.688 3.136 o
-2 13 5 55.271 54.568 1.359 o
-2 13 6 231.784 225.154 5.824 o
-2 13 7 4.078 3.907 0.232 o
-2 13 9 1.525 1.988 0.228 o
-2 13 10 4.247 4.477 0.503 o
-2 13 11 31.877 31.583 1.004 o
-2 13 12 1.595 1.718 0.179 o
-2 13 13 0.414 0.495 0.122 o
-2 13 14 28.018 28.133 0.869 o
-2 13 15 5.728 5.916 0.383 o
-2 13 16 2.801 2.809 0.254 o
-2 13 18 2.201 2.283 0.363 o
-2 14 1 118.667 118.219 3.119 o
-2 14 2 5.193 4.933 0.233 o
-2 14 4 122.817 119.246 3.162 o
-2 14 5 0.463 0.662 0.142 o
-2 14 6 37.997 37.731 1.009 o
-2 14 8 2.363 2.571 0.302 o
-2 14 9 98.914 100.358 3.028 o
-2 14 10 43.512 42.480 2.934 o
-2 14 12 49.745 50.928 1.635 o
-2 14 14 22.052 22.478 1.150 o
-2 14 18 4.754 4.210 0.442 o
-2 14 19 3.274 2.900 0.229 o
-2 14 20 2.097 2.195 0.307 o
-2 15 1 197.640 193.111 5.480 o
-2 15 2 14.839 14.730 0.464 o
-2 15 3 16.171 15.967 0.526 o
-2 15 4 141.995 138.661 4.000 o
-2 15 5 220.262 211.700 6.188 o
-2 15 6 83.372 79.835 2.294 o
-2 15 7 41.528 40.340 1.162 o
-2 15 8 16.129 15.855 0.620 o
-2 15 10 19.416 18.976 0.695 o
-2 15 11 14.562 14.806 0.678 o
-2 15 12 6.044 6.590 0.282 o
-2 15 14 38.446 37.693 1.302 o
-2 15 15 27.758 27.553 0.837 o
-2 15 16 0.844 0.992 0.325 o
-2 15 18 14.024 13.648 0.608 o
-2 15 19 1.038 1.191 0.144 o
-2 15 20 0.643 0.424 0.105 o
-2 16 1 68.299 67.477 2.086 o
-2 16 2 29.438 29.278 0.857 o
-2 16 3 16.591 16.859 0.553 o
-2 16 4 21.488 20.952 0.665 o
-2 16 5 20.311 19.806 0.728 o
-2 16 6 18.731 18.532 0.633 o
-2 16 7 11.278 10.316 0.594 o
-2 16 8 2.440 2.520 0.292 o
-2 16 9 2.469 2.661 0.292 o
-2 16 10 10.380 10.538 0.344 o
-2 16 11 17.355 17.570 0.575 o
-2 16 12 74.876 74.815 3.167 o
-2 16 13 10.047 10.053 0.363 o
-2 16 14 31.498 31.948 0.922 o
-2 16 15 30.174 29.666 1.272 o
-2 16 16 20.400 19.891 0.756 o
-2 16 17 2.893 2.688 0.405 o
-2 16 19 0.340 0.447 0.109 o
-2 16 20 0.436 0.371 0.122 o
-2 17 1 0.683 0.435 0.145 o
-2 17 2 31.494 30.517 0.838 o
-2 17 3 28.168 28.025 0.780 o
-2 17 4 67.498 64.799 2.320 o
-2 17 5 2.330 2.262 0.289 o
-2 17 6 11.215 10.947 0.459 o
-2 17 7 4.749 4.598 0.497 o
-2 17 8 39.778 37.748 1.137 o
-2 17 9 1.953 1.747 0.155 o
-2 17 10 12.380 12.493 0.376 o
-2 17 11 0.461 0.616 0.110 o
-2 17 13 38.361 36.580 1.414 o
-2 17 14 29.122 29.708 1.013 o
-2 17 15 3.110 3.139 0.400 o
-2 17 16 19.862 19.380 0.989 o
-2 17 17 2.152 2.219 0.273 o
-2 18 1 10.999 11.027 0.434 o
-2 18 2 2.660 2.818 0.209 o
-2 18 3 103.727 100.217 3.147 o
-2 18 4 14.801 15.203 0.500 o
-2 18 6 17.986 17.521 0.574 o
-2 18 7 13.819 12.984 0.570 o
-2 18 8 4.508 4.370 0.361 o
-2 18 9 20.821 20.939 0.533 o
-2 18 10 6.510 6.260 0.273 o
-2 18 11 2.577 2.700 0.156 o
-2 18 12 12.517 12.779 0.451 o
-2 18 13 52.229 51.396 1.466 o
-2 18 14 0.878 0.849 0.122 o
-2 18 16 5.768 5.430 0.549 o
-2 18 17 4.886 4.674 0.364 o
-2 18 18 0.426 0.403 0.130 o
-2 18 19 0.357 0.459 0.146 o
-2 19 1 12.490 12.952 0.489 o
-2 19 2 43.767 43.495 1.544 o
-2 19 3 19.078 18.387 0.574 o
-2 19 4 16.413 16.342 0.759 o
-2 19 5 64.258 62.045 2.402 o
-2 19 6 84.187 79.985 2.288 o
-2 19 7 9.176 8.801 0.476 o
-2 19 8 15.412 15.049 0.423 o
-2 19 9 19.693 19.186 0.518 o
-2 19 10 6.216 5.962 0.237 o
-2 19 11 7.516 7.822 0.278 o
-2 19 12 14.069 13.835 0.469 o
-2 19 13 9.208 9.307 0.305 o
-2 19 14 1.071 1.221 0.155 o
-2 19 15 38.883 35.908 0.958 o
-2 19 16 3.446 3.191 0.239 o
-2 19 18 2.545 2.457 0.184 o
-2 19 19 11.455 10.727 0.713 o
-2 20 1 5.839 6.251 0.459 o
-2 20 2 88.997 89.793 4.546 o
-2 20 3 40.197 38.885 1.114 o
-2 20 4 37.695 37.770 1.379 o
-2 20 5 9.566 9.506 0.629 o
-2 20 6 12.716 11.652 0.542 o
-2 20 7 81.353 79.981 2.412 o
-2 20 8 0.456 0.541 0.094 o
-2 20 9 2.093 2.200 0.142 o
-2 20 10 10.644 9.785 0.414 o
-2 20 11 26.676 26.102 0.919 o
-2 20 12 8.594 8.120 0.298 o
-2 20 14 20.717 19.995 0.565 o
-2 20 15 2.292 2.178 0.204 o
-2 20 16 1.845 1.654 0.245 o
-2 20 18 2.802 2.946 0.189 o
-2 21 1 2.927 3.000 0.251 o
-2 21 2 7.614 7.457 0.414 o
-2 21 3 5.663 5.570 0.344 o
-2 21 4 2.845 2.770 0.214 o
-2 21 5 4.285 4.088 0.231 o
-2 21 6 8.765 8.908 0.340 o
-2 21 7 177.301 171.910 5.803 o
-2 21 8 44.124 42.899 1.306 o
-2 21 9 41.353 40.050 1.058 o
-2 21 10 1.240 1.094 0.135 o
-2 21 11 43.272 41.985 1.118 o
-2 21 12 1.555 1.540 0.153 o
-2 21 13 0.607 0.775 0.139 o
-2 21 14 2.082 2.064 0.147 o
-2 21 15 0.937 0.947 0.124 o
-2 21 18 4.342 4.109 0.205 o
-2 22 1 21.771 22.714 0.770 o
-2 22 3 22.273 22.568 0.629 o
-2 22 4 10.115 10.033 0.375 o
-2 22 6 23.655 22.939 0.717 o
-2 22 7 15.361 14.907 0.468 o
-2 22 8 7.300 7.189 0.317 o
-2 22 11 1.697 1.733 0.154 o
-2 22 12 0.480 0.560 0.168 o
-2 22 13 0.792 0.791 0.118 o
-2 22 14 5.854 5.685 0.342 o
-2 22 15 5.196 5.187 0.218 o
-2 22 17 1.164 1.152 0.268 o
-2 23 1 25.021 25.162 0.703 o
-2 23 5 86.233 84.924 3.073 o
-2 23 6 7.123 7.144 0.251 o
-2 23 8 14.144 13.855 0.462 o
-2 23 9 2.701 2.547 0.176 o
-2 23 10 6.989 6.592 0.300 o
-2 23 11 3.213 3.270 0.217 o
-2 23 12 14.845 13.427 0.464 o
-2 23 14 0.416 0.474 0.113 o
-2 23 15 1.404 1.352 0.197 o
-2 23 16 9.078 9.127 0.823 o
-2 24 1 1.322 1.316 0.093 o
-2 24 2 32.855 32.939 0.938 o
-2 24 3 11.057 11.011 0.320 o
-2 24 5 4.323 4.632 0.289 o
-2 24 7 21.209 20.126 0.702 o
-2 24 8 19.953 18.895 0.601 o
-2 24 11 25.685 23.237 0.811 o
-2 24 12 20.748 18.903 0.901 o
-2 24 14 3.613 3.791 0.313 o
-2 24 15 1.118 1.092 0.141 o
-2 24 16 1.899 2.025 0.136 o
-2 25 1 3.669 3.718 0.165 o
-2 25 3 0.372 0.377 0.091 o
-2 25 4 2.300 2.350 0.140 o
-2 25 5 5.565 5.573 0.325 o
-2 25 6 5.032 5.146 0.226 o
-2 25 7 7.914 7.527 0.357 o
-2 25 8 6.522 6.327 0.270 o
-2 25 10 2.641 2.655 0.244 o
-2 25 11 3.172 2.994 0.404 o
-2 25 14 0.863 0.930 0.170 o
-2 25 15 4.521 4.502 0.266 o
-2 26 1 2.052 2.139 0.142 o
-2 26 3 16.710 16.423 0.534 o
-2 26 4 39.179 38.915 1.822 o
-2 26 5 2.219 2.263 0.158 o
-2 26 6 31.378 30.882 1.029 o
-2 26 8 1.671 1.728 0.149 o
-2 26 9 0.921 0.878 0.141 o
-2 26 10 6.236 6.358 0.563 o
-2 26 11 1.400 1.646 0.331 o
-2 26 12 1.383 1.314 0.316 o
-2 26 13 1.571 1.663 0.327 o
-2 26 14 7.337 7.193 0.473 o
-2 26 15 1.645 1.799 0.314 o
-2 27 1 9.085 9.304 0.292 o
-2 27 2 0.745 0.701 0.100 o
-2 27 3 3.808 4.030 0.204 o
-2 27 4 0.416 0.431 0.115 o
-2 27 5 1.759 1.913 0.170 o
-2 27 6 15.568 15.285 0.560 o
-2 27 7 24.252 23.215 0.917 o
-2 27 8 47.511 45.099 1.207 o
-2 27 9 2.401 2.545 0.198 o
-2 27 10 1.515 1.477 0.201 o
-2 27 11 3.442 2.827 0.397 o
-2 27 12 4.077 3.634 0.410 o
-2 27 14 3.082 3.157 0.393 o
-2 27 15 1.525 1.472 0.174 o
-2 28 1 1.739 1.847 0.136 o
-2 28 2 20.995 20.951 0.786 o
-2 28 3 23.068 23.364 1.022 o
-2 28 5 0.742 0.783 0.139 o
-2 28 6 4.666 4.829 0.374 o
-2 28 7 2.226 2.229 0.157 o
-2 28 8 17.227 16.470 0.865 o
-2 28 9 1.474 1.527 0.139 o
-2 28 12 15.498 14.688 0.485 o
-2 28 13 4.413 4.163 0.436 o
-2 28 14 1.705 1.883 0.187 o
-2 29 3 7.561 7.295 0.573 o
-2 29 4 1.890 1.999 0.153 o
-2 29 5 16.349 15.773 0.903 o
-2 29 7 7.797 7.866 0.603 o
-2 29 8 4.704 4.790 0.562 o
-2 29 9 5.932 5.825 0.404 o
-2 29 12 8.269 7.739 0.333 o
-2 29 13 15.689 16.585 0.666 o
-2 30 1 11.483 11.418 1.089 o
-2 30 2 8.973 9.324 0.326 o
-2 30 3 8.058 7.913 0.714 o
-2 30 4 0.636 0.591 0.171 o
-2 30 6 6.111 6.518 0.240 o
-2 30 7 1.757 1.891 0.196 o
-2 30 10 4.246 4.289 0.232 o
-2 30 12 1.840 2.002 0.163 o
-2 31 1 3.195 3.386 0.256 o
-2 31 3 1.239 1.220 0.183 o
-2 31 5 18.419 17.321 0.557 o
-2 31 7 1.023 1.051 0.112 o
-2 31 10 2.313 1.988 0.329 o
-2 31 11 5.367 5.198 0.242 o
-2 31 12 2.834 2.668 0.366 o
-2 32 3 4.937 5.127 0.294 o
-2 32 4 8.169 8.013 0.357 o
-2 32 5 2.672 3.005 0.258 o
-2 32 6 1.545 1.590 0.163 o
-2 33 1 7.659 7.994 0.416 o
-2 33 2 3.237 2.765 0.467 o
-2 33 4 16.338 16.347 0.528 o
-2 33 5 18.789 18.002 0.560 o
-2 33 6 12.932 12.289 0.432 o
-2 33 9 3.765 3.892 0.186 o
-2 34 1 1.944 1.909 0.161 o
-2 34 2 0.986 0.773 0.165 o
-2 34 3 1.483 1.427 0.182 o
-2 34 4 3.177 3.054 0.249 o
-2 34 5 6.252 6.171 0.377 o
-2 34 6 2.034 2.088 0.193 o
-2 34 7 1.725 1.625 0.149 o
-2 35 1 9.894 9.497 0.373 o
-2 35 2 1.359 1.357 0.175 o
-2 35 4 0.892 0.729 0.156 o
-2 35 5 8.517 8.416 0.335 o
-2 36 1 3.667 3.845 0.275 o
-2 36 2 0.941 0.897 0.160 o
-2 36 3 11.604 11.017 0.391 o
-1 0 2 19940.520 19373.760 731.384 o
-1 0 4 348.471 352.862 8.423 o
-1 0 6 2046.805 1998.959 52.739 o
-1 0 8 1.549 1.387 0.301 o
-1 0 10 48.147 48.628 1.322 o
-1 0 12 3.769 3.216 0.404 o
-1 0 20 1.858 1.667 0.314 o
-1 0 22 10.566 10.205 0.492 o
-1 1 1 2.579 2.615 0.095 o
-1 1 2 39.274 41.414 0.949 o
-1 1 3 16.433 17.486 0.424 o
-1 1 4 56.767 58.261 1.328 o
-1 1 5 48.708 49.944 1.171 o
-1 1 6 32.392 32.928 0.810 o
-1 1 7 27.837 29.597 0.786 o
-1 1 8 1.833 1.752 0.175 o
-1 1 9 56.255 54.832 1.656 o
-1 1 10 207.895 204.378 4.972 o
-1 1 11 14.307 14.285 0.480 o
-1 1 12 13.419 13.968 0.496 o
-1 1 13 3.775 3.682 0.335 o
-1 1 14 62.093 61.836 2.062 o
-1 1 20 3.545 3.226 0.380 o
-1 1 21 1.828 1.802 0.152 o
-1 2 1 7912.175 8243.142 206.681 o
-1 2 2 203.186 212.020 4.802 o
-1 2 3 23.165 24.412 0.579 o
-1 2 4 203.464 203.474 4.748 o
-1 2 5 313.857 314.330 7.162 o
-1 2 6 52.200 54.867 1.281 o
-1 2 7 12.115 11.928 0.387 o
-1 2 8 0.668 0.631 0.131 o
-1 2 9 40.532 40.389 1.034 o
-1 2 10 132.939 132.282 3.226 o
-1 2 11 27.932 27.590 0.787 o
-1 2 12 11.482 10.804 0.478 o
-1 2 13 7.665 7.724 0.414 o
-1 2 14 69.115 74.055 2.590 o
-1 2 20 7.139 6.918 0.463 o
-1 2 22 7.839 7.708 0.295 o
-1 3 1 302.155 319.858 7.176 o
-1 3 2 5.812 6.058 0.175 o
-1 3 3 14.803 15.744 0.387 o
-1 3 4 33.203 32.126 0.759 o
-1 3 6 14.181 14.957 0.402 o
-1 3 7 312.213 319.778 7.631 o
-1 3 8 13.099 13.786 0.445 o
-1 3 10 0.694 0.671 0.130 o
-1 3 11 113.589 113.299 3.556 o
-1 3 12 1.132 1.345 0.221 o
-1 3 13 13.145 12.997 0.543 o
-1 3 14 9.566 10.016 0.491 o
-1 3 15 107.240 105.302 3.174 o
-1 3 19 2.804 2.662 0.364 o
-1 3 20 9.020 9.001 0.503 o
-1 3 22 1.817 1.925 0.132 o
-1 4 1 608.612 613.330 13.770 o
-1 4 2 97.448 98.100 2.202 o
-1 4 3 534.328 536.552 12.060 o
-1 4 4 146.660 143.309 3.308 o
-1 4 5 330.894 327.087 7.614 o
-1 4 7 110.674 111.937 3.082 o
-1 4 9 397.424 404.187 10.777 o
-1 4 10 54.010 52.817 1.758 o
-1 4 11 36.295 35.457 1.326 o
-1 4 12 78.816 76.860 2.174 o
-1 4 13 2.588 2.508 0.732 o
-1 4 14 46.231 45.963 1.378 o
-1 4 15 9.638 9.834 0.529 o
-1 4 16 170.279 170.305 7.002 o
-1 4 19 1.438 1.519 0.305 o
-1 4 20 4.916 4.578 0.369 o
-1 4 22 0.732 0.806 0.156 o
-1 5 1 3.205 3.184 0.115 o
-1 5 2 7.642 7.885 0.216 o
-1 5 3 232.051 228.850 5.157 o
-1 5 4 80.030 80.012 1.819 o
-1 5 5 106.295 106.130 2.444 o
-1 5 6 27.991 27.599 0.687 o
-1 5 7 234.648 235.513 6.822 o
-1 5 8 13.740 13.737 0.459 o
-1 5 9 802.384 809.871 21.722 o
-1 5 10 23.626 24.450 0.899 o
-1 5 11 49.921 50.192 1.448 o
-1 5 12 3.815 3.938 0.326 o
-1 5 13 75.861 77.344 5.111 o
-1 5 14 2.364 2.631 0.680 o
-1 5 15 23.955 23.914 1.307 o
-1 5 16 42.740 43.194 1.443 o
-1 5 18 13.380 12.263 0.572 o
-1 5 19 2.179 2.251 0.350 o
-1 5 20 9.865 9.213 0.364 o
-1 5 21 2.868 2.615 0.422 o
-1 5 22 2.647 2.544 0.173 o
-1 6 1 393.079 388.260 8.985 o
-1 6 2 482.922 467.494 10.567 o
-1 6 3 877.261 875.662 20.183 o
-1 6 4 654.587 653.901 15.069 o
-1 6 5 73.785 73.469 1.746 o
-1 6 6 8.751 8.888 0.290 o
-1 6 7 88.241 90.547 2.459 o
-1 6 8 97.766 99.170 2.570 o
-1 6 9 6.216 6.943 0.334 o
-1 6 10 112.007 111.788 3.791 o
-1 6 11 39.505 38.803 1.332 o
-1 6 13 2.989 3.389 0.353 o
-1 6 14 7.706 8.259 0.458 o
-1 6 15 31.030 31.883 3.508 o
-1 6 16 12.812 13.737 0.797 o
-1 6 17 1.132 1.143 0.148 o
-1 6 18 1.635 1.622 0.340 o
-1 6 19 0.869 0.801 0.201 o
-1 6 22 2.299 2.347 0.209 o
-1 7 1 1.659 1.585 0.084 o
-1 7 2 422.596 418.691 9.489 o
-1 7 3 297.736 295.604 6.675 o
-1 7 4 100.388 98.171 2.283 o
-1 7 5 51.743 53.271 1.274 o
-1 7 6 325.932 331.510 7.788 o
-1 7 7 335.957 333.003 9.540 o
-1 7 9 23.222 23.142 0.765 o
-1 7 10 13.387 13.561 0.494 o
-1 7 11 0.763 1.068 0.194 o
-1 7 12 20.401 20.212 0.751 o
-1 7 13 6.583 6.742 0.567 o
-1 7 14 19.425 18.336 1.919 o
-1 7 17 44.259 44.865 1.981 o
-1 7 18 20.048 19.471 0.799 o
-1 7 19 1.222 1.324 0.128 o
-1 7 20 4.560 4.533 0.286 o
-1 7 21 3.953 3.973 0.237 o
-1 8 1 0.944 1.022 0.070 o
-1 8 2 25.700 25.108 0.607 o
-1 8 3 625.029 618.489 14.379 o
-1 8 4 29.598 29.646 0.726 o
-1 8 5 136.770 138.617 3.214 o
-1 8 6 154.747 156.482 3.710 o
-1 8 7 711.410 708.937 19.505 o
-1 8 8 129.756 128.604 4.933 o
-1 8 9 138.176 137.446 4.999 o
-1 8 10 0.722 0.911 0.177 o
-1 8 11 74.429 76.031 2.055 o
-1 8 12 1.952 1.825 0.258 o
-1 8 13 5.071 4.737 0.452 o
-1 8 15 3.037 2.983 0.247 o
-1 8 16 10.128 10.286 0.746 o
-1 8 17 2.994 3.101 0.175 o
-1 8 18 48.741 47.345 1.802 o
-1 8 19 17.601 17.564 0.475 o
-1 8 20 4.814 4.399 0.399 o
-1 8 21 1.896 1.764 0.308 o
-1 9 1 302.623 297.340 6.852 o
-1 9 2 100.670 98.588 2.369 o
-1 9 3 16.814 17.028 0.444 o
-1 9 4 21.018 20.967 0.557 o
-1 9 5 24.469 24.476 0.677 o
-1 9 6 10.257 10.173 0.399 o
-1 9 7 257.154 260.914 7.624 o
-1 9 8 8.904 8.632 0.417 o
-1 9 9 218.180 214.777 5.880 o
-1 9 10 49.598 49.762 1.379 o
-1 9 11 14.131 14.451 0.541 o
-1 9 12 59.578 58.547 1.676 o
-1 9 13 14.511 14.217 1.335 o
-1 9 14 38.188 37.516 1.576 o
-1 9 16 17.773 18.762 0.590 o
-1 9 17 1.737 1.959 0.182 o
-1 9 18 12.854 12.748 0.466 o
-1 9 19 0.863 0.814 0.154 o
-1 9 20 1.902 1.760 0.383 o
-1 10 1 0.241 0.299 0.067 o
-1 10 2 97.517 97.934 2.350 o
-1 10 3 0.879 0.892 0.106 o
-1 10 5 100.730 99.326 2.607 o
-1 10 6 9.119 9.763 0.392 o
-1 10 7 3.847 3.764 0.286 o
-1 10 8 296.509 293.793 8.177 o
-1 10 9 4.525 3.964 0.311 o
-1 10 10 2.677 2.444 0.268 o
-1 10 11 7.514 7.864 0.386 o
-1 10 13 56.134 54.083 1.923 o
-1 10 14 8.722 9.024 0.474 o
-1 10 15 4.212 4.232 0.573 o
-1 10 16 102.387 96.545 2.919 o
-1 10 17 7.548 7.037 0.309 o
-1 10 18 12.467 11.987 0.383 o
-1 10 19 0.383 0.462 0.122 o
-1 10 21 3.187 3.002 0.184 o
-1 11 2 1.285 1.541 0.154 o
-1 11 3 314.993 313.960 8.111 o
-1 11 4 90.231 88.848 2.429 o
-1 11 5 41.417 41.947 1.127 o
-1 11 6 14.610 15.429 0.529 o
-1 11 7 23.585 23.088 0.759 o
-1 11 8 118.319 113.048 3.042 o
-1 11 9 9.827 9.873 0.467 o
-1 11 10 40.372 40.476 1.253 o
-1 11 11 5.375 5.719 0.388 o
-1 11 12 25.697 24.961 0.860 o
-1 11 13 31.416 32.128 1.426 o
-1 11 15 21.509 23.886 1.437 o
-1 11 16 16.985 17.944 1.373 o
-1 11 17 29.151 28.268 2.044 o
-1 11 18 3.787 3.624 0.326 o
-1 11 19 5.332 5.246 0.273 o
-1 11 20 4.675 4.403 0.252 o
-1 11 21 1.485 1.501 0.228 o
-1 12 1 9.165 9.038 0.366 o
-1 12 3 135.586 134.540 4.158 o
-1 12 4 22.268 21.992 0.661 o
-1 12 5 0.946 0.897 0.137 o
-1 12 6 34.626 33.288 1.008 o
-1 12 7 1.518 1.347 0.204 o
-1 12 8 6.445 6.330 0.370 o
-1 12 9 1.116 0.905 0.205 o
-1 12 10 3.501 3.406 0.309 o
-1 12 11 70.144 67.700 1.921 o
-1 12 12 61.953 58.777 1.742 o
-1 12 14 6.226 6.598 0.336 o
-1 12 15 1.355 1.274 0.273 o
-1 12 16 21.983 22.632 1.155 o
-1 12 17 10.540 10.477 0.571 o
-1 12 18 9.592 9.427 0.673 o
-1 12 19 8.710 8.723 0.744 o
-1 12 20 0.456 0.536 0.123 o
-1 12 21 28.933 29.162 0.903 o
-1 13 1 34.506 33.348 0.875 o
-1 13 2 16.349 16.898 0.516 o
-1 13 3 4.710 4.703 0.231 o
-1 13 4 757.300 752.755 20.124 o
-1 13 5 31.580 30.957 0.973 o
-1 13 6 11.417 11.044 0.470 o
-1 13 7 36.458 36.891 1.110 o
-1 13 8 14.625 14.247 0.572 o
-1 13 10 1.616 1.599 0.310 o
-1 13 11 16.325 15.438 0.620 o
-1 13 12 3.644 3.609 0.252 o
-1 13 13 5.608 5.757 0.252 o
-1 13 14 7.264 7.727 0.395 o
-1 13 15 2.260 2.442 0.319 o
-1 13 18 2.664 2.723 0.244 o
-1 13 20 3.428 3.055 0.315 o
-1 14 1 2.155 2.365 0.171 o
-1 14 2 214.179 207.288 5.261 o
-1 14 3 68.347 68.344 1.721 o
-1 14 4 104.175 102.046 2.565 o
-1 14 5 13.414 13.496 0.618 o
-1 14 6 1.257 1.306 0.178 o
-1 14 7 43.311 43.204 1.286 o
-1 14 8 101.560 100.953 2.835 o
-1 14 9 1.335 1.152 0.228 o
-1 14 10 13.457 13.705 0.731 o
-1 14 11 31.523 29.924 0.885 o
-1 14 12 38.131 37.947 1.213 o
-1 14 13 9.677 10.366 0.388 o
-1 14 14 2.219 2.332 0.275 o
-1 14 15 16.020 16.704 0.716 o
-1 14 16 11.412 12.142 0.785 o
-1 14 18 4.009 3.691 0.883 o
-1 14 19 1.436 1.464 0.147 o
-1 15 1 84.554 83.210 2.030 o
-1 15 2 195.165 189.704 4.582 o
-1 15 3 354.059 338.443 8.820 o
-1 15 4 0.884 0.793 0.122 o
-1 15 5 156.121 151.840 3.836 o
-1 15 6 3.115 3.191 0.224 o
-1 15 7 12.291 12.217 0.437 o
-1 15 8 2.732 2.365 0.210 o
-1 15 9 70.202 68.007 3.084 o
-1 15 10 1.530 1.231 0.229 o
-1 15 12 71.758 70.235 1.819 o
-1 15 13 29.981 30.515 0.916 o
-1 15 14 9.469 9.098 0.547 o
-1 15 18 1.700 1.815 0.200 o
-1 15 19 2.878 2.836 0.194 o
-1 15 20 8.576 8.413 0.328 o
-1 16 1 7.916 7.825 0.301 o
-1 16 2 39.665 38.102 1.046 o
-1 16 4 4.669 4.620 0.228 o
-1 16 5 1.392 1.254 0.188 o
-1 16 7 6.137 6.110 0.301 o
-1 16 8 65.047 61.516 1.648 o
-1 16 9 50.906 50.551 1.361 o
-1 16 10 13.960 14.494 0.527 o
-1 16 11 9.534 9.584 0.344 o
-1 16 12 8.489 8.725 0.330 o
-1 16 13 56.079 55.222 1.544 o
-1 16 14 3.264 3.804 0.310 o
-1 16 20 5.458 5.386 0.227 o
-1 17 1 1.001 1.140 0.138 o
-1 17 2 133.291 129.274 3.180 o
-1 17 3 4.086 3.984 0.228 o
-1 17 4 17.144 17.257 0.560 o
-1 17 5 29.772 28.706 1.140 o
-1 17 6 6.171 5.814 0.297 o
-1 17 7 2.961 3.198 0.241 o
-1 17 8 27.779 26.423 0.782 o
-1 17 9 13.289 13.085 0.675 o
-1 17 10 1.528 1.679 0.229 o
-1 17 11 76.518 74.703 1.952 o
-1 17 12 16.256 15.462 0.480 o
-1 17 13 25.678 24.876 0.767 o
-1 17 18 35.211 31.667 1.022 o
-1 17 19 3.842 3.975 0.207 o
-1 18 1 85.579 82.502 2.103 o
-1 18 2 42.380 41.379 1.092 o
-1 18 3 11.839 11.445 0.487 o
-1 18 5 22.608 21.649 0.736 o
-1 18 6 2.902 2.925 0.273 o
-1 18 7 69.659 68.691 2.579 o
-1 18 8 1.060 0.875 0.177 o
-1 18 10 10.438 10.562 0.388 o
-1 18 11 134.210 134.084 4.014 o
-1 18 12 6.823 6.661 0.290 o
-1 18 14 52.559 51.662 1.470 o
-1 18 15 8.676 7.985 0.500 o
-1 18 17 0.881 1.051 0.188 o
-1 18 18 0.534 0.602 0.157 o
-1 19 1 1.439 1.615 0.167 o
-1 19 2 37.798 37.554 1.000 o
-1 19 3 20.628 20.615 0.617 o
-1 19 4 5.704 5.940 0.390 o
-1 19 5 32.051 31.638 1.257 o
-1 19 6 58.674 57.696 2.465 o
-1 19 7 2.459 2.241 0.363 o
-1 19 8 38.931 39.064 1.105 o
-1 19 9 1.332 1.340 0.165 o
-1 19 10 22.283 21.997 0.903 o
-1 19 11 6.531 5.968 0.273 o
-1 19 12 2.441 2.413 0.191 o
-1 19 13 46.500 43.800 1.161 o
-1 19 15 1.756 1.541 0.326 o
-1 19 16 0.916 0.870 0.285 o
-1 19 17 3.223 3.018 0.243 o
-1 19 18 2.759 2.615 0.187 o
-1 20 1 11.000 11.062 0.401 o
-1 20 2 98.622 98.378 2.973 o
-1 20 3 0.789 1.039 0.151 o
-1 20 4 5.932 5.510 0.394 o
-1 20 5 128.445 123.794 3.538 o
-1 20 6 3.580 3.466 0.336 o
-1 20 7 2.386 2.460 0.741 o
-1 20 8 43.869 43.584 1.658 o
-1 20 9 16.352 16.052 0.537 o
-1 20 10 17.109 16.993 0.657 o
-1 20 11 21.903 20.871 0.689 o
-1 20 12 35.418 34.789 1.218 o
-1 20 13 1.250 1.443 0.145 o
-1 20 14 3.133 3.148 0.250 o
-1 20 15 0.771 0.625 0.161 o
-1 20 16 2.777 2.379 0.378 o
-1 21 1 27.615 28.043 0.960 o
-1 21 3 1.019 1.039 0.189 o
-1 21 4 18.155 17.768 0.668 o
-1 21 5 294.813 282.777 10.068 o
-1 21 6 58.360 55.760 2.152 o
-1 21 7 30.108 29.698 0.755 o
-1 21 8 3.833 3.804 0.388 o
-1 21 9 27.098 26.976 1.165 o
-1 21 11 7.499 7.360 0.281 o
-1 21 12 0.659 0.707 0.126 o
-1 21 13 1.847 1.919 0.166 o
-1 21 14 1.241 1.075 0.146 o
-1 21 15 2.636 2.803 0.344 o
-1 21 16 3.698 3.228 0.241 o
-1 21 17 6.764 6.363 0.318 o
-1 22 1 65.954 67.008 1.878 o
-1 22 2 9.362 9.707 0.387 o
-1 22 3 4.132 4.285 0.278 o
-1 22 4 13.998 14.082 0.591 o
-1 22 5 16.804 16.751 0.618 o
-1 22 6 4.327 4.122 0.236 o
-1 22 7 54.661 54.105 1.613 o
-1 22 8 0.800 0.866 0.139 o
-1 22 10 2.517 2.264 0.198 o
-1 22 11 36.094 35.044 1.182 o
-1 22 12 3.409 3.572 0.228 o
-1 22 13 1.780 1.732 0.200 o
-1 22 15 2.455 2.322 0.178 o
-1 22 16 1.652 1.501 0.184 o
-1 22 17 3.054 2.857 0.226 o
-1 22 18 4.602 4.329 0.237 o
-1 23 1 10.587 10.729 0.496 o
-1 23 2 2.121 2.100 0.174 o
-1 23 3 32.324 31.898 1.260 o
-1 23 5 1.985 2.298 0.164 o
-1 23 6 53.163 51.898 1.800 o
-1 23 7 5.191 5.472 0.269 o
-1 23 8 2.427 2.426 0.478 o
-1 23 9 4.575 4.279 0.381 o
-1 23 10 34.470 32.485 0.963 o
-1 23 14 20.120 18.099 0.560 o
-1 23 15 0.324 0.411 0.128 o
-1 23 16 6.070 6.027 0.340 o
-1 23 17 2.754 2.711 0.240 o
-1 24 2 7.942 8.074 0.298 o
-1 24 3 4.538 4.484 0.403 o
-1 24 4 0.348 0.412 0.127 o
-1 24 5 47.255 47.200 1.896 o
-1 24 6 58.546 55.798 2.335 o
-1 24 8 0.721 0.673 0.141 o
-1 24 9 21.893 20.813 1.845 o
-1 24 10 14.632 14.190 0.492 o
-1 24 13 0.935 0.983 0.161 o
-1 24 14 5.100 4.932 0.340 o
-1 24 15 6.724 6.400 0.297 o
-1 24 16 3.251 3.289 0.418 o
-1 25 1 11.850 11.808 0.559 o
-1 25 2 11.577 11.900 0.478 o
-1 25 4 7.411 7.202 0.508 o
-1 25 5 1.030 0.940 0.250 o
-1 25 6 27.175 25.599 0.869 o
-1 25 7 9.847 9.776 0.363 o
-1 25 8 8.601 8.266 0.372 o
-1 25 11 3.290 2.787 0.405 o
-1 25 12 5.993 5.541 0.730 o
-1 25 13 11.522 10.787 0.431 o
-1 25 14 4.751 4.279 0.254 o
-1 25 15 14.322 13.994 0.676 o
-1 25 16 0.760 0.822 0.123 o
-1 26 1 9.757 9.606 0.496 o
-1 26 2 58.469 58.223 3.697 o
-1 26 4 19.504 20.462 0.948 o
-1 26 5 0.915 0.806 0.176 o
-1 26 6 20.339 20.829 0.969 o
-1 26 7 2.806 3.012 0.212 o
-1 26 9 2.109 1.976 0.261 o
-1 26 10 8.557 7.677 0.503 o
-1 26 11 1.819 1.891 0.333 o
-1 26 12 8.578 8.347 0.508 o
-1 26 13 1.547 1.589 0.185 o
-1 26 14 0.506 0.583 0.152 o
-1 26 15 5.748 5.637 0.339 o
-1 27 1 1.922 2.134 0.317 o
-1 27 2 7.382 8.199 1.610 o
-1 27 3 0.638 0.750 0.113 o
-1 27 4 52.898 52.613 1.754 o
-1 27 5 18.163 17.514 0.894 o
-1 27 6 42.368 39.805 1.204 o
-1 27 7 6.674 6.438 0.445 o
-1 27 8 5.212 5.650 0.334 o
-1 27 10 1.654 1.747 0.342 o
-1 27 12 6.715 6.662 0.474 o
-1 27 13 4.863 4.690 0.265 o
-1 27 14 4.811 4.737 0.287 o
-1 28 1 28.447 27.757 1.340 o
-1 28 3 29.379 29.352 1.141 o
-1 28 4 2.117 2.294 0.166 o
-1 28 5 16.834 16.927 0.527 o
-1 28 6 9.413 9.533 0.370 o
-1 28 7 1.285 1.145 0.303 o
-1 28 8 0.514 0.514 0.134 o
-1 28 9 5.539 5.498 0.464 o
-1 28 10 2.563 2.558 0.411 o
-1 28 11 5.832 5.411 0.318 o
-1 28 12 1.252 1.121 0.335 o
-1 28 14 1.251 1.180 0.174 o
-1 29 1 1.692 1.820 0.205 o
-1 29 2 4.062 4.332 0.350 o
-1 29 3 7.234 7.825 0.362 o
-1 29 4 9.771 9.822 0.343 o
-1 29 5 7.716 6.925 0.296 o
-1 29 6 4.820 4.769 0.309 o
-1 29 7 24.067 22.648 0.625 o
-1 29 9 1.202 0.912 0.185 o
-1 29 10 7.376 6.841 0.549 o
-1 29 11 14.798 13.626 0.479 o
-1 29 12 13.140 13.138 0.445 o
-1 29 13 1.333 1.366 0.146 o
-1 30 1 17.860 18.598 1.840 o
-1 30 4 5.211 5.383 0.264 o
-1 30 5 2.769 2.627 0.310 o
-1 30 6 3.962 3.528 0.201 o
-1 30 7 2.516 2.478 0.176 o
-1 30 8 10.727 10.090 0.350 o
-1 30 10 4.560 4.213 0.290 o
-1 30 11 3.945 3.909 0.284 o
-1 30 12 14.447 14.651 0.437 o
-1 30 13 17.452 16.848 1.553 o
-1 31 3 12.590 11.565 0.587 o
-1 31 4 2.411 2.601 0.262 o
-1 31 5 0.579 0.529 0.119 o
-1 31 6 0.328 0.399 0.120 o
-1 31 7 1.712 1.594 0.139 o
-1 31 8 0.424 0.445 0.116 o
-1 31 9 4.236 4.096 0.231 o
-1 31 10 2.563 2.449 0.185 o
-1 31 11 3.269 3.123 0.211 o
-1 31 12 9.574 9.471 0.297 o
-1 32 1 2.122 1.769 0.341 o
-1 32 3 5.234 4.993 0.475 o
-1 32 4 2.426 2.368 0.232 o
-1 32 5 1.011 0.885 0.168 o
-1 32 6 0.556 0.494 0.116 o
-1 32 8 0.790 0.812 0.125 o
-1 32 9 1.141 1.100 0.147 o
-1 32 10 0.615 0.616 0.205 o
-1 33 2 4.719 4.601 0.471 o
-1 33 3 13.301 13.119 0.618 o
-1 33 4 24.528 22.515 0.806 o
-1 33 7 1.815 1.726 0.152 o
-1 33 8 4.223 4.447 0.200 o
-1 33 9 0.849 0.723 0.200 o
-1 33 10 10.706 10.316 0.333 o
-1 34 1 5.050 5.135 0.478 o
-1 34 3 11.866 11.839 0.583 o
-1 34 4 2.966 3.058 0.422 o
-1 34 5 2.231 2.381 0.290 o
-1 34 6 2.916 3.087 0.201 o
-1 34 7 7.581 7.377 0.291 o
-1 34 8 0.628 0.548 0.127 o
-1 35 1 4.861 5.041 0.308 o
-1 35 3 12.913 12.951 0.587 o
-1 35 4 3.386 2.859 0.411 o
-1 35 5 14.373 14.237 0.578 o
-1 35 6 3.489 3.288 0.205 o
-1 36 1 10.779 10.942 0.495 o
-1 36 4 4.636 4.365 0.583 o
0 0 4 2854.750 2718.216 69.640 o
0 0 8 46.886 46.000 1.826 o
0 0 12 49.760 52.509 1.802 o
0 0 16 72.451 74.500 3.478 o
0 0 20 5.585 4.790 0.428 o
0 1 1 6.150 6.389 0.166 o
0 1 2 148.492 164.020 3.767 o
0 1 3 47.614 48.251 1.095 o
0 1 4 75.280 76.408 1.787 o
0 1 5 212.138 212.273 4.950 o
0 1 6 432.149 424.365 10.298 o
0 1 7 104.804 106.209 2.783 o
0 1 8 15.777 16.087 0.543 o
0 1 9 5.754 5.801 0.225 o
0 1 10 8.448 8.173 0.325 o
0 1 11 35.666 36.281 1.046 o
0 1 12 12.239 12.407 0.519 o
0 1 13 9.577 8.970 0.441 o
0 1 14 9.910 9.851 0.469 o
0 1 15 3.768 4.158 0.273 o
0 1 16 6.100 6.873 0.274 o
0 1 17 27.326 27.399 0.741 o
0 1 18 40.797 38.504 1.218 o
0 1 19 4.950 4.466 0.554 o
0 1 20 1.484 1.434 0.280 o
0 1 21 16.956 16.166 0.509 o
0 1 22 55.354 52.705 1.552 o
0 2 1 2471.137 2785.356 63.354 o
0 2 2 1173.516 1216.660 27.771 o
0 2 3 29.788 29.126 0.673 o
0 2 4 6.058 5.999 0.172 o
0 2 5 647.804 642.291 14.649 o
0 2 6 108.129 108.702 2.627 o
0 2 8 274.131 272.072 7.851 o
0 2 9 51.047 49.278 1.206 o
0 2 10 5.040 5.364 0.245 o
0 2 11 23.436 23.213 0.691 o
0 2 12 4.505 5.136 0.288 o
0 2 13 72.624 72.600 2.017 o
0 2 15 4.836 4.731 0.227 o
0 2 16 110.312 113.198 3.683 o
0 2 17 0.189 0.467 0.124 o
0 2 20 4.324 3.995 0.250 o
0 2 22 1.911 1.817 0.179 o
0 3 1 366.749 394.075 8.915 o
0 3 2 618.824 632.700 14.387 o
0 3 3 542.578 553.405 12.639 o
0 3 4 26.634 26.460 0.633 o
0 3 5 125.278 124.480 2.931 o
0 3 6 141.650 140.469 3.358 o
0 3 7 0.529 0.822 0.114 o
0 3 8 128.826 132.135 3.348 o
0 3 9 720.536 701.936 18.514 o
0 3 10 11.068 11.062 0.374 o
0 3 11 3.018 2.981 0.201 o
0 3 12 6.202 6.467 0.320 o
0 3 13 128.839 128.852 3.534 o
0 3 14 2.420 2.533 0.214 o
0 3 15 1.857 2.346 0.258 o
0 3 16 2.927 3.271 0.312 o
0 3 17 10.566 10.809 0.701 o
0 3 18 1.318 1.659 0.181 o
0 3 19 7.659 7.739 0.331 o
0 3 21 2.602 2.680 0.212 o
0 4 0 558.978 588.564 13.021 o
0 4 1 391.348 387.407 8.653 o
0 4 2 3.242 3.381 0.110 o
0 4 3 2336.911 2332.500 54.960 o
0 4 5 21.457 22.174 0.542 o
0 4 6 35.894 36.092 0.908 o
0 4 7 178.838 186.207 4.600 o
0 4 8 71.307 71.914 2.360 o
0 4 9 290.816 291.129 7.218 o
0 4 10 111.474 108.107 2.756 o
0 4 11 8.150 8.534 0.388 o
0 4 12 37.304 38.826 1.098 o
0 4 13 84.241 89.146 3.700 o
0 4 14 202.399 201.533 9.359 o
0 4 15 21.415 22.134 0.905 o
0 4 16 0.723 0.779 0.156 o
0 4 17 2.368 2.470 0.348 o
0 4 18 3.357 3.034 0.252 o
0 4 19 2.168 2.263 0.215 o
0 4 20 4.356 4.163 0.273 o
0 4 21 2.067 2.271 0.172 o
0 5 1 653.583 645.653 14.609 o
0 5 2 351.522 359.899 8.135 o
0 5 3 1031.345 1053.035 24.033 o
0 5 4 203.677 199.917 4.491 o
0 5 5 112.561 112.451 2.616 o
0 5 6 6.954 6.729 0.222 o
0 5 7 1041.026 1042.241 27.714 o
0 5 8 45.791 43.947 1.243 o
0 5 10 47.006 46.945 1.199 o
0 5 11 2.850 3.269 0.235 o
0 5 12 1.177 1.085 0.213 o
0 5 13 14.438 14.205 0.775 o
0 5 14 137.895 145.860 4.012 o
0 5 15 1.248 1.315 0.154 o
0 5 16 23.796 23.647 0.934 o
0 5 17 17.761 16.683 0.528 o
0 5 18 12.713 12.204 0.432 o
0 5 19 27.630 26.147 0.748 o
0 5 20 3.332 3.146 0.190 o
0 5 21 3.345 3.040 0.164 o
0 6 1 538.804 543.622 12.141 o
0 6 2 449.776 447.146 10.061 o
0 6 3 39.315 45.503 1.114 o
0 6 4 421.912 422.916 9.807 o
0 6 5 8.509 8.588 0.245 o
0 6 6 74.176 75.269 2.173 o
0 6 7 4.129 3.961 0.248 o
0 6 8 404.504 410.192 10.562 o
0 6 9 11.015 11.635 0.390 o
0 6 10 23.736 23.482 0.747 o
0 6 11 21.672 22.716 0.823 o
0 6 12 3.355 3.291 0.289 o
0 6 13 5.519 6.047 0.396 o
0 6 14 25.907 26.414 0.717 o
0 6 15 64.481 66.610 1.993 o
0 6 17 18.136 18.041 1.452 o
0 6 19 6.487 5.753 0.286 o
0 6 20 1.161 1.018 0.129 o
0 6 21 0.780 0.764 0.118 o
0 7 1 194.066 191.351 4.283 o
0 7 3 266.315 269.814 6.252 o
0 7 4 97.212 98.472 2.235 o
0 7 5 55.329 54.208 1.260 o
0 7 6 306.793 303.727 8.240 o
0 7 7 55.875 58.650 1.568 o
0 7 8 58.861 59.090 2.087 o
0 7 9 125.327 126.638 3.684 o
0 7 10 27.970 27.876 0.965 o
0 7 12 56.405 56.675 3.266 o
0 7 13 6.494 6.650 0.413 o
0 7 14 10.930 11.629 0.391 o
0 7 15 91.401 90.731 3.703 o
0 7 16 6.615 6.609 0.293 o
0 7 17 4.941 5.063 0.590 o
0 7 21 4.061 4.430 0.208 o
0 8 0 132.785 128.912 3.061 o
0 8 1 554.950 553.613 12.536 o
0 8 2 774.234 769.779 17.714 o
0 8 3 93.948 93.468 2.141 o
0 8 4 21.075 21.535 0.532 o
0 8 5 491.393 494.265 11.727 o
0 8 6 99.304 103.733 2.895 o
0 8 7 172.695 176.297 4.489 o
0 8 8 24.816 25.816 0.781 o
0 8 9 68.497 69.329 2.023 o
0 8 10 29.680 29.646 1.271 o
0 8 12 27.566 27.909 1.666 o
0 8 13 16.016 15.653 0.632 o
0 8 14 12.755 12.527 0.402 o
0 8 15 13.972 14.034 0.814 o
0 8 16 104.557 99.102 4.594 o
0 8 17 22.337 21.755 1.392 o
0 8 18 1.938 1.872 0.187 o
0 8 19 2.789 2.749 0.226 o
0 8 21 5.407 5.210 0.235 o
0 9 1 430.725 422.186 9.616 o
0 9 2 23.702 21.939 0.534 o
0 9 3 198.542 196.026 4.631 o
0 9 4 116.917 116.701 2.784 o
0 9 5 538.161 546.006 13.738 o
0 9 6 39.999 41.469 1.172 o
0 9 7 525.240 531.124 15.609 o
0 9 8 1.917 2.091 0.247 o
0 9 9 26.151 27.672 1.339 o
0 9 10 45.407 44.511 1.446 o
0 9 11 44.213 45.117 1.881 o
0 9 12 22.929 22.336 1.018 o
0 9 13 22.163 21.733 0.673 o
0 9 14 0.535 0.530 0.130 o
0 9 15 1.351 1.504 0.198 o
0 9 16 79.952 77.000 4.075 o
0 9 17 8.816 8.658 0.358 o
0 9 20 10.433 10.552 0.339 o
0 10 1 2.847 2.741 0.117 o
0 10 2 239.637 243.880 5.551 o
0 10 3 62.349 65.936 1.525 o
0 10 4 6.168 6.214 0.211 o
0 10 5 29.285 29.526 0.883 o
0 10 6 480.850 481.780 13.540 o
0 10 7 90.385 91.161 2.703 o
0 10 9 3.655 3.908 0.277 o
0 10 10 9.030 9.849 0.384 o
0 10 11 189.096 188.819 7.526 o
0 10 12 2.879 3.047 0.451 o
0 10 13 6.609 6.718 0.250 o
0 10 14 47.117 46.869 1.526 o
0 10 15 9.845 9.625 0.495 o
0 10 16 3.499 3.470 0.230 o
0 10 17 8.342 8.212 0.468 o
0 10 18 23.452 22.297 0.663 o
0 10 19 0.639 0.508 0.107 o
0 10 20 2.515 2.878 0.164 o
0 10 21 6.442 6.166 0.283 o
0 11 1 3.940 4.237 0.178 o
0 11 2 62.996 63.310 1.485 o
0 11 3 78.902 78.716 1.879 o
0 11 4 2.197 2.336 0.154 o
0 11 5 14.725 14.286 0.491 o
0 11 6 49.858 51.618 1.409 o
0 11 7 64.896 65.471 1.772 o
0 11 8 23.247 23.066 0.772 o
0 11 9 2.965 3.097 0.251 o
0 11 10 24.870 25.136 0.923 o
0 11 11 104.624 105.921 2.977 o
0 11 12 16.770 17.385 0.672 o
0 11 13 3.213 3.213 0.186 o
0 11 14 13.507 13.356 0.574 o
0 11 15 27.530 27.602 1.348 o
0 11 16 28.774 27.657 1.395 o
0 11 18 13.562 12.910 0.450 o
0 11 19 0.375 0.444 0.106 o
0 11 20 6.554 6.673 0.257 o
0 12 0 46.644 49.603 2.507 o
0 12 1 32.848 35.788 0.964 o
0 12 2 236.432 236.833 5.872 o
0 12 3 13.301 14.133 0.439 o
0 12 4 147.771 144.163 3.643 o
0 12 5 102.448 103.893 2.647 o
0 12 6 10.286 10.349 0.451 o
0 12 7 146.979 145.596 3.851 o
0 12 8 4.267 4.195 0.316 o
0 12 9 33.348 36.686 1.064 o
0 12 10 75.950 77.664 2.058 o
0 12 11 16.516 15.982 0.545 o
0 12 12 3.337 4.150 0.353 o
0 12 13 10.776 11.032 0.602 o
0 12 14 10.543 10.528 0.340 o
0 12 15 19.431 19.746 1.130 o
0 12 16 29.938 28.404 0.956 o
0 12 17 4.386 3.898 0.358 o
0 12 19 17.006 17.010 0.512 o
0 12 20 16.699 16.652 0.468 o
0 13 1 100.002 101.335 2.442 o
0 13 2 1290.755 1289.711 34.132 o
0 13 3 18.066 19.042 0.574 o
0 13 4 18.629 19.022 0.640 o
0 13 5 10.011 10.147 0.438 o
0 13 6 74.036 72.673 1.957 o
0 13 7 8.721 8.623 0.427 o
0 13 9 56.152 57.943 1.634 o
0 13 10 8.409 8.297 0.392 o
0 13 11 3.689 3.633 0.281 o
0 13 12 4.682 4.633 0.280 o
0 13 13 8.071 8.840 0.341 o
0 13 14 11.436 11.708 0.506 o
0 13 15 66.284 68.953 2.043 o
0 13 16 0.623 0.697 0.149 o
0 13 17 2.808 2.889 0.200 o
0 13 18 13.087 12.788 0.513 o
0 13 19 0.514 0.471 0.104 o
0 13 20 0.556 0.538 0.101 o
0 14 1 39.670 39.745 1.244 o
0 14 2 119.827 117.202 2.817 o
0 14 3 5.525 6.026 0.307 o
0 14 4 5.593 5.734 0.332 o
0 14 6 25.379 24.409 0.802 o
0 14 7 65.351 63.783 1.798 o
0 14 8 0.547 0.586 0.191 o
0 14 9 18.768 19.223 0.662 o
0 14 10 5.475 5.236 0.306 o
0 14 11 4.190 4.271 0.329 o
0 14 13 1.241 1.109 0.151 o
0 14 14 15.123 14.954 0.475 o
0 14 15 4.291 4.559 0.289 o
0 14 16 6.500 6.958 0.280 o
0 14 17 2.505 2.612 0.172 o
0 14 19 10.239 10.209 0.511 o
0 14 20 39.637 39.266 1.029 o
0 15 1 394.423 392.699 10.875 o
0 15 2 13.733 13.955 0.413 o
0 15 3 134.870 135.479 3.763 o
0 15 4 133.456 129.961 3.926 o
0 15 5 1.249 1.240 0.201 o
0 15 6 4.304 5.526 0.347 o
0 15 7 80.823 80.444 2.259 o
0 15 9 0.195 1.815 0.262 o
0 15 10 46.762 47.802 1.301 o
0 15 11 0.472 0.552 0.139 o
0 15 12 0.888 1.066 0.180 o
0 15 13 3.512 3.354 0.272 o
0 15 14 4.175 4.879 0.304 o
0 15 15 3.833 4.371 0.239 o
0 15 16 7.463 6.915 1.006 o
0 15 17 12.738 12.097 0.393 o
0 15 18 19.722 19.104 0.534 o
0 15 19 1.122 1.401 0.141 o
0 15 20 4.852 4.793 0.232 o
0 16 0 28.925 29.151 0.853 o
0 16 1 0.446 0.695 0.110 o
0 16 2 5.665 5.685 0.266 o
0 16 4 84.462 81.636 3.393 o
0 16 5 21.564 19.851 0.698 o
0 16 6 13.294 13.143 0.715 o
0 16 7 65.209 64.883 1.884 o
0 16 8 2.286 2.079 0.262 o
0 16 10 38.135 37.374 1.128 o
0 16 11 111.022 113.810 3.065 o
0 16 12 2.869 3.718 0.218 o
0 16 13 13.280 13.146 0.444 o
0 16 14 12.464 12.847 0.473 o
0 16 15 8.486 8.349 0.337 o
0 16 18 12.418 12.399 0.511 o
0 16 19 1.143 1.230 0.138 o
0 17 1 2.887 2.916 0.214 o
0 17 2 31.634 31.539 0.934 o
0 17 3 49.733 49.028 1.697 o
0 17 4 30.091 30.510 1.060 o
0 17 5 3.836 4.211 0.327 o
0 17 6 2.404 2.028 0.255 o
0 17 7 33.335 32.370 1.061 o
0 17 8 24.595 24.086 1.005 o
0 17 9 121.878 123.308 3.596 o
0 17 10 23.990 23.944 1.124 o
0 17 11 68.529 68.362 1.770 o
0 17 12 192.295 184.313 5.797 o
0 17 13 11.362 11.474 0.547 o
0 17 14 4.506 4.201 0.321 o
0 17 15 3.181 3.006 0.413 o
0 17 16 8.968 8.717 0.528 o
0 17 17 2.345 2.726 0.237 o
0 17 18 3.132 2.977 0.237 o
0 18 1 44.128 43.140 1.164 o
0 18 2 40.165 40.188 1.075 o
0 18 3 5.632 6.990 0.390 o
0 18 4 12.748 12.993 0.683 o
0 18 5 103.894 103.506 3.435 o
0 18 6 6.414 7.443 0.424 o
0 18 7 0.878 1.060 0.289 o
0 18 8 95.550 92.123 3.079 o
0 18 9 124.238 126.477 3.601 o
0 18 10 62.167 62.576 2.489 o
0 18 12 71.758 70.881 2.634 o
0 18 13 3.259 3.346 0.203 o
0 18 14 0.913 0.828 0.149 o
0 18 15 2.122 1.901 0.337 o
0 18 16 1.532 1.430 0.319 o
0 18 18 11.369 11.295 0.402 o
0 18 19 4.128 3.864 0.200 o
0 19 1 3.418 3.505 0.252 o
0 19 3 3.924 4.108 0.434 o
0 19 4 136.271 135.062 4.305 o
0 19 6 44.739 43.780 1.538 o
0 19 8 6.811 7.091 0.591 o
0 19 10 25.587 25.095 0.692 o
0 19 11 22.969 22.091 0.702 o
0 19 12 0.490 0.629 0.133 o
0 19 13 56.889 54.250 1.763 o
0 19 14 32.235 30.379 2.357 o
0 19 15 1.703 1.375 0.307 o
0 19 17 5.846 5.625 0.556 o
0 19 18 1.486 1.412 0.174 o
0 19 19 2.313 2.410 0.172 o
0 20 0 147.035 151.072 4.900 o
0 20 1 5.771 6.360 0.325 o
0 20 3 62.947 62.957 3.149 o
0 20 5 14.941 15.004 0.603 o
0 20 6 27.559 27.673 0.915 o
0 20 7 7.360 7.380 0.572 o
0 20 8 14.328 14.397 0.485 o
0 20 9 11.697 11.664 0.385 o
0 20 10 14.225 14.571 0.484 o
0 20 11 10.250 10.515 0.626 o
0 20 13 16.103 15.064 0.512 o
0 20 14 2.683 2.686 0.244 o
0 20 17 11.368 10.804 0.469 o
0 20 18 8.656 8.242 0.373 o
0 21 1 52.652 52.354 1.534 o
0 21 2 12.883 12.018 0.757 o
0 21 3 128.188 126.995 5.196 o
0 21 4 43.957 44.602 2.196 o
0 21 5 48.443 48.392 2.794 o
0 21 6 8.252 8.269 0.453 o
0 21 7 8.156 8.648 0.376 o
0 21 8 3.301 3.273 0.196 o
0 21 9 14.937 15.356 0.444 o
0 21 10 1.360 1.404 0.136 o
0 21 11 26.310 24.795 0.706 o
0 21 12 4.753 4.585 0.271 o
0 21 13 0.545 0.635 0.156 o
0 21 14 1.108 1.497 0.249 o
0 21 15 9.750 8.589 0.505 o
0 21 16 1.894 1.868 0.323 o
0 21 17 3.797 3.482 0.485 o
0 21 18 6.636 6.554 0.552 o
0 22 1 36.469 36.910 1.091 o
0 22 2 1.359 1.376 0.226 o
0 22 3 37.686 37.330 2.148 o
0 22 4 4.518 4.923 0.716 o
0 22 5 210.077 205.997 7.497 o
0 22 7 28.717 28.345 0.972 o
0 22 8 6.063 5.962 0.252 o
0 22 9 38.184 36.941 1.360 o
0 22 11 18.414 18.128 0.600 o
0 22 13 8.279 7.933 0.387 o
0 22 14 7.899 7.377 0.493 o
0 22 15 5.170 4.946 0.741 o
0 22 16 3.177 3.104 0.372 o
0 23 1 2.614 2.815 0.430 o
0 23 2 2.849 3.038 0.455 o
0 23 3 5.343 5.982 0.277 o
0 23 4 92.464 93.151 3.709 o
0 23 5 16.354 16.683 0.503 o
0 23 6 1.108 1.016 0.164 o
0 23 7 4.179 4.159 0.276 o
0 23 8 27.171 26.699 0.979 o
0 23 9 0.781 0.948 0.129 o
0 23 10 0.896 0.929 0.146 o
0 23 11 6.101 6.034 0.438 o
0 23 12 23.912 22.376 0.847 o
0 23 13 6.814 6.376 0.315 o
0 23 14 4.131 3.909 0.199 o
0 23 15 5.609 4.920 0.700 o
0 23 17 10.698 9.917 0.974 o
0 24 0 22.203 23.484 1.844 o
0 24 1 2.075 2.175 0.258 o
0 24 2 1.927 2.155 0.293 o
0 24 3 31.311 32.084 1.002 o
0 24 4 49.011 49.024 1.804 o
0 24 5 1.909 1.861 0.169 o
0 24 6 11.707 13.268 0.429 o
0 24 8 8.407 8.128 0.416 o
0 24 9 1.114 1.244 0.144 o
0 24 10 9.261 9.114 0.325 o
0 24 11 12.172 11.202 0.537 o
0 24 12 0.537 0.498 0.138 o
0 24 13 4.766 4.426 0.234 o
0 24 14 9.475 8.997 0.372 o
0 24 15 0.608 0.850 0.157 o
0 25 1 10.478 10.800 0.888 o
0 25 2 19.438 19.148 1.016 o
0 25 3 1.192 1.499 0.391 o
0 25 4 59.851 57.182 1.718 o
0 25 5 40.693 39.810 1.206 o
0 25 6 2.950 2.745 0.206 o
0 25 9 12.578 12.075 0.406 o
0 25 10 2.750 2.579 0.208 o
0 25 11 16.436 14.952 0.975 o
0 25 12 6.856 6.526 0.252 o
0 25 13 5.521 4.868 0.311 o
0 25 14 11.893 11.456 0.342 o
0 25 16 1.644 1.764 0.177 o
0 26 1 0.614 0.745 0.127 o
0 26 3 6.485 6.895 0.396 o
0 26 4 104.505 99.593 2.640 o
0 26 6 1.071 1.281 0.193 o
0 26 7 0.507 0.445 0.142 o
0 26 8 36.302 34.590 1.109 o
0 26 10 0.893 1.045 0.143 o
0 26 13 10.767 10.227 0.332 o
0 27 2 48.612 45.699 1.388 o
0 27 3 7.057 7.824 0.421 o
0 27 4 11.404 11.224 0.418 o
0 27 5 27.344 25.564 0.718 o
0 27 6 25.191 24.152 0.749 o
0 27 7 1.953 2.112 0.221 o
0 27 9 4.893 5.308 0.514 o
0 27 10 2.590 2.786 0.482 o
0 27 11 1.830 1.833 0.164 o
0 27 12 8.364 8.021 0.279 o
0 27 13 0.451 0.489 0.112 o
0 27 14 6.460 6.445 0.384 o
0 27 15 4.255 4.959 0.396 o
0 28 1 45.609 44.561 3.693 o
0 28 3 24.674 24.566 0.718 o
0 28 5 2.679 2.513 0.216 o
0 28 6 2.590 2.680 0.201 o
0 28 7 6.893 8.620 0.564 o
0 28 10 1.635 1.681 0.360 o
0 28 12 2.842 2.753 0.181 o
0 28 13 5.654 5.558 0.223 o
0 28 14 1.874 1.851 0.139 o
0 29 2 19.969 19.307 0.594 o
0 29 3 15.093 14.405 0.523 o
0 29 5 16.202 15.595 0.532 o
0 29 6 0.781 1.068 0.183 o
0 29 8 2.065 1.954 0.369 o
0 29 9 6.548 5.951 0.529 o
0 29 10 6.371 5.908 0.776 o
0 29 11 1.256 1.214 0.154 o
0 29 12 3.568 3.554 0.222 o
0 29 13 4.884 5.006 0.371 o
0 30 3 15.619 15.217 0.823 o
0 30 4 7.613 7.237 0.352 o
0 30 5 7.563 7.461 0.610 o
0 30 6 7.187 6.986 0.345 o
0 30 7 5.812 5.364 0.516 o
0 30 8 4.418 3.486 0.489 o
0 30 9 4.097 4.567 0.508 o
0 30 10 14.043 14.065 0.492 o
0 30 11 23.131 22.912 0.711 o
0 31 1 1.396 1.379 0.325 o
0 31 2 7.755 7.237 0.459 o
0 31 3 2.601 2.284 0.510 o
0 31 6 9.411 8.766 0.376 o
0 31 7 4.662 4.450 0.492 o
0 31 8 7.777 6.831 0.535 o
0 31 10 25.528 25.034 0.728 o
0 31 11 18.095 18.063 0.512 o
0 32 0 2.299 3.605 0.467 o
0 32 1 3.718 3.717 0.286 o
0 32 5 2.323 2.369 0.217 o
0 32 6 3.750 3.609 0.518 o
0 32 8 2.871 2.760 0.391 o
0 32 9 1.199 1.352 0.190 o
0 32 10 2.483 2.511 0.196 o
0 32 11 8.089 8.272 0.298 o
0 33 1 2.433 2.769 0.264 o
0 33 2 19.349 18.826 0.598 o
0 33 3 1.712 1.827 0.143 o
0 33 4 0.379 0.351 0.117 o
0 33 6 13.328 13.151 0.453 o
0 33 8 5.330 5.086 0.287 o
0 33 9 0.515 0.554 0.128 o
0 33 10 3.138 3.478 0.211 o
0 34 1 11.048 10.974 0.421 o
0 34 3 1.167 1.361 0.131 o
0 34 5 6.135 5.840 0.259 o
0 34 9 4.181 4.134 0.254 o
0 35 1 11.952 11.680 0.429 o
0 35 2 2.963 2.851 0.305 o
0 35 3 26.901 26.484 0.703 o
0 35 4 3.196 3.261 0.211 o
0 35 7 4.577 4.313 0.434 o
0 36 0 0.793 1.179 0.299 o
0 36 1 1.920 2.103 0.215 o
0 36 2 1.152 1.427 0.146 o
0 36 3 3.629 4.107 0.219 o
0 37 2 5.051 4.452 0.263 o
1 0 0 515.252 554.120 12.457 o
1 0 2 490.466 479.660 12.399 o
1 0 4 100.582 100.538 2.422 o
1 0 6 15.173 14.102 0.539 o
1 0 10 172.581 159.127 4.882 o
1 0 12 6.050 4.872 0.470 o
1 0 14 11.006 11.339 0.459 o
1 0 16 24.546 25.105 0.792 o
1 0 18 2.494 2.742 0.262 o
1 0 20 0.728 0.856 0.153 o
1 1 0 1921.962 2046.416 46.510 o
1 1 1 173.367 175.352 4.103 o
1 1 2 935.554 938.845 21.038 o
1 1 3 515.735 512.382 11.884 o
1 1 4 427.129 422.282 9.639 o
1 1 5 40.469 39.518 0.930 o
1 1 6 139.534 143.736 3.473 o
1 1 7 18.443 17.418 0.516 o
1 1 8 183.703 179.719 4.684 o
1 1 9 58.101 56.980 1.658 o
1 1 10 13.213 13.546 0.440 o
1 1 11 22.256 22.159 0.705 o
1 1 12 30.283 30.967 1.063 o
1 1 14 5.037 5.099 0.192 o
1 1 15 10.732 10.656 0.326 o
1 1 16 125.580 127.066 4.238 o
1 1 17 21.274 21.175 0.622 o
1 1 18 5.287 5.425 0.194 o
1 1 19 2.852 2.800 0.144 o
1 1 20 55.056 52.781 1.354 o
1 1 21 42.537 43.381 1.101 o
1 2 0 4402.167 4479.283 102.868 o
1 2 1 46.578 48.986 1.124 o
1 2 2 276.641 281.136 6.436 o
1 2 3 1066.944 1039.765 25.001 o
1 2 4 100.140 98.594 2.234 o
1 2 5 7.758 7.955 0.229 o
1 2 6 177.242 187.491 4.449 o
1 2 7 79.945 78.237 2.260 o
1 2 8 79.782 79.922 1.909 o
1 2 9 1.176 1.135 0.132 o
1 2 10 2.709 2.421 0.167 o
1 2 11 2.329 2.645 0.241 o
1 2 12 81.031 81.492 2.197 o
1 2 14 52.022 53.496 1.346 o
1 2 15 24.010 24.475 0.879 o
1 2 17 5.771 6.094 0.225 o
1 2 18 0.508 0.615 0.089 o
1 2 19 0.912 0.982 0.101 o
1 2 20 2.062 1.986 0.155 o
1 2 21 2.876 2.873 0.182 o
1 3 0 922.025 933.087 21.355 o
1 3 1 260.554 264.886 5.952 o
1 3 2 597.359 594.026 13.476 o
1 3 3 119.839 118.752 2.777 o
1 3 4 247.421 246.498 5.806 o
1 3 5 352.282 342.169 8.117 o
1 3 6 578.982 579.216 14.734 o
1 3 7 825.132 812.235 21.288 o
1 3 8 1.107 1.321 0.129 o
1 3 9 4.732 4.881 0.230 o
1 3 10 25.141 25.840 0.724 o
1 3 11 57.283 56.914 1.480 o
1 3 13 46.641 48.105 2.355 o
1 3 14 0.461 0.359 0.078 o
1 3 16 2.819 2.794 0.151 o
1 3 17 3.118 3.209 0.160 o
1 3 18 26.390 26.001 0.851 o
1 3 19 1.370 1.494 0.125 o
1 3 20 0.478 0.464 0.117 o
1 3 21 3.579 3.716 0.195 o
1 4 0 231.006 244.485 5.438 o
1 4 1 569.259 569.409 12.715 o
1 4 2 36.264 34.038 0.820 o
1 4 3 323.781 326.761 7.700 o
1 4 4 247.792 249.061 5.834 o
1 4 5 9.151 9.155 0.280 o
1 4 6 22.449 24.606 0.689 o
1 4 7 836.632 822.433 21.916 o
1 4 8 56.090 55.019 1.391 o
1 4 9 117.436 118.019 3.193 o
1 4 10 0.842 0.890 0.154 o
1 4 11 20.393 21.509 0.631 o
1 4 12 125.007 127.898 3.692 o
1 4 13 78.242 78.197 3.477 o
1 4 14 15.845 15.798 0.439 o
1 4 15 42.696 43.268 1.334 o
1 4 16 0.565 0.525 0.091 o
1 4 17 0.755 0.884 0.095 o
1 4 18 3.759 3.714 0.174 o
1 4 21 4.254 4.314 0.203 o
1 5 0 23.841 23.912 0.572 o
1 5 1 459.015 464.180 11.083 o
1 5 2 272.571 264.582 6.451 o
1 5 3 55.416 53.635 1.269 o
1 5 4 2.091 2.193 0.106 o
1 5 5 75.110 77.722 1.918 o
1 5 6 90.481 91.394 2.202 o
1 5 7 24.896 24.649 0.663 o
1 5 8 119.504 116.963 2.785 o
1 5 9 54.569 55.081 1.408 o
1 5 10 7.034 7.520 0.337 o
1 5 12 152.341 157.542 4.257 o
1 5 13 15.218 15.200 0.458 o
1 5 14 36.586 36.319 1.012 o
1 5 15 5.871 5.650 0.210 o
1 5 16 1.347 1.404 0.115 o
1 5 17 8.857 8.930 0.322 o
1 5 18 5.287 5.079 0.240 o
1 5 20 1.044 0.917 0.134 o
1 6 0 350.810 350.144 8.043 o
1 6 1 25.144 25.627 0.610 o
1 6 2 1465.717 1437.440 36.110 o
1 6 3 29.599 29.307 0.712 o
1 6 4 169.231 169.452 4.086 o
1 6 6 243.909 251.448 6.373 o
1 6 7 1.982 1.932 0.159 o
1 6 8 22.024 22.532 0.617 o
1 6 9 293.395 285.048 7.510 o
1 6 11 50.631 50.476 1.627 o
1 6 12 11.475 11.730 0.542 o
1 6 13 202.730 203.697 5.189 o
1 6 14 29.813 30.881 0.881 o
1 6 15 99.724 97.463 3.349 o
1 6 16 0.382 0.397 0.123 o
1 6 17 8.251 7.657 0.519 o
1 6 18 9.206 8.991 0.328 o
1 6 19 0.835 0.701 0.153 o
1 6 20 4.957 4.843 0.221 o
1 7 0 605.518 607.933 13.949 o
1 7 1 30.531 32.278 0.761 o
1 7 2 147.243 146.613 3.575 o
1 7 3 58.884 61.402 1.446 o
1 7 4 579.635 565.195 13.641 o
1 7 5 8.139 7.927 0.292 o
1 7 6 84.098 82.189 2.058 o
1 7 7 158.124 161.201 3.831 o
1 7 8 0.417 0.488 0.121 o
1 7 9 30.168 30.754 0.866 o
1 7 10 4.449 4.576 0.272 o
1 7 11 15.403 15.941 0.549 o
1 7 13 128.863 128.066 3.310 o
1 7 15 85.923 85.660 2.531 o
1 7 16 33.514 33.603 1.342 o
1 7 17 3.175 2.988 0.203 o
1 7 18 5.834 6.078 0.257 o
1 7 19 26.748 25.154 0.948 o
1 7 20 4.502 4.561 0.252 o
1 7 21 7.247 6.560 0.481 o
1 8 0 763.230 757.331 18.025 o
1 8 1 64.556 63.940 1.493 o
1 8 2 51.505 51.151 1.263 o
1 8 3 74.793 77.282 2.022 o
1 8 4 21.059 21.067 0.589 o
1 8 5 170.106 169.311 4.098 o
1 8 6 0.541 0.600 0.112 o
1 8 7 3.988 3.530 0.188 o
1 8 8 21.526 21.756 0.646 o
1 8 9 14.866 14.605 0.498 o
1 8 10 100.643 101.698 2.643 o
1 8 13 12.397 12.527 0.405 o
1 8 14 37.885 39.982 1.014 o
1 8 15 0.768 0.855 0.098 o
1 8 16 22.315 22.771 0.772 o
1 8 17 8.985 8.602 0.359 o
1 8 18 3.648 3.477 0.250 o
1 8 20 3.355 3.317 0.315 o
1 9 0 102.619 100.735 2.504 o
1 9 1 189.638 189.740 4.731 o
1 9 2 32.307 31.890 0.829 o
1 9 3 390.111 396.222 9.386 o
1 9 4 20.502 21.179 0.629 o
1 9 5 669.678 678.971 18.558 o
1 9 6 131.413 134.179 3.378 o
1 9 7 14.002 14.420 0.428 o
1 9 8 7.630 7.644 0.316 o
1 9 9 16.986 17.152 0.550 o
1 9 10 90.387 92.557 2.412 o
1 9 11 82.345 82.181 2.265 o
1 9 12 5.270 5.359 0.317 o
1 9 13 11.623 12.042 0.530 o
1 9 14 145.734 146.454 4.114 o
1 9 15 31.734 32.421 0.977 o
1 9 16 3.622 3.640 0.260 o
1 9 17 2.266 2.482 0.231 o
1 9 19 0.802 0.654 0.147 o
1 9 21 1.478 1.219 0.263 o
1 10 0 314.357 319.451 8.170 o
1 10 1 7.472 7.640 0.267 o
1 10 2 8.496 8.628 0.299 o
1 10 3 18.780 20.236 0.592 o
1 10 4 193.407 190.945 4.698 o
1 10 5 293.969 298.850 7.116 o
1 10 6 70.861 72.271 1.732 o
1 10 7 16.345 16.869 0.521 o
1 10 9 186.544 187.064 5.015 o
1 10 10 23.060 22.512 0.735 o
1 10 11 15.762 16.896 0.631 o
1 10 12 1.817 2.147 0.337 o
1 10 13 13.932 14.119 0.430 o
1 10 14 15.375 15.478 0.471 o
1 10 15 11.899 12.018 0.381 o
1 10 16 50.146 50.394 1.670 o
1 10 17 2.883 3.054 0.175 o
1 10 18 1.036 0.880 0.160 o
1 10 20 3.232 2.990 0.290 o
1 11 0 2.373 2.386 0.174 o
1 11 1 618.151 624.055 15.774 o
1 11 2 241.232 242.963 5.797 o
1 11 3 38.653 39.201 1.303 o
1 11 4 73.234 74.058 1.819 o
1 11 5 56.846 60.769 1.481 o
1 11 6 350.528 356.023 8.954 o
1 11 7 60.971 60.809 1.543 o
1 11 8 85.208 88.112 2.200 o
1 11 9 61.395 63.423 1.724 o
1 11 10 28.736 28.777 0.964 o
1 11 11 6.480 5.871 0.533 o
1 11 12 16.653 16.584 0.615 o
1 11 13 3.043 2.954 0.156 o
1 11 14 48.575 49.134 1.225 o
1 11 15 0.309 0.293 0.094 o
1 11 16 21.875 20.984 0.838 o
1 11 17 4.717 4.500 0.203 o
1 11 19 2.949 3.259 0.449 o
1 11 20 1.146 1.034 0.152 o
1 12 0 459.254 465.444 11.908 o
1 12 1 245.350 248.478 5.861 o
1 12 2 170.352 170.303 4.058 o
1 12 3 47.004 47.480 1.270 o
1 12 4 5.438 5.964 0.251 o
1 12 5 270.024 275.278 6.841 o
1 12 7 5.591 6.141 0.277 o
1 12 8 19.519 20.479 0.613 o
1 12 9 1.388 1.422 0.259 o
1 12 10 15.672 16.505 0.803 o
1 12 11 6.772 7.567 0.585 o
1 12 12 1.535 1.710 0.108 o
1 12 13 4.422 4.590 0.176 o
1 12 14 20.145 19.984 0.548 o
1 12 15 0.572 0.559 0.095 o
1 12 17 0.997 1.122 0.120 o
1 12 18 19.321 18.465 0.737 o
1 12 19 23.877 22.729 0.792 o
1 13 0 902.641 891.386 23.740 o
1 13 1 132.386 133.431 3.250 o
1 13 2 23.586 23.760 0.641 o
1 13 3 20.135 19.842 0.542 o
1 13 4 70.134 70.238 1.704 o
1 13 6 5.260 5.691 0.265 o
1 13 7 5.929 5.781 0.273 o
1 13 8 16.007 15.965 0.562 o
1 13 9 3.132 2.981 0.271 o
1 13 11 62.589 61.291 1.534 o
1 13 12 9.093 8.887 0.259 o
1 13 13 17.993 17.602 0.462 o
1 13 14 0.640 0.699 0.100 o
1 13 15 4.362 4.429 0.177 o
1 13 16 15.142 15.274 0.575 o
1 13 17 0.723 0.660 0.190 o
1 13 18 6.390 6.343 0.493 o
1 13 19 11.506 11.498 0.357 o
1 13 20 3.098 2.756 0.206 o
1 14 0 10.168 10.386 0.361 o
1 14 1 60.867 61.295 1.596 o
1 14 2 4.298 4.656 0.220 o
1 14 3 6.294 6.535 0.254 o
1 14 4 39.075 39.574 1.038 o
1 14 5 106.618 108.066 2.710 o
1 14 6 26.748 26.424 0.739 o
1 14 7 2.515 2.361 0.233 o
1 14 8 3.096 3.189 0.279 o
1 14 9 25.507 26.450 0.899 o
1 14 10 21.240 21.574 0.957 o
1 14 11 1.815 1.978 0.117 o
1 14 12 11.363 11.316 0.322 o
1 14 13 10.145 9.806 0.294 o
1 14 14 5.785 5.909 0.217 o
1 14 15 22.050 21.995 0.646 o
1 14 16 1.064 1.155 0.154 o
1 14 17 33.183 31.174 0.818 o
1 14 18 57.777 55.765 1.431 o
1 14 19 24.110 22.608 0.615 o
1 15 0 3.380 3.418 0.197 o
1 15 1 123.280 123.741 3.173 o
1 15 2 194.854 194.294 4.646 o
1 15 3 26.508 28.332 0.745 o
1 15 4 1.767 2.117 0.193 o
1 15 5 7.243 7.134 0.324 o
1 15 6 4.639 4.526 0.290 o
1 15 7 16.387 16.317 0.611 o
1 15 8 18.811 19.368 0.719 o
1 15 9 12.491 13.304 0.593 o
1 15 10 58.226 56.895 1.995 o
1 15 11 15.117 15.024 0.391 o
1 15 12 2.899 2.886 0.151 o
1 15 14 53.380 53.200 1.541 o
1 15 15 5.715 5.429 0.208 o
1 15 16 11.626 11.656 0.389 o
1 15 17 1.148 1.245 0.144 o
1 15 18 4.830 4.758 0.356 o
1 16 1 19.942 20.376 0.635 o
1 16 2 155.229 157.885 3.835 o
1 16 3 17.492 17.618 0.530 o
1 16 4 54.973 55.994 1.493 o
1 16 5 75.595 76.632 2.303 o
1 16 6 6.898 7.239 0.357 o
1 16 7 23.527 23.602 0.762 o
1 16 8 126.584 126.486 3.694 o
1 16 9 189.948 188.390 5.846 o
1 16 10 5.252 5.475 0.190 o
1 16 11 26.075 25.630 0.785 o
1 16 12 6.243 6.099 0.230 o
1 16 13 16.139 16.054 0.477 o
1 16 14 16.162 16.874 0.622 o
1 16 15 2.217 2.584 0.157 o
1 16 17 2.823 2.736 0.173 o
1 16 19 0.397 0.467 0.111 o
1 17 0 6.817 6.774 0.283 o
1 17 1 23.687 23.280 0.675 o
1 17 2 39.772 40.400 1.038 o
1 17 3 0.679 0.838 0.163 o
1 17 5 35.271 34.956 1.314 o
1 17 6 34.184 34.661 1.060 o
1 17 7 113.673 116.533 5.743 o
1 17 8 28.440 27.455 1.275 o
1 17 9 99.885 98.520 2.653 o
1 17 10 60.543 60.056 1.406 o
1 17 11 9.363 9.500 0.279 o
1 17 12 3.969 4.097 0.195 o
1 17 13 3.105 3.052 0.243 o
1 17 14 1.255 1.133 0.118 o
1 17 15 1.096 1.029 0.110 o
1 17 16 1.702 1.648 0.121 o
1 17 17 0.634 0.579 0.109 o
1 17 18 0.541 0.489 0.145 o
1 17 19 2.237 2.135 0.265 o
1 18 0 36.571 37.588 1.101 o
1 18 1 6.029 6.231 0.309 o
1 18 2 17.234 17.481 0.594 o
1 18 3 44.101 44.525 1.382 o
1 18 4 123.280 123.002 3.909 o
1 18 6 54.553 57.480 1.909 o
1 18 7 36.139 36.812 1.104 o
1 18 8 70.366 68.332 1.949 o
1 18 9 6.016 6.130 0.227 o
1 18 10 56.001 56.661 1.663 o
1 18 12 18.519 18.682 0.554 o
1 18 13 1.317 1.274 0.122 o
1 18 14 11.512 11.281 0.348 o
1 18 16 3.672 3.463 0.169 o
1 18 17 2.343 2.349 0.176 o
1 18 18 3.650 3.548 0.200 o
1 19 0 17.868 18.819 0.613 o
1 19 1 9.371 10.074 0.409 o
1 19 2 83.267 79.410 2.625 o
1 19 3 7.024 7.003 0.442 o
1 19 4 46.697 47.986 2.066 o
1 19 7 27.305 27.080 1.120 o
1 19 8 76.918 77.570 1.924 o
1 19 9 18.232 18.645 0.667 o
1 19 10 20.135 20.134 0.631 o
1 19 11 186.748 181.709 7.197 o
1 19 12 46.324 44.684 1.769 o
1 19 13 10.390 10.725 0.456 o
1 19 14 7.004 6.982 0.361 o
1 19 15 10.553 10.443 0.435 o
1 19 17 12.386 11.679 0.409 o
1 20 0 29.951 29.748 1.302 o
1 20 3 0.936 0.980 0.232 o
1 20 5 32.885 31.263 1.223 o
1 20 7 3.571 3.516 0.178 o
1 20 8 1.536 1.665 0.150 o
1 20 9 1.568 1.664 0.124 o
1 20 10 8.266 8.359 0.319 o
1 20 11 30.519 30.599 0.782 o
1 20 12 1.809 1.902 0.140 o
1 20 13 4.449 4.566 0.284 o
1 20 14 0.790 0.928 0.140 o
1 20 15 10.258 9.925 0.338 o
1 20 16 4.316 3.923 0.246 o
1 20 17 29.418 27.427 0.886 o
1 20 18 1.188 1.201 0.157 o
1 21 1 12.172 11.918 0.677 o
1 21 2 27.215 26.324 1.062 o
1 21 3 102.343 101.202 3.383 o
1 21 4 11.995 11.683 0.671 o
1 21 5 3.986 3.827 0.336 o
1 21 6 11.043 10.932 0.397 o
1 21 7 1.035 1.203 0.101 o
1 21 8 11.479 11.106 0.319 o
1 21 9 15.196 14.757 0.508 o
1 21 10 10.676 10.864 0.400 o
1 21 11 9.826 9.228 0.310 o
1 21 12 0.441 0.532 0.128 o
1 21 13 2.944 2.951 0.250 o
1 21 14 10.596 9.901 0.389 o
1 21 16 9.495 9.572 0.409 o
1 21 17 0.855 0.949 0.155 o
1 22 1 76.394 71.733 2.387 o
1 22 2 5.544 5.603 0.526 o
1 22 3 169.098 162.759 6.104 o
1 22 4 1.517 1.645 0.155 o
1 22 5 26.380 26.486 0.662 o
1 22 6 11.543 11.389 0.367 o
1 22 7 5.452 5.709 0.207 o
1 22 9 5.598 5.694 0.227 o
1 22 11 4.193 3.917 0.191 o
1 22 12 24.308 23.525 1.001 o
1 22 13 14.223 13.228 0.509 o
1 22 14 2.138 2.131 0.201 o
1 22 15 1.308 1.271 0.143 o
1 22 16 19.628 18.124 0.666 o
1 22 17 8.132 8.099 0.335 o
1 23 1 39.736 38.290 1.433 o
1 23 2 59.927 60.362 1.749 o
1 23 3 6.370 6.949 0.281 o
1 23 4 1.534 1.707 0.146 o
1 23 5 5.652 5.952 0.227 o
1 23 6 14.292 14.116 0.397 o
1 23 7 1.182 1.043 0.101 o
1 23 8 9.891 9.666 0.303 o
1 23 9 0.518 0.505 0.104 o
1 23 10 7.558 7.456 0.271 o
1 23 11 34.226 33.651 0.849 o
1 23 12 5.052 4.654 0.229 o
1 23 14 4.533 4.442 0.273 o
1 23 15 9.656 9.698 0.326 o
1 23 16 1.252 1.168 0.162 o
1 24 0 1.995 2.383 0.224 o
1 24 1 4.392 4.663 0.220 o
1 24 2 30.775 31.621 0.974 o
1 24 3 55.592 55.609 2.219 o
1 24 4 118.404 118.895 6.736 o
1 24 5 20.061 18.937 0.699 o
1 24 6 20.149 19.504 0.517 o
1 24 7 25.821 24.550 0.694 o
1 24 8 26.800 26.323 0.857 o
1 24 9 14.504 14.238 0.427 o
1 24 10 0.872 0.847 0.114 o
1 24 11 2.375 2.329 0.213 o
1 24 12 23.895 22.966 0.599 o
1 24 14 1.352 0.995 0.327 o
1 24 15 1.351 1.318 0.246 o
1 24 16 5.868 5.771 0.232 o
1 25 0 2.058 1.981 0.258 o
1 25 1 4.796 4.941 0.282 o
1 25 2 32.683 33.925 1.824 o
1 25 3 47.211 47.208 3.013 o
1 25 4 2.798 2.825 0.184 o
1 25 5 0.769 0.680 0.147 o
1 25 6 2.235 2.129 0.216 o
1 25 7 20.991 20.531 0.545 o
1 25 9 6.987 6.850 0.260 o
1 25 12 9.954 9.575 0.307 o
1 25 13 6.850 6.804 0.273 o
1 25 15 0.768 0.705 0.145 o
1 26 1 7.348 7.102 0.525 o
1 26 2 151.828 149.977 9.245 o
1 26 3 6.518 7.197 0.322 o
1 26 6 10.951 10.555 0.356 o
1 26 7 4.734 4.856 0.214 o
1 26 8 0.901 0.746 0.125 o
1 26 9 2.114 2.010 0.227 o
1 26 10 3.895 3.968 0.266 o
1 26 11 6.060 5.529 0.272 o
1 26 12 2.251 2.205 0.151 o
1 26 14 4.292 4.003 0.252 o
1 26 15 9.789 9.338 0.345 o
1 27 0 5.377 5.532 0.423 o
1 27 1 5.429 5.737 0.412 o
1 27 3 46.682 45.191 3.694 o
1 27 4 38.254 37.534 1.604 o
1 27 6 1.610 1.666 0.238 o
1 27 7 2.554 2.358 0.156 o
1 27 12 1.093 1.132 0.122 o
1 27 13 7.392 7.208 0.274 o
1 28 0 8.152 8.202 0.421 o
1 28 1 3.998 4.389 0.244 o
1 28 2 3.950 4.008 0.334 o
1 28 4 25.054 25.209 1.144 o
1 28 5 6.963 6.946 0.261 o
1 28 7 2.433 2.654 0.200 o
1 28 8 8.842 8.577 0.322 o
1 28 9 3.851 3.512 0.224 o
1 28 10 7.765 7.291 0.268 o
1 28 11 2.920 2.892 0.179 o
1 28 12 7.473 7.432 0.259 o
1 28 13 1.216 1.258 0.145 o
1 29 0 7.438 8.064 0.466 o
1 29 1 10.475 10.671 0.788 o
1 29 2 0.407 0.567 0.150 o
1 29 3 1.902 2.092 0.146 o
1 29 5 16.548 16.304 0.486 o
1 29 7 7.904 7.223 0.556 o
1 29 8 2.749 2.734 0.241 o
1 29 9 7.993 8.078 0.429 o
1 29 10 17.773 17.688 0.544 o
1 29 11 16.923 16.535 0.569 o
1 29 12 3.291 3.400 0.184 o
1 29 13 0.894 0.712 0.144 o
1 30 0 7.177 7.665 0.732 o
1 30 1 13.062 13.626 0.888 o
1 30 2 3.270 3.255 0.439 o
1 30 3 0.936 1.010 0.129 o
1 30 4 1.372 1.257 0.133 o
1 30 5 9.146 9.059 0.334 o
1 30 7 2.381 2.643 0.388 o
1 30 8 4.931 5.222 0.525 o
1 30 9 9.040 9.252 0.396 o
1 30 10 1.114 1.083 0.146 o
1 30 11 12.376 12.361 0.361 o
1 30 12 0.396 0.377 0.120 o
1 31 0 4.637 4.961 0.570 o
1 31 1 9.035 9.368 1.000 o
1 31 2 0.931 1.090 0.231 o
1 31 3 0.659 0.657 0.110 o
1 31 4 8.318 8.180 0.292 o
1 31 5 10.589 10.625 0.658 o
1 31 6 13.199 12.340 0.677 o
1 31 8 23.438 22.755 0.826 o
1 31 9 14.682 15.172 0.514 o
1 32 0 1.624 1.736 0.234 o
1 32 2 2.596 2.677 0.233 o
1 32 4 5.213 4.898 0.297 o
1 32 5 3.330 3.437 0.223 o
1 32 6 7.523 7.415 1.018 o
1 32 7 4.579 4.722 0.486 o
1 32 8 5.874 6.125 0.322 o
1 32 9 13.077 13.238 0.826 o
1 32 10 22.883 23.728 1.249 o
1 33 0 6.893 7.272 0.516 o
1 33 1 7.872 7.655 0.278 o
1 33 2 10.069 10.377 0.583 o
1 33 4 7.753 7.546 0.269 o
1 33 9 0.687 0.664 0.208 o
1 34 1 0.757 0.806 0.152 o
1 34 2 1.186 1.180 0.126 o
1 34 3 1.180 1.080 0.125 o
1 34 7 1.583 1.438 0.202 o
1 34 8 2.687 2.529 0.367 o
1 35 0 0.877 0.776 0.135 o
1 35 1 22.772 22.881 0.625 o
1 35 5 2.301 2.245 0.212 o
1 35 6 2.658 2.985 0.243 o
1 36 1 6.100 6.572 0.265 o
1 36 2 1.337 1.259 0.121 o
1 36 4 4.094 3.946 0.254 o
1 37 0 6.284 6.124 0.290 o
2 0 0 11.306 11.758 0.333 o
2 0 2 118.743 112.934 2.803 o
2 0 4 106.780 110.761 3.309 o
2 0 6 58.389 56.095 1.487 o
2 0 12 28.859 30.482 1.229 o
2 0 14 1.308 1.325 0.142 o
2 0 16 17.195 17.576 0.654 o
2 0 18 11.584 12.225 0.394 o
2 0 20 6.131 6.184 0.453 o
2 1 0 1538.450 1521.167 35.593 o
2 1 1 66.672 65.004 1.483 o
2 1 2 91.796 92.472 2.118 o
2 1 3 11.000 10.911 0.297 o
2 1 4 18.481 17.877 0.520 o
2 1 6 613.109 603.213 15.595 o
2 1 7 6.040 6.196 0.251 o
2 1 8 26.353 25.533 0.700 o
2 1 9 56.089 55.039 1.705 o
2 1 10 26.141 25.760 0.927 o
2 1 11 7.612 7.604 0.312 o
2 1 12 14.492 14.412 0.713 o
2 1 13 0.909 0.899 0.064 o
2 1 14 63.327 64.207 1.705 o
2 1 15 64.828 65.519 2.098 o
2 1 16 14.643 14.114 0.516 o
2 1 18 5.526 5.302 0.214 o
2 1 19 59.421 59.580 2.365 o
2 1 20 1.515 1.554 0.114 o
2 2 0 127.126 127.094 2.863 o
2 2 1 315.055 307.413 6.935 o
2 2 2 240.305 236.342 5.507 o
2 2 3 85.475 86.147 2.024 o
2 2 4 85.737 85.699 2.085 o
2 2 6 539.003 529.642 13.452 o
2 2 7 19.767 19.714 0.549 o
2 2 8 28.564 28.896 0.965 o
2 2 9 76.534 73.542 1.913 o
2 2 10 105.135 103.485 2.969 o
2 2 11 7.276 7.506 0.314 o
2 2 12 0.915 0.616 0.138 o
2 2 13 26.063 26.710 0.656 o
2 2 14 6.856 6.903 0.224 o
2 2 15 16.434 16.444 0.461 o
2 2 16 1.633 1.681 0.115 o
2 2 17 3.966 4.192 0.194 o
2 2 18 12.777 12.894 0.352 o
2 2 19 1.869 1.981 0.230 o
2 2 20 11.872 12.053 0.451 o
2 3 0 603.503 600.241 14.013 o
2 3 1 4.338 4.221 0.144 o
2 3 2 0.218 0.220 0.052 o
2 3 3 706.768 690.010 16.462 o
2 3 4 310.734 311.078 7.524 o
2 3 5 283.419 273.119 6.636 o
2 3 6 0.808 0.925 0.116 o
2 3 7 170.283 169.411 4.215 o
2 3 8 7.112 7.177 0.292 o
2 3 9 45.838 46.737 1.210 o
2 3 10 3.311 3.423 0.223 o
2 3 11 60.047 59.214 1.826 o
2 3 12 15.435 14.906 0.488 o
2 3 13 9.003 8.954 0.244 o
2 3 14 1.612 1.721 0.100 o
2 3 15 17.060 17.752 0.464 o
2 3 16 67.059 66.634 1.994 o
2 3 17 0.975 0.997 0.096 o
2 3 18 3.777 3.757 0.208 o
2 3 19 11.809 12.173 0.445 o
2 3 20 37.584 38.244 1.646 o
2 4 0 104.119 104.825 2.419 o
2 4 1 1014.711 1001.362 23.712 o
2 4 2 379.545 379.784 8.943 o
2 4 3 15.707 16.416 0.485 o
2 4 4 1.237 1.324 0.208 o
2 4 5 466.821 469.322 11.767 o
2 4 6 13.689 13.089 0.400 o
2 4 7 79.285 78.670 1.905 o
2 4 8 64.471 62.573 1.701 o
2 4 9 24.856 24.153 0.675 o
2 4 10 55.402 55.820 1.744 o
2 4 11 6.687 6.796 0.311 o
2 4 12 70.666 70.733 1.909 o
2 4 13 25.063 25.660 0.627 o
2 4 15 6.949 6.923 0.230 o
2 4 17 2.989 3.291 0.193 o
2 4 18 0.709 0.777 0.100 o
2 4 20 2.459 2.468 0.155 o
2 5 0 62.969 64.841 1.493 o
2 5 1 13.267 13.152 0.347 o
2 5 2 0.770 0.774 0.082 o
2 5 3 105.525 102.211 2.445 o
2 5 4 171.963 172.407 4.552 o
2 5 5 331.968 322.400 9.337 o
2 5 6 80.823 78.192 1.851 o
2 5 7 39.119 38.892 0.991 o
2 5 8 2.517 2.585 0.185 o
2 5 10 53.915 55.366 1.438 o
2 5 11 1.196 1.236 0.159 o
2 5 12 85.227 85.698 3.243 o
2 5 13 0.569 0.588 0.072 o
2 5 14 4.801 5.155 0.175 o
2 5 15 36.939 38.265 1.000 o
2 5 16 6.159 6.199 0.225 o
2 5 17 9.643 9.467 0.330 o
2 5 18 1.404 1.337 0.144 o
2 5 19 6.429 6.308 0.313 o
2 5 20 6.931 7.020 0.346 o
2 6 0 443.222 432.213 10.397 o
2 6 2 16.236 16.586 0.478 o
2 6 3 51.336 51.938 1.521 o
2 6 4 13.432 13.061 0.480 o
2 6 5 3.670 4.002 0.201 o
2 6 6 9.169 8.939 0.299 o
2 6 7 364.951 353.619 9.005 o
2 6 8 12.817 12.490 0.408 o
2 6 9 190.253 188.518 4.781 o
2 6 10 8.314 8.599 0.340 o
2 6 11 117.390 116.472 3.517 o
2 6 12 90.164 90.173 2.397 o
2 6 13 100.783 100.831 2.620 o
2 6 14 4.035 3.977 0.151 o
2 6 15 12.613 12.835 0.374 o
2 6 16 1.789 1.716 0.148 o
2 6 18 2.628 2.558 0.152 o
2 6 19 4.699 4.610 0.215 o
2 6 20 1.810 1.661 0.260 o
2 7 0 113.154 113.531 2.701 o
2 7 1 0.279 0.436 0.091 o
2 7 2 123.321 121.119 3.363 o
2 7 3 101.682 99.605 2.475 o
2 7 4 11.215 11.865 0.396 o
2 7 5 9.622 9.660 0.308 o
2 7 7 26.285 26.493 0.724 o
2 7 8 14.880 14.569 0.456 o
2 7 9 32.940 33.315 0.963 o
2 7 10 63.369 62.575 1.974 o
2 7 11 188.014 190.499 7.289 o
2 7 12 6.664 7.011 0.210 o
2 7 13 208.673 210.802 5.304 o
2 7 14 59.866 60.132 1.690 o
2 7 15 24.432 24.225 0.668 o
2 7 16 9.967 10.476 0.353 o
2 7 17 15.382 15.545 0.446 o
2 7 19 1.317 1.422 0.259 o
2 7 20 0.496 0.752 0.197 o
2 8 0 5.733 6.046 0.261 o
2 8 1 9.948 10.050 0.364 o
2 8 2 23.667 24.682 0.739 o
2 8 3 139.580 136.743 3.246 o
2 8 4 56.064 56.005 1.537 o
2 8 5 40.287 40.665 0.994 o
2 8 6 26.326 26.117 0.688 o
2 8 7 2.373 2.654 0.187 o
2 8 8 17.076 17.685 0.530 o
2 8 9 30.467 30.461 0.962 o
2 8 10 5.171 5.955 0.350 o
2 8 11 1.215 1.208 0.188 o
2 8 12 0.525 0.672 0.065 o
2 8 13 20.645 20.968 0.557 o
2 8 14 115.572 114.141 3.224 o
2 8 15 25.592 25.767 0.647 o
2 8 16 0.196 0.250 0.079 o
2 8 17 6.879 6.876 0.292 o
2 8 18 1.987 1.957 0.157 o
2 8 20 8.817 8.270 0.317 o
2 9 0 348.267 350.145 8.807 o
2 9 1 21.988 22.780 0.764 o
2 9 2 90.354 88.137 2.210 o
2 9 3 476.984 470.216 12.259 o
2 9 4 52.357 52.462 1.281 o
2 9 5 13.424 13.415 0.383 o
2 9 6 30.855 30.756 0.787 o
2 9 7 1.950 2.003 0.170 o
2 9 8 175.400 177.923 4.466 o
2 9 9 51.172 50.586 1.463 o
2 9 11 23.346 23.095 1.527 o
2 9 12 59.596 59.172 1.405 o
2 9 13 20.627 21.166 0.556 o
2 9 14 1.360 1.430 0.104 o
2 9 15 4.658 4.629 0.172 o
2 9 16 4.294 4.391 0.194 o
2 9 17 0.283 0.377 0.115 o
2 9 18 15.554 15.013 1.130 o
2 9 20 5.050 4.589 0.276 o
2 10 0 1.296 1.342 0.126 o
2 10 1 290.650 276.045 6.550 o
2 10 2 105.004 100.353 2.678 o
2 10 3 98.720 98.021 2.508 o
2 10 4 198.320 199.866 4.890 o
2 10 5 13.635 13.468 0.385 o
2 10 6 35.018 34.677 0.865 o
2 10 7 83.144 83.041 2.062 o
2 10 8 0.956 0.981 0.146 o
2 10 9 31.880 31.690 0.931 o
2 10 10 12.458 12.854 0.471 o
2 10 11 14.969 14.784 0.431 o
2 10 12 25.346 25.157 0.659 o
2 10 14 19.801 19.966 0.625 o
2 10 15 1.174 1.126 0.094 o
2 10 16 9.831 10.363 0.300 o
2 10 17 6.255 6.418 0.401 o
2 10 18 10.474 10.536 0.692 o
2 11 0 659.282 654.438 16.816 o
2 11 2 216.897 210.859 5.030 o
2 11 3 85.637 85.612 2.047 o
2 11 4 461.302 455.145 11.605 o
2 11 5 190.795 190.503 4.560 o
2 11 6 85.482 87.302 2.102 o
2 11 7 3.008 2.864 0.200 o
2 11 8 19.233 19.266 0.579 o
2 11 10 21.711 21.950 0.716 o
2 11 11 51.117 50.907 1.213 o
2 11 12 22.802 23.440 0.573 o
2 11 13 14.562 14.748 0.422 o
2 11 14 1.405 1.506 0.093 o
2 11 15 1.640 1.670 0.112 o
2 11 16 6.790 6.940 0.285 o
2 11 17 2.364 2.201 0.155 o
2 11 18 1.206 1.009 0.194 o
2 12 0 111.501 110.580 2.636 o
2 12 1 10.320 10.396 0.341 o
2 12 2 2.136 2.283 0.166 o
2 12 3 17.921 17.793 0.513 o
2 12 4 33.389 34.293 0.871 o
2 12 5 2.511 2.713 0.181 o
2 12 6 1.439 1.273 0.130 o
2 12 7 2.456 2.364 0.184 o
2 12 8 101.391 104.514 2.732 o
2 12 9 2.190 2.007 0.393 o
2 12 10 11.206 11.397 0.506 o
2 12 11 13.089 13.216 0.351 o
2 12 12 1.987 2.018 0.096 o
2 12 13 10.566 10.644 0.360 o
2 12 14 1.956 2.041 0.114 o
2 12 15 9.066 9.343 0.293 o
2 12 16 13.263 12.860 0.438 o
2 12 17 72.376 71.815 2.111 o
2 13 0 74.029 70.295 1.899 o
2 13 1 4.688 4.439 0.220 o
2 13 2 6.389 6.326 0.261 o
2 13 3 0.400 0.491 0.115 o
2 13 4 0.437 0.352 0.112 o
2 13 5 27.009 27.620 0.768 o
2 13 7 27.721 28.594 0.796 o
2 13 8 5.765 5.899 0.377 o
2 13 9 19.251 21.159 0.739 o
2 13 10 2.237 2.205 0.131 o
2 13 11 3.415 3.347 0.141 o
2 13 12 0.309 0.313 0.063 o
2 13 13 64.687 64.047 1.779 o
2 13 14 5.253 5.385 0.186 o
2 13 16 11.156 11.293 0.334 o
2 13 17 3.351 3.505 0.173 o
2 13 18 3.207 3.077 0.196 o
2 13 19 1.434 1.744 0.220 o
2 14 0 26.740 24.702 0.682 o
2 14 1 65.983 63.757 1.573 o
2 14 2 114.502 113.817 3.052 o
2 14 3 5.408 5.214 0.242 o
2 14 4 129.406 128.364 3.271 o
2 14 5 3.220 3.316 0.214 o
2 14 6 1.892 1.885 0.209 o
2 14 7 82.206 83.685 2.949 o
2 14 8 82.961 84.405 5.247 o
2 14 9 6.117 6.701 0.394 o
2 14 10 1.106 1.272 0.084 o
2 14 12 0.282 0.301 0.078 o
2 14 13 10.183 10.190 0.279 o
2 14 14 10.236 10.208 0.294 o
2 14 15 23.455 22.852 0.782 o
2 14 16 23.710 22.632 0.680 o
2 14 17 14.003 14.107 0.417 o
2 14 19 6.026 6.120 0.290 o
2 15 0 90.885 85.975 2.110 o
2 15 1 30.447 29.573 0.799 o
2 15 2 0.832 0.769 0.128 o
2 15 3 3.791 3.841 0.223 o
2 15 4 54.120 53.430 1.358 o
2 15 5 53.030 54.570 1.391 o
2 15 6 54.781 54.824 1.461 o
2 15 7 11.587 12.617 0.546 o
2 15 8 176.847 181.260 5.479 o
2 15 10 9.332 9.453 0.264 o
2 15 11 0.280 0.264 0.076 o
2 15 12 40.527 39.912 0.981 o
2 15 14 8.968 8.858 0.295 o
2 15 15 3.021 3.215 0.182 o
2 15 16 2.498 2.440 0.138 o
2 15 17 6.536 6.293 0.377 o
2 15 18 16.149 16.373 0.625 o
2 16 0 6.072 6.504 0.301 o
2 16 1 9.705 9.551 0.348 o
2 16 2 76.580 76.391 1.914 o
2 16 3 94.479 94.033 2.362 o
2 16 4 78.107 80.031 2.009 o
2 16 5 44.076 44.744 1.318 o
2 16 6 53.760 56.596 1.869 o
2 16 7 163.504 167.225 4.932 o
2 16 9 29.708 29.994 0.792 o
2 16 10 5.972 6.195 0.202 o
2 16 11 4.919 4.754 0.175 o
2 16 12 18.889 19.559 0.490 o
2 16 13 0.479 0.498 0.081 o
2 16 14 15.099 14.907 0.502 o
2 16 15 2.995 2.886 0.150 o
2 16 16 6.572 6.385 0.288 o
2 16 18 48.982 48.766 1.247 o
2 17 0 6.292 5.973 0.284 o
2 17 1 5.691 5.650 0.273 o
2 17 2 1.250 1.604 0.167 o
2 17 3 22.930 23.273 0.679 o
2 17 5 48.121 48.988 1.335 o
2 17 6 2.044 2.550 0.281 o
2 17 7 105.065 106.271 3.015 o
2 17 8 2.021 2.151 0.113 o
2 17 9 0.816 0.828 0.083 o
2 17 10 113.878 116.340 2.757 o
2 17 11 0.797 0.770 0.085 o
2 17 12 0.393 0.486 0.077 o
2 17 13 1.929 2.046 0.143 o
2 17 14 9.390 9.495 0.286 o
2 17 15 3.104 2.995 0.160 o
2 17 16 5.848 5.727 0.356 o
2 17 17 4.893 5.051 0.192 o
2 17 18 1.618 1.681 0.122 o
2 18 0 24.969 24.065 0.792 o
2 18 1 2.155 2.186 0.188 o
2 18 2 135.197 131.992 3.838 o
2 18 3 23.243 23.288 0.824 o
2 18 4 4.088 4.317 0.292 o
2 18 5 2.655 3.077 0.295 o
2 18 6 3.461 3.390 0.623 o
2 18 7 15.131 15.187 0.440 o
2 18 8 63.707 64.085 1.665 o
2 18 9 5.981 6.051 0.227 o
2 18 10 28.652 28.075 0.958 o
2 18 12 7.928 8.025 0.260 o
2 18 13 5.925 5.978 0.214 o
2 18 14 1.035 1.187 0.107 o
2 18 15 5.274 5.187 0.210 o
2 18 16 1.831 1.741 0.147 o
2 18 17 2.716 2.648 0.145 o
2 19 0 11.484 11.201 0.567 o
2 19 1 10.379 10.539 0.398 o
2 19 2 47.622 48.328 1.677 o
2 19 4 1.726 1.786 0.224 o
2 19 5 69.091 69.647 1.970 o
2 19 6 45.629 45.846 1.247 o
2 19 7 29.369 29.356 0.693 o
2 19 8 34.765 33.809 0.817 o
2 19 9 170.729 169.375 4.231 o
2 19 10 15.660 15.682 0.412 o
2 19 11 12.111 11.877 0.410 o
2 19 13 4.019 3.995 0.171 o
2 19 15 13.911 13.386 0.406 o
2 19 16 1.148 1.157 0.131 o
2 19 17 0.506 0.497 0.099 o
2 20 0 4.438 4.401 0.280 o
2 20 1 47.461 48.975 2.080 o
2 20 2 2.960 3.016 0.227 o
2 20 4 25.360 26.789 1.060 o
2 20 5 8.161 8.220 0.284 o
2 20 6 0.101 0.196 0.063 o
2 20 7 0.926 1.116 0.083 o
2 20 8 10.998 11.090 0.292 o
2 20 9 31.132 30.781 0.741 o
2 20 11 40.560 40.227 1.209 o
2 20 12 3.089 3.120 0.171 o
2 20 13 29.262 27.729 0.814 o
2 20 15 41.440 40.922 1.320 o
2 20 16 13.208 12.420 0.354 o
2 21 0 16.794 17.535 1.202 o
2 21 1 87.811 88.699 4.978 o
2 21 2 11.298 11.459 0.747 o
2 21 4 12.411 12.498 0.335 o
2 21 5 1.618 1.768 0.103 o
2 21 6 18.621 18.656 0.465 o
2 21 7 5.101 5.351 0.179 o
2 21 8 7.222 7.359 0.216 o
2 21 10 0.718 0.826 0.104 o
2 21 11 37.746 38.650 1.162 o
2 21 12 16.051 15.576 0.559 o
2 21 13 6.668 6.651 0.251 o
2 21 14 8.079 7.809 0.350 o
2 21 15 1.940 2.118 0.145 o
2 21 16 7.040 6.721 0.231 o
2 22 0 2.214 2.561 0.196 o
2 22 1 54.829 54.015 1.740 o
2 22 2 7.328 7.419 0.251 o
2 22 3 13.659 13.518 0.449 o
2 22 4 9.812 9.920 0.288 o
2 22 5 2.670 2.796 0.148 o
2 22 6 0.442 0.380 0.083 o
2 22 7 1.346 1.270 0.094 o
2 22 10 33.423 32.573 0.944 o
2 22 11 29.555 28.987 0.826 o
2 22 12 0.304 0.361 0.096 o
2 22 13 0.801 0.794 0.102 o
2 22 14 15.935 16.020 0.527 o
2 22 15 9.576 9.241 0.496 o
2 23 0 20.164 20.528 0.630 o
2 23 1 1.698 2.008 0.115 o
2 23 2 17.943 18.593 0.479 o
2 23 3 0.923 0.801 0.099 o
2 23 4 15.642 15.163 0.447 o
2 23 5 3.629 3.763 0.163 o
2 23 6 8.865 9.184 0.275 o
2 23 7 17.641 17.772 0.512 o
2 23 8 0.511 0.463 0.082 o
2 23 9 16.557 16.551 0.425 o
2 23 10 9.415 9.321 0.281 o
2 23 11 5.695 5.504 0.272 o
2 23 12 3.884 3.713 0.220 o
2 23 14 0.632 0.685 0.126 o
2 23 15 0.872 1.181 0.166 o
2 23 16 2.679 2.588 0.353 o
2 24 0 41.172 41.864 1.261 o
2 24 1 150.551 151.339 4.453 o
2 24 2 202.627 201.307 5.849 o
2 24 3 19.189 18.670 0.670 o
2 24 4 24.385 24.317 0.796 o
2 24 5 33.397 32.738 1.165 o
2 24 6 19.641 19.442 0.541 o
2 24 7 7.845 7.918 0.249 o
2 24 9 0.850 0.809 0.094 o
2 24 10 17.216 16.535 0.446 o
2 24 12 0.790 0.553 0.131 o
2 24 13 2.188 2.044 0.161 o
2 25 0 4.554 5.059 0.277 o
2 25 1 21.002 20.947 0.627 o
2 25 2 8.651 8.840 0.333 o
2 25 3 0.459 0.414 0.089 o
2 25 4 0.906 0.940 0.097 o
2 25 5 9.736 10.105 0.466 o
2 25 6 1.289 1.244 0.105 o
2 25 8 7.864 7.992 0.250 o
2 25 9 0.617 0.660 0.096 o
2 25 11 14.651 14.384 0.608 o
2 25 12 5.521 5.583 0.248 o
2 25 13 2.400 2.219 0.169 o
2 25 15 6.201 6.456 0.425 o
2 26 0 56.236 56.438 1.836 o
2 26 1 18.690 18.701 0.659 o
2 26 2 2.857 3.027 0.162 o
2 26 3 0.535 0.550 0.091 o
2 26 4 2.637 2.544 0.153 o
2 26 5 19.898 19.481 0.622 o
2 26 6 13.192 12.992 0.490 o
2 26 7 2.197 2.304 0.131 o
2 26 8 4.417 4.742 0.190 o
2 26 9 0.964 0.917 0.101 o
2 26 10 1.686 1.729 0.142 o
2 26 11 3.661 3.664 0.215 o
2 26 12 6.336 6.392 0.353 o
2 26 13 2.632 2.531 0.182 o
2 26 14 1.808 1.543 0.172 o
2 27 0 0.944 0.961 0.118 o
2 27 1 23.550 23.911 1.000 o
2 27 2 24.402 24.383 0.734 o
2 27 3 3.568 3.624 0.213 o
2 27 4 20.814 20.466 0.635 o
2 27 5 0.374 0.366 0.099 o
2 27 6 2.532 2.409 0.196 o
2 27 7 0.742 0.740 0.107 o
2 27 8 1.563 1.565 0.114 o
2 27 10 9.905 9.713 0.315 o
2 27 11 6.093 5.662 0.312 o
2 27 13 0.447 0.436 0.116 o
2 28 1 1.618 1.692 0.139 o
2 28 2 22.791 22.816 0.789 o
2 28 3 8.605 8.907 0.341 o
2 28 4 5.589 5.447 0.428 o
2 28 5 2.542 2.835 0.170 o
2 28 6 5.226 5.039 0.212 o
2 28 7 1.354 1.388 0.120 o
2 28 8 8.799 8.977 0.285 o
2 28 10 18.078 17.745 0.484 o
2 28 11 0.374 0.336 0.108 o
2 28 12 2.006 1.899 0.175 o
2 29 2 0.911 0.962 0.130 o
2 29 3 34.192 34.029 2.614 o
2 29 4 3.439 3.584 0.220 o
2 29 5 12.540 12.449 0.459 o
2 29 6 4.990 5.162 0.216 o
2 29 7 5.259 4.967 0.208 o
2 29 8 22.706 22.507 0.578 o
2 29 9 14.932 14.918 0.425 o
2 29 10 0.475 0.378 0.111 o
2 29 12 1.478 1.673 0.141 o
2 30 1 4.405 4.162 0.229 o
2 30 3 1.729 1.599 0.338 o
2 30 4 5.595 5.527 0.662 o
2 30 5 8.556 8.862 0.833 o
2 30 6 0.618 0.574 0.104 o
2 30 7 2.065 2.045 0.194 o
2 30 8 11.193 11.524 0.335 o
2 30 9 27.745 27.982 0.711 o
2 30 11 1.084 0.992 0.161 o
2 31 0 1.258 1.339 0.141 o
2 31 3 9.380 9.511 0.730 o
2 31 4 4.651 4.377 0.880 o
2 31 6 11.027 10.613 0.459 o
2 31 7 1.417 1.641 0.139 o
2 31 8 0.704 0.751 0.141 o
2 31 9 0.930 0.979 0.135 o
2 31 10 0.566 0.445 0.121 o
2 32 0 7.479 7.416 0.384 o
2 32 1 1.071 0.947 0.129 o
2 32 2 5.655 5.709 0.433 o
2 32 4 7.166 7.607 0.901 o
2 32 5 2.164 2.488 0.168 o
2 32 6 7.871 8.062 0.455 o
2 32 7 14.709 14.723 0.493 o
2 32 8 12.212 12.491 0.386 o
2 33 0 17.823 17.491 0.507 o
2 33 3 0.552 0.573 0.118 o
2 33 4 0.473 0.597 0.152 o
2 33 5 0.285 0.474 0.131 o
2 33 6 5.043 4.953 0.243 o
2 33 7 4.703 4.989 0.238 o
2 34 0 2.760 2.807 0.345 o
2 34 3 0.885 0.994 0.123 o
2 34 4 1.992 2.143 0.169 o
2 34 6 6.448 6.515 0.305 o
2 35 0 1.041 0.888 0.134 o
2 35 1 1.662 1.615 0.131 o
2 35 2 1.069 1.161 0.120 o
2 36 0 1.490 1.556 0.143 o
2 36 2 3.027 3.153 0.377 o
3 0 0 6.860 7.644 0.324 o
3 0 2 10.854 11.065 0.535 o
3 0 4 0.634 0.760 0.169 o
3 0 6 198.785 196.521 5.229 o
3 0 8 139.021 136.325 3.807 o
3 0 10 44.974 44.331 3.741 o
3 0 12 0.846 1.061 0.090 o
3 0 14 36.516 36.366 1.172 o
3 0 16 34.609 35.542 1.236 o
3 1 0 203.541 206.052 5.046 o
3 1 1 30.870 31.360 0.800 o
3 1 2 64.695 65.152 1.650 o
3 1 4 367.202 361.096 8.967 o
3 1 5 8.999 8.800 0.319 o
3 1 6 0.670 0.762 0.124 o
3 1 7 76.530 76.168 1.900 o
3 1 8 71.303 69.582 1.771 o
3 1 9 7.639 7.455 0.326 o
3 1 10 38.274 37.835 1.132 o
3 1 11 3.603 3.640 0.135 o
3 1 13 74.604 75.633 1.801 o
3 1 14 3.885 3.836 0.138 o
3 1 15 0.907 0.992 0.075 o
3 1 17 31.886 31.807 0.807 o
3 1 18 14.899 15.591 0.560 o
3 1 19 18.496 18.252 1.320 o
3 2 0 343.975 341.550 8.136 o
3 2 1 143.135 142.266 3.337 o
3 2 2 169.617 170.616 4.038 o
3 2 3 79.889 80.436 1.937 o
3 2 4 459.364 458.214 11.542 o
3 2 6 98.968 98.154 2.399 o
3 2 7 78.761 76.166 1.902 o
3 2 8 1.502 1.465 0.156 o
3 2 9 9.064 8.856 0.353 o
3 2 11 3.566 3.320 0.125 o
3 2 12 17.060 17.621 0.438 o
3 2 13 6.489 6.422 0.182 o
3 2 14 2.906 3.026 0.119 o
3 2 15 0.267 0.263 0.065 o
3 2 16 30.551 31.165 0.846 o
3 2 17 7.847 7.821 0.359 o
3 2 18 1.613 1.717 0.126 o
3 2 19 7.245 7.507 0.499 o
3 3 0 32.615 40.239 1.012 o
3 3 1 80.817 79.710 1.906 o
3 3 2 13.857 12.947 0.432 o
3 3 3 172.729 172.874 4.068 o
3 3 4 2.512 2.528 0.162 o
3 3 5 421.275 412.072 10.476 o
3 3 6 0.091 1.575 0.212 o
3 3 7 41.622 42.643 1.111 o
3 3 8 0.450 0.498 0.132 o
3 3 9 5.091 6.584 0.309 o
3 3 10 7.023 6.737 0.376 o
3 3 11 1.272 1.294 0.072 o
3 3 12 0.881 1.509 0.076 o
3 3 13 38.900 39.270 0.968 o
3 3 14 26.761 27.424 0.674 o
3 3 15 28.056 28.216 0.766 o
3 3 16 0.972 0.795 0.082 o
3 3 17 0.729 0.731 0.085 o
3 3 18 28.906 28.695 1.254 o
3 3 19 0.469 0.432 0.088 o
3 4 0 166.321 167.917 4.057 o
3 4 1 16.579 16.931 0.518 o
3 4 2 15.969 15.967 0.458 o
3 4 3 37.336 36.106 0.910 o
3 4 4 8.588 8.122 0.281 o
3 4 5 36.676 37.767 0.946 o
3 4 6 176.085 174.224 4.230 o
3 4 7 7.185 6.963 0.280 o
3 4 8 31.167 31.953 0.883 o
3 4 9 11.840 11.686 0.473 o
3 4 10 106.098 105.364 3.253 o
3 4 11 0.930 0.911 0.063 o
3 4 12 1.420 1.515 0.077 o
3 4 13 1.408 1.475 0.078 o
3 4 14 6.079 6.167 0.208 o
3 4 15 0.430 0.444 0.073 o
3 4 16 2.155 2.139 0.116 o
3 4 17 1.667 1.790 0.102 o
3 4 18 18.921 19.250 0.595 o
3 4 19 11.963 12.455 0.645 o
3 5 0 2.867 2.880 0.199 o
3 5 1 5.173 5.070 0.227 o
3 5 2 118.054 115.942 2.758 o
3 5 3 258.248 252.619 6.026 o
3 5 4 21.499 20.043 0.565 o
3 5 5 10.830 10.576 0.341 o
3 5 6 21.580 21.059 0.596 o
3 5 7 16.252 16.708 0.494 o
3 5 8 6.946 6.907 0.299 o
3 5 9 47.024 46.610 1.249 o
3 5 10 151.914 154.048 4.474 o
3 5 11 31.558 31.525 0.773 o
3 5 12 20.117 20.294 0.564 o
3 5 13 132.265 134.943 3.181 o
3 5 14 3.156 3.121 0.125 o
3 5 15 65.887 64.988 1.941 o
3 5 16 4.911 4.939 0.243 o
3 5 17 1.030 1.009 0.085 o
3 5 18 5.944 5.981 0.201 o
3 5 19 5.109 5.416 0.220 o
3 6 0 116.700 124.716 3.077 o
3 6 1 10.380 10.576 0.352 o
3 6 3 32.194 32.159 0.834 o
3 6 4 34.542 33.851 0.882 o
3 6 5 48.706 47.688 1.315 o
3 6 6 47.064 45.957 1.147 o
3 6 7 71.206 69.873 1.743 o
3 6 8 10.927 10.821 0.393 o
3 6 9 33.863 36.573 0.976 o
3 6 10 61.765 60.263 2.295 o
3 6 11 21.745 22.107 0.535 o
3 6 12 1.753 2.134 0.093 o
3 6 13 35.066 35.140 0.947 o
3 6 14 0.666 0.649 0.070 o
3 6 15 1.891 2.096 0.110 o
3 6 16 2.415 2.501 0.125 o
3 6 17 3.566 3.758 0.182 o
3 6 18 0.273 0.304 0.081 o
3 6 19 1.837 2.002 0.124 o
3 7 0 13.271 13.090 0.401 o
3 7 1 5.793 6.110 0.248 o
3 7 2 149.950 146.597 3.494 o
3 7 3 8.842 8.485 0.289 o
3 7 4 27.363 28.363 0.968 o
3 7 5 2.339 2.265 0.179 o
3 7 6 0.810 0.757 0.119 o
3 7 7 42.845 43.207 1.096 o
3 7 8 90.472 90.309 2.309 o
3 7 9 208.211 209.805 5.715 o
3 7 10 12.723 13.457 0.458 o
3 7 11 158.536 159.210 3.716 o
3 7 12 25.274 25.634 0.602 o
3 7 13 15.226 15.135 0.389 o
3 7 14 1.091 1.199 0.079 o
3 7 16 1.144 1.297 0.091 o
3 7 17 4.688 4.775 0.187 o
3 7 18 4.202 4.280 0.170 o
3 7 19 10.939 11.034 0.642 o
3 8 0 31.146 31.035 0.827 o
3 8 1 144.693 138.805 3.387 o
3 8 3 70.241 69.309 1.765 o
3 8 4 51.549 50.644 1.386 o
3 8 5 15.640 15.775 0.494 o
3 8 6 7.258 6.708 0.270 o
3 8 7 42.521 41.984 1.084 o
3 8 8 91.331 93.057 2.399 o
3 8 9 36.761 37.032 1.153 o
3 8 10 1.000 1.108 0.087 o
3 8 11 65.879 67.031 1.661 o
3 8 12 122.171 121.924 3.123 o
3 8 13 36.869 37.022 0.922 o
3 8 15 32.208 32.654 0.909 o
3 8 16 2.873 2.870 0.132 o
3 8 17 3.151 3.126 0.134 o
3 8 19 1.135 1.166 0.108 o
3 9 0 88.893 88.418 2.124 o
3 9 1 235.770 229.754 5.574 o
3 9 2 1.206 1.204 0.172 o
3 9 3 200.409 196.118 4.888 o
3 9 4 1.107 1.320 0.141 o
3 9 5 8.219 7.873 0.320 o
3 9 6 58.092 59.970 1.748 o
3 9 7 1.797 2.177 0.178 o
3 9 8 9.309 9.394 0.387 o
3 9 9 3.949 4.248 0.251 o
3 9 10 9.386 9.244 0.245 o
3 9 11 1.399 1.545 0.078 o
3 9 12 58.796 57.949 1.432 o
3 9 13 2.343 2.533 0.112 o
3 9 14 0.228 0.209 0.066 o
3 9 15 1.993 2.524 0.127 o
3 9 16 21.150 20.880 0.563 o
3 9 17 1.939 2.018 0.106 o
3 9 18 0.705 1.303 0.103 o
3 9 19 2.062 1.886 0.178 o
3 10 0 124.467 123.471 2.980 o
3 10 1 2.543 2.777 0.194 o
3 10 2 44.066 42.660 1.150 o
3 10 3 7.935 7.749 0.286 o
3 10 4 12.557 12.724 0.399 o
3 10 5 33.959 33.477 0.911 o
3 10 6 41.420 40.321 1.349 o
3 10 7 28.658 28.446 0.813 o
3 10 8 4.495 4.437 0.250 o
3 10 11 9.179 9.128 0.238 o
3 10 12 3.590 3.658 0.128 o
3 10 13 10.332 11.048 0.352 o
3 10 14 41.301 41.620 0.999 o
3 10 15 5.659 5.582 0.186 o
3 10 16 23.916 23.936 0.641 o
3 10 17 6.851 7.015 0.270 o
3 10 18 3.827 3.854 0.164 o
3 10 19 0.805 0.786 0.140 o
3 11 0 120.591 117.996 2.919 o
3 11 1 152.080 148.884 3.930 o
3 11 2 277.517 265.970 6.743 o
3 11 3 102.622 101.197 2.448 o
3 11 4 5.680 5.494 0.240 o
3 11 5 20.819 21.079 0.708 o
3 11 6 21.905 21.501 0.649 o
3 11 7 32.719 32.316 1.026 o
3 11 8 4.133 4.523 0.283 o
3 11 9 22.679 22.837 0.573 o
3 11 10 12.829 12.958 0.319 o
3 11 11 11.646 11.769 0.298 o
3 11 12 17.562 17.905 0.457 o
3 11 13 0.675 0.690 0.070 o
3 11 14 1.255 1.259 0.086 o
3 11 15 1.651 1.672 0.110 o
3 11 16 1.410 1.447 0.100 o
3 11 17 7.379 7.605 0.283 o
3 11 18 3.417 3.552 0.157 o
3 12 0 1.610 2.196 0.175 o
3 12 1 33.086 32.745 0.877 o
3 12 2 122.407 119.347 3.415 o
3 12 3 26.980 27.286 0.834 o
3 12 4 7.487 7.774 0.295 o
3 12 5 1.533 1.658 0.157 o
3 12 6 178.006 179.533 4.716 o
3 12 7 3.248 3.353 0.271 o
3 12 8 1.189 1.278 0.188 o
3 12 9 20.502 21.341 0.517 o
3 12 11 25.491 25.381 0.660 o
3 12 12 12.093 12.493 0.316 o
3 12 13 0.332 0.294 0.065 o
3 12 14 3.253 3.138 0.140 o
3 12 15 40.932 39.981 1.279 o
3 12 18 1.027 0.938 0.106 o
3 13 0 13.137 12.888 0.441 o
3 13 1 42.619 41.635 1.270 o
3 13 2 18.774 18.943 0.572 o
3 13 3 15.211 15.137 0.480 o
3 13 4 34.591 33.381 0.946 o
3 13 5 50.107 50.986 1.364 o
3 13 6 51.673 52.332 1.384 o
3 13 7 8.249 8.338 0.402 o
3 13 8 40.849 40.287 1.094 o
3 13 9 25.490 25.365 0.643 o
3 13 10 4.573 4.859 0.157 o
3 13 11 74.129 73.043 1.794 o
3 13 14 4.275 4.428 0.162 o
3 13 15 0.676 0.643 0.079 o
3 13 16 2.337 2.478 0.136 o
3 13 17 12.672 12.257 0.405 o
3 13 18 7.698 7.477 0.244 o
3 14 0 27.905 28.649 0.793 o
3 14 1 6.656 6.807 0.294 o
3 14 2 108.660 106.069 2.758 o
3 14 3 2.737 2.860 0.213 o
3 14 5 25.966 27.018 1.005 o
3 14 6 124.503 126.643 3.254 o
3 14 7 1.511 1.762 0.256 o
3 14 8 1.080 0.975 0.071 o
3 14 9 2.340 2.454 0.110 o
3 14 10 26.652 26.602 0.680 o
3 14 12 4.361 4.442 0.149 o
3 14 13 0.190 0.306 0.070 o
3 14 14 2.191 2.102 0.133 o
3 14 15 23.108 22.800 0.710 o
3 14 16 5.760 5.873 0.212 o
3 14 17 26.175 26.381 1.073 o
3 15 2 58.492 57.799 1.491 o
3 15 3 12.956 14.102 0.476 o
3 15 4 138.121 135.629 3.968 o
3 15 5 11.463 11.930 0.569 o
3 15 6 85.025 87.041 3.172 o
3 15 7 35.648 35.410 0.936 o
3 15 8 14.318 14.165 0.352 o
3 15 9 10.507 10.685 0.286 o
3 15 10 3.570 3.699 0.140 o
3 15 12 19.299 19.457 0.550 o
3 15 13 12.319 12.157 0.393 o
3 15 14 1.953 1.908 0.104 o
3 15 15 22.888 22.770 0.744 o
3 15 16 8.967 8.703 0.268 o
3 16 1 59.675 59.046 1.545 o
3 16 2 40.943 40.741 1.103 o
3 16 3 40.839 41.283 1.376 o
3 16 4 6.648 6.907 0.310 o
3 16 5 52.244 51.926 1.946 o
3 16 6 8.297 8.498 0.535 o
3 16 7 51.944 51.829 1.214 o
3 16 8 4.411 4.480 0.155 o
3 16 11 0.754 0.789 0.074 o
3 16 12 8.232 8.204 0.235 o
3 16 13 0.843 0.830 0.083 o
3 16 14 19.415 19.538 0.491 o
3 16 15 0.959 0.855 0.087 o
3 16 16 22.767 23.051 0.848 o
3 16 17 0.578 0.609 0.090 o
3 17 1 14.141 14.212 0.465 o
3 17 2 6.046 6.849 0.320 o
3 17 3 4.009 4.013 0.253 o
3 17 4 98.931 97.341 3.074 o
3 17 5 93.363 94.356 2.482 o
3 17 6 5.357 5.226 0.169 o
3 17 7 4.556 4.879 0.157 o
3 17 8 171.412 169.930 4.051 o
3 17 10 2.201 2.439 0.134 o
3 17 11 6.321 6.335 0.206 o
3 17 12 3.978 4.195 0.151 o
3 17 13 5.066 4.949 0.180 o
3 17 14 2.660 2.504 0.147 o
3 17 15 11.247 11.148 0.380 o
3 17 16 2.977 3.152 0.156 o
3 17 17 1.527 1.909 0.146 o
3 18 0 18.362 19.300 0.579 o
3 18 1 65.302 65.314 2.157 o
3 18 2 7.737 8.430 0.374 o
3 18 4 11.410 11.478 0.420 o
3 18 5 8.449 8.500 0.233 o
3 18 6 54.303 56.929 1.316 o
3 18 7 16.999 16.897 0.461 o
3 18 8 21.222 21.234 0.547 o
3 18 10 4.164 4.097 0.149 o
3 18 11 22.523 23.039 0.595 o
3 18 13 18.937 18.242 0.502 o
3 18 14 17.790 17.498 0.645 o
3 18 15 8.529 8.391 0.278 o
3 18 16 0.566 0.713 0.095 o
3 19 0 14.117 14.840 0.719 o
3 19 1 3.358 3.636 0.242 o
3 19 2 0.723 0.690 0.148 o
3 19 3 25.931 25.870 0.726 o
3 19 4 2.357 2.560 0.112 o
3 19 5 8.148 8.095 0.219 o
3 19 6 1.295 1.331 0.081 o
3 19 7 59.041 59.590 1.535 o
3 19 8 9.434 9.400 0.268 o
3 19 10 17.674 18.041 0.489 o
3 19 11 2.287 2.480 0.116 o
3 19 12 0.414 0.421 0.084 o
3 19 13 10.421 10.234 0.377 o
3 19 14 0.841 0.912 0.097 o
3 19 15 6.587 6.677 0.290 o
3 19 16 0.504 0.545 0.106 o
3 20 1 18.926 19.098 0.545 o
3 20 2 19.146 19.380 0.484 o
3 20 3 0.237 0.293 0.060 o
3 20 4 0.584 0.653 0.066 o
3 20 6 3.884 4.094 0.148 o
3 20 7 39.541 39.302 0.965 o
3 20 8 6.085 6.068 0.191 o
3 20 9 55.102 54.526 1.439 o
3 20 10 12.466 12.310 0.322 o
3 20 11 41.056 40.976 1.117 o
3 20 13 10.425 10.243 0.426 o
3 20 14 30.929 31.080 0.940 o
3 20 15 0.736 0.775 0.088 o
3 21 0 7.088 8.393 0.285 o
3 21 1 13.113 13.286 0.336 o
3 21 2 3.326 3.247 0.127 o
3 21 3 3.120 3.108 0.125 o
3 21 4 17.373 17.408 0.432 o
3 21 5 20.157 20.520 0.494 o
3 21 6 0.019 0.232 0.065 o
3 21 7 36.044 35.895 0.855 o
3 21 9 32.851 33.086 0.908 o
3 21 10 12.917 12.911 0.408 o
3 21 11 8.263 8.448 0.284 o
3 21 12 2.653 3.401 0.182 o
3 21 13 5.807 6.128 0.280 o
3 21 14 10.434 10.304 0.341 o
3 22 0 8.972 9.146 0.249 o
3 22 1 128.600 126.318 3.272 o
3 22 2 1.856 1.886 0.093 o
3 22 3 13.958 14.075 0.353 o
3 22 4 1.607 1.672 0.089 o
3 22 5 6.281 6.354 0.192 o
3 22 6 0.927 0.938 0.077 o
3 22 8 25.097 24.535 0.665 o
3 22 9 11.646 11.897 0.327 o
3 22 10 2.212 2.209 0.115 o
3 22 11 7.313 7.244 0.293 o
3 22 12 8.861 9.126 0.381 o
3 22 14 8.931 9.052 0.270 o
3 22 15 3.809 3.681 0.193 o
3 23 0 17.800 18.098 0.565 o
3 23 1 1.874 2.010 0.096 o
3 23 2 14.536 14.426 0.391 o
3 23 3 1.163 1.197 0.080 o
3 23 4 0.360 0.489 0.073 o
3 23 5 29.230 29.372 0.783 o
3 23 6 1.556 1.546 0.090 o
3 23 8 4.971 4.747 0.173 o
3 23 9 0.242 0.323 0.077 o
3 23 11 0.685 0.832 0.089 o
3 23 12 11.954 11.773 0.359 o
3 23 13 1.046 0.938 0.114 o
3 23 14 1.734 1.745 0.127 o
3 24 0 142.594 144.175 4.050 o
3 24 1 12.554 12.638 0.372 o
3 24 2 1.123 1.191 0.083 o
3 24 3 5.675 6.156 0.188 o
3 24 4 17.608 18.085 0.480 o
3 24 5 5.002 4.995 0.167 o
3 24 6 1.462 1.511 0.092 o
3 24 8 2.576 2.650 0.178 o
3 24 9 2.279 2.365 0.130 o
3 24 10 2.297 2.320 0.134 o
3 24 11 11.020 10.695 0.317 o
3 24 13 2.035 2.256 0.152 o
3 24 14 1.756 1.678 0.241 o
3 25 0 3.730 4.088 0.162 o
3 25 1 0.697 0.697 0.076 o
3 25 2 6.968 7.338 0.222 o
3 25 4 18.646 18.747 0.559 o
3 25 6 0.972 1.069 0.090 o
3 25 7 4.467 4.519 0.169 o
3 25 8 1.429 1.650 0.114 o
3 25 9 5.689 5.911 0.208 o
3 25 10 20.347 19.948 0.519 o
3 25 11 1.724 2.034 0.165 o
3 25 13 1.424 1.400 0.117 o
3 26 0 38.659 38.754 1.007 o
3 26 1 0.745 0.844 0.079 o
3 26 2 11.396 11.663 0.348 o
3 26 3 20.569 21.071 0.584 o
3 26 4 21.244 21.212 0.592 o
3 26 5 0.235 0.292 0.093 o
3 26 6 5.088 5.255 0.190 o
3 26 7 0.503 0.532 0.088 o
3 26 9 16.301 16.189 0.447 o
3 26 13 13.590 13.399 0.538 o
3 27 0 13.005 13.270 0.370 o
3 27 1 1.052 1.108 0.084 o
3 27 2 29.842 30.309 0.845 o
3 27 3 2.213 2.723 0.149 o
3 27 4 15.480 15.301 0.479 o
3 27 5 0.847 0.900 0.112 o
3 27 8 28.015 27.150 0.753 o
3 27 9 2.575 3.120 0.149 o
3 27 10 1.321 1.413 0.125 o
3 27 11 1.267 1.272 0.157 o
3 28 0 1.250 1.369 0.106 o
3 28 1 3.565 3.763 0.154 o
3 28 2 5.365 5.437 0.293 o
3 28 3 0.480 0.483 0.107 o
3 28 4 1.093 1.146 0.118 o
3 28 5 4.048 4.132 0.285 o
3 28 6 6.229 6.410 0.226 o
3 28 7 0.452 0.325 0.085 o
3 28 8 21.607 21.526 0.541 o
3 28 9 4.672 4.540 0.188 o
3 28 10 1.025 1.018 0.113 o
3 28 11 2.644 2.727 0.221 o
3 29 0 3.048 3.221 0.160 o
3 29 1 13.800 13.933 0.452 o
3 29 2 1.245 1.158 0.120 o
3 29 3 3.921 3.962 0.248 o
3 29 4 8.215 8.463 0.352 o
3 29 5 3.004 3.173 0.187 o
3 29 6 6.048 6.418 0.331 o
3 29 7 5.267 5.320 0.199 o
3 29 9 3.672 3.697 0.170 o
3 30 0 1.528 1.888 0.123 o
3 30 2 13.847 13.863 1.330 o
3 30 3 21.260 21.012 1.581 o
3 30 5 1.867 1.945 0.149 o
3 30 6 20.654 21.053 1.071 o
3 30 7 18.487 19.015 0.713 o
3 30 9 1.219 1.116 0.102 o
3 31 0 1.327 1.326 0.138 o
3 31 1 1.290 1.127 0.197 o
3 31 4 4.279 4.146 0.219 o
3 31 6 4.144 4.331 0.203 o
3 31 7 2.543 2.844 0.286 o
3 32 0 4.898 5.177 0.375 o
3 32 2 2.218 2.177 0.241 o
3 32 4 1.126 1.173 0.165 o
3 32 5 15.262 15.733 1.500 o
3 32 6 3.340 3.534 0.234 o
3 32 7 1.620 1.803 0.150 o
3 33 0 0.862 0.780 0.123 o
3 33 1 1.306 1.235 0.129 o
3 33 2 2.462 2.805 0.520 o
3 33 3 0.009 0.734 0.134 o
3 33 4 2.838 2.969 0.317 o
3 33 5 5.279 5.654 0.363 o
3 33 6 1.831 1.945 0.189 o
3 34 1 2.685 2.835 0.243 o
3 34 4 1.796 1.762 0.219 o
3 35 0 1.901 1.749 0.301 o
3 35 1 0.637 0.860 0.270 o
4 0 0 108.069 108.481 3.184 o
4 0 2 244.112 243.965 7.078 o
4 0 4 190.303 186.309 5.087 o
4 0 6 258.345 254.579 7.752 o
4 0 8 17.119 17.048 0.651 o
4 0 10 0.215 0.259 0.082 o
4 0 12 16.655 16.674 0.470 o
4 0 14 7.302 7.411 0.252 o
4 0 16 0.599 0.792 0.114 o
4 1 0 29.528 29.899 0.770 o
4 1 1 0.944 0.877 0.129 o
4 1 2 170.270 168.761 4.102 o
4 1 3 14.345 14.104 0.478 o
4 1 4 39.489 38.571 1.008 o
4 1 5 25.381 25.504 0.719 o
4 1 6 135.245 134.904 3.449 o
4 1 7 12.839 12.779 0.452 o
4 1 9 16.641 16.465 0.409 o
4 1 10 2.156 2.136 0.094 o
4 1 11 29.663 29.421 0.702 o
4 1 12 60.528 59.316 1.457 o
4 1 13 8.586 8.859 0.238 o
4 1 14 1.735 1.637 0.129 o
4 1 15 6.291 5.947 0.183 o
4 1 16 8.208 8.171 0.236 o
4 1 17 30.623 31.137 0.793 o
4 1 18 5.204 5.488 0.179 o
4 2 0 89.638 90.081 2.203 o
4 2 1 25.851 25.565 0.684 o
4 2 2 79.331 77.690 1.893 o
4 2 4 6.407 6.220 0.311 o
4 2 5 2.910 2.844 0.201 o
4 2 6 21.072 20.321 0.609 o
4 2 7 6.896 7.357 0.401 o
4 2 8 9.784 9.918 0.387 o
4 2 9 0.521 0.476 0.060 o
4 2 10 9.025 9.119 0.239 o
4 2 11 3.237 3.196 0.121 o
4 2 12 0.183 0.213 0.061 o
4 2 13 13.931 14.039 0.363 o
4 2 14 9.973 9.962 0.336 o
4 2 15 32.592 33.144 0.982 o
4 2 17 8.687 8.968 0.248 o
4 2 18 4.392 4.775 0.186 o
4 3 0 1.066 0.990 0.126 o
4 3 1 176.800 176.533 4.273 o
4 3 2 6.295 6.444 0.266 o
4 3 3 274.686 272.676 7.011 o
4 3 4 8.765 8.995 0.434 o
4 3 6 1.532 1.557 0.170 o
4 3 8 13.262 12.864 0.442 o
4 3 9 42.876 41.680 0.961 o
4 3 11 2.241 2.222 0.099 o
4 3 13 24.041 24.248 0.612 o
4 3 14 6.824 7.105 0.204 o
4 3 15 1.519 1.518 0.086 o
4 3 16 17.774 17.811 0.488 o
4 3 18 1.377 1.436 0.098 o
4 4 0 2.496 3.138 0.191 o
4 4 1 19.128 18.521 0.558 o
4 4 2 11.075 11.326 0.377 o
4 4 3 164.676 163.512 4.257 o
4 4 4 118.664 119.546 2.982 o
4 4 5 33.073 32.670 0.890 o
4 4 6 13.469 13.600 0.499 o
4 4 7 1.181 1.355 0.162 o
4 4 8 63.438 62.166 1.612 o
4 4 9 6.303 6.181 0.180 o
4 4 10 4.229 4.489 0.141 o
4 4 11 2.817 2.921 0.114 o
4 4 12 14.803 14.912 0.366 o
4 4 13 13.067 13.229 0.334 o
4 4 14 4.228 4.330 0.144 o
4 4 15 32.181 32.839 0.791 o
4 4 16 32.159 32.999 0.902 o
4 4 17 5.208 5.339 0.175 o
4 4 18 5.400 5.739 0.214 o
4 5 0 22.399 21.383 0.599 o
4 5 1 35.084 34.561 0.931 o
4 5 2 18.093 17.240 0.518 o
4 5 3 24.264 23.990 0.736 o
4 5 4 87.089 86.792 2.179 o
4 5 5 5.476 5.500 0.279 o
4 5 6 1.293 1.580 0.179 o
4 5 7 69.665 69.342 2.153 o
4 5 8 137.754 138.004 3.659 o
4 5 9 97.192 95.515 2.214 o
4 5 10 32.193 31.496 0.759 o
4 5 11 74.882 74.154 1.760 o
4 5 12 1.323 1.343 0.076 o
4 5 13 44.176 44.222 1.031 o
4 5 14 8.596 8.638 0.236 o
4 5 16 0.351 0.341 0.067 o
4 5 17 3.130 3.169 0.127 o
4 6 1 2.620 2.969 0.198 o
4 6 2 3.168 3.217 0.238 o
4 6 3 1.869 1.976 0.175 o
4 6 4 23.472 23.223 0.696 o
4 6 5 8.561 8.547 0.386 o
4 6 7 43.715 45.319 2.218 o
4 6 8 25.084 24.358 0.753 o
4 6 9 0.542 0.519 0.061 o
4 6 10 55.334 55.247 1.327 o
4 6 11 36.156 36.357 0.854 o
4 6 13 1.240 1.240 0.077 o
4 6 14 9.008 9.084 0.240 o
4 6 15 2.453 2.442 0.106 o
4 6 16 0.305 0.384 0.066 o
4 6 17 1.780 1.936 0.120 o
4 6 18 1.369 1.390 0.104 o
4 7 0 55.354 54.030 1.425 o
4 7 1 8.711 8.493 0.319 o
4 7 2 9.186 9.721 0.398 o
4 7 4 7.971 8.339 0.342 o
4 7 5 20.536 20.427 0.627 o
4 7 6 14.637 15.079 0.486 o
4 7 7 78.902 79.271 2.342 o
4 7 8 2.652 2.533 0.116 o
4 7 9 68.727 68.584 1.585 o
4 7 10 14.271 14.334 0.356 o
4 7 11 5.681 6.041 0.176 o
4 7 12 26.671 26.826 0.660 o
4 7 13 4.417 4.689 0.147 o
4 7 14 11.956 11.818 0.339 o
4 7 15 13.464 13.695 0.361 o
4 7 17 9.105 9.306 0.252 o
4 7 18 0.609 0.683 0.116 o
4 8 0 33.473 34.414 0.909 o
4 8 1 5.823 5.688 0.259 o
4 8 2 1.467 1.410 0.184 o
4 8 3 31.154 30.062 0.885 o
4 8 5 9.308 9.076 0.413 o
4 8 6 107.675 109.389 4.651 o
4 8 7 34.734 34.663 1.160 o
4 8 8 3.497 3.484 0.129 o
4 8 9 79.792 79.316 1.832 o
4 8 10 34.417 34.234 0.853 o
4 8 11 22.075 21.757 0.522 o
4 8 12 11.872 12.213 0.307 o
4 8 13 38.314 38.123 0.890 o
4 8 14 3.528 3.720 0.131 o
4 8 15 10.233 10.334 0.342 o
4 8 16 4.990 5.158 0.161 o
4 8 17 3.514 3.594 0.172 o
4 9 0 12.190 11.646 0.398 o
4 9 1 330.663 322.562 8.601 o
4 9 2 9.626 9.765 0.361 o
4 9 4 1.962 1.910 0.183 o
4 9 5 1.871 1.601 0.172 o
4 9 6 72.062 74.205 3.016 o
4 9 7 7.105 7.207 0.334 o
4 9 8 19.490 18.992 0.454 o
4 9 9 2.171 2.138 0.097 o
4 9 10 70.998 69.794 1.676 o
4 9 12 8.363 8.105 0.218 o
4 9 13 12.745 12.629 0.317 o
4 9 14 2.774 2.837 0.119 o
4 9 15 0.676 0.623 0.073 o
4 9 16 6.693 6.751 0.199 o
4 9 17 7.237 7.389 0.210 o
4 10 1 43.813 43.617 1.164 o
4 10 2 17.478 17.742 0.632 o
4 10 3 9.485 9.578 0.418 o
4 10 4 11.729 11.094 0.593 o
4 10 5 22.607 23.067 0.809 o
4 10 6 26.798 27.585 0.798 o
4 10 7 15.991 15.781 0.392 o
4 10 8 24.011 24.428 0.583 o
4 10 9 1.371 1.529 0.081 o
4 10 11 28.725 29.504 0.711 o
4 10 12 26.433 26.471 0.640 o
4 10 14 6.215 6.130 0.181 o
4 10 15 7.431 7.537 0.212 o
4 10 16 5.715 5.742 0.213 o
4 10 17 1.421 1.501 0.129 o
4 11 0 168.623 165.130 4.210 o
4 11 1 21.886 21.649 0.645 o
4 11 2 10.445 9.916 0.394 o
4 11 3 5.108 4.695 0.303 o
4 11 4 15.069 15.029 0.993 o
4 11 5 14.160 14.608 0.748 o
4 11 6 1.462 1.549 0.190 o
4 11 7 0.294 0.285 0.057 o
4 11 8 34.745 34.483 0.819 o
4 11 10 22.061 22.113 0.529 o
4 11 11 3.695 3.567 0.132 o
4 11 12 1.198 1.165 0.081 o
4 11 13 10.134 10.123 0.274 o
4 11 14 2.244 2.230 0.106 o
4 11 15 12.931 13.011 0.378 o
4 11 16 1.726 1.788 0.091 o
4 11 17 9.804 10.057 0.308 o
4 12 0 115.379 115.762 2.934 o
4 12 1 28.839 27.335 0.839 o
4 12 2 2.090 2.229 0.199 o
4 12 3 6.664 6.797 0.306 o
4 12 4 92.453 91.955 5.226 o
4 12 5 0.480 0.783 0.189 o
4 12 6 1.075 1.054 0.076 o
4 12 8 0.292 0.371 0.057 o
4 12 10 23.611 23.094 0.557 o
4 12 11 8.522 8.686 0.235 o
4 12 13 1.192 1.182 0.085 o
4 12 14 1.587 1.495 0.091 o
4 12 15 7.845 7.962 0.224 o
4 12 16 4.215 4.119 0.146 o
4 12 17 3.540 3.503 0.204 o
4 13 0 63.475 61.781 1.952 o
4 13 2 61.070 60.077 2.019 o
4 13 4 103.298 102.990 5.141 o
4 13 5 10.392 10.333 0.348 o
4 13 6 66.903 66.243 1.577 o
4 13 7 41.941 41.510 0.956 o
4 13 8 20.473 20.619 0.491 o
4 13 9 26.902 26.930 0.637 o
4 13 11 14.469 14.391 0.405 o
4 13 12 0.174 0.203 0.067 o
4 13 14 4.059 3.972 0.148 o
4 13 15 11.805 11.932 0.319 o
4 13 16 0.852 0.793 0.088 o
4 14 0 18.824 18.796 0.719 o
4 14 3 0.720 0.524 0.146 o
4 14 4 114.312 114.800 3.514 o
4 14 5 31.484 31.283 0.731 o
4 14 6 0.885 0.974 0.072 o
4 14 7 0.572 0.563 0.061 o
4 14 8 38.184 37.401 0.868 o
4 14 9 2.638 2.574 0.108 o
4 14 10 1.123 1.257 0.077 o
4 14 11 12.881 12.619 0.373 o
4 14 12 1.881 1.853 0.097 o
4 14 13 36.214 35.574 0.922 o
4 14 14 15.582 15.672 0.542 o
4 14 15 17.485 17.417 0.446 o
4 14 16 0.531 0.676 0.085 o
4 15 0 4.303 4.664 0.398 o
4 15 1 4.961 5.208 0.275 o
4 15 2 75.658 75.715 2.344 o
4 15 3 24.900 24.920 0.926 o
4 15 4 8.458 8.557 0.278 o
4 15 5 61.590 61.613 1.497 o
4 15 6 1.372 1.396 0.080 o
4 15 7 11.115 10.886 0.282 o
4 15 8 0.385 0.374 0.060 o
4 15 9 1.975 2.154 0.097 o
4 15 10 24.524 24.195 0.620 o
4 15 11 6.252 6.306 0.187 o
4 15 13 15.640 15.778 0.520 o
4 15 14 1.955 1.924 0.103 o
4 15 15 0.511 0.400 0.084 o
4 15 16 0.763 0.878 0.087 o
4 16 1 49.648 48.732 1.684 o
4 16 2 1.319 1.492 0.104 o
4 16 3 4.966 5.023 0.161 o
4 16 4 2.724 2.883 0.118 o
4 16 5 75.750 76.173 1.769 o
4 16 6 3.777 3.747 0.137 o
4 16 8 9.052 9.037 0.240 o
4 16 9 1.242 1.386 0.079 o
4 16 10 4.347 4.508 0.152 o
4 16 11 0.974 1.025 0.080 o
4 16 12 1.025 1.089 0.081 o
4 16 13 2.395 2.449 0.133 o
4 16 14 6.404 6.314 0.215 o
4 16 15 4.084 4.022 0.162 o
4 16 16 14.468 14.710 0.478 o
4 17 0 0.463 0.448 0.080 o
4 17 1 1.914 2.090 0.097 o
4 17 2 87.580 86.839 2.129 o
4 17 3 68.786 67.100 1.632 o
4 17 4 16.384 16.078 0.389 o
4 17 5 16.182 16.375 0.402 o
4 17 6 53.217 52.890 1.267 o
4 17 9 9.832 10.049 0.274 o
4 17 10 2.226 2.215 0.106 o
4 17 11 3.976 4.076 0.158 o
4 17 12 0.783 0.714 0.073 o
4 17 13 16.208 16.492 0.447 o
4 17 14 27.850 28.833 0.894 o
4 17 15 2.680 2.912 0.141 o
4 18 0 34.171 33.751 0.813 o
4 18 2 14.841 14.913 0.426 o
4 18 3 0.702 0.864 0.067 o
4 18 4 11.967 12.252 0.308 o
4 18 5 14.227 14.477 0.389 o
4 18 6 34.547 34.132 0.833 o
4 18 8 24.344 23.825 0.590 o
4 18 9 17.221 17.352 0.473 o
4 18 10 15.148 15.048 0.417 o
4 18 11 24.342 24.287 0.645 o
4 18 12 6.886 6.749 0.203 o
4 18 13 8.854 8.617 0.256 o
4 18 14 3.987 4.033 0.165 o
4 18 15 12.613 12.862 0.440 o
4 19 0 4.426 4.409 0.148 o
4 19 3 10.715 10.727 0.284 o
4 19 4 13.703 13.752 0.375 o
4 19 5 17.409 17.433 0.452 o
4 19 6 25.923 25.484 0.628 o
4 19 7 15.877 15.778 0.420 o
4 19 8 30.325 29.564 0.720 o
4 19 9 3.635 3.638 0.149 o
4 19 11 7.386 7.644 0.274 o
4 19 12 1.542 1.433 0.097 o
4 19 13 5.176 5.469 0.190 o
4 19 14 5.330 5.571 0.218 o
4 20 0 1.142 1.139 0.075 o
4 20 1 4.504 4.524 0.162 o
4 20 2 5.323 5.412 0.181 o
4 20 3 0.890 0.850 0.071 o
4 20 4 0.191 0.239 0.063 o
4 20 5 32.107 32.387 0.789 o
4 20 6 5.337 5.427 0.176 o
4 20 7 25.485 25.610 0.676 o
4 20 8 11.304 11.240 0.301 o
4 20 9 6.310 6.423 0.216 o
4 20 10 0.465 0.401 0.070 o
4 20 11 0.494 0.443 0.070 o
4 20 12 21.633 22.232 0.586 o
4 20 13 10.573 10.625 0.319 o
4 21 0 0.289 0.202 0.064 o
4 21 1 26.614 26.509 0.706 o
4 21 2 15.571 15.429 0.415 o
4 21 3 0.338 0.349 0.067 o
4 21 4 5.037 5.113 0.167 o
4 21 5 35.072 35.061 0.869 o
4 21 7 16.498 16.662 0.450 o
4 21 8 8.557 8.644 0.246 o
4 21 11 16.880 16.997 0.464 o
4 21 12 7.637 7.833 0.217 o
4 21 13 1.496 1.587 0.097 o
4 22 1 10.682 10.796 0.289 o
4 22 2 3.486 3.478 0.141 o
4 22 3 10.110 10.299 0.280 o
4 22 5 0.881 0.938 0.078 o
4 22 6 16.260 16.542 0.496 o
4 22 7 1.140 1.197 0.090 o
4 22 8 11.506 11.327 0.308 o
4 22 9 0.417 0.359 0.078 o
4 22 10 4.129 4.440 0.159 o
4 22 11 6.474 6.589 0.193 o
4 22 12 6.395 6.758 0.238 o
4 22 13 0.483 0.473 0.088 o
4 23 0 3.257 3.272 0.137 o
4 23 1 12.101 12.157 0.357 o
4 23 2 0.323 0.334 0.072 o
4 23 3 2.578 2.588 0.115 o
4 23 4 5.205 5.250 0.188 o
4 23 5 0.301 0.317 0.069 o
4 23 7 3.922 3.906 0.158 o
4 23 9 0.454 0.427 0.079 o
4 23 10 17.292 17.602 0.536 o
4 23 13 3.140 2.996 0.213 o
4 24 0 12.297 11.918 0.407 o
4 24 1 1.491 1.490 0.093 o
4 24 2 22.231 21.950 0.598 o
4 24 3 3.007 3.197 0.130 o
4 24 4 0.512 0.565 0.077 o
4 24 6 0.716 0.704 0.081 o
4 24 7 7.867 7.702 0.238 o
4 24 8 8.572 8.848 0.272 o
4 24 9 4.072 3.915 0.154 o
4 24 10 2.888 2.861 0.132 o
4 24 11 3.846 3.911 0.153 o
4 24 12 0.306 0.298 0.085 o
4 25 0 1.200 1.301 0.112 o
4 25 1 4.559 4.644 0.179 o
4 25 2 17.495 17.708 0.497 o
4 25 3 1.630 1.678 0.095 o
4 25 4 1.905 2.017 0.102 o
4 25 5 4.712 4.830 0.196 o
4 25 8 17.159 16.855 0.593 o
4 25 9 0.552 0.475 0.079 o
4 25 11 0.502 0.564 0.083 o
4 26 0 9.157 9.118 0.313 o
4 26 1 5.965 6.359 0.227 o
4 26 2 7.756 7.903 0.249 o
4 26 4 14.084 14.302 0.468 o
4 26 5 2.467 2.460 0.121 o
4 26 6 1.362 1.390 0.097 o
4 26 7 19.154 19.345 0.531 o
4 26 8 3.458 3.574 0.147 o
4 26 10 6.863 6.990 0.240 o
4 26 11 10.885 10.968 0.535 o
4 27 0 8.025 8.367 0.296 o
4 27 2 10.071 10.307 0.363 o
4 27 3 1.158 1.141 0.089 o
4 27 4 4.741 4.710 0.163 o
4 27 6 16.276 16.616 0.453 o
4 27 7 2.292 2.343 0.117 o
4 27 9 7.289 7.596 0.290 o
4 28 0 0.619 0.758 0.087 o
4 28 1 0.893 0.988 0.091 o
4 28 2 0.316 0.349 0.082 o
4 28 3 14.574 14.881 0.408 o
4 28 4 3.874 3.971 0.158 o
4 28 5 2.841 2.892 0.154 o
4 28 6 8.471 8.731 0.247 o
4 28 7 3.569 3.686 0.161 o
4 28 8 1.666 1.639 0.111 o
4 28 9 4.552 4.558 0.179 o
4 29 0 0.455 0.491 0.089 o
4 29 1 0.288 0.400 0.089 o
4 29 2 3.378 3.269 0.191 o
4 29 3 5.490 5.794 0.309 o
4 29 5 2.966 3.031 0.158 o
4 29 7 8.577 8.674 0.344 o
4 29 8 1.083 1.040 0.102 o
4 30 0 8.663 9.150 0.385 o
4 30 1 16.209 16.922 0.660 o
4 30 3 0.545 0.350 0.101 o
4 30 4 12.481 13.274 0.647 o
4 30 5 4.037 4.055 0.183 o
4 30 7 5.431 5.772 0.409 o
4 31 0 3.555 3.494 0.184 o
4 31 1 2.157 2.398 0.137 o
4 31 2 1.879 1.872 0.138 o
4 31 4 7.454 7.464 0.466 o
4 31 5 0.367 0.515 0.136 o
4 31 6 0.636 0.567 0.150 o
4 32 0 0.901 0.958 0.107 o
4 32 1 1.229 1.313 0.128 o
4 32 2 1.948 1.982 0.160 o
4 32 3 9.010 8.801 0.456 o
4 32 4 3.019 3.077 0.448 o
4 33 0 1.405 1.288 0.298 o
5 0 2 80.915 81.290 2.697 o
5 0 4 72.178 71.349 2.347 o
5 0 6 25.602 25.093 0.658 o
5 0 10 9.480 9.570 0.291 o
5 0 12 8.572 8.716 0.279 o
5 0 14 8.885 8.794 0.335 o
5 0 16 4.605 4.705 0.185 o
5 1 0 95.539 95.547 4.661 o
5 1 1 12.274 12.587 0.657 o
5 1 2 23.289 23.400 0.811 o
5 1 4 49.277 48.378 2.158 o
5 1 5 26.740 26.462 0.887 o
5 1 6 18.407 18.007 0.440 o
5 1 7 14.069 13.983 0.350 o
5 1 8 12.948 12.953 0.329 o
5 1 9 5.893 5.846 0.176 o
5 1 10 39.001 38.232 0.897 o
5 1 11 20.304 19.888 0.484 o
5 1 12 5.373 5.558 0.176 o
5 1 15 20.671 20.626 0.528 o
5 1 16 10.377 10.499 0.270 o
5 2 0 10.953 10.807 0.510 o
5 2 1 35.335 36.176 1.120 o
5 2 2 32.129 32.672 1.775 o
5 2 3 5.141 5.239 0.390 o
5 2 4 9.291 9.361 0.463 o
5 2 5 44.830 44.583 1.229 o
5 2 6 9.540 9.347 0.281 o
5 2 7 0.632 0.575 0.069 o
5 2 8 7.463 7.381 0.211 o
5 2 9 9.074 8.881 0.244 o
5 2 10 0.730 0.815 0.073 o
5 2 11 12.999 12.855 0.327 o
5 2 12 1.083 1.249 0.084 o
5 2 13 31.449 31.021 0.736 o
5 2 14 10.271 10.378 0.274 o
5 2 15 3.355 3.287 0.128 o
5 2 16 11.315 11.669 0.295 o
5 3 0 2.520 2.436 0.273 o
5 3 1 141.353 138.438 3.905 o
5 3 2 26.935 25.982 0.890 o
5 3 3 35.137 35.141 1.055 o
5 3 5 12.167 11.670 0.789 o
5 3 6 56.050 54.561 1.258 o
5 3 7 21.312 21.289 0.531 o
5 3 8 14.182 14.034 0.389 o
5 3 9 4.235 4.362 0.148 o
5 3 10 5.922 6.137 0.189 o
5 3 11 2.327 2.487 0.108 o
5 3 12 25.013 25.518 0.607 o
5 3 14 7.057 7.108 0.205 o
5 3 15 0.722 0.617 0.069 o
5 3 16 4.935 5.218 0.177 o
5 4 0 2.618 2.529 0.272 o
5 4 1 40.802 40.489 1.238 o
5 4 2 25.515 25.632 0.834 o
5 4 3 40.155 38.658 1.538 o
5 4 4 0.609 0.608 0.164 o
5 4 5 3.443 3.451 0.224 o
5 4 6 14.172 14.235 0.365 o
5 4 8 4.063 4.144 0.145 o
5 4 9 23.087 22.703 0.545 o
5 4 10 10.373 10.468 0.276 o
5 4 11 5.674 5.720 0.185 o
5 4 12 1.872 1.854 0.095 o
5 4 13 42.612 42.165 0.988 o
5 4 14 20.855 21.116 0.514 o
5 4 15 0.433 0.406 0.062 o
5 4 16 8.718 8.939 0.235 o
5 5 0 32.059 31.379 1.018 o
5 5 1 11.995 12.311 0.538 o
5 5 2 66.614 64.876 1.689 o
5 5 5 6.564 6.915 0.245 o
5 5 6 66.074 65.084 1.512 o
5 5 7 24.801 24.644 0.587 o
5 5 8 31.291 30.754 0.796 o
5 5 9 28.447 28.079 0.670 o
5 5 10 1.076 1.027 0.078 o
5 5 11 0.368 0.353 0.067 o
5 5 12 3.446 3.390 0.131 o
5 5 13 2.136 2.135 0.107 o
5 5 14 0.567 0.477 0.066 o
5 5 15 5.817 6.132 0.177 o
5 6 0 1.219 1.167 0.228 o
5 6 2 5.793 5.951 0.324 o
5 6 3 44.656 43.423 2.276 o
5 6 4 23.131 23.635 0.921 o
5 6 5 61.216 60.479 1.559 o
5 6 6 21.793 21.408 0.524 o
5 6 7 0.324 0.269 0.067 o
5 6 8 87.990 85.902 2.005 o
5 6 9 12.123 12.231 0.319 o
5 6 10 0.365 0.426 0.070 o
5 6 11 6.628 6.836 0.200 o
5 6 12 3.197 3.147 0.131 o
5 6 13 7.596 7.518 0.210 o
5 6 15 27.108 28.012 0.696 o
5 6 16 1.259 1.157 0.071 o
5 7 0 10.351 10.082 0.481 o
5 7 1 3.828 3.945 0.295 o
5 7 3 8.837 8.872 0.397 o
5 7 5 0.368 0.470 0.068 o
5 7 6 41.469 40.840 0.976 o
5 7 7 58.574 57.696 1.340 o
5 7 8 18.590 18.099 0.469 o
5 7 9 47.808 46.221 1.080 o
5 7 10 22.470 22.221 0.536 o
5 7 11 1.125 1.213 0.084 o
5 7 12 7.265 7.102 0.218 o
5 7 13 11.599 11.365 0.296 o
5 7 14 1.172 1.252 0.082 o
5 7 15 7.965 8.011 0.235 o
5 7 16 0.433 0.436 0.058 o
5 8 1 5.806 6.132 0.324 o
5 8 2 12.454 12.138 0.464 o
5 8 4 24.257 24.063 0.594 o
5 8 5 2.710 2.767 0.121 o
5 8 6 2.503 2.623 0.110 o
5 8 7 63.668 62.985 1.494 o
5 8 8 9.025 8.739 0.243 o
5 8 9 0.651 0.603 0.070 o
5 8 10 36.890 36.082 0.850 o
5 8 11 17.540 17.237 0.426 o
5 8 12 0.254 0.267 0.068 o
5 8 13 4.504 4.441 0.156 o
5 8 14 1.199 1.190 0.080 o
5 8 15 8.236 8.231 0.227 o
5 8 16 3.805 4.040 0.158 o
5 9 1 0.818 0.900 0.177 o
5 9 2 3.083 2.810 0.255 o
5 9 4 61.019 59.744 1.498 o
5 9 5 20.881 20.994 0.544 o
5 9 6 31.902 30.699 0.736 o
5 9 7 4.706 4.750 0.153 o
5 9 8 13.055 12.718 0.327 o
5 9 9 1.052 1.088 0.079 o
5 9 10 0.430 0.472 0.068 o
5 9 11 14.375 14.006 0.354 o
5 9 13 0.338 0.328 0.067 o
5 9 14 18.706 18.868 0.461 o
5 9 15 4.315 4.468 0.146 o
5 9 16 1.612 1.510 0.134 o
5 10 0 27.058 27.249 0.769 o
5 10 2 0.999 1.004 0.131 o
5 10 3 30.457 29.812 0.736 o
5 10 4 9.679 9.598 0.270 o
5 10 5 17.056 17.124 0.465 o
5 10 6 20.348 20.150 0.516 o
5 10 7 3.882 3.823 0.135 o
5 10 8 8.647 8.992 0.241 o
5 10 9 7.772 7.696 0.217 o
5 10 10 8.178 8.061 0.225 o
5 10 11 1.955 1.873 0.109 o
5 10 12 3.768 3.804 0.141 o
5 10 13 3.528 3.290 0.130 o
5 10 15 0.811 0.794 0.073 o
5 11 0 25.130 24.609 1.044 o
5 11 1 50.411 49.684 1.205 o
5 11 2 0.297 0.269 0.077 o
5 11 3 4.209 4.208 0.149 o
5 11 4 0.362 0.405 0.067 o
5 11 6 44.881 44.380 1.107 o
5 11 7 2.338 2.507 0.114 o
5 11 8 0.608 0.565 0.067 o
5 11 9 2.101 2.128 0.098 o
5 11 11 19.005 18.516 0.454 o
5 11 12 11.792 12.116 0.330 o
5 11 13 2.418 2.320 0.108 o
5 11 14 0.797 0.718 0.070 o
5 11 15 3.981 4.088 0.154 o
5 12 0 4.869 4.955 0.171 o
5 12 2 11.720 11.864 0.303 o
5 12 3 8.249 8.185 0.231 o
5 12 4 0.379 0.501 0.067 o
5 12 5 9.720 9.693 0.278 o
5 12 6 1.521 1.584 0.092 o
5 12 7 25.235 24.816 0.605 o
5 12 8 26.709 25.837 0.630 o
5 12 9 0.982 0.989 0.074 o
5 12 11 0.799 0.843 0.086 o
5 12 12 4.423 4.332 0.152 o
5 12 13 15.540 15.444 0.388 o
5 12 14 0.553 0.488 0.070 o
5 12 15 2.591 2.376 0.108 o
5 13 0 44.196 43.104 1.077 o
5 13 1 14.395 14.041 0.381 o
5 13 2 66.503 65.700 1.643 o
5 13 3 0.345 0.357 0.066 o
5 13 4 56.676 55.996 1.383 o
5 13 5 7.790 7.684 0.218 o
5 13 6 15.744 15.808 0.428 o
5 13 7 13.403 13.517 0.356 o
5 13 8 0.408 0.365 0.065 o
5 13 9 24.199 23.679 0.567 o
5 13 10 4.117 4.011 0.144 o
5 13 11 0.395 0.387 0.070 o
5 13 12 10.568 10.485 0.294 o
5 13 14 0.577 0.585 0.070 o
5 14 2 56.079 56.496 1.443 o
5 14 3 21.239 20.857 0.508 o
5 14 4 0.360 0.440 0.068 o
5 14 5 1.566 1.642 0.099 o
5 14 6 6.311 6.160 0.193 o
5 14 7 17.929 17.776 0.539 o
5 14 8 2.606 2.606 0.128 o
5 14 9 4.840 4.947 0.165 o
5 14 10 10.180 10.156 0.284 o
5 14 11 13.471 13.283 0.349 o
5 14 12 9.055 9.137 0.247 o
5 14 13 7.451 7.227 0.229 o
5 14 14 0.255 0.203 0.066 o
5 15 0 1.927 2.121 0.100 o
5 15 1 13.891 13.531 0.337 o
5 15 2 2.824 2.727 0.118 o
5 15 3 40.045 39.834 0.989 o
5 15 4 22.159 22.504 0.587 o
5 15 6 1.181 1.114 0.082 o
5 15 8 17.203 16.861 0.419 o
5 15 9 2.871 3.024 0.126 o
5 15 10 6.937 6.940 0.247 o
5 15 11 2.474 2.496 0.116 o
5 15 12 4.863 5.092 0.163 o
5 15 13 8.264 8.306 0.230 o
5 15 14 8.354 8.597 0.301 o
5 16 1 0.232 0.224 0.061 o
5 16 3 54.014 53.923 1.341 o
5 16 4 35.490 35.317 0.871 o
5 16 5 0.250 0.312 0.069 o
5 16 6 0.701 0.767 0.075 o
5 16 7 0.365 0.300 0.071 o
5 16 8 12.231 12.081 0.309 o
5 16 9 3.957 4.043 0.149 o
5 16 10 11.490 11.355 0.300 o
5 16 11 0.705 0.665 0.070 o
5 16 12 4.074 4.016 0.159 o
5 16 13 6.599 6.465 0.196 o
5 16 14 20.724 21.384 0.680 o
5 17 0 6.101 6.284 0.189 o
5 17 1 38.933 37.639 0.977 o
5 17 2 0.678 0.812 0.071 o
5 17 3 14.296 13.898 0.377 o
5 17 4 2.789 3.261 0.137 o
5 17 6 4.318 4.222 0.179 o
5 17 7 5.682 5.705 0.182 o
5 17 8 3.416 3.532 0.137 o
5 17 9 2.600 2.670 0.117 o
5 17 10 2.944 2.961 0.128 o
5 17 11 13.726 13.957 0.366 o
5 17 12 24.089 24.273 0.683 o
5 17 13 3.272 3.362 0.135 o
5 18 0 11.254 11.163 0.340 o
5 18 1 0.744 0.949 0.075 o
5 18 3 1.620 1.620 0.106 o
5 18 4 51.253 51.350 1.279 o
5 18 5 0.550 0.660 0.073 o
5 18 6 7.424 7.357 0.237 o
5 18 7 4.093 4.193 0.154 o
5 18 8 17.073 17.094 0.432 o
5 18 9 7.973 7.892 0.238 o
5 18 11 9.447 9.473 0.287 o
5 18 12 0.614 0.641 0.085 o
5 18 13 5.943 6.334 0.206 o
5 19 0 6.498 6.348 0.204 o
5 19 1 43.476 43.024 1.070 o
5 19 2 11.774 11.739 0.317 o
5 19 3 10.368 10.487 0.293 o
5 19 4 29.040 28.982 0.739 o
5 19 5 17.873 18.143 0.484 o
5 19 6 21.730 21.476 0.558 o
5 19 7 2.318 2.385 0.111 o
5 19 8 1.001 0.998 0.083 o
5 19 9 1.451 1.417 0.084 o
5 19 10 6.497 6.390 0.206 o
5 19 11 1.596 1.643 0.123 o
5 19 12 3.888 4.132 0.151 o
5 19 13 6.652 6.762 0.284 o
5 20 0 6.131 6.229 0.187 o
5 20 1 0.291 0.272 0.067 o
5 20 2 1.856 1.950 0.095 o
5 20 3 4.418 4.727 0.162 o
5 20 4 0.862 0.885 0.077 o
5 20 5 15.649 16.105 0.448 o
5 20 6 0.493 0.519 0.075 o
5 20 7 5.787 5.697 0.182 o
5 20 9 1.902 1.837 0.095 o
5 20 10 6.522 6.538 0.197 o
5 20 11 12.271 12.379 0.342 o
5 20 12 1.397 1.288 0.086 o
5 21 0 10.906 10.989 0.304 o
5 21 1 5.555 5.634 0.207 o
5 21 2 7.469 7.461 0.213 o
5 21 3 3.018 3.113 0.131 o
5 21 4 0.554 0.561 0.074 o
5 21 5 17.874 17.942 0.479 o
5 21 6 5.466 5.393 0.179 o
5 21 7 2.677 2.719 0.127 o
5 21 8 1.267 1.333 0.091 o
5 21 9 14.790 14.826 0.381 o
5 21 10 2.866 2.845 0.126 o
5 21 11 2.197 2.529 0.136 o
5 21 12 1.618 1.537 0.161 o
5 22 0 2.031 2.102 0.102 o
5 22 1 14.621 14.626 0.402 o
5 22 2 0.643 0.675 0.077 o
5 22 4 11.626 11.757 0.355 o
5 22 5 6.533 6.691 0.204 o
5 22 6 14.265 14.922 0.431 o
5 22 7 4.056 4.100 0.154 o
5 22 8 1.040 1.111 0.085 o
5 22 9 1.105 1.115 0.089 o
5 22 10 2.260 2.261 0.107 o
5 22 11 2.186 2.181 0.109 o
5 23 1 1.905 2.094 0.107 o
5 23 2 2.713 2.862 0.134 o
5 23 3 2.793 2.957 0.146 o
5 23 4 0.606 0.578 0.083 o
5 23 5 4.428 4.541 0.162 o
5 23 6 1.575 1.565 0.098 o
5 23 7 0.333 0.256 0.073 o
5 23 8 7.559 7.799 0.223 o
5 23 10 3.366 3.507 0.138 o
5 24 0 12.563 12.599 0.374 o
5 24 1 1.074 0.996 0.090 o
5 24 3 2.957 2.969 0.137 o
5 24 4 2.964 2.968 0.139 o
5 24 5 3.846 3.924 0.154 o
5 24 6 1.996 2.225 0.114 o
5 24 8 3.516 3.688 0.154 o
5 24 10 0.793 0.724 0.093 o
5 25 0 1.471 1.553 0.099 o
5 25 1 3.528 3.599 0.162 o
5 25 2 0.719 0.744 0.084 o
5 25 3 0.841 0.872 0.086 o
5 25 4 0.903 0.840 0.084 o
5 25 5 3.471 3.833 0.166 o
5 25 6 7.374 7.519 0.233 o
5 25 8 1.517 1.624 0.101 o
5 25 9 4.920 4.919 0.184 o
5 26 0 0.959 0.940 0.092 o
5 26 1 1.235 1.101 0.089 o
5 26 2 18.482 18.776 0.551 o
5 26 3 3.908 3.829 0.182 o
5 26 4 6.034 6.138 0.195 o
5 26 5 8.887 9.085 0.316 o
5 26 6 1.402 1.424 0.094 o
5 26 8 10.815 11.205 0.370 o
5 27 1 0.934 1.003 0.091 o
5 27 2 1.822 1.735 0.112 o
5 27 4 5.512 5.643 0.181 o
5 27 5 4.227 4.184 0.157 o
5 27 6 1.612 1.733 0.103 o
5 27 7 6.067 6.380 0.218 o
5 28 1 8.273 8.498 0.359 o
5 28 2 0.871 0.840 0.086 o
5 28 3 0.958 0.923 0.082 o
5 28 4 0.585 0.592 0.079 o
5 28 5 1.462 1.548 0.093 o
5 28 6 7.094 7.425 0.356 o
5 29 1 5.888 6.326 0.231 o
5 29 2 1.165 1.161 0.089 o
5 29 3 2.755 2.859 0.156 o
5 29 4 0.360 0.332 0.073 o
5 29 5 4.382 4.162 0.258 o
5 30 1 0.766 0.737 0.080 o
5 30 2 1.841 1.910 0.125 o
5 30 3 1.061 1.061 0.133 o
6 0 4 40.832 38.924 1.124 o
6 0 6 0.479 0.635 0.110 o
6 0 8 25.497 25.123 0.655 o
6 0 10 15.167 15.014 0.430 o
6 0 12 33.767 33.981 1.007 o
6 1 3 20.117 20.116 0.948 o
6 1 4 2.381 2.346 0.164 o
6 1 5 4.318 4.413 0.180 o
6 1 6 27.233 26.527 0.643 o
6 1 7 2.973 2.918 0.132 o
6 1 8 2.625 2.543 0.124 o
6 1 9 13.906 13.541 0.367 o
6 1 10 1.209 1.237 0.096 o
6 1 11 1.090 1.043 0.085 o
6 1 13 5.411 5.121 0.166 o
6 1 14 2.891 2.819 0.114 o
6 2 3 30.102 30.264 0.983 o
6 2 4 2.187 2.125 0.167 o
6 2 5 0.828 0.848 0.096 o
6 2 6 9.684 9.507 0.277 o
6 2 7 7.917 8.017 0.241 o
6 2 8 12.597 12.683 0.333 o
6 2 9 4.529 4.667 0.170 o
6 2 10 3.497 3.448 0.142 o
6 2 11 4.267 4.427 0.158 o
6 2 12 28.553 28.111 0.672 o
6 2 13 4.915 4.864 0.160 o
6 2 14 2.525 2.437 0.112 o
6 3 0 18.443 21.524 1.181 o
6 3 1 22.563 22.943 0.639 o
6 3 2 0.964 0.846 0.154 o
6 3 3 16.704 16.977 0.522 o
6 3 4 32.358 31.086 0.799 o
6 3 6 16.626 16.524 0.429 o
6 3 7 0.355 0.413 0.080 o
6 3 8 4.576 4.632 0.173 o
6 3 9 0.427 0.434 0.078 o
6 3 10 19.547 19.918 0.489 o
6 3 11 1.091 1.109 0.086 o
6 3 12 0.488 0.488 0.074 o
6 3 13 5.865 5.803 0.178 o
6 3 14 10.036 10.325 0.280 o
6 4 0 0.889 1.019 0.223 o
6 4 1 3.332 3.163 0.305 o
6 4 2 1.938 2.141 0.167 o
6 4 3 0.544 0.488 0.158 o
6 4 6 1.136 1.033 0.093 o
6 4 7 25.133 24.840 0.603 o
6 4 8 3.154 3.327 0.136 o
6 4 9 0.259 0.340 0.077 o
6 4 10 0.589 0.571 0.081 o
6 4 11 7.312 7.164 0.217 o
6 4 12 6.208 6.234 0.190 o
6 4 14 17.224 17.749 0.435 o
6 5 0 19.328 18.360 0.606 o
6 5 1 4.618 4.944 0.250 o
6 5 2 1.346 1.370 0.164 o
6 5 3 0.568 0.501 0.146 o
6 5 4 19.216 18.793 0.690 o
6 5 5 7.762 7.913 0.249 o
6 5 6 16.524 15.918 0.410 o
6 5 7 33.696 32.862 0.807 o
6 5 9 8.536 8.809 0.247 o
6 5 11 5.961 6.038 0.189 o
6 5 13 7.579 7.405 0.247 o
6 6 0 6.786 6.925 0.273 o
6 6 1 14.003 13.884 0.390 o
6 6 2 29.728 28.979 0.726 o
6 6 3 31.356 31.182 0.807 o
6 6 4 14.722 14.234 0.479 o
6 6 5 3.107 3.224 0.161 o
6 6 6 44.733 44.465 1.126 o
6 6 7 5.579 5.572 0.184 o
6 6 8 1.565 1.500 0.093 o
6 6 9 27.425 26.952 0.646 o
6 6 10 0.588 0.516 0.076 o
6 6 11 0.576 0.449 0.078 o
6 6 12 1.300 1.293 0.087 o
6 6 13 28.171 27.928 0.664 o
6 7 0 2.781 2.726 0.163 o
6 7 1 15.109 14.844 0.419 o
6 7 2 1.329 1.488 0.127 o
6 7 3 9.452 8.880 0.290 o
6 7 4 32.629 32.170 0.826 o
6 7 5 67.156 65.157 1.614 o
6 7 6 5.563 5.477 0.192 o
6 7 7 34.413 33.642 0.804 o
6 7 8 8.380 8.648 0.244 o
6 7 11 5.034 4.950 0.166 o
6 7 13 5.299 4.990 0.170 o
6 7 14 0.522 0.469 0.069 o
6 8 0 6.401 6.502 0.228 o
6 8 1 0.599 0.680 0.108 o
6 8 2 3.355 3.366 0.184 o
6 8 3 5.251 5.383 0.311 o
6 8 4 18.869 18.764 0.469 o
6 8 5 39.389 39.455 1.071 o
6 8 6 10.270 10.031 0.326 o
6 8 7 13.775 13.611 0.362 o
6 8 8 15.809 15.499 0.391 o
6 8 9 4.835 5.004 0.171 o
6 8 10 0.391 0.364 0.074 o
6 8 11 0.306 0.340 0.072 o
6 8 12 0.343 0.217 0.070 o
6 8 13 5.191 5.022 0.161 o
6 9 0 7.999 8.613 0.272 o
6 9 1 2.618 2.963 0.210 o
6 9 2 8.160 7.773 0.269 o
6 9 3 10.555 10.253 0.297 o
6 9 4 6.173 6.392 0.207 o
6 9 5 2.450 2.651 0.157 o
6 9 6 0.674 0.596 0.087 o
6 9 8 4.378 4.195 0.159 o
6 9 9 3.923 4.866 0.168 o
6 9 10 1.723 1.685 0.097 o
6 9 11 0.452 0.518 0.074 o
6 9 12 11.159 11.743 0.304 o
6 10 0 0.643 0.737 0.093 o
6 10 1 26.057 25.603 0.639 o
6 10 2 2.635 2.650 0.159 o
6 10 3 0.609 0.611 0.078 o
6 10 4 2.990 3.070 0.143 o
6 10 5 2.928 2.784 0.153 o
6 10 6 39.514 38.929 0.928 o
6 10 8 5.571 5.593 0.198 o
6 10 10 9.724 9.411 0.268 o
6 10 11 2.245 2.010 0.124 o
6 10 12 6.992 6.967 0.207 o
6 10 13 0.525 0.487 0.067 o
6 11 0 1.885 1.795 0.110 o
6 11 1 15.643 15.833 0.444 o
6 11 2 2.880 2.756 0.152 o
6 11 4 13.754 13.668 0.354 o
6 11 5 1.424 1.564 0.105 o
6 11 6 2.662 2.841 0.127 o
6 11 7 0.383 0.358 0.076 o
6 11 8 0.667 0.711 0.085 o
6 11 9 5.397 5.487 0.189 o
6 11 10 11.145 11.136 0.291 o
6 11 11 0.404 0.433 0.072 o
6 11 13 0.675 0.610 0.069 o
6 12 1 22.333 22.098 0.686 o
6 12 2 0.163 0.282 0.087 o
6 12 3 2.043 3.594 0.154 o
6 12 4 1.318 1.310 0.095 o
6 12 5 22.409 22.220 0.542 o
6 12 6 16.720 16.745 0.421 o
6 12 8 0.299 0.257 0.079 o
6 12 10 0.876 0.794 0.082 o
6 12 11 5.139 5.022 0.160 o
6 12 12 0.855 0.835 0.071 o
6 13 0 9.940 9.901 0.294 o
6 13 1 1.709 1.927 0.110 o
6 13 2 40.433 39.701 1.075 o
6 13 4 1.367 1.277 0.116 o
6 13 5 11.328 11.050 0.322 o
6 13 6 1.009 0.965 0.086 o
6 13 7 6.783 6.877 0.236 o
6 13 8 2.979 2.988 0.137 o
6 13 9 0.580 0.453 0.079 o
6 13 10 15.081 14.640 0.371 o
6 13 11 2.443 2.465 0.111 o
6 13 12 1.047 0.939 0.072 o
6 14 0 12.446 12.168 0.361 o
6 14 1 1.612 1.659 0.103 o
6 14 2 3.882 4.099 0.189 o
6 14 3 1.116 1.084 0.086 o
6 14 4 0.991 1.095 0.097 o
6 14 5 12.145 12.299 0.366 o
6 14 7 0.605 0.600 0.080 o
6 14 8 13.607 13.377 0.368 o
6 14 10 1.388 1.307 0.087 o
6 14 11 5.909 5.809 0.177 o
6 15 0 8.208 8.338 0.285 o
6 15 1 27.555 27.168 0.787 o
6 15 2 15.880 16.492 0.442 o
6 15 3 11.088 10.763 0.290 o
6 15 4 2.530 2.691 0.140 o
6 15 5 1.604 1.513 0.104 o
6 15 6 12.233 12.223 0.344 o
6 15 7 4.931 4.925 0.183 o
6 15 8 12.057 11.793 0.311 o
6 15 9 0.284 0.370 0.079 o
6 15 10 15.114 15.227 0.390 o
6 15 11 12.959 12.719 0.354 o
6 15 12 3.957 4.398 0.175 o
6 16 0 0.242 0.232 0.076 o
6 16 1 20.049 19.986 0.600 o
6 16 2 24.498 24.209 0.672 o
6 16 3 1.119 1.282 0.094 o
6 16 4 1.400 1.317 0.094 o
6 16 5 0.412 0.317 0.078 o
6 16 6 0.726 0.760 0.083 o
6 16 7 4.607 4.416 0.174 o
6 16 8 15.553 15.393 0.431 o
6 16 10 1.338 1.356 0.097 o
6 16 11 3.708 3.587 0.142 o
6 17 0 8.259 7.956 0.253 o
6 17 1 4.671 4.654 0.173 o
6 17 4 3.705 3.756 0.153 o
6 17 5 0.966 1.039 0.089 o
6 17 6 0.698 0.702 0.082 o
6 17 7 2.561 2.545 0.123 o
6 17 8 2.127 2.122 0.136 o
6 17 9 6.902 6.603 0.228 o
6 17 10 3.834 3.981 0.143 o
6 17 11 3.770 3.802 0.146 o
6 18 0 0.040 0.570 0.084 o
6 18 1 1.071 1.147 0.094 o
6 18 2 23.281 23.640 0.617 o
6 18 3 5.754 5.926 0.233 o
6 18 5 0.880 0.830 0.085 o
6 18 6 1.176 1.334 0.089 o
6 18 9 11.337 11.326 0.302 o
6 19 0 1.152 1.129 0.094 o
6 19 1 4.076 4.109 0.170 o
6 19 2 9.652 9.986 0.310 o
6 19 3 6.990 7.466 0.223 o
6 19 4 15.387 15.110 0.451 o
6 19 5 0.649 0.707 0.082 o
6 19 6 2.246 2.170 0.105 o
6 19 7 0.391 0.406 0.071 o
6 19 8 6.802 6.441 0.194 o
6 19 9 1.738 1.554 0.089 o
6 19 10 0.459 0.446 0.094 o
6 20 0 8.613 8.358 0.248 o
6 20 1 1.093 1.031 0.088 o
6 20 2 0.182 0.232 0.076 o
6 20 3 22.777 22.937 0.644 o
6 20 4 1.952 1.923 0.102 o
6 20 5 11.556 11.381 0.334 o
6 20 6 1.881 1.904 0.103 o
6 20 7 4.825 4.897 0.169 o
6 20 8 1.976 1.973 0.107 o
6 20 9 3.042 3.031 0.125 o
6 21 0 3.947 4.301 0.174 o
6 21 1 0.529 0.403 0.078 o
6 21 3 17.958 17.879 0.516 o
6 21 4 3.151 3.126 0.136 o
6 21 5 6.627 6.528 0.222 o
6 21 6 2.768 2.880 0.130 o
6 21 7 3.181 3.209 0.128 o
6 21 8 0.708 0.672 0.069 o
6 21 9 0.251 0.300 0.089 o
6 22 0 0.851 0.838 0.083 o
6 22 1 0.798 0.792 0.082 o
6 22 2 6.343 6.437 0.224 o
6 22 3 0.411 0.476 0.075 o
6 22 4 8.821 8.738 0.266 o
6 22 5 1.716 1.750 0.098 o
6 22 7 0.551 0.482 0.067 o
6 22 8 0.405 0.419 0.072 o
6 23 1 6.332 6.429 0.198 o
6 23 3 1.507 1.451 0.090 o
6 23 4 5.543 5.204 0.168 o
6 23 6 1.520 1.537 0.146 o
6 23 7 0.475 0.460 0.069 o
6 24 0 1.183 1.210 0.092 o
6 24 1 4.788 4.884 0.188 o
6 24 2 2.673 2.538 0.111 o
6 24 5 0.413 0.374 0.075 o
6 24 6 0.590 0.569 0.080 o
6 25 0 0.422 0.410 0.077 o
6 25 3 3.541 3.591 0.185 o
6 25 4 4.556 4.494 0.211 o
6 26 0 8.228 8.401 0.282 o
6 26 1 1.805 1.902 0.105 o
6 26 2 2.872 3.094 0.145 o
6 26 3 1.867 1.927 0.103 o
6 27 0 0.128 0.395 0.077 o
6 27 2 2.785 3.036 0.140 o
7 0 6 29.194 27.362 0.766 o
7 0 8 1.713 1.647 0.344 o
7 0 10 16.259 16.717 0.450 o
7 1 5 2.826 2.526 0.390 o
7 1 7 2.881 2.911 0.180 o
7 1 9 3.330 3.229 0.142 o
7 1 10 0.486 0.528 0.081 o
7 1 11 0.461 0.297 0.090 o
7 2 5 0.990 1.028 0.291 o
7 2 6 19.336 18.495 0.497 o
7 2 7 4.921 4.808 0.245 o
7 2 9 0.461 0.393 0.079 o
7 2 10 14.936 14.995 0.398 o
7 2 11 9.353 9.080 0.288 o
7 3 4 1.546 1.457 0.185 o
7 3 5 1.443 1.554 0.188 o
7 3 6 3.443 3.243 0.276 o
7 3 7 2.967 2.901 0.160 o
7 3 8 6.417 6.214 0.222 o
7 3 9 0.558 0.542 0.081 o
7 3 11 3.917 3.854 0.164 o
7 4 5 4.173 4.225 0.655 o
7 4 6 1.098 1.092 0.143 o
7 4 7 3.346 3.118 0.168 o
7 4 8 6.797 6.720 0.219 o
7 4 10 0.990 0.972 0.088 o
7 4 11 2.845 2.801 0.129 o
7 5 0 3.074 2.912 0.431 o
7 5 2 3.017 3.141 0.383 o
7 5 3 26.105 26.573 0.707 o
7 5 4 5.037 5.049 0.261 o
7 5 5 33.350 31.109 0.877 o
7 5 7 9.670 9.711 0.295 o
7 5 9 1.958 2.012 0.119 o
7 5 10 0.456 0.288 0.076 o
7 5 11 1.373 1.365 0.092 o
7 6 0 10.330 10.077 0.456 o
7 6 1 8.896 9.004 0.382 o
7 6 2 0.977 0.953 0.191 o
7 6 3 4.353 4.770 0.251 o
7 6 4 14.655 14.361 0.443 o
7 6 5 7.784 7.470 0.351 o
7 6 6 10.624 10.135 0.329 o
7 6 7 13.162 13.000 0.353 o
7 6 8 0.407 0.363 0.095 o
7 6 10 0.906 0.992 0.094 o
7 6 11 7.396 7.318 0.213 o
7 7 0 0.975 1.267 0.171 o
7 7 1 3.371 3.422 0.297 o
7 7 2 8.916 9.055 0.334 o
7 7 3 36.663 36.333 1.002 o
7 7 4 0.984 0.878 0.180 o
7 7 5 7.537 7.209 0.439 o
7 7 6 6.289 5.936 0.239 o
7 7 7 0.597 0.722 0.096 o
7 7 8 3.015 3.086 0.152 o
7 7 9 1.377 1.241 0.116 o
7 7 10 1.935 1.881 0.105 o
7 7 11 1.422 1.316 0.105 o
7 8 0 3.833 3.751 0.281 o
7 8 1 14.169 14.385 0.490 o
7 8 2 9.676 9.439 0.352 o
7 8 3 20.225 20.200 0.575 o
7 8 4 5.155 4.870 0.291 o
7 8 5 35.863 34.854 1.060 o
7 8 6 1.221 1.225 0.118 o
7 8 7 2.153 2.186 0.131 o
7 8 8 1.395 1.306 0.105 o
7 8 9 4.043 3.929 0.154 o
7 8 11 0.498 0.365 0.087 o
7 9 1 0.916 1.145 0.156 o
7 9 3 0.631 0.683 0.126 o
7 9 4 1.439 1.286 0.163 o
7 9 5 1.856 1.889 0.150 o
7 9 6 2.806 2.602 0.207 o
7 9 8 1.187 1.084 0.092 o
7 9 9 0.386 0.405 0.080 o
7 9 10 3.681 3.715 0.146 o
7 10 0 3.366 3.507 0.235 o
7 10 1 1.422 1.378 0.142 o
7 10 4 36.333 35.369 1.136 o
7 10 5 0.617 0.568 0.120 o
7 10 6 2.034 2.008 0.123 o
7 10 7 0.489 0.370 0.082 o
7 10 8 1.925 2.010 0.120 o
7 10 9 1.502 1.479 0.098 o
7 10 10 3.452 3.419 0.141 o
7 11 0 2.761 2.626 0.185 o
7 11 1 1.809 1.681 0.153 o
7 11 2 0.581 0.512 0.124 o
7 11 3 1.166 0.878 0.136 o
7 11 4 1.377 1.393 0.146 o
7 11 5 1.552 1.493 0.124 o
7 11 8 7.160 7.006 0.252 o
7 11 9 3.227 3.209 0.139 o
7 11 10 0.729 0.680 0.079 o
7 12 0 0.352 0.474 0.112 o
7 12 3 1.667 1.653 0.181 o
7 12 4 4.496 4.490 0.205 o
7 12 5 1.153 1.065 0.099 o
7 12 6 0.581 0.675 0.096 o
7 12 7 0.670 0.680 0.094 o
7 12 8 0.667 0.697 0.091 o
7 12 9 0.308 0.230 0.077 o
7 12 10 1.643 1.414 0.135 o
7 13 0 28.530 27.771 1.100 o
7 13 2 1.969 1.973 0.281 o
7 13 3 2.926 2.818 0.174 o
7 13 5 0.612 0.661 0.090 o
7 13 6 0.290 0.262 0.085 o
7 13 7 5.594 5.525 0.197 o
7 13 8 9.157 9.080 0.306 o
7 13 9 0.380 0.337 0.076 o
7 14 0 11.193 11.507 0.425 o
7 14 1 3.916 3.665 0.193 o
7 14 2 2.084 2.218 0.135 o
7 14 3 1.449 1.404 0.117 o
7 14 4 3.351 3.144 0.165 o
7 14 5 1.696 1.598 0.128 o
7 14 6 7.232 6.914 0.280 o
7 14 7 1.290 1.511 0.109 o
7 14 9 2.622 2.549 0.148 o
7 15 0 3.622 3.745 0.174 o
7 15 1 11.762 11.849 0.530 o
7 15 2 2.992 3.135 0.205 o
7 15 3 1.203 1.216 0.111 o
7 15 4 7.271 7.200 0.257 o
7 15 5 4.398 4.503 0.166 o
7 15 6 3.798 3.803 0.150 o
7 15 8 11.384 11.460 0.309 o
7 16 0 1.775 1.744 0.110 o
7 16 1 1.041 1.037 0.095 o
7 16 3 0.551 0.470 0.096 o
7 16 4 0.897 0.840 0.093 o
7 16 5 1.730 1.560 0.108 o
7 16 6 4.455 4.473 0.160 o
7 17 2 0.565 0.567 0.090 o
7 17 4 0.335 0.315 0.084 o
7 17 5 2.896 2.947 0.135 o
7 17 7 2.053 1.883 0.113 o
7 18 0 1.247 1.459 0.103 o
7 18 1 7.559 7.586 0.289 o
7 18 3 0.763 0.732 0.098 o
7 18 4 0.482 0.262 0.085 o
7 18 5 0.966 0.867 0.084 o
7 18 6 0.626 0.625 0.077 o
7 18 7 9.436 8.941 0.576 o
7 19 0 1.258 1.339 0.100 o
7 19 1 1.704 1.860 0.110 o
7 19 2 9.082 9.261 0.344 o
7 19 3 0.589 0.602 0.088 o
7 19 4 1.468 1.511 0.103 o
7 19 5 1.013 1.107 0.088 o
7 19 6 0.988 0.856 0.080 o
7 20 1 18.658 19.167 0.676 o
7 20 2 1.891 1.849 0.107 o
7 20 3 2.913 3.004 0.145 o
7 20 4 2.789 2.862 0.138 o
7 20 5 1.650 1.665 0.095 o
7 21 0 0.021 0.310 0.080 o
7 21 1 8.440 8.708 0.268 o
7 21 2 1.679 1.604 0.099 o
7 21 3 10.853 10.753 0.300 o
7 21 4 2.158 2.001 0.200 o
7 22 0 1.674 1.662 0.108 o
7 22 1 0.559 0.625 0.082 o
7 22 2 3.951 4.157 0.188 o
7 22 3 0.917 0.786 0.093 o
7 23 1 0.597 0.436 0.082 o
7 23 2 7.277 6.382 1.294 o
8 4 6 7.596 7.256 0.441 o
8 6 4 10.611 10.204 0.518 o
8 6 5 0.628 0.516 0.152 o
8 6 7 0.953 0.861 0.221 o
8 7 0 2.615 2.727 0.430 o
8 7 1 7.115 6.940 0.499 o
8 7 2 4.980 4.676 0.282 o
8 7 4 4.413 4.673 0.422 o
8 7 6 1.084 0.872 0.192 o
8 8 0 1.170 1.185 0.307 o
8 8 1 7.868 7.856 0.346 o
8 8 3 26.980 25.604 1.432 o
8 8 5 0.955 1.021 0.166 o
8 8 6 2.572 2.748 0.251 o
8 9 2 1.647 1.534 0.201 o
8 9 3 6.643 6.701 0.316 o
8 10 1 0.960 0.936 0.266 o
8 10 2 12.271 12.048 0.430 o
8 10 5 0.663 0.565 0.159 o
8 11 1 0.658 0.637 0.143 o
8 12 2 0.446 0.372 0.113 o
8 12 3 4.677 4.442 0.223 o
8 13 0 5.340 5.034 0.553 o
8 14 2 1.618 1.624 0.162 o
8 14 3 2.680 2.591 0.171 o
8 14 4 2.732 2.581 0.184 o
8 15 0 1.293 1.312 0.153 o
8 15 2 1.221 0.996 0.122 o
8 15 3 0.990 1.000 0.133 o
8 16 0 2.311 2.206 0.202 o
