#------------------------------------------------------------------------------
#$Date: 2016-03-24 14:18:17 +0200 (Thu, 24 Mar 2016) $
#$Revision: 179659 $
#$URL: svn://www.crystallography.net/cod/cif/4/51/12/4511295.cif $
#------------------------------------------------------------------------------
#
# This file is available in the Crystallography Open Database (COD),
# http://www.crystallography.net/
#
# All data on this site have been placed in the public domain by the
# contributors.
#
data_4511295
loop_
_publ_author_name
'Jarzembska, Katarzyna N.'
'Hoser, Anna A.'
'Kami\'nski, Rados\/law'
'Madsen, Anders \/O.'
'Durka, Krzysztof'
'Wo\'zniak, Krzysztof'
_publ_section_title
;
 Combined Experimental and Computational Studies of Pyrazinamide and
 Nicotinamide in the Context of Crystal Engineering and Thermodynamics
;
_journal_issue                   7
_journal_name_full               'Crystal Growth &amp; Design'
_journal_page_first              3453
_journal_paper_doi               10.1021/cg500376z
_journal_volume                  14
_journal_year                    2014
_chemical_formula_moiety         'C5 H5 N3 O'
_chemical_formula_sum            'C5 H5 N3 O'
_chemical_formula_weight         123.11
_space_group_IT_number           14
_symmetry_cell_setting           monoclinic
_symmetry_Int_Tables_number      14
_symmetry_space_group_name_Hall  '-P 2ybc'
_symmetry_space_group_name_H-M   'P 1 21/c 1'
_cell_angle_alpha                90.00
_cell_angle_beta                 101.0440(7)
_cell_angle_gamma                90.00
_cell_formula_units_Z            4
_cell_length_a                   14.3396(7)
_cell_length_b                   3.6211(2)
_cell_length_c                   10.6131(5)
_cell_measurement_temperature    90
_cell_volume                     540.88(5)
_diffrn_ambient_temperature      90
_diffrn_measured_fraction_theta_full 0.99
_diffrn_measured_fraction_theta_max 0.99
_diffrn_measurement_device
;
Bruker AXS Kappa APEX II Ultra diffractometer
;
_diffrn_measurement_device_type  'APEX II CCD detector'
_diffrn_measurement_method       \w-scans
_diffrn_radiation_monochromator  'multi-layer optics'
_diffrn_radiation_source         'TXS rotating anode'
_diffrn_radiation_type           'Mo K\a'
_diffrn_radiation_wavelength     0.71073
_diffrn_reflns_av_R_equivalents  0.0341
_diffrn_reflns_av_sigmaI/netI    0.0333
_diffrn_reflns_limit_h_max       34
_diffrn_reflns_limit_h_min       -34
_diffrn_reflns_limit_k_max       8
_diffrn_reflns_limit_k_min       -5
_diffrn_reflns_limit_l_max       25
_diffrn_reflns_limit_l_min       -22
_diffrn_reflns_number            38036
_diffrn_reflns_theta_full        58.02
_diffrn_reflns_theta_max         58.025
_diffrn_reflns_theta_min         2.895
_exptl_absorpt_coefficient_mu    0.112
_exptl_absorpt_correction_T_max  1.050
_exptl_absorpt_correction_T_min  0.937
_exptl_absorpt_correction_type   multi-scan
_exptl_absorpt_process_details
;
 Absorption correction done by SORTAV
 Blessing, R. H.: (1995) Acta Cryst. A51, 33-38
;
_exptl_crystal_colour            colourless
_exptl_crystal_density_diffrn    1.512
_exptl_crystal_description       block
_exptl_crystal_F_000             256
_exptl_crystal_size_max          0.232
_exptl_crystal_size_mid          0.166
_exptl_crystal_size_min          0.087
_refine_diff_density_max         +0.16
_refine_diff_density_min         -0.14
_refine_ls_extinction_method     none
_refine_ls_goodness_of_fit_ref   1.185
_refine_ls_hydrogen_treatment    mixed
_refine_ls_number_parameters     204
_refine_ls_number_reflns         6241
_refine_ls_number_restraints     5
_refine_ls_R_factor_all          0.0212
_refine_ls_R_factor_gt           0.0153
_refine_ls_shift/su_max          0.003
_refine_ls_shift/su_mean         0.000
_refine_ls_structure_factor_coef F
_refine_ls_weighting_details
;
w=1/[\s^2^(Fo)]
;
_refine_ls_weighting_scheme      sigma
_refine_ls_wR_factor_gt          0.0237
_refine_ls_wR_factor_ref         0.0237
_reflns_number_gt                6241
_reflns_number_total             7618
_reflns_threshold_expression     I>3\s(I)
_iucr_refine_instructions_details
;
 Multipole refinement with MOPRO program
;
_cod_data_source_file            cg500376z_si_002.cif
_cod_data_source_block           beta-pyra-90K
_cod_depositor_comments
'Adding full bibliography for 4511295--4511296.cif.'
_cod_original_sg_symbol_H-M      'P 21/c'
_cod_database_code               4511295
loop_
_symmetry_equiv_pos_as_xyz
'x, y, z'
'-x, y+1/2, -z+1/2'
'-x, -y, -z'
'x, -y-1/2, z-1/2'
loop_
_atom_site_type_symbol
_atom_site_label
_atom_site_fract_x
_atom_site_fract_y
_atom_site_fract_z
_atom_site_U_iso_or_equiv
_atom_site_adp_type
_atom_site_occupancy
_atom_site_calc_flag
O O1 0.60100(1) 0.41140(4) 0.13077(2) 0.01389(4) Uani 1 d
N N1 0.584134(1) 0.23433(4) -0.07824(1) 0.01355(4) Uani 1 d
N N2 0.87655(1) 0.02050(4) 0.21781(1) 0.01217(4) Uani 1 d
N N3 0.767141(1) -0.02307(3) -0.03027(1) 0.01048(3) Uani 1 d
C C1 0.632069(1) 0.26420(4) 0.04179(1) 0.01034(3) Uani 1 d
C C2 0.731903(1) 0.11481(3) 0.06744(1) 0.00919(3) Uani 1 d
C C3 0.78608(1) 0.13325(4) 0.19156(1) 0.01129(4) Uani 1 d
C C4 0.91218(1) -0.11376(4) 0.11952(1) 0.01152(4) Uani 1 d
C C5 0.85748(1) -0.13763(4) -0.00387(1) 0.01128(4) Uani 1 d
H H1A 0.6163(3) 0.124(2) -0.1462(4) 0.02832 Uani 1 d
H H1B 0.5187(2) 0.348(2) -0.0995(6) 0.02930 Uani 1 d
H H3 0.7560(4) 0.247(2) 0.2693(4) 0.02943 Uani 1 d
H H4 0.9857(1) -0.202(2) 0.1394(6) 0.02825 Uani 1 d
H H5 0.8863(4) -0.254(2) -0.0822(4) 0.02991 Uani 1 d
loop_
_atom_site_aniso_label
_atom_site_aniso_U_11
_atom_site_aniso_U_22
_atom_site_aniso_U_33
_atom_site_aniso_U_12
_atom_site_aniso_U_13
_atom_site_aniso_U_23
O1 0.01080(4) 0.01859(5) 0.01227(4) 0.00346(4) 0.00216(4) -0.00222(4)
N1 0.00962(4) 0.01875(5) 0.01137(4) 0.00253(3) -0.00031(3) -0.00143(3)
N2 0.00923(4) 0.01757(5) 0.00906(4) 0.00078(3) 0.00013(3) 0.00008(3)
N3 0.00928(4) 0.01354(4) 0.00841(3) 0.00101(3) 0.00114(3) -0.00066(3)
C1 0.00826(4) 0.01203(4) 0.01048(4) 0.00080(3) 0.00119(3) -0.00040(3)
C2 0.00794(4) 0.01074(4) 0.00870(4) 0.00036(2) 0.00109(3) -0.00014(3)
C3 0.00933(4) 0.01570(5) 0.00858(4) 0.00078(3) 0.00108(3) -0.00111(3)
C4 0.00870(4) 0.01466(4) 0.01097(4) 0.00135(3) 0.00129(3) 0.00080(3)
C5 0.00979(4) 0.01414(4) 0.01006(4) 0.00156(3) 0.00229(3) -0.00066(3)
H1A 0.0243 0.0407 0.0198 0.0074 0.0039 -0.0055
H1B 0.0179 0.0405 0.0276 0.0099 -0.0003 -0.0006
H3 0.0259 0.0448 0.0184 0.0070 0.0062 -0.0076
H4 0.0152 0.0403 0.0284 0.0075 0.0019 0.0006
H5 0.0264 0.0433 0.0214 0.0088 0.0081 -0.0071
loop_
_atom_type_symbol
_atom_type_description
_atom_type_scat_dispersion_real
_atom_type_scat_dispersion_imag
_atom_type_scat_source
C C 0.0033 0.0016 'Su & Coppens, Acta. Cryst. (1997) A53, 749'
H H 0.0000 0.0000 'Su & Coppens, Acta. Cryst. (1997) A53, 749'
N N 0.0060 0.0030 'Su & Coppens. Acta. Cryst. (1997) A53, 749'
O O 0.0106 0.0060 'Su & Coppens, Acta. Cryst. (1997) A53, 749'
loop_
_geom_angle_atom_site_label_1
_geom_angle_atom_site_label_2
_geom_angle_atom_site_label_3
_geom_angle
O1 C1 N1 124.69(2)
O1 C1 C2 119.01(1)
N1 C1 C2 116.28(1)
N2 C3 C2 121.60(2)
N2 C3 H3 118.0(3)
N2 C4 C5 121.65(2)
N2 C4 H4 117.3(4)
N3 C2 C1 118.84(1)
N3 C2 C3 121.72(1)
N3 C5 C4 121.69(1)
N3 C5 H5 117.2(3)
C1 N1 H1A 119.5(3)
C1 N1 H1B 117.9(3)
C1 C2 C3 119.42(1)
C2 N3 C5 116.67(1)
C2 C3 H3 120.4(3)
C3 N2 C4 116.65(1)
C4 C5 H5 121.1(3)
C5 C4 H4 121.1(4)
H1A N1 H1B 122.3(5)
loop_
_geom_bond_atom_site_label_1
_geom_bond_atom_site_label_2
_geom_bond_distance
O1 C1 1.2392(2)
N1 C1 1.3310(2)
N1 H1A 1.010(1)
N1 H1B 1.010(1)
N2 C3 1.3374(2)
N2 C4 1.3378(2)
N3 C2 1.3345(2)
N3 C5 1.3378(2)
C1 C2 1.5056(2)
C2 C3 1.3968(2)
C3 H3 1.083(1)
C4 C5 1.3943(2)
C4 H4 1.083(1)
C5 H5 1.083(1)
loop_
_geom_torsion_atom_site_label_1
_geom_torsion_atom_site_label_2
_geom_torsion_atom_site_label_3
_geom_torsion_atom_site_label_4
_geom_torsion
O1 C1 N1 H1A 176.3(2)
O1 C1 N1 H1B 2.6(3)
O1 C1 C2 N3 -175.95(2)
O1 C1 C2 C3 2.26(1)
N1 C1 C2 N3 2.47(1)
N1 C1 C2 C3 -179.33(1)
N2 C3 C2 N3 1.41(1)
N2 C3 C2 C1 -176.74(1)
N2 C4 C5 N3 0.88(1)
N2 C4 C5 H5 -178.1(1)
N3 C2 C3 H3 179.79(10)
N3 C5 C4 H4 -178.64(10)
C1 C2 N3 C5 177.16(1)
C1 C2 C3 H3 1.6(3)
C2 N3 C5 C4 -0.09(1)
C2 N3 C5 H5 178.92(9)
C2 C1 N1 H1A -2.0(3)
C2 C1 N1 H1B -175.7(1)
C2 C3 N2 C4 -0.59(1)
C3 N2 C4 C5 -0.50(1)
C3 N2 C4 H4 179.03(10)
C3 C2 N3 C5 -1.00(1)
C4 N2 C3 H3 -179.0(1)
H4 C4 C5 H5 2.4(4)
loop_
_refln_index_h
_refln_index_k
_refln_index_l
_refln_F_squared_calc
_refln_F_squared_meas
_refln_F_squared_sigma
_refln_observed_status
-34 0 4 5.984 6.569 0.501 o
-34 0 6 29.728 29.226 1.327 o
-33 0 2 21.680 21.761 0.852 o
-33 0 4 5.000 5.629 0.504 o
-33 0 6 15.270 16.146 1.484 o
-33 0 8 9.099 9.419 0.463 o
-33 0 10 6.546 6.870 0.633 o
-33 1 2 3.373 3.177 0.325 o
-33 1 4 2.411 2.287 0.310 o
-33 1 5 2.289 2.520 0.353 o
-33 1 6 36.678 36.884 1.566 o
-33 1 7 32.529 33.319 1.411 o
-33 1 8 11.186 11.315 0.506 o
-33 2 4 1.262 1.162 0.204 o
-33 2 5 16.538 15.710 1.646 o
-33 2 6 1.304 0.747 0.192 o
-33 2 7 13.164 12.428 1.201 o
-32 0 2 0.995 1.067 0.307 o
-32 0 10 7.879 7.854 0.628 o
-32 0 12 11.696 12.476 0.638 o
-32 1 1 2.338 2.808 0.418 o
-32 1 3 18.594 19.255 0.804 o
-32 1 4 6.586 7.190 0.550 o
-32 1 5 3.733 3.575 0.449 o
-32 1 6 1.432 1.268 0.221 o
-32 1 7 0.925 0.833 0.160 o
-32 1 8 1.545 1.530 0.161 o
-32 1 10 3.122 3.199 0.221 o
-32 1 12 10.332 10.211 0.603 o
-32 2 1 2.511 2.242 0.363 o
-32 2 2 10.331 10.310 0.572 o
-32 2 3 9.505 9.332 0.416 o
-32 2 4 5.684 5.564 0.335 o
-32 2 5 11.268 11.265 0.930 o
-32 2 6 9.835 9.271 1.285 o
-32 2 7 14.356 14.463 0.797 o
-32 2 10 12.691 12.168 0.965 o
-32 2 11 2.142 2.160 0.395 o
-32 3 4 2.253 2.472 0.388 o
-32 3 5 1.154 1.266 0.311 o
-31 0 2 4.970 5.057 0.487 o
-31 0 4 22.208 23.439 0.916 o
-31 0 6 1.825 1.707 0.359 o
-31 0 8 2.749 2.668 0.258 o
-31 0 10 23.449 23.400 1.618 o
-31 0 12 34.885 35.597 1.257 o
-31 1 1 13.815 13.448 0.670 o
-31 1 2 5.633 6.868 0.529 o
-31 1 3 1.461 1.575 0.358 o
-31 1 4 17.786 18.675 0.810 o
-31 1 5 2.006 1.655 0.356 o
-31 1 6 10.757 10.323 0.541 o
-31 1 9 13.114 12.833 0.442 o
-31 1 10 4.271 4.289 0.360 o
-31 1 11 7.478 7.173 0.360 o
-31 1 12 5.795 5.496 0.505 o
-31 2 2 4.171 3.870 0.433 o
-31 2 4 20.609 19.725 0.668 o
-31 2 5 30.325 30.527 1.426 o
-31 2 6 32.492 31.139 0.945 o
-31 2 7 9.767 9.659 0.432 o
-31 2 9 2.355 2.283 0.246 o
-31 2 10 1.539 1.635 0.353 o
-31 2 12 2.631 2.519 0.414 o
-31 3 1 2.671 2.869 0.263 o
-31 3 4 6.574 6.887 0.916 o
-31 3 5 29.140 28.532 0.863 o
-31 3 8 0.766 0.886 0.189 o
-31 3 9 4.172 4.080 0.620 o
-30 0 2 47.572 48.309 1.556 o
-30 0 8 3.049 2.796 0.278 o
-30 0 10 5.463 5.509 0.326 o
-30 0 12 18.675 18.607 0.812 o
-30 1 1 4.491 4.341 0.468 o
-30 1 2 15.974 16.364 0.756 o
-30 1 3 14.928 15.194 0.746 o
-30 1 4 14.493 14.339 0.734 o
-30 1 5 1.283 1.227 0.324 o
-30 1 6 1.655 1.388 0.359 o
-30 1 7 9.450 9.654 1.358 o
-30 1 8 1.176 1.292 0.180 o
-30 1 9 6.565 6.684 0.306 o
-30 1 11 4.862 4.727 0.303 o
-30 1 12 18.172 17.610 0.799 o
-30 1 14 5.592 5.938 0.505 o
-30 1 15 1.406 1.126 0.338 o
-30 2 1 1.049 0.951 0.299 o
-30 2 2 8.423 8.533 0.890 o
-30 2 4 6.163 6.156 0.332 o
-30 2 6 0.723 0.525 0.144 o
-30 2 7 3.855 3.730 0.449 o
-30 2 8 0.815 0.669 0.200 o
-30 2 9 3.574 3.669 0.289 o
-30 2 10 7.703 7.356 1.074 o
-30 2 11 10.663 10.337 0.674 o
-30 2 13 6.033 5.629 0.500 o
-30 3 1 14.823 14.292 0.523 o
-30 3 3 2.067 2.284 0.516 o
-30 3 4 3.036 3.053 0.230 o
-30 3 5 7.622 7.438 0.554 o
-30 3 6 17.792 17.722 1.182 o
-30 3 7 3.765 3.441 0.334 o
-30 3 9 3.710 3.976 0.293 o
-30 3 10 4.432 3.955 0.737 o
-30 3 12 2.101 2.350 0.402 o
-30 4 3 0.611 0.626 0.177 o
-30 4 4 0.682 0.822 0.185 o
-30 4 6 21.204 19.973 0.811 o
-30 4 7 8.523 8.325 0.522 o
-29 0 8 34.277 33.899 1.962 o
-29 0 10 3.161 3.142 0.310 o
-29 0 12 4.506 4.079 0.485 o
-29 1 1 1.347 1.275 0.335 o
-29 1 2 28.344 28.225 1.013 o
-29 1 3 2.667 2.581 0.433 o
-29 1 4 15.465 16.235 0.774 o
-29 1 6 1.172 1.081 0.338 o
-29 1 9 18.177 18.539 0.569 o
-29 1 10 11.616 10.776 1.376 o
-29 1 11 3.534 3.501 0.580 o
-29 1 12 5.123 4.158 0.503 o
-29 1 13 2.455 2.585 0.437 o
-29 1 14 4.246 4.594 0.480 o
-29 1 15 10.365 10.328 0.615 o
-29 1 16 1.712 1.714 0.354 o
-29 2 1 4.389 4.188 0.272 o
-29 2 4 9.155 8.742 0.421 o
-29 2 5 3.021 2.995 0.213 o
-29 2 6 0.639 0.696 0.182 o
-29 2 8 18.765 18.016 0.626 o
-29 2 9 6.678 6.678 0.848 o
-29 2 10 9.871 9.602 0.428 o
-29 2 11 1.495 1.277 0.242 o
-29 2 12 3.005 3.143 0.302 o
-29 2 13 31.999 30.803 1.150 o
-29 2 14 10.197 9.452 0.602 o
-29 2 15 8.726 9.044 0.919 o
-29 3 2 2.104 2.031 0.273 o
-29 3 3 14.569 14.260 0.535 o
-29 3 4 21.075 21.612 1.768 o
-29 3 5 26.853 25.613 1.164 o
-29 3 6 9.860 9.340 0.570 o
-29 3 8 0.976 0.651 0.183 o
-29 3 9 5.318 5.534 0.352 o
-29 3 10 3.610 3.686 0.284 o
-29 3 12 2.199 2.109 0.237 o
-29 3 13 8.140 7.615 0.376 o
-29 3 14 11.948 11.901 0.628 o
-29 4 3 7.491 7.812 0.642 o
-29 4 4 45.833 44.959 1.280 o
-29 4 7 0.591 0.578 0.178 o
-29 4 9 3.408 2.843 0.390 o
-28 0 10 1.006 1.090 0.193 o
-28 0 12 24.004 24.231 0.949 o
-28 0 14 3.126 3.418 0.448 o
-28 0 16 14.299 13.762 0.669 o
-28 1 1 17.995 17.521 0.777 o
-28 1 2 11.247 11.278 0.650 o
-28 1 3 2.983 3.452 0.451 o
-28 1 4 1.331 1.246 0.331 o
-28 1 7 3.202 3.270 0.449 o
-28 1 10 3.908 3.693 0.381 o
-28 1 11 34.824 33.115 2.656 o
-28 1 14 6.059 6.330 0.542 o
-28 1 17 4.731 4.186 0.294 o
-28 2 1 0.983 0.954 0.175 o
-28 2 2 3.517 3.123 0.256 o
-28 2 5 1.570 1.426 0.246 o
-28 2 6 0.776 0.862 0.150 o
-28 2 7 1.796 2.055 0.186 o
-28 2 9 0.657 0.777 0.188 o
-28 2 10 7.690 7.545 0.378 o
-28 2 11 29.394 27.809 0.927 o
-28 2 12 2.739 2.928 0.269 o
-28 2 13 7.370 7.503 0.383 o
-28 2 15 13.274 13.776 0.699 o
-28 2 16 3.170 2.595 0.413 o
-28 3 1 9.327 8.740 0.358 o
-28 3 4 24.766 24.258 0.699 o
-28 3 5 43.192 41.911 1.897 o
-28 3 6 12.718 13.499 0.476 o
-28 3 7 1.632 1.676 0.213 o
-28 3 8 7.116 7.251 0.571 o
-28 3 9 12.103 11.794 0.473 o
-28 3 10 16.731 15.348 0.926 o
-28 3 11 1.410 1.517 0.168 o
-28 3 12 12.555 11.982 0.954 o
-28 4 1 1.007 1.032 0.135 o
-28 4 2 0.421 0.474 0.147 o
-28 4 3 0.594 0.449 0.150 o
-28 4 4 43.619 44.097 3.468 o
-28 4 6 37.902 39.349 2.281 o
-28 4 7 6.781 6.927 0.362 o
-28 4 9 2.362 2.421 0.250 o
-28 4 10 1.271 0.863 0.265 o
-27 0 2 48.299 46.754 2.125 o
-27 0 4 10.767 10.575 0.603 o
-27 0 6 7.205 7.486 0.521 o
-27 0 8 9.443 9.736 1.246 o
-27 0 10 0.805 0.907 0.240 o
-27 0 12 30.656 29.926 1.088 o
-27 0 16 7.124 7.367 0.539 o
-27 1 1 21.994 21.766 0.684 o
-27 1 2 39.698 39.138 1.617 o
-27 1 4 14.015 14.199 0.477 o
-27 1 5 4.431 4.533 0.258 o
-27 1 6 6.737 7.101 0.481 o
-27 1 7 39.596 41.110 1.358 o
-27 1 9 2.940 3.108 0.245 o
-27 1 10 9.017 9.196 0.357 o
-27 1 11 13.550 13.874 0.555 o
-27 1 12 46.421 42.450 1.458 o
-27 1 13 46.167 45.366 1.546 o
-27 1 14 8.824 7.920 0.593 o
-27 1 16 1.808 1.522 0.362 o
-27 1 18 1.635 1.267 0.208 o
-27 2 1 18.979 18.661 0.608 o
-27 2 2 13.360 13.499 0.492 o
-27 2 3 16.058 15.671 0.543 o
-27 2 4 4.319 4.446 0.281 o
-27 2 5 6.061 5.757 0.313 o
-27 2 6 3.407 3.415 0.280 o
-27 2 7 0.592 0.718 0.155 o
-27 2 8 31.738 29.853 1.995 o
-27 2 10 15.110 15.472 0.497 o
-27 2 12 24.896 24.550 0.954 o
-27 2 13 34.735 30.492 4.553 o
-27 2 15 7.374 7.426 0.382 o
-27 2 17 5.462 5.144 0.479 o
-27 3 1 3.498 3.550 0.200 o
-27 3 2 3.215 2.911 0.216 o
-27 3 3 10.393 10.127 0.445 o
-27 3 4 11.412 11.670 0.797 o
-27 3 5 1.979 1.837 0.179 o
-27 3 6 12.153 12.518 0.622 o
-27 3 7 2.656 2.657 0.214 o
-27 3 8 16.079 14.933 1.737 o
-27 3 9 8.953 8.322 0.446 o
-27 3 10 1.992 1.472 0.357 o
-27 3 11 0.957 0.876 0.151 o
-27 3 12 6.306 6.275 0.356 o
-27 3 14 1.196 1.366 0.175 o
-27 4 1 0.822 0.681 0.163 o
-27 4 2 11.410 11.360 0.374 o
-27 4 3 5.466 5.272 0.300 o
-27 4 4 32.916 31.493 1.328 o
-27 4 9 1.112 1.015 0.201 o
-27 4 10 5.872 5.969 0.334 o
-27 4 11 1.106 1.044 0.135 o
-27 4 12 2.253 2.043 0.253 o
-27 5 2 15.986 16.343 0.637 o
-27 5 3 12.507 12.720 0.718 o
-27 5 5 1.298 1.478 0.243 o
-27 5 7 0.586 0.620 0.177 o
-27 5 8 0.674 0.700 0.186 o
-26 0 2 7.739 8.294 0.525 o
-26 0 4 7.269 7.426 0.520 o
-26 0 8 6.258 5.500 1.179 o
-26 0 10 31.341 31.143 0.950 o
-26 0 12 33.941 33.211 1.163 o
-26 0 14 5.104 4.778 0.507 o
-26 0 16 28.052 28.901 1.049 o
-26 1 1 8.368 8.664 0.344 o
-26 1 2 11.114 11.608 0.448 o
-26 1 3 20.033 19.939 0.766 o
-26 1 4 14.908 14.562 0.478 o
-26 1 5 7.895 8.184 0.333 o
-26 1 6 6.003 6.443 0.294 o
-26 1 7 2.283 2.515 0.199 o
-26 1 8 5.214 5.208 0.309 o
-26 1 11 36.220 36.603 1.533 o
-26 1 13 1.297 1.296 0.205 o
-26 1 14 13.719 11.744 0.697 o
-26 1 15 3.981 4.034 0.485 o
-26 1 18 7.463 7.672 0.394 o
-26 1 19 18.626 18.503 0.630 o
-26 2 1 0.720 0.530 0.107 o
-26 2 2 6.360 6.436 0.401 o
-26 2 3 94.611 91.523 4.165 o
-26 2 4 57.286 56.547 1.452 o
-26 2 5 42.867 44.307 1.156 o
-26 2 6 0.490 0.450 0.141 o
-26 2 7 1.695 1.679 0.144 o
-26 2 8 0.790 0.986 0.146 o
-26 2 9 14.193 14.361 0.528 o
-26 2 10 42.157 43.154 1.686 o
-26 2 11 1.684 1.653 0.174 o
-26 2 12 4.474 4.530 0.407 o
-26 2 13 1.475 1.234 0.270 o
-26 2 14 1.351 1.210 0.210 o
-26 2 16 1.299 1.199 0.204 o
-26 3 1 0.282 0.347 0.111 o
-26 3 2 8.918 8.903 0.347 o
-26 3 3 10.949 10.363 0.398 o
-26 3 4 44.569 44.586 1.622 o
-26 3 5 12.137 11.637 0.425 o
-26 3 6 14.066 13.863 0.654 o
-26 3 7 0.697 0.626 0.124 o
-26 3 8 0.811 0.709 0.145 o
-26 3 9 16.095 16.049 0.557 o
-26 3 10 1.632 1.371 0.166 o
-26 3 11 1.663 1.564 0.170 o
-26 3 13 1.229 1.204 0.208 o
-26 3 14 14.043 14.006 0.526 o
-26 3 15 6.669 6.689 0.402 o
-26 3 16 1.815 1.615 0.182 o
-26 4 2 2.482 2.040 0.162 o
-26 4 3 0.761 0.620 0.147 o
-26 4 4 1.081 1.055 0.160 o
-26 4 5 0.887 0.850 0.151 o
-26 4 7 8.096 8.549 0.355 o
-26 4 8 37.031 36.061 1.836 o
-26 4 9 0.577 0.676 0.194 o
-26 4 10 36.844 36.333 0.978 o
-26 4 11 1.119 0.989 0.142 o
-26 4 13 0.741 0.927 0.137 o
-26 4 14 3.808 3.829 0.215 o
-26 5 2 15.098 15.459 0.675 o
-26 5 3 4.899 4.792 0.220 o
-26 5 4 19.553 20.692 0.791 o
-26 5 5 3.097 2.838 0.222 o
-26 5 9 2.096 1.983 0.186 o
-25 0 2 49.084 50.575 4.172 o
-25 0 6 24.846 24.973 2.165 o
-25 0 10 188.183 186.338 12.196 o
-25 0 12 254.649 250.732 8.642 o
-25 1 1 41.532 40.410 1.395 o
-25 1 2 16.880 17.449 0.944 o
-25 1 3 0.922 0.970 0.148 o
-25 1 4 47.922 47.359 1.380 o
-25 1 5 6.552 6.457 0.333 o
-25 1 6 1.877 2.129 0.158 o
-25 1 7 25.035 24.946 0.746 o
-25 1 8 9.641 10.374 0.387 o
-25 1 9 6.207 6.427 0.364 o
-25 1 10 0.962 1.003 0.115 o
-25 1 11 92.777 89.249 4.113 o
-25 1 12 6.401 6.010 0.347 o
-25 1 13 2.543 2.437 0.520 o
-25 1 15 18.580 17.969 0.825 o
-25 1 17 3.185 3.542 0.283 o
-25 1 18 6.084 6.154 0.740 o
-25 1 19 2.883 3.075 0.271 o
-25 2 1 26.212 26.845 0.762 o
-25 2 2 1.668 1.819 0.153 o
-25 2 3 6.276 6.576 0.346 o
-25 2 5 83.084 82.274 2.413 o
-25 2 6 6.175 6.535 0.273 o
-25 2 7 1.908 1.876 0.155 o
-25 2 8 7.359 7.077 0.293 o
-25 2 11 0.955 0.865 0.156 o
-25 2 12 2.119 2.194 0.351 o
-25 2 13 1.223 1.117 0.196 o
-25 2 15 1.225 1.153 0.242 o
-25 2 16 7.508 7.557 0.385 o
-25 2 17 29.173 29.256 0.908 o
-25 2 18 0.874 0.889 0.208 o
-25 2 19 0.616 0.680 0.197 o
-25 3 1 17.450 17.196 0.492 o
-25 3 2 21.121 19.890 0.552 o
-25 3 3 1.023 0.831 0.151 o
-25 3 6 2.919 2.719 0.363 o
-25 3 7 10.236 10.700 0.357 o
-25 3 8 5.094 5.394 0.319 o
-25 3 10 43.583 41.822 1.277 o
-25 3 11 0.841 0.675 0.121 o
-25 3 13 5.026 4.910 0.270 o
-25 3 14 1.931 1.702 0.183 o
-25 3 15 0.558 0.477 0.150 o
-25 3 16 2.875 2.898 0.555 o
-25 3 17 1.053 1.119 0.200 o
-25 3 18 1.120 1.176 0.234 o
-25 4 2 0.841 0.771 0.113 o
-25 4 3 2.298 2.342 0.157 o
-25 4 4 2.124 1.984 0.296 o
-25 4 5 7.350 7.496 0.450 o
-25 4 6 9.405 9.523 0.760 o
-25 4 7 5.818 6.081 0.357 o
-25 4 8 15.592 15.643 0.580 o
-25 4 10 0.682 0.662 0.146 o
-25 4 11 1.445 1.457 0.148 o
-25 4 12 5.240 5.270 0.309 o
-25 4 14 0.544 0.490 0.124 o
-25 4 15 0.707 0.675 0.135 o
-25 5 1 1.957 1.979 0.138 o
-25 5 2 27.934 28.280 0.873 o
-25 5 3 1.307 1.245 0.118 o
-25 5 4 1.391 1.615 0.218 o
-25 5 5 0.630 0.719 0.131 o
-25 5 8 2.624 2.675 0.295 o
-25 5 9 2.871 2.852 0.220 o
-25 5 10 1.669 1.783 0.181 o
-25 5 12 0.820 0.580 0.181 o
-24 0 2 106.220 110.862 8.694 o
-24 0 4 0.839 1.161 0.309 o
-24 0 6 29.380 29.998 1.090 o
-24 0 8 9.214 10.085 0.687 o
-24 0 10 35.442 35.388 1.539 o
-24 0 12 28.566 29.438 0.972 o
-24 0 16 16.400 17.246 0.783 o
-24 0 18 1.998 2.064 0.365 o
-24 1 1 26.116 27.438 0.842 o
-24 1 2 81.778 84.531 3.446 o
-24 1 3 201.718 197.493 5.940 o
-24 1 4 28.010 27.996 0.851 o
-24 1 5 1.400 1.205 0.169 o
-24 1 6 11.295 11.431 0.460 o
-24 1 7 5.528 5.651 0.270 o
-24 1 8 2.280 2.474 0.202 o
-24 1 9 14.594 14.610 0.458 o
-24 1 10 7.521 7.905 0.436 o
-24 1 11 32.886 31.146 1.176 o
-24 1 12 24.233 24.247 0.945 o
-24 1 13 2.303 2.392 0.365 o
-24 1 15 16.215 15.801 0.839 o
-24 1 16 7.611 8.744 0.618 o
-24 1 17 1.702 1.896 0.394 o
-24 1 18 27.459 28.256 0.871 o
-24 1 20 2.869 2.556 0.623 o
-24 2 1 4.630 4.492 0.196 o
-24 2 2 64.421 64.959 2.170 o
-24 2 3 50.581 51.758 1.544 o
-24 2 4 3.299 3.221 0.262 o
-24 2 5 13.385 13.763 0.509 o
-24 2 6 5.372 5.573 0.252 o
-24 2 7 6.638 6.633 0.404 o
-24 2 8 3.769 3.810 0.181 o
-24 2 9 13.083 13.356 0.401 o
-24 2 10 1.212 1.093 0.167 o
-24 2 11 1.346 1.504 0.192 o
-24 2 12 1.278 1.432 0.324 o
-24 2 13 6.403 5.847 0.552 o
-24 2 14 8.993 9.136 0.704 o
-24 2 16 1.631 1.510 0.217 o
-24 2 17 3.223 2.992 0.397 o
-24 2 18 33.576 32.938 1.002 o
-24 2 19 27.885 28.083 0.877 o
-24 2 20 7.540 8.060 1.135 o
-24 3 1 7.020 7.093 0.316 o
-24 3 2 2.392 2.302 0.144 o
-24 3 3 1.192 2.222 0.192 o
-24 3 5 0.436 0.432 0.102 o
-24 3 6 2.392 3.326 0.181 o
-24 3 7 3.135 2.930 0.166 o
-24 3 8 93.165 94.880 2.505 o
-24 3 9 1.022 1.197 0.122 o
-24 3 10 41.020 40.497 1.693 o
-24 3 13 8.177 8.058 0.337 o
-24 3 14 1.373 1.264 0.169 o
-24 3 17 7.725 7.775 0.666 o
-24 3 18 10.638 11.132 0.544 o
-24 4 1 2.325 2.411 0.148 o
-24 4 2 19.165 19.790 0.528 o
-24 4 4 2.285 2.344 0.173 o
-24 4 5 0.832 0.702 0.164 o
-24 4 8 4.485 4.572 0.233 o
-24 4 10 1.527 1.424 0.145 o
-24 4 12 8.646 8.505 0.336 o
-24 4 13 2.905 2.660 0.210 o
-24 4 14 12.970 13.229 0.546 o
-24 4 15 0.944 0.859 0.135 o
-24 5 1 1.783 1.875 0.134 o
-24 5 3 2.818 2.933 0.164 o
-24 5 5 1.338 1.458 0.136 o
-24 5 6 2.962 2.940 0.205 o
-24 5 7 35.898 37.077 1.497 o
-24 5 8 7.702 7.833 0.300 o
-24 5 9 4.069 4.280 0.310 o
-24 5 10 2.405 2.387 0.202 o
-24 5 11 2.409 2.588 0.216 o
-24 5 13 6.447 6.501 0.434 o
-24 6 1 3.281 3.086 0.181 o
-24 6 2 10.934 10.843 0.384 o
-24 6 3 5.301 5.510 0.280 o
-24 6 4 2.657 2.500 0.194 o
-24 6 6 1.138 1.149 0.243 o
-23 0 2 191.373 193.965 8.164 o
-23 0 4 144.676 138.748 5.302 o
-23 0 6 71.637 70.782 3.867 o
-23 0 8 10.670 11.222 0.569 o
-23 0 10 86.242 86.423 4.252 o
-23 0 12 5.392 5.803 0.384 o
-23 0 14 42.716 43.251 2.672 o
-23 0 16 27.816 28.295 1.558 o
-23 0 18 1.229 1.214 0.339 o
-23 1 1 31.744 30.646 0.982 o
-23 1 2 1.537 1.605 0.161 o
-23 1 3 45.292 45.116 1.234 o
-23 1 4 30.443 31.372 1.182 o
-23 1 6 4.464 4.518 0.255 o
-23 1 7 5.839 6.093 0.242 o
-23 1 8 37.535 38.441 1.215 o
-23 1 9 41.750 42.776 1.189 o
-23 1 10 141.728 141.000 4.838 o
-23 1 11 58.808 57.456 1.630 o
-23 1 12 19.713 19.331 0.615 o
-23 1 13 1.500 1.533 0.191 o
-23 1 14 0.700 0.599 0.181 o
-23 1 15 15.234 14.119 1.387 o
-23 1 16 21.804 21.396 1.003 o
-23 1 17 3.771 3.986 0.472 o
-23 1 18 4.040 3.618 0.656 o
-23 1 20 2.866 3.157 0.271 o
-23 1 21 8.220 7.929 0.381 o
-23 2 1 11.965 12.166 0.351 o
-23 2 2 9.188 8.638 0.282 o
-23 2 3 1.450 1.485 0.138 o
-23 2 5 0.404 0.493 0.119 o
-23 2 6 4.391 4.481 0.223 o
-23 2 7 1.431 1.466 0.129 o
-23 2 8 3.894 3.929 0.200 o
-23 2 9 136.556 136.815 4.018 o
-23 2 10 4.056 4.374 0.221 o
-23 2 11 12.222 11.788 0.676 o
-23 2 12 0.794 0.634 0.158 o
-23 2 13 1.379 1.201 0.196 o
-23 2 14 22.904 22.225 0.725 o
-23 2 15 1.668 1.830 0.229 o
-23 2 18 1.122 0.893 0.165 o
-23 3 1 1.924 1.852 0.128 o
-23 3 3 3.034 3.032 0.181 o
-23 3 4 47.239 46.936 1.489 o
-23 3 5 18.908 19.392 0.507 o
-23 3 6 0.500 0.469 0.093 o
-23 3 8 3.071 3.020 0.164 o
-23 3 9 3.157 3.232 0.161 o
-23 3 10 5.732 5.874 0.294 o
-23 3 12 1.135 1.189 0.252 o
-23 3 13 10.778 10.765 0.393 o
-23 3 15 3.752 3.273 0.241 o
-23 3 16 2.621 2.359 0.213 o
-23 3 17 2.433 1.920 0.419 o
-23 3 18 5.927 6.279 0.274 o
-23 3 19 9.562 9.635 0.438 o
-23 4 1 2.045 2.154 0.150 o
-23 4 2 1.401 1.411 0.128 o
-23 4 3 1.368 1.521 0.125 o
-23 4 4 11.486 11.640 0.356 o
-23 4 6 4.403 4.272 0.307 o
-23 4 7 3.213 3.236 0.278 o
-23 4 8 7.487 7.507 0.300 o
-23 4 9 11.570 11.966 0.566 o
-23 4 10 11.589 11.700 0.358 o
-23 4 11 2.029 2.079 0.148 o
-23 4 13 2.253 2.234 0.173 o
-23 4 14 2.237 2.070 0.205 o
-23 4 15 2.782 3.020 0.201 o
-23 4 16 1.518 1.566 0.158 o
-23 5 1 3.066 3.076 0.168 o
-23 5 2 0.686 0.586 0.101 o
-23 5 5 24.373 25.324 1.072 o
-23 5 6 2.143 2.238 0.144 o
-23 5 7 4.493 4.548 0.346 o
-23 5 8 1.019 0.985 0.121 o
-23 5 10 2.766 2.447 0.206 o
-23 5 11 2.125 2.230 0.272 o
-23 5 13 0.491 0.537 0.124 o
-23 5 14 0.546 0.526 0.145 o
-23 6 1 1.039 1.298 0.119 o
-23 6 2 5.046 5.067 0.208 o
-23 6 4 2.611 2.624 0.171 o
-23 6 5 0.473 0.417 0.127 o
-23 6 7 2.072 2.216 0.158 o
-23 6 8 3.459 3.742 0.197 o
-23 6 9 5.544 5.311 0.487 o
-22 0 2 639.853 638.248 47.803 o
-22 0 4 1.172 1.100 0.256 o
-22 0 6 2.663 2.959 0.942 o
-22 0 8 9.301 9.469 0.389 o
-22 0 10 1.783 1.874 0.315 o
-22 0 12 4.335 4.388 0.267 o
-22 0 14 3.233 3.092 0.313 o
-22 0 16 62.298 64.646 2.101 o
-22 0 18 23.317 24.523 0.933 o
-22 0 20 4.403 4.630 0.477 o
-22 1 1 148.065 153.264 5.782 o
-22 1 2 2.880 2.995 0.198 o
-22 1 3 6.322 6.422 0.269 o
-22 1 4 2.714 2.619 0.187 o
-22 1 5 37.394 38.155 1.082 o
-22 1 7 43.531 44.845 1.151 o
-22 1 8 7.832 8.074 0.310 o
-22 1 9 6.439 6.364 0.234 o
-22 1 10 3.991 4.491 0.203 o
-22 1 11 10.890 10.532 0.411 o
-22 1 12 2.212 2.279 0.209 o
-22 1 14 6.971 7.506 0.348 o
-22 1 15 7.762 7.758 0.550 o
-22 1 16 22.336 21.027 0.693 o
-22 1 20 1.070 1.221 0.223 o
-22 1 21 2.188 2.056 0.231 o
-22 2 1 26.340 26.454 0.752 o
-22 2 2 4.553 4.633 0.199 o
-22 2 3 10.577 10.347 0.315 o
-22 2 4 0.711 0.573 0.118 o
-22 2 5 13.277 13.056 0.421 o
-22 2 6 43.983 45.602 1.154 o
-22 2 7 52.368 52.576 1.662 o
-22 2 8 20.700 21.988 0.568 o
-22 2 9 0.151 0.317 0.090 o
-22 2 10 79.016 78.999 2.790 o
-22 2 11 84.612 80.030 2.091 o
-22 2 14 7.203 6.936 0.370 o
-22 2 15 3.455 3.415 0.659 o
-22 2 16 2.642 2.288 0.554 o
-22 2 18 7.575 7.394 0.565 o
-22 2 20 1.112 0.928 0.200 o
-22 3 1 0.752 0.705 0.102 o
-22 3 2 7.975 8.032 0.263 o
-22 3 3 4.451 4.226 0.271 o
-22 3 4 3.264 3.276 0.200 o
-22 3 5 9.845 10.220 0.369 o
-22 3 6 2.012 2.096 0.131 o
-22 3 8 0.524 0.557 0.089 o
-22 3 9 1.396 1.575 0.121 o
-22 3 10 12.963 12.982 0.386 o
-22 3 13 16.588 15.768 0.551 o
-22 3 16 4.504 4.159 0.486 o
-22 3 17 45.081 45.304 1.974 o
-22 3 18 17.986 18.447 0.607 o
-22 3 19 3.724 3.674 0.196 o
-22 3 20 3.782 3.719 0.363 o
-22 4 1 0.383 0.294 0.084 o
-22 4 2 3.282 3.303 0.156 o
-22 4 4 8.997 9.227 0.323 o
-22 4 5 1.121 1.179 0.128 o
-22 4 6 2.717 2.581 0.145 o
-22 4 7 35.887 37.276 0.996 o
-22 4 8 36.214 36.898 1.266 o
-22 4 9 2.353 2.404 0.175 o
-22 4 10 1.567 1.473 0.129 o
-22 4 12 4.210 4.417 0.227 o
-22 4 13 0.962 0.885 0.120 o
-22 4 15 3.453 3.111 0.183 o
-22 4 16 17.671 17.623 0.560 o
-22 4 17 3.391 3.477 0.191 o
-22 4 18 24.056 24.855 1.159 o
-22 5 1 0.305 0.323 0.093 o
-22 5 2 4.629 4.671 0.211 o
-22 5 4 0.788 0.814 0.156 o
-22 5 5 3.370 3.504 0.194 o
-22 5 6 2.365 2.445 0.150 o
-22 5 7 0.508 0.463 0.101 o
-22 5 9 4.238 4.330 0.192 o
-22 5 10 11.025 11.247 0.410 o
-22 5 11 1.347 1.471 0.181 o
-22 5 12 18.986 18.037 0.563 o
-22 5 13 2.595 2.512 0.204 o
-22 6 1 1.367 1.445 0.132 o
-22 6 2 2.283 2.259 0.158 o
-22 6 5 5.535 5.486 0.231 o
-22 6 6 24.050 24.053 0.622 o
-22 6 7 3.922 3.791 0.182 o
-22 6 8 3.517 3.530 0.179 o
-22 6 10 1.526 1.518 0.176 o
-21 0 2 124.944 129.248 3.755 o
-21 0 4 22.343 23.065 0.849 o
-21 0 6 85.601 84.888 2.473 o
-21 0 8 63.510 62.496 1.741 o
-21 0 10 11.229 11.545 0.567 o
-21 0 12 3.892 4.234 0.258 o
-21 0 14 56.248 61.044 2.520 o
-21 0 16 45.318 49.319 1.470 o
-21 0 20 21.756 21.263 0.860 o
-21 1 1 104.985 106.582 3.881 o
-21 1 2 142.957 138.781 3.775 o
-21 1 3 51.611 51.509 1.886 o
-21 1 4 2.067 1.737 0.198 o
-21 1 5 31.035 30.651 0.812 o
-21 1 6 25.300 25.259 0.902 o
-21 1 7 34.973 36.332 1.172 o
-21 1 8 97.328 99.656 2.458 o
-21 1 9 3.648 3.491 0.171 o
-21 1 10 9.985 9.724 0.493 o
-21 1 11 1.260 1.622 0.178 o
-21 1 12 3.510 3.587 0.249 o
-21 1 13 60.432 59.438 2.085 o
-21 1 14 11.770 11.005 0.460 o
-21 1 15 3.256 3.337 0.256 o
-21 1 16 2.289 2.340 0.236 o
-21 1 17 3.102 3.287 0.345 o
-21 1 19 3.604 3.617 0.427 o
-21 1 20 0.821 0.933 0.194 o
-21 2 1 26.652 27.515 0.724 o
-21 2 2 27.616 27.237 0.761 o
-21 2 3 0.642 0.724 0.092 o
-21 2 4 4.187 4.118 0.181 o
-21 2 6 0.259 0.355 0.099 o
-21 2 7 4.276 4.404 0.290 o
-21 2 8 107.133 106.569 2.527 o
-21 2 9 99.084 100.289 3.032 o
-21 2 10 54.950 54.055 1.318 o
-21 2 11 1.634 1.480 0.181 o
-21 2 12 7.325 7.605 0.344 o
-21 2 13 7.176 6.543 0.322 o
-21 2 14 4.919 4.560 0.285 o
-21 2 15 0.611 0.657 0.209 o
-21 2 16 4.169 3.827 0.295 o
-21 2 18 0.930 0.879 0.245 o
-21 2 20 5.215 5.092 0.393 o
-21 2 21 0.566 0.607 0.125 o
-21 3 2 3.114 2.993 0.190 o
-21 3 3 8.253 8.115 0.321 o
-21 3 4 2.305 2.218 0.142 o
-21 3 6 2.375 2.594 0.138 o
-21 3 7 11.222 12.110 0.336 o
-21 3 8 35.394 35.997 0.976 o
-21 3 9 67.701 69.721 1.815 o
-21 3 10 0.938 0.870 0.119 o
-21 3 12 2.990 3.190 0.206 o
-21 3 13 28.736 27.594 0.766 o
-21 3 14 3.284 2.996 0.250 o
-21 3 15 0.179 0.378 0.117 o
-21 3 16 1.211 1.315 0.130 o
-21 3 17 10.727 10.535 0.482 o
-21 3 18 17.216 17.955 0.505 o
-21 3 19 11.918 12.109 0.374 o
-21 3 20 1.457 1.448 0.138 o
-21 4 2 10.367 10.175 0.312 o
-21 4 3 8.345 8.221 0.256 o
-21 4 4 36.824 37.170 0.981 o
-21 4 5 1.295 1.300 0.103 o
-21 4 6 2.693 2.799 0.147 o
-21 4 7 0.414 0.334 0.087 o
-21 4 8 9.413 9.758 0.427 o
-21 4 9 2.301 2.435 0.139 o
-21 4 11 8.797 8.893 0.440 o
-21 4 12 4.512 4.654 0.210 o
-21 4 13 1.579 1.514 0.136 o
-21 4 14 7.633 7.861 0.327 o
-21 4 15 2.621 2.623 0.187 o
-21 4 16 0.760 0.779 0.141 o
-21 4 17 0.803 0.635 0.118 o
-21 4 18 52.428 51.578 1.743 o
-21 5 1 3.018 2.742 0.165 o
-21 5 2 1.748 1.579 0.125 o
-21 5 3 10.618 10.462 0.329 o
-21 5 5 0.483 0.373 0.087 o
-21 5 6 5.689 5.831 0.270 o
-21 5 7 9.951 10.001 0.383 o
-21 5 8 5.370 5.342 0.238 o
-21 5 9 31.180 31.398 0.933 o
-21 5 10 1.760 1.833 0.188 o
-21 5 11 1.605 1.659 0.138 o
-21 5 12 2.751 3.002 0.207 o
-21 5 14 0.708 0.758 0.131 o
-21 5 16 1.486 1.594 0.156 o
-21 6 1 2.999 2.865 0.177 o
-21 6 2 6.880 6.672 0.256 o
-21 6 3 14.907 14.501 0.446 o
-21 6 4 3.427 3.205 0.171 o
-21 6 5 3.297 3.406 0.165 o
-21 6 6 2.243 2.312 0.168 o
-21 6 7 1.070 1.048 0.130 o
-21 6 8 1.495 1.599 0.130 o
-21 6 9 9.073 8.955 0.349 o
-21 6 10 1.591 1.587 0.125 o
-20 0 2 2.350 2.563 0.305 o
-20 0 4 55.012 57.100 1.688 o
-20 0 6 79.566 81.689 2.847 o
-20 0 8 16.541 17.358 0.702 o
-20 0 10 1.272 1.399 0.162 o
-20 0 14 2.955 2.906 0.236 o
-20 0 16 34.926 35.633 2.454 o
-20 0 18 3.178 3.469 0.475 o
-20 0 20 15.167 15.464 0.746 o
-20 1 1 81.455 82.445 2.189 o
-20 1 2 52.366 52.431 1.445 o
-20 1 3 20.403 20.295 0.631 o
-20 1 4 1.986 1.808 0.192 o
-20 1 5 35.649 37.011 1.728 o
-20 1 6 55.979 56.232 2.469 o
-20 1 7 14.460 14.395 0.625 o
-20 1 8 24.528 24.655 1.088 o
-20 1 9 0.831 0.827 0.099 o
-20 1 10 8.326 8.449 0.305 o
-20 1 11 34.719 33.763 0.912 o
-20 1 14 4.060 3.531 0.254 o
-20 1 15 11.690 12.078 0.464 o
-20 1 16 41.835 41.931 1.226 o
-20 1 18 1.324 1.283 0.212 o
-20 1 19 13.027 12.265 0.489 o
-20 1 21 11.218 11.126 0.464 o
-20 2 1 29.662 29.586 0.715 o
-20 2 2 3.018 3.049 0.157 o
-20 2 3 18.288 18.261 0.488 o
-20 2 4 66.356 68.310 2.149 o
-20 2 5 8.917 9.062 0.280 o
-20 2 6 8.785 8.958 0.269 o
-20 2 7 0.757 0.729 0.103 o
-20 2 8 2.489 2.439 0.163 o
-20 2 9 4.024 4.051 0.179 o
-20 2 10 1.374 1.439 0.160 o
-20 2 11 9.221 9.179 0.695 o
-20 2 13 10.449 10.562 0.409 o
-20 2 14 29.559 29.504 0.848 o
-20 2 15 38.514 37.719 1.540 o
-20 2 17 1.545 1.174 0.386 o
-20 2 18 6.417 6.431 0.271 o
-20 2 19 3.747 3.662 0.280 o
-20 2 20 0.833 0.881 0.240 o
-20 2 21 0.587 0.687 0.146 o
-20 2 22 6.547 6.577 0.357 o
-20 3 1 6.382 6.322 0.207 o
-20 3 3 25.525 24.659 0.712 o
-20 3 5 49.714 48.881 1.426 o
-20 3 6 1.420 1.492 0.104 o
-20 3 8 43.333 44.066 1.134 o
-20 3 9 100.072 100.505 3.020 o
-20 3 10 64.766 64.534 1.726 o
-20 3 11 1.154 1.161 0.142 o
-20 3 14 4.777 4.976 0.369 o
-20 3 15 2.576 2.506 0.248 o
-20 3 16 6.074 6.167 0.244 o
-20 3 17 10.520 11.237 0.517 o
-20 3 18 0.835 0.902 0.111 o
-20 3 19 1.655 1.885 0.184 o
-20 3 20 5.492 5.583 0.277 o
-20 3 21 7.672 6.895 0.502 o
-20 4 1 1.188 1.112 0.098 o
-20 4 2 0.260 0.361 0.077 o
-20 4 3 2.258 2.221 0.124 o
-20 4 4 14.414 14.224 0.425 o
-20 4 5 1.939 2.044 0.120 o
-20 4 8 56.146 57.639 1.530 o
-20 4 9 2.207 2.281 0.119 o
-20 4 10 66.001 66.221 1.808 o
-20 4 11 17.789 17.950 0.495 o
-20 4 12 2.626 2.719 0.168 o
-20 4 15 3.793 3.719 0.195 o
-20 4 16 41.618 40.951 1.386 o
-20 4 17 2.570 2.360 0.163 o
-20 4 18 8.352 8.612 0.291 o
-20 4 19 1.574 1.396 0.133 o
-20 5 1 1.537 1.503 0.121 o
-20 5 2 6.907 7.168 0.257 o
-20 5 3 0.579 0.564 0.097 o
-20 5 4 1.230 1.342 0.101 o
-20 5 5 0.611 0.589 0.085 o
-20 5 6 29.994 30.869 0.835 o
-20 5 7 10.660 10.567 0.537 o
-20 5 8 9.605 9.741 0.306 o
-20 5 9 23.035 23.301 0.709 o
-20 5 10 28.352 28.724 0.805 o
-20 5 11 14.685 14.978 0.612 o
-20 5 12 2.071 2.272 0.159 o
-20 5 13 2.219 2.280 0.158 o
-20 5 14 6.445 5.946 0.262 o
-20 5 15 8.445 8.592 0.334 o
-20 5 16 11.784 11.147 0.593 o
-20 6 1 3.669 3.876 0.184 o
-20 6 2 0.365 0.467 0.101 o
-20 6 3 7.296 7.622 0.261 o
-20 6 4 1.353 1.550 0.117 o
-20 6 8 0.851 0.799 0.152 o
-20 6 9 1.865 2.168 0.184 o
-20 6 11 9.895 9.999 0.662 o
-20 6 12 0.791 0.816 0.155 o
-20 7 2 1.261 0.954 0.308 o
-20 7 4 7.533 7.240 0.503 o
-19 0 2 9.272 9.505 0.541 o
-19 0 4 4.332 3.936 0.337 o
-19 0 6 299.981 304.294 11.004 o
-19 0 8 112.491 112.538 5.569 o
-19 0 10 39.705 40.504 1.290 o
-19 0 12 97.007 98.586 2.869 o
-19 0 14 13.637 13.370 0.668 o
-19 0 18 3.212 2.632 0.433 o
-19 0 22 3.399 3.065 0.429 o
-19 1 1 25.989 25.398 0.842 o
-19 1 2 8.365 8.594 0.442 o
-19 1 3 6.958 6.906 0.341 o
-19 1 4 10.598 10.783 0.403 o
-19 1 5 51.297 52.302 1.368 o
-19 1 6 107.028 107.537 2.725 o
-19 1 7 3.623 4.167 0.255 o
-19 1 8 33.360 35.712 0.984 o
-19 1 10 14.909 14.716 0.626 o
-19 1 11 15.285 14.894 0.565 o
-19 1 12 4.561 4.459 0.259 o
-19 1 13 27.208 26.944 0.764 o
-19 1 14 15.875 16.919 0.661 o
-19 1 15 15.188 14.574 0.922 o
-19 1 17 2.654 2.531 0.223 o
-19 1 18 3.864 3.915 0.239 o
-19 1 19 12.115 12.070 0.386 o
-19 1 20 1.035 0.910 0.152 o
-19 1 21 2.544 2.653 0.247 o
-19 1 22 1.922 1.753 0.156 o
-19 1 23 8.454 8.933 0.573 o
-19 2 1 257.892 252.401 7.943 o
-19 2 2 12.922 11.841 0.560 o
-19 2 3 3.566 3.700 0.343 o
-19 2 4 5.428 5.796 0.516 o
-19 2 5 12.050 11.186 0.545 o
-19 2 7 3.046 2.999 0.342 o
-19 2 8 22.597 22.726 0.578 o
-19 2 9 9.083 9.500 0.293 o
-19 2 10 0.870 0.738 0.150 o
-19 2 11 0.882 0.941 0.151 o
-19 2 12 62.380 60.740 1.569 o
-19 2 13 15.465 15.439 1.070 o
-19 2 14 3.328 3.482 0.322 o
-19 2 15 5.433 5.338 0.244 o
-19 2 16 20.115 19.854 0.761 o
-19 2 17 91.174 85.439 5.601 o
-19 2 18 15.138 14.530 0.701 o
-19 2 19 2.152 1.778 0.318 o
-19 2 22 1.568 1.684 0.159 o
-19 3 1 31.634 30.984 0.751 o
-19 3 2 7.778 7.313 0.266 o
-19 3 3 16.801 16.956 0.437 o
-19 3 4 0.324 0.278 0.075 o
-19 3 5 4.119 4.277 0.163 o
-19 3 6 8.218 8.566 0.287 o
-19 3 7 87.427 86.717 2.023 o
-19 3 8 68.946 69.442 1.750 o
-19 3 9 5.067 5.513 0.198 o
-19 3 10 32.106 31.074 0.794 o
-19 3 11 0.991 1.004 0.112 o
-19 3 12 1.807 1.897 0.138 o
-19 3 13 6.764 6.693 0.249 o
-19 3 14 9.089 9.271 0.307 o
-19 3 15 0.317 0.377 0.115 o
-19 3 16 19.381 19.463 0.654 o
-19 3 17 27.333 27.453 0.970 o
-19 3 18 21.520 22.056 0.688 o
-19 3 19 1.190 1.273 0.143 o
-19 3 20 3.001 3.061 0.166 o
-19 3 21 2.494 2.402 0.211 o
-19 4 1 2.597 2.614 0.136 o
-19 4 3 1.236 1.213 0.097 o
-19 4 4 3.175 3.194 0.141 o
-19 4 5 8.715 8.768 0.264 o
-19 4 6 14.245 14.123 0.370 o
-19 4 7 15.997 16.326 0.433 o
-19 4 8 69.116 70.209 1.744 o
-19 4 9 1.731 1.917 0.106 o
-19 4 10 22.195 22.775 0.609 o
-19 4 11 10.236 9.800 0.364 o
-19 4 12 3.293 3.498 0.184 o
-19 4 13 5.418 5.442 0.228 o
-19 4 14 0.453 0.453 0.107 o
-19 4 16 0.911 0.954 0.123 o
-19 4 17 3.058 2.921 0.180 o
-19 4 18 0.945 1.013 0.115 o
-19 5 1 17.452 16.821 0.485 o
-19 5 2 54.844 53.041 1.262 o
-19 5 3 2.401 2.373 0.117 o
-19 5 5 1.351 1.195 0.112 o
-19 5 6 2.316 2.351 0.133 o
-19 5 7 14.301 14.023 0.519 o
-19 5 8 1.807 1.912 0.154 o
-19 5 9 3.942 4.144 0.177 o
-19 5 10 1.192 1.204 0.115 o
-19 5 11 4.106 4.202 0.207 o
-19 5 12 6.204 6.370 0.250 o
-19 5 13 3.586 3.817 0.202 o
-19 5 16 20.219 19.802 0.670 o
-19 5 17 9.540 9.113 0.504 o
-19 6 1 49.224 46.374 1.138 o
-19 6 2 8.636 9.013 0.291 o
-19 6 3 11.833 11.718 0.338 o
-19 6 4 0.901 0.848 0.102 o
-19 6 5 5.501 5.819 0.214 o
-19 6 6 6.144 5.942 0.364 o
-19 6 7 15.981 16.007 0.489 o
-19 6 8 10.161 10.733 0.445 o
-19 6 10 0.564 0.563 0.101 o
-19 6 11 2.291 2.397 0.171 o
-19 6 13 1.017 0.970 0.199 o
-19 6 14 1.608 1.601 0.227 o
-19 7 1 0.617 0.508 0.112 o
-19 7 2 7.871 8.065 0.267 o
-19 7 3 1.005 0.947 0.104 o
-19 7 4 2.565 2.424 0.192 o
-19 7 5 0.360 0.348 0.090 o
-19 7 6 8.806 8.789 0.488 o
-19 7 7 1.443 1.122 0.313 o
-18 0 2 27.008 26.666 1.189 o
-18 0 4 121.585 123.976 3.953 o
-18 0 6 148.701 151.607 4.545 o
-18 0 8 2.737 2.878 0.405 o
-18 0 10 71.251 75.154 2.630 o
-18 0 12 6.783 8.583 0.472 o
-18 0 14 13.937 13.273 0.633 o
-18 0 16 8.714 8.278 0.577 o
-18 0 18 9.935 9.809 0.629 o
-18 0 20 11.836 12.227 0.691 o
-18 1 1 1.365 1.541 0.238 o
-18 1 2 31.599 31.377 0.939 o
-18 1 3 139.061 135.943 4.170 o
-18 1 4 11.484 11.573 0.421 o
-18 1 5 5.591 5.756 0.291 o
-18 1 6 3.869 3.794 0.220 o
-18 1 7 17.435 18.264 0.556 o
-18 1 8 12.746 12.899 0.442 o
-18 1 9 2.729 3.057 0.230 o
-18 1 10 3.098 3.102 0.333 o
-18 1 11 1.816 1.828 0.177 o
-18 1 13 0.925 0.912 0.153 o
-18 1 14 2.746 3.121 0.295 o
-18 1 15 51.436 51.476 2.002 o
-18 1 16 16.518 17.477 0.518 o
-18 1 17 8.447 8.548 0.343 o
-18 1 18 31.551 31.614 0.803 o
-18 1 19 5.776 5.700 0.247 o
-18 1 20 1.078 1.007 0.136 o
-18 1 21 2.621 2.645 0.217 o
-18 1 23 15.214 15.673 0.529 o
-18 2 2 7.578 7.598 0.412 o
-18 2 3 48.525 46.540 2.812 o
-18 2 4 25.446 27.641 1.433 o
-18 2 5 7.259 7.187 0.723 o
-18 2 6 18.992 18.557 0.725 o
-18 2 7 10.795 11.951 0.568 o
-18 2 8 4.405 3.979 0.352 o
-18 2 9 2.770 2.889 0.175 o
-18 2 10 14.008 13.846 0.417 o
-18 2 11 3.371 3.176 0.195 o
-18 2 12 11.465 11.123 0.427 o
-18 2 14 9.203 9.255 0.420 o
-18 2 15 56.268 54.609 1.733 o
-18 2 16 0.317 0.437 0.115 o
-18 2 17 2.816 3.104 0.342 o
-18 2 18 0.692 0.626 0.154 o
-18 2 19 23.948 23.276 0.887 o
-18 2 20 4.271 4.416 0.270 o
-18 2 22 2.309 2.087 0.286 o
-18 3 1 6.194 6.287 0.243 o
-18 3 2 13.776 13.463 0.354 o
-18 3 3 43.530 42.438 1.189 o
-18 3 4 11.472 11.827 0.335 o
-18 3 5 6.940 7.041 0.219 o
-18 3 6 2.762 3.146 0.139 o
-18 3 7 42.334 42.422 1.068 o
-18 3 8 103.735 105.104 2.819 o
-18 3 9 107.828 108.915 2.599 o
-18 3 10 16.141 16.144 0.451 o
-18 3 11 2.648 2.661 0.178 o
-18 3 12 20.157 20.192 0.541 o
-18 3 13 50.568 52.717 1.291 o
-18 3 14 32.259 31.849 0.958 o
-18 3 15 0.193 0.437 0.103 o
-18 3 16 7.736 7.734 0.295 o
-18 3 18 2.612 2.954 0.164 o
-18 3 19 1.573 1.853 0.141 o
-18 3 21 2.298 2.368 0.185 o
-18 4 1 20.814 19.930 0.557 o
-18 4 2 1.486 1.602 0.106 o
-18 4 3 13.965 13.809 0.370 o
-18 4 4 33.461 33.445 0.828 o
-18 4 5 1.343 1.213 0.084 o
-18 4 6 9.121 9.457 0.275 o
-18 4 7 11.001 11.382 0.314 o
-18 4 8 269.340 271.326 6.631 o
-18 4 9 0.613 0.632 0.083 o
-18 4 10 51.654 52.095 1.242 o
-18 4 11 5.871 5.575 0.294 o
-18 4 12 2.349 2.574 0.140 o
-18 4 13 3.939 4.020 0.293 o
-18 4 14 1.971 1.918 0.148 o
-18 4 18 1.011 0.928 0.131 o
-18 4 19 4.860 4.559 0.222 o
-18 4 20 7.963 8.218 0.408 o
-18 5 1 8.910 8.829 0.346 o
-18 5 2 23.013 23.137 0.575 o
-18 5 3 1.790 1.887 0.107 o
-18 5 4 1.264 1.103 0.088 o
-18 5 5 0.753 0.723 0.079 o
-18 5 6 10.855 10.863 0.306 o
-18 5 7 35.758 36.488 0.999 o
-18 5 8 13.649 14.307 0.421 o
-18 5 9 18.759 18.855 0.763 o
-18 5 10 2.597 2.664 0.172 o
-18 5 11 3.155 3.110 0.315 o
-18 5 13 4.858 4.722 0.239 o
-18 5 14 23.301 23.962 0.752 o
-18 5 15 0.398 0.340 0.106 o
-18 5 16 14.099 13.519 0.701 o
-18 5 17 1.019 0.829 0.144 o
-18 6 1 0.549 0.457 0.100 o
-18 6 2 1.312 1.254 0.109 o
-18 6 3 4.772 4.634 0.196 o
-18 6 4 0.678 0.717 0.097 o
-18 6 5 6.495 6.462 0.235 o
-18 6 6 11.691 11.582 0.336 o
-18 6 7 4.486 4.651 0.189 o
-18 6 11 0.857 0.853 0.120 o
-18 6 13 3.519 3.533 0.193 o
-18 6 14 3.710 3.461 0.197 o
-18 7 2 3.926 3.973 0.184 o
-18 7 3 0.259 0.292 0.092 o
-18 7 4 0.969 0.811 0.101 o
-18 7 8 0.940 0.970 0.135 o
-17 0 2 21.773 20.903 0.822 o
-17 0 6 185.739 182.272 4.935 o
-17 0 8 31.653 32.544 1.021 o
-17 0 10 98.198 101.009 3.375 o
-17 0 12 8.165 7.908 0.350 o
-17 0 14 23.524 23.616 1.057 o
-17 0 16 43.791 45.411 2.016 o
-17 0 18 5.900 6.328 0.332 o
-17 0 20 25.548 27.313 0.836 o
-17 0 22 6.379 6.828 0.365 o
-17 1 1 47.059 44.952 1.350 o
-17 1 2 2.102 1.811 0.206 o
-17 1 3 6.008 5.843 0.318 o
-17 1 4 3.430 3.705 0.238 o
-17 1 5 84.353 84.711 2.381 o
-17 1 6 144.584 148.091 3.777 o
-17 1 8 1.405 1.546 0.156 o
-17 1 9 44.229 47.323 1.491 o
-17 1 10 23.851 24.184 2.424 o
-17 1 11 80.679 82.259 2.926 o
-17 1 13 8.000 7.884 0.463 o
-17 1 14 25.815 27.263 0.749 o
-17 1 15 107.292 105.794 2.598 o
-17 1 16 99.917 98.796 2.386 o
-17 1 17 34.733 35.003 0.881 o
-17 1 18 2.633 2.492 0.164 o
-17 1 19 3.124 3.252 0.196 o
-17 1 21 0.664 0.522 0.122 o
-17 1 22 1.419 1.319 0.147 o
-17 1 23 3.884 3.923 0.369 o
-17 2 1 8.253 8.897 0.438 o
-17 2 3 20.267 20.250 0.700 o
-17 2 4 134.802 134.270 4.635 o
-17 2 5 97.831 100.910 2.791 o
-17 2 6 16.136 16.481 0.706 o
-17 2 7 2.241 2.478 0.298 o
-17 2 8 73.383 75.404 3.770 o
-17 2 9 62.310 61.493 2.409 o
-17 2 10 3.941 3.847 0.220 o
-17 2 12 34.420 34.477 0.863 o
-17 2 13 1.898 1.894 0.161 o
-17 2 14 38.890 39.175 1.534 o
-17 2 15 4.785 5.113 0.213 o
-17 2 16 46.273 45.679 1.271 o
-17 2 17 39.849 39.382 1.270 o
-17 2 19 2.757 2.691 0.207 o
-17 2 20 5.851 5.904 0.292 o
-17 2 21 12.116 12.110 0.568 o
-17 2 22 0.428 0.452 0.145 o
-17 3 1 30.074 31.392 1.042 o
-17 3 3 1.240 1.524 0.254 o
-17 3 4 15.467 15.208 0.559 o
-17 3 5 6.823 6.540 0.316 o
-17 3 6 14.614 14.436 0.556 o
-17 3 7 10.357 10.705 0.300 o
-17 3 8 0.565 0.663 0.076 o
-17 3 9 38.490 38.227 1.072 o
-17 3 10 52.289 51.652 1.651 o
-17 3 11 11.343 11.469 0.344 o
-17 3 12 18.623 18.818 0.507 o
-17 3 13 0.521 0.711 0.106 o
-17 3 15 1.513 1.528 0.141 o
-17 3 16 15.992 15.805 0.611 o
-17 3 18 2.016 1.920 0.136 o
-17 3 20 0.672 0.646 0.114 o
-17 3 21 0.497 0.676 0.114 o
-17 3 22 25.677 24.832 0.789 o
-17 4 1 23.908 23.077 0.601 o
-17 4 2 0.234 0.345 0.071 o
-17 4 3 0.990 1.138 0.080 o
-17 4 4 6.537 6.560 0.199 o
-17 4 5 7.303 7.195 0.211 o
-17 4 6 50.303 49.821 1.223 o
-17 4 7 10.518 10.735 0.289 o
-17 4 8 16.866 17.405 0.438 o
-17 4 9 6.397 6.682 0.215 o
-17 4 13 2.008 2.221 0.147 o
-17 4 14 30.312 30.351 0.819 o
-17 4 15 1.851 1.938 0.147 o
-17 4 16 3.278 2.946 0.257 o
-17 4 20 0.849 0.801 0.131 o
-17 5 1 51.573 50.630 1.337 o
-17 5 2 4.572 4.644 0.197 o
-17 5 3 6.993 6.940 0.218 o
-17 5 4 4.725 4.818 0.181 o
-17 5 5 4.497 4.424 0.163 o
-17 5 6 30.097 29.766 0.732 o
-17 5 7 10.746 10.731 0.302 o
-17 5 8 2.082 2.216 0.145 o
-17 5 9 16.267 16.529 0.444 o
-17 5 10 3.138 3.252 0.171 o
-17 5 11 3.924 3.718 0.198 o
-17 5 12 0.505 0.502 0.117 o
-17 5 13 1.786 1.614 0.235 o
-17 5 15 0.620 0.645 0.112 o
-17 5 17 1.244 1.367 0.149 o
-17 6 1 10.450 10.623 0.312 o
-17 6 2 2.207 2.262 0.133 o
-17 6 3 0.376 0.286 0.088 o
-17 6 4 2.345 2.164 0.133 o
-17 6 5 18.418 18.018 0.608 o
-17 6 6 1.966 1.974 0.128 o
-17 6 7 3.712 3.503 0.168 o
-17 6 8 1.668 1.699 0.120 o
-17 6 9 0.704 0.629 0.104 o
-17 6 10 5.000 4.964 0.206 o
-17 6 11 4.846 4.648 0.215 o
-17 6 12 1.953 1.860 0.150 o
-17 6 14 1.097 0.959 0.123 o
-17 6 15 8.365 7.612 0.327 o
-17 7 1 0.932 0.852 0.115 o
-17 7 4 2.223 2.276 0.166 o
-17 7 5 3.887 3.855 0.174 o
-17 7 6 17.709 17.352 0.622 o
-17 7 7 0.953 0.850 0.150 o
-16 0 2 318.157 312.799 9.495 o
-16 0 4 39.658 39.778 1.148 o
-16 0 6 0.955 0.885 0.185 o
-16 0 8 2.954 2.995 0.268 o
-16 0 10 7.930 8.700 0.866 o
-16 0 14 9.902 11.026 0.601 o
-16 0 16 242.385 248.201 6.736 o
-16 0 18 0.566 0.635 0.168 o
-16 0 20 12.532 12.285 1.580 o
-16 0 22 21.999 21.678 2.237 o
-16 0 24 20.928 20.259 1.581 o
-16 1 1 15.454 14.626 0.585 o
-16 1 2 21.118 20.560 0.750 o
-16 1 3 87.413 87.122 2.264 o
-16 1 4 27.484 27.822 0.815 o
-16 1 5 47.830 49.904 1.348 o
-16 1 6 1.954 1.529 0.171 o
-16 1 7 57.243 56.517 1.464 o
-16 1 8 14.999 15.637 0.482 o
-16 1 9 28.327 28.976 0.833 o
-16 1 11 48.379 45.425 1.950 o
-16 1 12 14.976 14.215 0.476 o
-16 1 13 7.677 7.562 0.272 o
-16 1 14 1.344 1.237 0.155 o
-16 1 15 0.764 0.868 0.109 o
-16 1 16 3.292 3.295 0.268 o
-16 1 17 5.266 5.840 0.215 o
-16 1 18 17.474 17.154 0.530 o
-16 1 19 2.392 2.560 0.164 o
-16 1 20 0.480 0.481 0.106 o
-16 1 21 1.023 1.007 0.149 o
-16 1 22 21.860 21.790 0.731 o
-16 1 23 37.571 38.542 1.046 o
-16 2 2 72.389 71.069 1.833 o
-16 2 3 26.773 27.833 0.955 o
-16 2 4 2.275 2.547 0.210 o
-16 2 5 20.930 21.043 0.664 o
-16 2 6 52.392 52.649 1.475 o
-16 2 7 396.101 393.005 10.513 o
-16 2 8 128.226 129.332 3.318 o
-16 2 9 10.076 9.371 0.772 o
-16 2 10 10.467 11.159 1.132 o
-16 2 11 3.723 4.108 0.314 o
-16 2 13 28.007 28.097 0.893 o
-16 2 14 61.433 59.609 1.692 o
-16 2 15 4.770 4.869 0.250 o
-16 2 16 0.423 0.393 0.100 o
-16 2 17 13.119 13.082 0.497 o
-16 2 18 8.943 8.626 0.291 o
-16 2 19 1.246 1.356 0.146 o
-16 2 21 9.694 9.969 0.383 o
-16 2 22 0.784 0.719 0.160 o
-16 2 23 26.327 26.012 1.170 o
-16 3 1 58.745 56.108 1.872 o
-16 3 3 7.269 7.553 0.461 o
-16 3 4 32.992 33.691 1.016 o
-16 3 5 12.361 12.989 0.465 o
-16 3 6 69.166 68.559 1.769 o
-16 3 7 59.123 57.752 1.845 o
-16 3 8 109.610 109.530 2.779 o
-16 3 9 7.412 7.405 0.225 o
-16 3 10 8.624 8.663 0.389 o
-16 3 11 13.850 13.751 0.456 o
-16 3 12 2.261 2.221 0.146 o
-16 3 13 24.336 23.480 0.651 o
-16 3 14 8.344 8.100 0.280 o
-16 3 16 4.454 4.181 0.202 o
-16 3 17 6.244 6.025 0.239 o
-16 3 18 20.919 20.340 0.788 o
-16 3 19 4.879 4.847 0.214 o
-16 3 20 0.689 0.676 0.115 o
-16 4 1 26.678 27.042 0.768 o
-16 4 2 1.764 1.785 0.094 o
-16 4 3 22.299 22.165 0.540 o
-16 4 4 1.103 1.190 0.081 o
-16 4 5 0.388 0.475 0.066 o
-16 4 6 0.902 0.902 0.076 o
-16 4 7 4.665 4.687 0.169 o
-16 4 8 0.520 0.586 0.071 o
-16 4 11 24.326 24.431 0.724 o
-16 4 12 96.248 95.734 2.285 o
-16 4 14 33.647 33.890 0.983 o
-16 4 15 1.507 1.493 0.120 o
-16 4 16 0.283 0.442 0.108 o
-16 4 17 1.038 0.926 0.109 o
-16 4 18 4.448 4.568 0.262 o
-16 5 2 18.383 18.477 0.481 o
-16 5 3 9.561 9.842 0.272 o
-16 5 4 3.355 3.208 0.144 o
-16 5 5 0.634 0.648 0.082 o
-16 5 6 100.198 99.648 2.384 o
-16 5 7 26.903 27.205 0.666 o
-16 5 8 34.881 35.315 0.889 o
-16 5 9 3.105 3.111 0.153 o
-16 5 10 0.403 0.410 0.089 o
-16 5 11 1.642 1.856 0.144 o
-16 5 13 2.758 2.571 0.351 o
-16 5 15 0.578 0.532 0.109 o
-16 5 16 0.753 0.811 0.132 o
-16 5 17 1.537 1.229 0.212 o
-16 6 1 6.509 6.118 0.217 o
-16 6 4 5.736 5.731 0.211 o
-16 6 5 15.012 14.605 0.401 o
-16 6 6 23.750 23.926 0.644 o
-16 6 7 38.153 37.992 1.102 o
-16 6 8 1.279 1.262 0.109 o
-16 6 11 1.383 1.376 0.178 o
-16 6 12 4.466 4.556 0.244 o
-16 6 13 3.537 3.618 0.258 o
-16 6 14 3.488 3.515 0.190 o
-16 6 15 0.771 0.651 0.125 o
-16 7 1 1.700 1.798 0.154 o
-16 7 2 2.014 2.120 0.142 o
-16 7 3 0.479 0.359 0.103 o
-16 7 4 1.277 1.238 0.120 o
-16 7 5 0.583 0.598 0.108 o
-16 7 6 2.045 1.930 0.148 o
-16 7 7 1.593 1.689 0.115 o
-16 7 9 0.604 0.659 0.103 o
-16 7 11 2.514 2.511 0.255 o
-15 0 2 63.034 58.720 1.741 o
-15 0 6 17.472 18.276 0.637 o
-15 0 8 1.309 1.252 0.198 o
-15 0 10 30.519 31.957 1.227 o
-15 0 14 603.890 590.055 23.640 o
-15 0 16 171.870 175.121 5.139 o
-15 0 18 1.647 3.413 0.534 o
-15 0 22 4.582 4.774 0.323 o
-15 0 24 3.255 3.339 0.288 o
-15 1 1 22.989 22.271 0.760 o
-15 1 2 5.829 6.045 0.301 o
-15 1 3 11.242 10.900 0.431 o
-15 1 4 33.904 34.235 1.221 o
-15 1 5 123.517 124.078 3.458 o
-15 1 6 151.454 149.188 4.253 o
-15 1 7 116.979 116.262 4.061 o
-15 1 8 281.592 287.954 10.397 o
-15 1 10 0.803 1.000 0.233 o
-15 1 11 19.754 19.775 1.083 o
-15 1 13 63.681 62.069 1.533 o
-15 1 14 1.433 1.368 0.117 o
-15 1 15 110.659 110.558 2.641 o
-15 1 16 15.577 15.246 0.427 o
-15 1 19 47.388 49.400 1.238 o
-15 1 20 2.225 2.132 0.150 o
-15 1 24 1.160 1.076 0.192 o
-15 2 1 3.567 3.814 0.229 o
-15 2 2 35.668 36.306 0.998 o
-15 2 3 2.276 2.251 0.184 o
-15 2 4 100.417 98.636 3.112 o
-15 2 5 89.314 89.925 2.211 o
-15 2 6 0.372 0.428 0.117 o
-15 2 7 33.276 34.239 1.135 o
-15 2 8 2.038 1.778 0.184 o
-15 2 9 237.630 236.740 6.830 o
-15 2 10 13.745 14.948 0.648 o
-15 2 11 1.155 1.205 0.260 o
-15 2 12 22.160 22.021 0.597 o
-15 2 13 6.143 5.971 0.234 o
-15 2 14 3.812 3.838 0.227 o
-15 2 17 8.458 8.191 0.365 o
-15 2 18 2.218 2.232 0.152 o
-15 2 20 5.007 5.330 0.243 o
-15 2 21 21.881 21.850 0.792 o
-15 2 22 5.780 5.788 0.291 o
-15 2 23 5.624 5.309 0.562 o
-15 3 1 1.916 2.074 0.209 o
-15 3 2 53.601 54.255 1.857 o
-15 3 3 146.113 141.952 3.712 o
-15 3 4 58.718 59.188 1.520 o
-15 3 5 16.610 17.315 0.544 o
-15 3 6 16.234 17.288 0.552 o
-15 3 8 15.639 15.324 0.590 o
-15 3 9 1.694 1.607 0.124 o
-15 3 11 6.331 6.286 0.319 o
-15 3 12 30.515 30.314 0.769 o
-15 3 13 0.619 0.523 0.099 o
-15 3 14 75.523 73.352 1.772 o
-15 3 15 1.875 2.504 0.158 o
-15 3 18 0.831 0.869 0.117 o
-15 3 19 2.533 2.364 0.203 o
-15 3 20 5.419 5.196 0.220 o
-15 3 21 0.666 0.687 0.155 o
-15 3 22 0.682 0.748 0.129 o
-15 4 1 5.589 5.382 0.177 o
-15 4 2 2.876 2.843 0.121 o
-15 4 3 1.635 1.649 0.089 o
-15 4 4 19.670 19.328 0.471 o
-15 4 5 0.533 0.525 0.063 o
-15 4 7 1.733 1.771 0.116 o
-15 4 8 6.672 6.814 0.204 o
-15 4 9 23.607 23.554 0.640 o
-15 4 10 16.656 16.889 0.460 o
-15 4 11 4.761 4.986 0.222 o
-15 4 12 3.082 3.240 0.209 o
-15 4 14 5.667 5.873 0.214 o
-15 4 15 1.655 1.770 0.128 o
-15 4 16 0.800 0.746 0.114 o
-15 4 18 11.058 10.730 0.393 o
-15 4 19 3.601 3.570 0.206 o
-15 4 21 7.732 7.192 0.312 o
-15 5 1 7.767 7.869 0.264 o
-15 5 2 4.502 4.606 0.183 o
-15 5 3 15.658 15.148 0.433 o
-15 5 4 29.870 29.010 0.701 o
-15 5 5 0.855 0.853 0.079 o
-15 5 6 33.175 33.323 0.794 o
-15 5 7 1.983 1.951 0.129 o
-15 5 8 1.029 1.053 0.146 o
-15 5 9 2.773 2.627 0.143 o
-15 5 11 2.763 3.031 0.181 o
-15 5 12 4.681 4.783 0.279 o
-15 5 13 12.946 12.885 0.440 o
-15 5 14 3.141 3.157 0.226 o
-15 5 16 0.899 0.766 0.188 o
-15 5 17 0.719 0.732 0.187 o
-15 5 18 1.338 1.271 0.145 o
-15 6 1 2.373 2.194 0.155 o
-15 6 2 1.421 1.510 0.113 o
-15 6 3 0.559 0.681 0.093 o
-15 6 4 1.817 1.713 0.121 o
-15 6 5 18.971 18.995 0.487 o
-15 6 7 4.395 4.290 0.173 o
-15 6 8 1.692 1.540 0.109 o
-15 6 9 2.924 2.816 0.161 o
-15 6 10 8.519 8.648 0.344 o
-15 6 14 0.491 0.471 0.122 o
-15 6 16 1.921 1.796 0.222 o
-15 7 2 1.212 1.197 0.118 o
-15 7 3 3.185 2.993 0.174 o
-15 7 4 4.741 4.745 0.205 o
-15 7 6 2.032 1.969 0.152 o
-15 7 8 1.050 1.019 0.113 o
-15 7 9 9.063 9.021 0.389 o
-15 7 10 0.499 0.432 0.110 o
-15 7 11 1.800 1.841 0.164 o
-14 0 2 36.095 34.434 1.946 o
-14 0 4 39.375 40.882 1.161 o
-14 0 6 231.291 230.932 6.098 o
-14 0 8 43.281 46.082 1.818 o
-14 0 10 183.022 180.742 8.268 o
-14 0 12 1.242 1.210 0.228 o
-14 0 14 2.888 4.433 0.253 o
-14 0 16 56.940 58.498 1.882 o
-14 0 18 1.256 1.296 0.186 o
-14 0 20 38.231 39.558 1.609 o
-14 1 1 125.112 126.031 3.131 o
-14 1 2 5.913 6.184 0.270 o
-14 1 3 47.943 47.595 1.286 o
-14 1 4 46.049 44.340 1.443 o
-14 1 5 337.279 334.988 9.531 o
-14 1 6 278.793 281.293 7.628 o
-14 1 7 252.768 252.035 6.322 o
-14 1 8 9.122 9.493 0.344 o
-14 1 9 5.574 5.172 0.338 o
-14 1 10 9.861 10.045 0.486 o
-14 1 11 5.560 5.076 0.362 o
-14 1 12 4.181 3.864 0.987 o
-14 1 13 1.702 2.000 0.483 o
-14 1 14 62.527 61.725 1.819 o
-14 1 15 167.957 171.379 4.161 o
-14 1 16 35.571 35.007 0.881 o
-14 1 17 0.443 0.460 0.084 o
-14 1 19 1.432 1.529 0.127 o
-14 1 20 16.917 17.094 0.480 o
-14 1 21 1.512 1.492 0.142 o
-14 1 22 29.984 30.242 0.952 o
-14 2 1 5.186 4.887 0.267 o
-14 2 2 56.774 56.072 1.492 o
-14 2 3 4.480 4.161 0.211 o
-14 2 4 69.726 69.885 1.762 o
-14 2 5 3.863 3.784 0.210 o
-14 2 6 190.912 189.241 4.628 o
-14 2 7 83.339 83.393 2.052 o
-14 2 8 1.268 1.298 0.145 o
-14 2 9 0.526 0.578 0.152 o
-14 2 10 45.284 45.201 1.715 o
-14 2 11 25.815 24.698 1.118 o
-14 2 12 0.505 0.707 0.184 o
-14 2 14 3.276 3.292 0.172 o
-14 2 15 6.720 6.369 0.234 o
-14 2 16 0.716 0.774 0.105 o
-14 2 17 9.881 9.770 0.300 o
-14 2 18 1.660 1.629 0.135 o
-14 2 20 1.142 0.869 0.130 o
-14 2 21 16.463 16.575 0.493 o
-14 2 22 38.117 37.908 1.037 o
-14 2 23 14.627 15.407 0.502 o
-14 3 2 39.952 39.586 1.270 o
-14 3 3 0.708 0.816 0.155 o
-14 3 4 1.464 1.495 0.156 o
-14 3 5 23.669 24.927 0.725 o
-14 3 6 14.169 14.613 0.516 o
-14 3 7 1.148 1.285 0.163 o
-14 3 8 35.862 35.768 1.168 o
-14 3 9 1.883 1.780 0.228 o
-14 3 10 5.422 5.732 0.213 o
-14 3 11 5.605 5.670 0.246 o
-14 3 12 144.737 144.220 3.828 o
-14 3 13 1.852 2.003 0.136 o
-14 3 14 19.586 19.243 0.614 o
-14 3 15 2.226 2.238 0.149 o
-14 3 16 0.439 0.280 0.091 o
-14 3 17 11.370 11.269 0.371 o
-14 3 18 0.480 0.460 0.107 o
-14 3 19 0.279 0.380 0.105 o
-14 3 20 8.399 8.526 0.314 o
-14 3 21 19.073 18.903 0.547 o
-14 3 22 8.179 7.743 0.429 o
-14 4 2 0.802 0.909 0.091 o
-14 4 3 7.258 7.213 0.274 o
-14 4 4 143.172 137.364 3.227 o
-14 4 5 8.395 8.436 0.252 o
-14 4 6 41.209 40.154 1.036 o
-14 4 8 1.111 1.066 0.089 o
-14 4 9 0.246 0.248 0.071 o
-14 4 10 7.344 7.424 0.250 o
-14 4 11 0.620 0.597 0.085 o
-14 4 12 5.214 5.655 0.209 o
-14 4 13 2.760 2.849 0.148 o
-14 4 15 1.102 1.044 0.104 o
-14 4 16 28.148 27.353 0.961 o
-14 4 17 2.594 2.246 0.211 o
-14 4 18 7.075 6.676 0.272 o
-14 5 1 0.213 0.247 0.067 o
-14 5 2 1.997 1.876 0.101 o
-14 5 3 0.844 0.926 0.080 o
-14 5 4 0.612 0.638 0.075 o
-14 5 5 9.665 9.913 0.275 o
-14 5 7 5.046 5.155 0.175 o
-14 5 8 1.091 1.095 0.123 o
-14 5 9 20.048 19.825 0.530 o
-14 5 10 2.530 2.400 0.171 o
-14 5 11 69.941 68.037 2.730 o
-14 5 12 8.411 8.247 0.287 o
-14 5 13 1.603 1.584 0.138 o
-14 5 14 0.532 0.462 0.105 o
-14 5 15 6.377 6.217 0.334 o
-14 5 17 6.583 6.401 0.463 o
-14 6 1 7.965 7.874 0.241 o
-14 6 2 2.065 2.108 0.116 o
-14 6 3 3.283 3.269 0.147 o
-14 6 4 0.883 0.833 0.098 o
-14 6 5 23.400 23.373 0.693 o
-14 6 6 31.230 31.365 0.763 o
-14 6 7 6.635 6.804 0.224 o
-14 6 8 6.811 6.793 0.282 o
-14 6 10 10.196 9.962 0.356 o
-14 6 12 1.188 1.165 0.129 o
-14 6 14 3.613 3.703 0.201 o
-14 6 15 4.681 4.698 0.230 o
-14 6 16 1.434 1.663 0.346 o
-14 7 1 4.951 4.535 0.196 o
-14 7 3 2.812 2.592 0.166 o
-14 7 4 19.045 18.643 0.519 o
-14 7 5 17.659 17.718 0.470 o
-14 7 6 18.605 18.810 0.621 o
-14 7 7 0.259 1.750 0.120 o
-14 7 11 2.193 2.235 0.209 o
-14 7 12 0.731 0.645 0.126 o
-13 0 2 42.260 42.521 1.310 o
-13 0 4 3.601 3.592 0.277 o
-13 0 6 1911.621 1954.717 47.886 o
-13 0 8 177.015 179.136 4.647 o
-13 0 10 46.748 44.922 3.265 o
-13 0 12 33.154 33.565 1.841 o
-13 0 14 87.021 84.933 12.764 o
-13 0 18 79.917 79.191 2.081 o
-13 0 20 3.314 3.405 0.290 o
-13 0 22 3.073 3.004 0.282 o
-13 1 1 140.228 143.433 3.551 o
-13 1 2 37.415 36.255 0.950 o
-13 1 3 21.342 21.211 0.625 o
-13 1 5 4.804 4.719 0.239 o
-13 1 6 1.019 0.991 0.123 o
-13 1 7 185.359 183.541 5.244 o
-13 1 8 73.578 75.987 2.096 o
-13 1 10 1.245 1.032 0.212 o
-13 1 11 35.145 32.632 1.498 o
-13 1 12 128.296 122.918 8.872 o
-13 1 13 137.426 132.315 5.611 o
-13 1 14 147.589 143.243 3.564 o
-13 1 15 14.019 14.016 0.380 o
-13 1 16 15.983 15.551 0.486 o
-13 1 19 12.374 12.535 0.394 o
-13 1 20 20.253 20.934 0.566 o
-13 1 21 1.109 1.205 0.128 o
-13 1 24 1.290 1.079 0.161 o
-13 2 1 65.065 64.501 1.641 o
-13 2 2 7.359 7.532 0.280 o
-13 2 3 105.902 106.471 2.694 o
-13 2 4 141.371 141.528 3.425 o
-13 2 5 22.829 22.218 0.623 o
-13 2 7 23.911 24.932 0.718 o
-13 2 8 20.317 20.679 0.670 o
-13 2 9 2.607 2.603 0.253 o
-13 2 11 50.695 48.407 1.996 o
-13 2 13 231.602 224.501 5.947 o
-13 2 15 0.506 0.444 0.095 o
-13 2 17 0.931 0.918 0.103 o
-13 2 18 40.707 39.786 1.173 o
-13 2 19 1.250 1.375 0.148 o
-13 2 21 0.555 0.399 0.105 o
-13 2 22 0.629 0.628 0.129 o
-13 2 23 3.480 3.547 0.183 o
-13 2 24 1.107 0.997 0.316 o
-13 3 1 18.999 19.029 0.570 o
-13 3 3 63.931 62.384 1.623 o
-13 3 4 20.616 20.695 0.580 o
-13 3 6 4.534 4.793 0.247 o
-13 3 7 20.525 21.386 0.662 o
-13 3 8 116.509 114.770 3.032 o
-13 3 9 16.975 17.005 0.607 o
-13 3 11 1.536 1.718 0.113 o
-13 3 12 3.774 3.781 0.169 o
-13 3 13 6.676 6.619 0.227 o
-13 3 14 0.882 0.965 0.098 o
-13 3 17 39.422 39.033 1.476 o
-13 3 18 1.004 0.904 0.117 o
-13 3 19 1.071 1.158 0.124 o
-13 3 20 0.633 0.574 0.127 o
-13 3 21 3.013 2.778 0.191 o
-13 3 22 15.856 15.771 0.490 o
-13 3 23 11.870 10.850 0.593 o
-13 4 1 72.209 72.415 1.877 o
-13 4 2 159.991 156.177 4.059 o
-13 4 3 1.077 0.897 0.169 o
-13 4 4 87.031 85.694 2.402 o
-13 4 5 2.783 2.832 0.231 o
-13 4 6 1.600 1.498 0.099 o
-13 4 7 2.222 2.232 0.116 o
-13 4 8 14.399 14.440 0.462 o
-13 4 11 23.178 22.803 0.567 o
-13 4 12 17.615 17.098 0.446 o
-13 4 13 14.306 14.193 0.501 o
-13 4 14 11.097 11.145 0.407 o
-13 4 15 2.499 2.404 0.135 o
-13 4 16 3.206 3.171 0.180 o
-13 4 17 2.481 2.432 0.194 o
-13 4 18 3.401 3.367 0.201 o
-13 4 19 2.077 2.030 0.188 o
-13 5 1 3.045 3.033 0.137 o
-13 5 2 0.454 0.451 0.070 o
-13 5 3 8.408 8.322 0.241 o
-13 5 5 0.718 0.627 0.083 o
-13 5 6 1.712 1.657 0.092 o
-13 5 7 3.991 3.916 0.145 o
-13 5 9 27.889 28.026 0.692 o
-13 5 10 2.596 2.870 0.162 o
-13 5 11 0.604 0.647 0.100 o
-13 5 14 0.785 0.871 0.119 o
-13 5 15 1.857 1.912 0.145 o
-13 5 16 8.250 7.794 0.458 o
-13 5 17 4.125 4.034 0.359 o
-13 5 18 1.654 1.574 0.156 o
-13 5 19 0.664 0.539 0.125 o
-13 6 1 3.652 3.517 0.154 o
-13 6 2 23.778 23.485 0.583 o
-13 6 3 4.030 3.971 0.157 o
-13 6 4 3.715 3.380 0.154 o
-13 6 5 0.672 0.623 0.079 o
-13 6 6 8.192 8.351 0.277 o
-13 6 8 8.218 8.195 0.259 o
-13 6 9 1.926 2.049 0.138 o
-13 6 10 4.006 4.095 0.280 o
-13 6 11 5.319 4.925 0.336 o
-13 6 12 5.113 4.986 0.224 o
-13 6 13 11.973 11.629 0.462 o
-13 6 14 1.305 1.146 0.156 o
-13 7 1 8.299 8.009 0.311 o
-13 7 2 2.551 2.599 0.155 o
-13 7 4 5.465 5.464 0.221 o
-13 7 5 2.389 2.481 0.143 o
-13 7 7 14.089 14.207 0.393 o
-13 7 8 0.455 0.538 0.102 o
-13 7 11 0.766 0.639 0.128 o
-13 7 12 0.912 0.997 0.137 o
-12 0 2 85.252 86.866 3.180 o
-12 0 4 1412.441 1386.470 41.813 o
-12 0 6 737.395 750.745 19.159 o
-12 0 8 7.182 7.308 0.399 o
-12 0 10 8.624 8.400 0.435 o
-12 0 12 20.299 21.430 1.762 o
-12 0 14 13.651 12.999 0.769 o
-12 0 16 23.136 24.237 0.693 o
-12 0 18 4.439 4.338 0.286 o
-12 0 20 74.456 75.173 2.901 o
-12 0 22 7.762 7.365 0.955 o
-12 0 24 15.043 15.557 0.573 o
-12 1 1 41.930 41.940 1.186 o
-12 1 2 1.975 2.115 0.186 o
-12 1 3 43.517 42.398 1.116 o
-12 1 4 36.118 36.506 0.994 o
-12 1 5 247.805 249.673 6.145 o
-12 1 6 51.710 51.825 1.619 o
-12 1 7 24.262 24.346 0.657 o
-12 1 8 0.854 0.759 0.117 o
-12 1 9 196.869 189.815 8.785 o
-12 1 11 13.007 13.088 0.682 o
-12 1 12 3.188 3.122 0.386 o
-12 1 14 25.327 23.593 0.888 o
-12 1 15 13.138 13.379 0.364 o
-12 1 17 4.951 4.899 0.221 o
-12 1 18 8.586 8.956 0.322 o
-12 1 19 20.299 20.425 0.545 o
-12 1 20 15.700 15.690 0.662 o
-12 1 22 1.657 1.583 0.167 o
-12 1 24 3.669 3.859 0.240 o
-12 2 1 8.712 9.289 0.319 o
-12 2 2 99.398 101.082 2.449 o
-12 2 3 31.987 31.972 0.829 o
-12 2 4 1.043 1.095 0.132 o
-12 2 5 24.663 23.505 0.651 o
-12 2 6 3.303 3.524 0.203 o
-12 2 7 48.108 48.286 1.268 o
-12 2 9 15.394 15.529 0.576 o
-12 2 10 43.291 40.681 1.196 o
-12 2 11 58.076 54.556 2.109 o
-12 2 12 61.967 57.223 2.938 o
-12 2 13 79.240 76.389 2.066 o
-12 2 14 150.514 146.152 4.556 o
-12 2 15 100.010 97.329 2.531 o
-12 2 16 0.871 0.672 0.099 o
-12 2 17 0.588 0.548 0.091 o
-12 2 18 0.398 0.330 0.084 o
-12 2 19 2.527 2.414 0.156 o
-12 2 20 6.725 6.684 0.255 o
-12 2 22 2.113 2.125 0.160 o
-12 2 23 1.618 1.612 0.133 o
-12 2 24 3.555 3.441 0.291 o
-12 3 1 7.030 6.925 0.294 o
-12 3 2 62.445 61.939 1.715 o
-12 3 3 8.920 10.885 0.683 o
-12 3 4 387.492 391.180 9.918 o
-12 3 5 1.032 1.110 0.129 o
-12 3 6 4.312 4.454 0.223 o
-12 3 8 0.941 1.186 0.154 o
-12 3 9 37.855 39.413 1.248 o
-12 3 10 4.473 4.358 0.827 o
-12 3 12 15.585 16.759 0.448 o
-12 3 13 28.595 28.094 0.695 o
-12 3 14 31.966 31.713 0.911 o
-12 3 15 2.044 2.070 0.208 o
-12 3 17 2.202 2.300 0.234 o
-12 3 19 1.913 1.625 0.189 o
-12 3 20 6.980 6.592 0.271 o
-12 3 21 34.904 34.114 0.918 o
-12 3 22 16.199 15.973 0.516 o
-12 4 1 8.249 7.737 0.347 o
-12 4 2 0.586 0.606 0.148 o
-12 4 4 10.976 11.703 0.438 o
-12 4 5 0.802 0.688 0.194 o
-12 4 7 3.265 3.253 0.151 o
-12 4 8 95.641 93.806 2.375 o
-12 4 9 9.168 9.060 0.366 o
-12 4 10 2.077 2.056 0.130 o
-12 4 11 40.522 39.918 0.951 o
-12 4 12 21.060 21.227 0.541 o
-12 4 13 0.415 0.350 0.080 o
-12 4 14 1.511 1.317 0.126 o
-12 4 16 6.640 6.582 0.265 o
-12 4 17 0.701 0.660 0.125 o
-12 4 18 1.408 1.681 0.308 o
-12 4 19 9.881 9.155 0.359 o
-12 4 20 32.775 31.169 1.016 o
-12 4 21 0.824 0.810 0.152 o
-12 5 1 15.611 15.375 0.397 o
-12 5 2 7.475 7.334 0.218 o
-12 5 3 55.517 54.604 1.264 o
-12 5 4 14.323 14.016 0.362 o
-12 5 6 7.182 6.944 0.205 o
-12 5 7 5.708 5.963 0.186 o
-12 5 8 2.484 2.399 0.121 o
-12 5 9 13.421 13.693 0.371 o
-12 5 10 3.173 3.289 0.173 o
-12 5 11 0.579 0.508 0.096 o
-12 5 13 18.041 18.086 0.963 o
-12 5 14 40.072 39.344 1.997 o
-12 5 16 12.912 12.056 0.742 o
-12 5 17 1.084 0.926 0.133 o
-12 6 1 0.322 0.239 0.077 o
-12 6 2 2.295 2.382 0.127 o
-12 6 3 0.619 1.342 0.094 o
-12 6 4 7.331 7.048 0.213 o
-12 6 5 1.793 1.707 0.100 o
-12 6 6 9.744 12.453 0.396 o
-12 6 7 3.036 3.213 0.141 o
-12 6 8 3.093 3.274 0.159 o
-12 6 9 7.948 9.660 0.370 o
-12 6 10 31.098 29.856 0.901 o
-12 6 11 5.010 5.233 0.336 o
-12 6 12 2.920 3.215 0.185 o
-12 6 13 8.325 8.396 0.293 o
-12 6 14 5.935 5.777 0.241 o
-12 6 15 32.107 30.896 0.930 o
-12 6 16 2.567 2.570 0.207 o
-12 6 17 1.192 0.954 0.212 o
-12 7 1 1.799 1.939 0.133 o
-12 7 2 0.899 0.813 0.106 o
-12 7 3 0.810 0.751 0.136 o
-12 7 4 2.820 3.077 0.159 o
-12 7 5 18.773 18.960 0.498 o
-12 7 6 3.470 3.545 0.171 o
-12 7 8 10.538 10.983 0.334 o
-12 7 10 0.551 0.386 0.124 o
-12 8 2 1.274 1.421 0.135 o
-12 8 3 9.655 9.642 0.315 o
-12 8 4 15.214 15.113 0.434 o
-11 0 2 204.624 198.246 5.570 o
-11 0 4 9.930 9.151 0.491 o
-11 0 6 393.974 393.959 11.503 o
-11 0 8 29.056 28.585 1.406 o
-11 0 10 271.388 267.873 13.157 o
-11 0 12 29.546 26.913 2.109 o
-11 0 14 27.327 25.509 3.629 o
-11 0 16 0.860 0.612 0.137 o
-11 0 18 35.067 35.814 0.999 o
-11 0 20 21.539 22.742 0.734 o
-11 0 22 1.725 1.659 0.399 o
-11 0 24 3.128 3.148 0.278 o
-11 1 1 48.643 48.209 1.294 o
-11 1 2 2.101 1.781 0.168 o
-11 1 3 3.361 3.672 0.225 o
-11 1 4 370.287 357.738 9.453 o
-11 1 5 963.765 958.156 23.171 o
-11 1 6 432.349 430.316 12.147 o
-11 1 7 11.888 12.441 0.398 o
-11 1 8 10.188 10.075 0.365 o
-11 1 9 4.786 5.431 0.299 o
-11 1 10 63.995 58.522 1.839 o
-11 1 11 68.037 63.919 2.527 o
-11 1 12 143.305 141.640 5.168 o
-11 1 13 4.525 4.534 0.351 o
-11 1 15 9.200 9.054 0.270 o
-11 1 16 4.455 4.442 0.179 o
-11 1 17 69.494 70.294 1.664 o
-11 1 18 8.434 8.345 0.260 o
-11 1 19 0.478 0.439 0.096 o
-11 1 20 0.403 0.413 0.104 o
-11 1 21 2.971 3.073 0.179 o
-11 1 23 1.518 1.426 0.147 o
-11 1 24 1.167 1.241 0.169 o
-11 2 1 8.802 9.177 0.305 o
-11 2 2 16.946 16.492 0.468 o
-11 2 3 32.578 33.164 0.846 o
-11 2 4 12.231 12.662 0.401 o
-11 2 5 143.185 138.568 3.324 o
-11 2 6 58.822 58.265 1.451 o
-11 2 7 14.893 15.283 0.477 o
-11 2 8 1.362 1.445 0.142 o
-11 2 9 2.222 1.950 0.229 o
-11 2 10 3.592 3.526 0.304 o
-11 2 11 34.141 33.706 1.064 o
-11 2 12 180.717 175.052 5.174 o
-11 2 13 64.094 61.560 1.872 o
-11 2 14 32.853 31.701 0.794 o
-11 2 15 5.803 5.617 0.213 o
-11 2 16 37.039 35.711 1.031 o
-11 2 17 6.420 6.533 0.216 o
-11 2 18 0.838 0.877 0.094 o
-11 2 19 4.827 4.732 0.223 o
-11 2 20 0.297 0.341 0.101 o
-11 2 21 1.445 1.325 0.130 o
-11 2 23 0.559 0.558 0.110 o
-11 2 24 2.686 2.599 0.164 o
-11 3 1 18.614 18.218 0.586 o
-11 3 2 259.828 252.761 6.366 o
-11 3 3 5.368 5.724 0.274 o
-11 3 4 33.019 33.516 0.869 o
-11 3 6 2.651 2.504 0.173 o
-11 3 7 19.307 19.838 0.561 o
-11 3 9 14.402 14.652 0.574 o
-11 3 10 37.594 37.149 1.207 o
-11 3 11 50.517 51.182 1.600 o
-11 3 12 31.535 31.871 1.036 o
-11 3 13 21.911 21.810 0.629 o
-11 3 14 23.098 23.566 0.814 o
-11 3 16 2.216 2.253 0.162 o
-11 3 17 34.198 33.885 1.054 o
-11 3 18 3.738 3.600 0.199 o
-11 3 20 3.387 3.537 0.206 o
-11 3 21 37.840 36.875 1.365 o
-11 3 22 14.815 14.362 0.592 o
-11 3 23 3.542 3.346 0.224 o
-11 4 2 7.163 6.876 0.328 o
-11 4 3 8.664 9.255 0.386 o
-11 4 4 1.027 0.922 0.160 o
-11 4 5 1.086 1.223 0.200 o
-11 4 6 52.287 51.736 1.366 o
-11 4 7 14.004 14.031 0.497 o
-11 4 8 24.257 23.856 0.592 o
-11 4 10 0.610 0.636 0.086 o
-11 4 11 4.028 3.995 0.167 o
-11 4 12 10.698 10.510 0.302 o
-11 4 13 1.477 1.570 0.110 o
-11 4 14 15.166 15.225 0.438 o
-11 4 15 18.916 18.110 0.558 o
-11 4 16 11.072 11.097 0.458 o
-11 4 18 1.886 1.945 0.196 o
-11 4 20 18.458 17.493 0.559 o
-11 4 21 1.052 1.055 0.184 o
-11 4 22 53.338 50.172 1.418 o
-11 5 1 148.458 144.527 3.364 o
-11 5 2 8.913 8.900 0.250 o
-11 5 3 3.386 3.394 0.133 o
-11 5 4 1.923 1.936 0.097 o
-11 5 5 10.445 10.372 0.278 o
-11 5 6 1.651 1.657 0.090 o
-11 5 7 14.082 14.307 0.384 o
-11 5 8 1.113 1.125 0.089 o
-11 5 9 1.091 1.073 0.102 o
-11 5 10 21.601 21.508 0.563 o
-11 5 11 33.122 32.561 0.822 o
-11 5 12 2.811 2.677 0.239 o
-11 5 13 14.993 15.131 0.476 o
-11 5 14 1.899 2.058 0.148 o
-11 5 15 4.286 4.700 0.258 o
-11 5 16 7.036 6.372 0.323 o
-11 5 19 0.618 0.538 0.140 o
-11 5 20 6.499 5.810 0.329 o
-11 6 1 0.407 0.448 0.079 o
-11 6 2 4.465 4.337 0.181 o
-11 6 3 0.702 0.582 0.078 o
-11 6 4 8.762 8.556 0.250 o
-11 6 5 24.236 24.072 0.675 o
-11 6 6 11.888 12.147 0.334 o
-11 6 7 14.773 14.668 0.396 o
-11 6 8 3.679 3.839 0.164 o
-11 6 9 3.602 3.393 0.163 o
-11 6 11 0.574 0.703 0.113 o
-11 6 12 2.344 2.296 0.156 o
-11 6 13 5.226 5.133 0.282 o
-11 6 14 0.934 0.940 0.190 o
-11 6 15 5.937 5.172 0.315 o
-11 6 16 1.481 1.297 0.306 o
-11 7 1 5.420 5.425 0.216 o
-11 7 2 0.479 0.460 0.100 o
-11 7 3 0.571 0.494 0.101 o
-11 7 4 8.448 8.535 0.270 o
-11 7 5 6.201 6.318 0.225 o
-11 7 6 37.826 37.862 0.996 o
-11 7 7 7.655 7.934 0.257 o
-11 7 8 1.933 1.996 0.139 o
-11 7 9 7.924 8.064 0.271 o
-11 7 10 2.195 2.052 0.179 o
-11 7 11 6.255 6.221 0.363 o
-11 7 12 2.764 2.847 0.194 o
-11 8 4 0.714 0.727 0.105 o
-11 8 6 7.410 7.373 0.315 o
-10 0 2 4.529 4.433 0.337 o
-10 0 4 87.011 80.643 6.844 o
-10 0 6 9.494 9.702 0.509 o
-10 0 8 231.505 229.264 11.577 o
-10 0 12 66.113 63.439 3.923 o
-10 0 16 25.687 26.024 0.767 o
-10 0 18 1.284 0.953 0.257 o
-10 0 20 25.140 25.530 0.797 o
-10 0 22 12.666 11.828 0.889 o
-10 0 24 17.515 17.582 0.965 o
-10 1 1 371.948 366.120 10.882 o
-10 1 2 274.442 273.525 8.558 o
-10 1 3 174.330 179.407 4.915 o
-10 1 4 512.665 514.046 14.799 o
-10 1 5 29.122 28.991 0.845 o
-10 1 6 74.236 73.543 1.842 o
-10 1 7 43.366 43.793 1.409 o
-10 1 9 29.859 29.559 0.911 o
-10 1 10 86.101 81.505 2.182 o
-10 1 11 2.732 2.830 0.316 o
-10 1 12 9.185 8.206 0.422 o
-10 1 14 3.123 2.976 0.421 o
-10 1 15 23.920 24.305 0.680 o
-10 1 16 4.597 4.490 0.236 o
-10 1 17 14.478 14.632 0.484 o
-10 1 18 12.035 11.829 0.366 o
-10 1 19 7.918 8.266 0.291 o
-10 1 20 21.593 21.794 0.568 o
-10 1 23 23.462 23.095 0.862 o
-10 1 25 2.936 2.881 0.394 o
-10 2 1 87.040 87.496 2.095 o
-10 2 2 86.921 89.167 2.169 o
-10 2 3 697.598 694.930 17.428 o
-10 2 4 11.045 11.123 0.359 o
-10 2 5 23.305 23.009 0.621 o
-10 2 6 17.464 18.070 0.547 o
-10 2 7 43.701 44.221 1.135 o
-10 2 8 208.614 210.490 7.429 o
-10 2 9 22.861 21.216 0.774 o
-10 2 11 6.743 7.135 0.380 o
-10 2 12 4.720 4.909 0.342 o
-10 2 13 13.225 13.020 0.618 o
-10 2 15 2.756 2.565 0.149 o
-10 2 16 5.514 5.353 0.189 o
-10 2 17 17.461 17.476 0.512 o
-10 2 18 23.454 23.349 0.589 o
-10 2 19 32.465 32.398 0.922 o
-10 2 20 0.306 0.311 0.103 o
-10 2 21 3.633 3.512 0.187 o
-10 2 22 12.752 12.313 0.607 o
-10 2 23 3.257 3.102 0.182 o
-10 2 24 1.559 1.606 0.136 o
-10 3 1 21.405 20.382 0.604 o
-10 3 2 2.748 2.846 0.210 o
-10 3 3 21.061 19.875 0.592 o
-10 3 4 1.461 1.450 0.136 o
-10 3 5 0.375 0.429 0.106 o
-10 3 6 12.702 13.113 0.430 o
-10 3 7 138.303 140.758 3.435 o
-10 3 8 10.448 10.583 0.598 o
-10 3 9 39.490 38.294 1.523 o
-10 3 11 29.870 29.116 1.852 o
-10 3 12 122.459 119.557 2.952 o
-10 3 13 170.963 170.413 4.132 o
-10 3 14 74.877 75.239 1.953 o
-10 3 16 0.367 0.348 0.083 o
-10 3 17 7.911 8.083 0.309 o
-10 3 18 1.651 1.452 0.171 o
-10 3 19 8.465 8.996 0.465 o
-10 3 20 2.115 1.919 0.191 o
-10 3 22 1.245 1.185 0.161 o
-10 3 23 1.358 1.296 0.163 o
-10 4 1 55.395 53.857 1.746 o
-10 4 2 22.767 22.326 0.660 o
-10 4 3 60.386 59.078 1.626 o
-10 4 4 72.156 71.134 1.794 o
-10 4 5 5.627 5.356 0.382 o
-10 4 6 10.867 10.959 0.503 o
-10 4 7 2.286 2.299 0.206 o
-10 4 8 33.646 32.311 1.071 o
-10 4 9 1.085 1.146 0.101 o
-10 4 10 1.800 1.965 0.121 o
-10 4 11 9.448 9.704 0.354 o
-10 4 12 231.097 230.531 5.634 o
-10 4 13 8.944 8.551 0.262 o
-10 4 14 40.886 39.175 1.001 o
-10 4 15 7.730 7.226 0.272 o
-10 4 19 4.707 4.105 0.266 o
-10 4 20 27.316 25.504 0.862 o
-10 4 21 2.541 2.651 0.225 o
-10 5 1 0.407 0.514 0.069 o
-10 5 2 2.869 2.829 0.120 o
-10 5 3 0.534 0.461 0.065 o
-10 5 4 0.834 0.871 0.073 o
-10 5 5 6.176 6.717 0.201 o
-10 5 6 69.581 69.603 1.603 o
-10 5 7 10.443 10.429 0.279 o
-10 5 8 0.378 0.480 0.072 o
-10 5 10 17.788 17.977 0.528 o
-10 5 12 15.941 16.002 0.559 o
-10 5 13 46.378 46.247 1.559 o
-10 5 14 37.920 38.643 1.592 o
-10 5 15 8.411 8.368 0.604 o
-10 5 17 2.819 2.984 0.290 o
-10 5 18 14.421 13.418 0.665 o
-10 5 19 11.037 10.967 0.489 o
-10 5 20 2.365 2.203 0.343 o
-10 6 1 7.622 7.598 0.235 o
-10 6 2 25.739 25.216 0.708 o
-10 6 3 18.766 18.164 0.466 o
-10 6 4 0.486 0.489 0.076 o
-10 6 5 1.201 1.229 0.095 o
-10 6 6 6.040 6.181 0.204 o
-10 6 7 27.005 27.626 0.676 o
-10 6 8 1.739 1.702 0.110 o
-10 6 11 1.112 1.242 0.128 o
-10 6 12 4.683 4.732 0.238 o
-10 6 13 10.343 10.350 0.526 o
-10 6 15 3.067 3.077 0.349 o
-10 6 16 1.061 0.932 0.171 o
-10 6 17 1.016 1.071 0.171 o
-10 7 1 5.541 5.251 0.212 o
-10 7 2 1.259 1.292 0.142 o
-10 7 3 1.721 1.770 0.122 o
-10 7 4 11.031 11.043 0.323 o
-10 7 6 1.051 0.980 0.104 o
-10 7 7 0.691 0.722 0.098 o
-10 7 8 10.015 9.897 0.341 o
-10 7 9 8.289 8.396 0.326 o
-10 7 10 5.305 5.253 0.227 o
-10 7 13 1.833 1.819 0.223 o
-10 8 3 1.440 1.458 0.123 o
-10 8 4 3.887 3.744 0.180 o
-10 8 5 1.240 1.200 0.118 o
-10 8 7 5.864 5.643 0.474 o
-9 0 2 165.653 161.251 4.681 o
-9 0 4 39.455 36.766 2.791 o
-9 0 6 218.478 228.639 6.231 o
-9 0 8 5.763 5.739 0.322 o
-9 0 10 472.765 480.083 14.825 o
-9 0 12 56.779 54.747 3.825 o
-9 0 14 147.969 157.078 5.095 o
-9 0 16 59.267 60.512 1.519 o
-9 0 18 7.330 6.973 0.469 o
-9 0 22 2.623 2.848 0.844 o
-9 0 24 4.700 4.931 0.321 o
-9 1 1 82.882 78.713 2.227 o
-9 1 2 87.616 85.054 2.244 o
-9 1 3 54.018 52.979 1.461 o
-9 1 4 92.955 91.009 2.362 o
-9 1 5 84.503 89.619 2.507 o
-9 1 6 4.769 4.769 0.272 o
-9 1 7 72.066 70.747 2.345 o
-9 1 8 9.502 9.348 0.361 o
-9 1 9 132.527 134.692 3.436 o
-9 1 10 116.337 119.263 3.275 o
-9 1 11 1.758 1.903 0.221 o
-9 1 12 28.973 27.328 0.892 o
-9 1 13 1.176 1.142 0.216 o
-9 1 14 43.608 41.236 3.458 o
-9 1 15 37.868 37.651 0.913 o
-9 1 16 6.471 6.465 0.252 o
-9 1 17 10.453 10.629 0.319 o
-9 1 18 3.360 3.426 0.199 o
-9 1 19 28.866 29.232 0.727 o
-9 1 20 1.938 1.830 0.143 o
-9 1 23 1.045 0.972 0.162 o
-9 1 24 0.604 0.658 0.148 o
-9 1 25 2.416 2.254 0.261 o
-9 2 1 80.350 79.747 2.073 o
-9 2 2 214.832 209.059 5.154 o
-9 2 3 299.775 302.949 7.301 o
-9 2 4 843.987 842.760 20.006 o
-9 2 5 565.382 567.352 13.641 o
-9 2 6 11.304 11.128 0.356 o
-9 2 7 5.479 5.668 0.241 o
-9 2 8 27.015 26.753 0.791 o
-9 2 9 20.579 20.668 0.674 o
-9 2 10 0.976 0.798 0.170 o
-9 2 11 2.959 2.436 0.253 o
-9 2 12 6.110 6.250 0.363 o
-9 2 13 14.987 14.074 0.639 o
-9 2 14 6.334 6.217 0.247 o
-9 2 15 0.578 0.453 0.072 o
-9 2 16 44.782 43.363 1.253 o
-9 2 17 10.679 10.882 0.374 o
-9 2 19 38.930 39.715 1.073 o
-9 2 20 32.072 32.045 0.953 o
-9 2 21 56.027 54.075 1.400 o
-9 2 22 7.866 7.616 0.272 o
-9 2 23 0.401 0.429 0.107 o
-9 2 24 4.315 4.506 0.271 o
-9 3 1 1.242 1.060 0.136 o
-9 3 2 77.748 76.050 1.876 o
-9 3 3 144.370 141.763 3.438 o
-9 3 4 153.731 152.701 3.711 o
-9 3 5 25.480 23.575 0.637 o
-9 3 6 2.541 3.386 0.197 o
-9 3 7 0.495 0.517 0.110 o
-9 3 8 4.386 4.106 0.248 o
-9 3 9 7.417 7.548 0.387 o
-9 3 10 14.029 14.004 0.615 o
-9 3 11 93.750 93.051 2.465 o
-9 3 12 100.702 97.056 3.551 o
-9 3 13 23.168 23.224 0.618 o
-9 3 14 41.721 42.047 1.359 o
-9 3 15 0.676 2.564 0.196 o
-9 3 16 1.573 1.656 0.123 o
-9 3 18 13.272 13.245 0.448 o
-9 3 20 29.515 28.443 0.970 o
-9 3 21 20.749 20.781 0.950 o
-9 3 22 8.064 7.851 0.329 o
-9 4 1 72.273 69.452 1.767 o
-9 4 2 32.501 31.595 0.872 o
-9 4 3 0.932 0.829 0.203 o
-9 4 4 4.949 5.059 0.267 o
-9 4 5 3.362 3.417 0.226 o
-9 4 6 6.949 7.221 0.346 o
-9 4 7 2.879 2.962 0.226 o
-9 4 8 22.256 21.217 0.797 o
-9 4 9 35.404 34.560 1.000 o
-9 4 10 53.615 54.159 1.272 o
-9 4 11 4.920 5.061 0.200 o
-9 4 12 1.453 1.557 0.121 o
-9 4 14 53.560 52.691 1.265 o
-9 4 15 18.551 18.183 0.571 o
-9 4 16 5.493 5.447 0.246 o
-9 4 17 3.273 3.222 0.220 o
-9 4 20 6.318 6.005 0.285 o
-9 4 21 2.893 2.104 0.352 o
-9 5 1 1.174 1.085 0.083 o
-9 5 3 58.709 57.504 1.326 o
-9 5 4 89.175 88.616 2.036 o
-9 5 5 15.541 15.620 0.391 o
-9 5 6 47.670 48.094 1.127 o
-9 5 7 1.932 1.864 0.101 o
-9 5 9 0.780 0.935 0.103 o
-9 5 10 6.213 6.310 0.232 o
-9 5 11 8.600 8.665 0.319 o
-9 5 12 6.814 7.044 0.334 o
-9 5 13 3.924 3.889 0.201 o
-9 5 14 8.775 8.597 0.312 o
-9 5 15 6.376 6.511 0.295 o
-9 5 16 1.237 1.364 0.169 o
-9 5 17 0.784 0.642 0.143 o
-9 5 18 4.488 4.387 0.247 o
-9 5 19 1.283 1.054 0.168 o
-9 5 20 23.611 22.558 0.650 o
-9 6 1 7.407 7.221 0.220 o
-9 6 2 3.078 3.028 0.135 o
-9 6 3 9.279 11.557 0.314 o
-9 6 4 20.458 20.228 0.504 o
-9 6 5 88.481 86.440 2.105 o
-9 6 6 15.527 16.476 0.426 o
-9 6 7 2.352 2.339 0.123 o
-9 6 8 1.749 1.715 0.115 o
-9 6 9 19.902 20.791 0.573 o
-9 6 10 12.821 13.040 0.464 o
-9 6 11 8.988 8.886 0.402 o
-9 6 12 4.391 4.787 0.316 o
-9 6 13 1.494 1.310 0.145 o
-9 6 14 1.071 1.000 0.157 o
-9 6 15 4.029 3.647 0.609 o
-9 7 4 5.767 5.627 0.220 o
-9 7 5 1.312 1.444 0.115 o
-9 7 6 3.521 3.637 0.172 o
-9 7 7 2.547 2.633 0.177 o
-9 7 8 1.433 1.335 0.120 o
-9 7 10 10.800 11.678 0.362 o
-9 7 11 1.246 1.428 0.201 o
-9 7 14 4.054 3.789 0.434 o
-9 8 2 3.072 2.894 0.178 o
-9 8 4 2.283 2.529 0.154 o
-9 8 5 2.160 2.001 0.136 o
-9 8 7 0.734 0.682 0.127 o
-8 0 2 212.775 200.945 10.064 o
-8 0 4 202.251 192.016 15.402 o
-8 0 6 87.814 89.976 2.539 o
-8 0 8 65.693 66.585 3.063 o
-8 0 10 159.704 151.993 9.149 o
-8 0 14 4.872 4.639 0.363 o
-8 0 16 25.818 27.786 1.247 o
-8 0 18 13.318 13.583 0.796 o
-8 0 20 1.139 1.082 0.197 o
-8 0 22 16.155 16.760 0.605 o
-8 1 1 837.321 837.089 24.251 o
-8 1 2 531.705 527.078 13.347 o
-8 1 3 102.770 100.697 2.749 o
-8 1 4 20.309 18.654 0.722 o
-8 1 5 37.471 39.549 1.762 o
-8 1 6 90.218 90.246 3.557 o
-8 1 7 357.323 364.935 10.784 o
-8 1 8 12.231 12.363 0.432 o
-8 1 9 25.153 25.289 1.052 o
-8 1 10 12.028 11.884 0.459 o
-8 1 11 16.677 15.586 0.597 o
-8 1 12 12.046 11.532 0.428 o
-8 1 14 13.339 12.168 1.940 o
-8 1 15 37.831 36.573 1.229 o
-8 1 16 0.572 0.584 0.078 o
-8 1 17 7.132 7.206 0.227 o
-8 1 18 1.636 1.795 0.129 o
-8 1 19 7.980 8.002 0.301 o
-8 1 20 50.407 50.036 1.237 o
-8 1 21 11.499 11.537 0.393 o
-8 1 22 28.641 29.503 0.875 o
-8 1 23 6.312 6.455 0.360 o
-8 1 25 0.762 0.607 0.185 o
-8 2 1 2.759 3.049 0.317 o
-8 2 2 357.860 360.351 10.640 o
-8 2 3 105.354 104.852 2.951 o
-8 2 4 95.476 99.409 2.394 o
-8 2 5 42.393 43.589 1.095 o
-8 2 6 92.391 92.695 2.413 o
-8 2 7 106.998 108.297 3.214 o
-8 2 8 11.016 11.126 0.450 o
-8 2 9 39.864 39.781 1.254 o
-8 2 10 8.816 7.862 0.375 o
-8 2 11 31.361 31.053 0.960 o
-8 2 12 1.582 1.792 0.234 o
-8 2 14 20.233 20.955 0.993 o
-8 2 15 4.597 4.726 0.220 o
-8 2 16 37.494 36.564 1.350 o
-8 2 17 2.160 2.031 0.117 o
-8 2 18 3.421 3.294 0.155 o
-8 2 19 18.103 17.822 0.621 o
-8 2 20 3.094 3.139 0.242 o
-8 2 21 28.221 27.502 0.804 o
-8 2 22 1.793 1.760 0.139 o
-8 2 23 9.654 9.757 0.317 o
-8 2 24 0.835 0.865 0.116 o
-8 3 1 9.701 9.564 0.385 o
-8 3 2 30.023 27.857 0.769 o
-8 3 3 32.320 32.477 0.864 o
-8 3 4 153.640 152.200 3.679 o
-8 3 5 34.607 33.820 0.869 o
-8 3 6 21.030 21.741 0.742 o
-8 3 7 97.534 95.650 2.385 o
-8 3 8 28.278 28.606 0.858 o
-8 3 10 16.415 15.542 0.518 o
-8 3 11 178.407 176.704 4.742 o
-8 3 12 135.405 130.235 3.521 o
-8 3 13 46.279 44.338 1.170 o
-8 3 14 3.150 2.959 0.188 o
-8 3 15 10.276 10.024 0.313 o
-8 3 16 17.632 17.068 0.489 o
-8 3 17 46.694 47.075 1.332 o
-8 3 18 20.110 19.996 0.716 o
-8 3 22 2.049 1.800 0.154 o
-8 3 23 1.874 1.834 0.330 o
-8 4 1 8.120 8.407 0.342 o
-8 4 2 4.750 4.940 0.267 o
-8 4 3 8.057 7.630 0.358 o
-8 4 4 143.300 144.190 4.179 o
-8 4 5 70.272 67.523 1.923 o
-8 4 7 8.259 8.169 0.340 o
-8 4 8 13.126 13.682 0.754 o
-8 4 10 68.500 68.276 1.664 o
-8 4 11 20.116 19.945 0.524 o
-8 4 12 369.700 359.428 9.103 o
-8 4 13 0.611 0.636 0.086 o
-8 4 14 19.464 19.297 0.553 o
-8 4 15 0.666 0.505 0.097 o
-8 4 16 13.665 13.234 0.378 o
-8 4 17 3.949 3.848 0.229 o
-8 5 1 27.221 26.728 0.650 o
-8 5 2 27.307 27.294 0.657 o
-8 5 3 27.518 27.038 0.686 o
-8 5 4 14.919 14.920 0.379 o
-8 5 5 47.887 47.801 1.105 o
-8 5 6 71.505 72.088 1.706 o
-8 5 7 0.995 0.949 0.083 o
-8 5 8 1.632 1.712 0.102 o
-8 5 9 4.470 4.249 0.253 o
-8 5 10 52.433 52.965 1.405 o
-8 5 11 100.314 98.935 3.212 o
-8 5 12 6.658 6.479 0.312 o
-8 5 13 4.095 3.991 0.206 o
-8 5 15 0.733 0.630 0.140 o
-8 5 17 4.741 4.653 0.223 o
-8 5 18 18.913 17.549 1.114 o
-8 5 19 0.737 0.690 0.127 o
-8 5 20 3.662 3.331 0.193 o
-8 6 1 8.215 8.269 0.269 o
-8 6 2 1.641 1.561 0.097 o
-8 6 3 1.323 1.421 0.094 o
-8 6 4 1.911 1.967 0.107 o
-8 6 5 30.870 30.202 0.763 o
-8 6 6 4.013 3.960 0.158 o
-8 6 7 2.390 2.460 0.147 o
-8 6 8 0.822 0.882 0.095 o
-8 6 10 5.862 6.218 0.246 o
-8 6 11 11.851 12.440 0.568 o
-8 6 15 2.092 1.845 0.266 o
-8 6 16 0.372 0.468 0.137 o
-8 6 17 6.891 6.945 0.489 o
-8 7 1 14.045 14.071 0.397 o
-8 7 2 2.816 2.798 0.187 o
-8 7 4 1.419 1.295 0.110 o
-8 7 6 10.519 10.631 0.314 o
-8 7 8 1.313 1.311 0.166 o
-8 7 10 3.472 3.669 0.242 o
-8 7 13 1.484 1.117 0.332 o
-8 7 14 1.030 1.327 0.322 o
-8 8 2 7.345 7.186 0.257 o
-8 8 4 0.499 0.575 0.105 o
-8 8 5 1.243 1.251 0.119 o
-8 8 6 0.501 0.580 0.102 o
-8 8 7 5.575 5.507 0.225 o
-8 8 8 1.529 1.667 0.222 o
-7 0 2 994.142 915.914 31.842 o
-7 0 4 73.276 74.939 2.447 o
-7 0 6 628.951 629.336 27.172 o
-7 0 8 6.986 7.080 0.430 o
-7 0 10 238.343 227.853 13.052 o
-7 0 12 70.130 65.406 4.968 o
-7 0 14 153.381 158.535 6.085 o
-7 0 16 2.311 2.510 0.252 o
-7 0 18 91.670 94.849 3.165 o
-7 0 20 2.316 2.714 0.422 o
-7 0 22 1.050 1.234 0.210 o
-7 0 24 17.165 17.590 0.955 o
-7 1 1 0.343 0.330 0.101 o
-7 1 2 139.933 143.588 3.517 o
-7 1 3 27.764 27.087 0.877 o
-7 1 4 0.336 0.648 0.158 o
-7 1 5 150.375 157.286 5.179 o
-7 1 6 98.873 100.628 2.913 o
-7 1 7 166.490 174.545 5.105 o
-7 1 8 0.862 1.285 0.163 o
-7 1 9 80.392 82.260 2.269 o
-7 1 10 120.628 121.244 4.401 o
-7 1 11 2.478 2.766 0.255 o
-7 1 12 11.726 11.448 0.471 o
-7 1 13 115.177 115.963 4.282 o
-7 1 14 18.353 19.073 0.670 o
-7 1 15 23.180 21.057 1.424 o
-7 1 16 0.987 1.095 0.090 o
-7 1 18 33.497 34.252 0.961 o
-7 1 19 114.902 117.528 2.915 o
-7 1 20 57.230 56.558 1.358 o
-7 1 21 5.613 5.611 0.215 o
-7 1 23 8.469 8.553 0.335 o
-7 1 24 0.639 0.655 0.125 o
-7 1 25 1.909 1.724 0.211 o
-7 2 1 17.075 16.495 0.975 o
-7 2 2 3.070 2.712 0.256 o
-7 2 4 6.489 6.853 0.458 o
-7 2 5 0.523 0.476 0.130 o
-7 2 6 19.813 19.315 0.579 o
-7 2 7 37.057 39.148 1.022 o
-7 2 8 154.007 157.301 5.439 o
-7 2 9 95.098 93.737 2.528 o
-7 2 10 13.383 12.256 0.480 o
-7 2 11 53.082 50.739 1.438 o
-7 2 12 190.035 189.527 5.293 o
-7 2 13 84.921 80.751 2.328 o
-7 2 14 1.306 1.116 0.252 o
-7 2 15 2.042 2.038 0.112 o
-7 2 16 6.014 5.987 0.198 o
-7 2 17 2.420 2.357 0.165 o
-7 2 18 52.275 52.533 1.276 o
-7 2 19 13.275 13.448 0.394 o
-7 2 20 22.789 22.973 0.633 o
-7 2 21 5.313 5.130 0.218 o
-7 2 22 1.162 1.032 0.120 o
-7 2 23 1.024 0.941 0.118 o
-7 2 24 4.909 5.004 0.235 o
-7 3 1 49.799 46.754 1.188 o
-7 3 2 320.004 312.262 7.870 o
-7 3 3 635.679 616.738 15.180 o
-7 3 4 301.644 296.041 7.332 o
-7 3 5 1.739 1.602 0.141 o
-7 3 7 53.269 52.254 1.264 o
-7 3 8 17.600 16.928 0.589 o
-7 3 10 7.517 7.543 0.331 o
-7 3 11 6.300 6.676 0.336 o
-7 3 12 22.572 21.261 0.719 o
-7 3 13 56.763 55.707 1.320 o
-7 3 14 47.029 46.892 1.270 o
-7 3 15 8.349 8.377 0.308 o
-7 3 16 8.904 8.614 0.339 o
-7 3 17 4.622 4.331 0.230 o
-7 3 18 2.060 2.027 0.147 o
-7 3 20 5.434 5.159 0.234 o
-7 3 22 10.713 10.143 0.348 o
-7 3 23 2.048 2.005 0.161 o
-7 4 1 42.593 41.337 1.131 o
-7 4 2 558.930 550.986 13.950 o
-7 4 3 6.235 6.293 0.297 o
-7 4 4 242.703 241.177 6.186 o
-7 4 5 13.126 13.350 0.449 o
-7 4 7 6.591 6.628 0.325 o
-7 4 8 19.931 19.805 0.778 o
-7 4 9 14.049 13.980 0.903 o
-7 4 10 49.438 49.777 1.459 o
-7 4 11 11.760 11.741 0.362 o
-7 4 12 1.170 1.180 0.140 o
-7 4 13 14.154 13.869 0.486 o
-7 4 14 2.278 2.226 0.138 o
-7 4 15 2.630 2.524 0.177 o
-7 4 16 5.087 5.088 0.220 o
-7 4 17 0.605 0.714 0.142 o
-7 4 18 32.008 31.965 0.879 o
-7 4 19 1.025 0.870 0.225 o
-7 4 20 1.055 0.895 0.153 o
-7 5 1 1.524 1.919 0.204 o
-7 5 2 2.797 2.925 0.239 o
-7 5 3 141.364 141.944 3.353 o
-7 5 4 64.624 63.162 1.545 o
-7 5 5 30.664 30.109 0.732 o
-7 5 7 14.340 14.215 0.365 o
-7 5 8 21.431 21.253 0.550 o
-7 5 9 11.575 11.661 0.375 o
-7 5 10 4.508 4.699 0.200 o
-7 5 11 0.780 0.781 0.099 o
-7 5 12 6.060 5.774 0.250 o
-7 5 13 22.418 22.170 0.963 o
-7 5 14 5.670 4.985 0.310 o
-7 5 15 3.265 3.349 0.255 o
-7 5 18 1.130 1.149 0.136 o
-7 6 1 6.262 6.395 0.201 o
-7 6 2 8.262 8.309 0.254 o
-7 6 3 2.315 2.398 0.118 o
-7 6 5 1.530 1.488 0.098 o
-7 6 6 5.901 6.070 0.199 o
-7 6 7 0.652 0.710 0.090 o
-7 6 8 2.148 2.123 0.137 o
-7 6 9 20.797 21.137 0.785 o
-7 6 10 6.116 6.514 0.248 o
-7 6 11 2.026 2.129 0.191 o
-7 6 12 4.417 4.661 0.561 o
-7 6 13 1.236 1.222 0.194 o
-7 6 14 4.324 4.093 0.444 o
-7 6 15 2.980 2.740 0.239 o
-7 6 17 4.012 3.695 0.411 o
-7 7 1 1.135 0.921 0.109 o
-7 7 2 5.535 5.650 0.263 o
-7 7 3 4.913 5.088 0.238 o
-7 7 4 1.401 1.438 0.113 o
-7 7 6 2.332 2.220 0.133 o
-7 7 7 0.354 0.365 0.097 o
-7 7 8 7.178 7.227 0.455 o
-7 7 9 4.977 4.812 0.241 o
-7 7 10 7.940 8.033 0.446 o
-7 7 13 1.612 1.938 0.370 o
-7 8 2 2.623 2.600 0.157 o
-7 8 4 0.937 0.926 0.111 o
-7 8 5 0.515 0.485 0.129 o
-7 8 7 4.939 5.094 0.240 o
-6 0 2 615.229 551.502 14.209 o
-6 0 4 1117.344 1128.751 34.473 o
-6 0 6 870.173 911.060 44.127 o
-6 0 8 105.870 107.396 4.150 o
-6 0 10 44.365 44.062 2.272 o
-6 0 12 0.425 0.692 0.181 o
-6 0 14 43.790 44.981 1.714 o
-6 0 16 8.694 8.343 0.429 o
-6 0 18 33.683 34.151 0.959 o
-6 0 20 254.603 248.222 21.300 o
-6 0 24 0.680 2.955 0.439 o
-6 1 1 38.087 37.376 0.975 o
-6 1 2 176.416 179.121 4.344 o
-6 1 4 240.998 239.291 5.968 o
-6 1 5 122.017 125.272 4.320 o
-6 1 6 160.263 164.124 4.905 o
-6 1 7 45.730 48.363 1.755 o
-6 1 8 13.204 13.556 0.479 o
-6 1 9 179.831 185.937 5.493 o
-6 1 11 17.876 17.837 0.567 o
-6 1 12 4.485 4.305 0.267 o
-6 1 13 5.775 5.950 0.361 o
-6 1 15 67.813 68.586 2.661 o
-6 1 16 10.736 10.638 0.392 o
-6 1 17 4.602 4.968 0.188 o
-6 1 18 1.355 1.335 0.107 o
-6 1 19 32.830 33.052 0.857 o
-6 1 20 12.508 12.592 0.359 o
-6 1 21 0.463 0.428 0.094 o
-6 1 22 4.191 4.352 0.217 o
-6 1 24 1.270 1.376 0.147 o
-6 2 1 31.799 33.588 0.993 o
-6 2 2 9.536 10.649 0.456 o
-6 2 3 60.073 59.528 2.169 o
-6 2 5 1.505 1.679 0.223 o
-6 2 6 95.435 93.402 2.298 o
-6 2 7 49.655 49.509 1.308 o
-6 2 8 24.586 24.463 0.755 o
-6 2 9 157.599 152.376 4.681 o
-6 2 10 134.013 130.765 3.801 o
-6 2 11 354.195 340.397 9.651 o
-6 2 12 80.680 74.775 2.496 o
-6 2 13 17.261 17.288 0.765 o
-6 2 14 39.999 38.852 1.140 o
-6 2 16 0.999 0.993 0.095 o
-6 2 17 11.757 11.517 0.389 o
-6 2 18 18.449 18.144 0.545 o
-6 2 19 11.434 11.561 0.346 o
-6 2 21 9.579 9.018 0.289 o
-6 2 22 8.248 8.536 0.290 o
-6 2 23 1.004 0.990 0.132 o
-6 3 1 57.086 55.390 1.383 o
-6 3 2 319.127 316.851 8.042 o
-6 3 3 257.848 271.886 6.657 o
-6 3 4 293.812 296.531 7.346 o
-6 3 5 48.901 50.111 1.211 o
-6 3 6 3.313 13.519 1.250 o
-6 3 7 3.142 3.150 0.190 o
-6 3 8 52.041 51.205 1.403 o
-6 3 9 11.083 10.636 0.398 o
-6 3 10 126.687 124.484 3.176 o
-6 3 11 62.946 61.080 1.773 o
-6 3 12 51.060 49.276 2.578 o
-6 3 13 0.294 0.311 0.077 o
-6 3 14 1.982 1.787 0.137 o
-6 3 15 31.006 29.741 0.754 o
-6 3 16 1.037 0.842 0.111 o
-6 3 17 7.116 6.638 0.249 o
-6 3 18 9.415 9.530 0.324 o
-6 3 20 13.258 12.269 0.637 o
-6 3 21 5.560 5.436 0.303 o
-6 3 22 8.270 8.125 0.352 o
-6 3 23 0.432 0.480 0.104 o
-6 4 1 6.067 6.138 0.288 o
-6 4 2 7.285 7.317 0.320 o
-6 4 3 3.164 3.042 0.221 o
-6 4 4 426.917 422.084 11.386 o
-6 4 5 73.830 72.843 1.829 o
-6 4 7 16.658 16.610 0.543 o
-6 4 8 4.290 4.419 0.298 o
-6 4 9 0.976 1.341 0.278 o
-6 4 10 1.858 1.649 0.192 o
-6 4 11 7.675 7.619 0.306 o
-6 4 12 4.524 4.755 0.247 o
-6 4 13 9.645 9.789 0.301 o
-6 4 14 0.773 0.688 0.095 o
-6 4 15 19.410 18.361 0.505 o
-6 4 16 71.515 69.869 2.133 o
-6 4 18 6.117 6.048 0.281 o
-6 4 19 1.113 1.105 0.153 o
-6 4 20 1.069 0.890 0.183 o
-6 4 22 0.547 0.424 0.141 o
-6 5 2 18.450 18.564 0.600 o
-6 5 3 43.204 43.510 1.337 o
-6 5 4 3.926 4.044 0.199 o
-6 5 5 0.567 0.627 0.073 o
-6 5 6 5.208 5.381 0.176 o
-6 5 7 3.240 3.148 0.142 o
-6 5 8 19.525 19.063 0.490 o
-6 5 10 155.324 154.775 3.936 o
-6 5 11 31.476 31.593 1.110 o
-6 5 12 20.124 19.524 0.563 o
-6 5 13 1.661 1.458 0.123 o
-6 5 14 1.892 1.786 0.136 o
-6 5 15 6.126 6.452 0.264 o
-6 5 20 0.592 0.611 0.144 o
-6 6 1 19.337 18.766 0.479 o
-6 6 2 7.342 7.223 0.224 o
-6 6 3 0.258 1.350 0.094 o
-6 6 4 7.071 7.306 0.237 o
-6 6 5 16.700 16.752 0.434 o
-6 6 6 0.187 0.271 0.071 o
-6 6 8 10.140 10.437 0.366 o
-6 6 9 63.709 65.864 1.760 o
-6 6 10 29.678 29.272 0.921 o
-6 6 11 25.115 26.034 1.116 o
-6 6 13 1.282 1.176 0.191 o
-6 6 14 6.356 6.815 0.549 o
-6 6 15 1.742 1.240 0.336 o
-6 7 1 0.804 0.775 0.104 o
-6 7 2 1.282 1.401 0.120 o
-6 7 3 0.974 0.956 0.109 o
-6 7 4 8.552 8.512 0.277 o
-6 7 5 3.426 3.533 0.177 o
-6 7 6 3.011 2.805 0.148 o
-6 7 7 1.814 1.882 0.133 o
-6 7 8 1.549 1.561 0.126 o
-6 7 10 4.713 5.216 0.290 o
-6 7 11 0.684 0.842 0.262 o
-6 7 13 2.460 2.039 0.379 o
-6 8 3 0.585 0.708 0.112 o
-6 8 4 3.526 3.337 0.187 o
-6 8 6 0.543 0.605 0.113 o
-6 8 7 0.572 0.539 0.125 o
-6 8 9 3.875 3.709 0.417 o
-5 0 2 354.816 333.575 19.039 o
-5 0 4 14.940 16.498 0.750 o
-5 0 6 1039.026 1059.632 26.858 o
-5 0 10 35.464 36.546 1.371 o
-5 0 12 5.834 5.827 0.351 o
-5 0 16 4.585 5.066 0.264 o
-5 0 18 439.081 450.304 13.087 o
-5 0 20 20.383 21.839 0.846 o
-5 0 22 9.897 10.616 1.009 o
-5 1 1 163.295 160.960 5.162 o
-5 1 2 183.778 191.231 4.831 o
-5 1 3 74.887 77.217 2.020 o
-5 1 4 189.645 192.656 5.112 o
-5 1 5 598.442 588.027 14.425 o
-5 1 6 92.291 92.907 2.742 o
-5 1 7 3.492 3.145 0.226 o
-5 1 8 39.322 39.127 1.079 o
-5 1 9 25.174 25.464 0.865 o
-5 1 10 429.915 426.966 12.449 o
-5 1 11 269.722 264.756 7.876 o
-5 1 12 348.474 347.058 9.419 o
-5 1 13 5.654 6.164 0.307 o
-5 1 15 1.417 1.044 0.191 o
-5 1 16 5.168 5.345 0.184 o
-5 1 17 113.912 114.721 2.814 o
-5 1 18 0.426 0.381 0.082 o
-5 1 19 12.916 13.482 0.387 o
-5 1 20 8.503 8.674 0.293 o
-5 1 23 28.402 29.555 0.765 o
-5 1 24 0.563 0.494 0.122 o
-5 2 1 123.320 121.953 3.012 o
-5 2 2 8.116 9.172 0.438 o
-5 2 4 189.271 193.576 5.159 o
-5 2 5 17.679 18.096 0.782 o
-5 2 6 210.772 210.456 5.605 o
-5 2 7 8.031 7.139 0.320 o
-5 2 8 65.986 66.974 2.139 o
-5 2 9 54.394 54.619 1.605 o
-5 2 10 36.449 35.229 1.315 o
-5 2 11 224.135 218.539 5.960 o
-5 2 13 134.661 133.710 3.552 o
-5 2 14 2.059 1.563 0.292 o
-5 2 15 4.321 4.329 0.160 o
-5 2 16 11.170 11.363 0.322 o
-5 2 17 9.639 9.416 0.274 o
-5 2 18 4.758 4.940 0.219 o
-5 2 19 0.484 0.438 0.089 o
-5 2 20 3.772 3.666 0.205 o
-5 2 21 13.187 13.244 0.449 o
-5 2 22 4.079 3.981 0.195 o
-5 2 23 0.943 0.803 0.131 o
-5 2 24 0.739 0.662 0.121 o
-5 3 1 230.170 231.555 5.652 o
-5 3 2 515.385 516.255 13.199 o
-5 3 3 143.518 142.653 3.710 o
-5 3 4 10.034 10.274 0.333 o
-5 3 5 2.735 2.741 0.159 o
-5 3 6 69.557 68.361 1.629 o
-5 3 7 196.155 193.462 4.686 o
-5 3 8 33.817 33.638 0.982 o
-5 3 9 1.556 1.631 0.173 o
-5 3 10 1.408 1.211 0.163 o
-5 3 11 8.590 8.220 0.396 o
-5 3 12 14.642 14.362 0.554 o
-5 3 13 3.580 3.591 0.233 o
-5 3 14 8.619 8.637 0.304 o
-5 3 16 55.736 53.757 1.539 o
-5 3 17 0.915 0.768 0.100 o
-5 3 18 37.560 37.046 1.122 o
-5 3 19 0.407 0.428 0.113 o
-5 3 20 0.232 0.373 0.112 o
-5 3 21 2.888 2.699 0.178 o
-5 3 23 1.237 1.277 0.140 o
-5 4 1 83.980 79.191 1.985 o
-5 4 2 706.889 688.873 18.405 o
-5 4 3 0.501 0.403 0.120 o
-5 4 4 45.538 44.523 1.209 o
-5 4 6 27.759 28.003 0.766 o
-5 4 7 4.782 4.752 0.264 o
-5 4 8 2.466 2.295 0.214 o
-5 4 9 3.751 4.006 0.612 o
-5 4 12 5.549 5.517 0.206 o
-5 4 13 17.882 17.842 0.773 o
-5 4 14 5.546 5.810 0.223 o
-5 4 15 2.327 1.986 0.142 o
-5 4 16 1.839 1.434 0.130 o
-5 4 18 3.250 2.853 0.210 o
-5 4 20 2.816 2.627 0.256 o
-5 4 22 14.319 13.820 0.891 o
-5 5 1 138.338 136.399 3.507 o
-5 5 2 59.932 57.667 1.561 o
-5 5 3 8.253 8.381 0.362 o
-5 5 4 8.515 8.319 0.358 o
-5 5 5 12.406 12.884 0.397 o
-5 5 6 16.540 16.726 0.431 o
-5 5 7 26.279 26.426 0.648 o
-5 5 8 35.060 34.857 0.840 o
-5 5 9 0.297 0.425 0.086 o
-5 5 10 7.202 7.394 0.297 o
-5 5 11 1.304 1.371 0.111 o
-5 5 12 1.411 1.452 0.115 o
-5 5 13 1.772 1.761 0.137 o
-5 5 15 18.568 17.755 0.797 o
-5 5 16 2.522 2.649 0.255 o
-5 5 17 11.030 10.849 0.471 o
-5 5 18 1.743 1.580 0.176 o
-5 6 1 57.956 56.965 1.331 o
-5 6 3 2.185 2.204 0.115 o
-5 6 5 8.763 8.769 0.253 o
-5 6 6 2.370 2.359 0.120 o
-5 6 7 3.062 3.079 0.155 o
-5 6 8 3.155 3.316 0.160 o
-5 6 9 1.139 1.222 0.117 o
-5 6 10 3.504 3.677 0.214 o
-5 6 11 16.208 17.806 1.261 o
-5 6 13 1.393 1.258 0.353 o
-5 6 14 2.388 2.317 0.236 o
-5 6 16 0.790 1.291 0.347 o
-5 7 2 5.980 5.860 0.254 o
-5 7 3 1.295 1.312 0.147 o
-5 7 4 1.904 1.738 0.127 o
-5 7 5 4.022 3.899 0.182 o
-5 7 6 5.171 5.412 0.211 o
-5 7 7 4.141 4.276 0.260 o
-5 7 8 2.133 2.281 0.165 o
-5 7 9 1.456 1.557 0.180 o
-5 7 10 13.399 13.574 0.901 o
-5 7 12 1.267 1.341 0.210 o
-5 7 13 7.736 8.022 0.551 o
-5 8 1 1.194 1.229 0.120 o
-5 8 3 0.855 0.869 0.124 o
-5 8 4 1.124 1.245 0.131 o
-5 8 6 1.927 1.851 0.174 o
-5 8 7 7.943 8.443 0.479 o
-5 8 8 0.708 0.817 0.200 o
-5 8 9 2.607 2.495 0.251 o
-4 0 2 286.825 288.750 21.853 o
-4 0 4 1000.884 1044.927 27.167 o
-4 0 6 29.257 31.463 1.155 o
-4 0 8 305.708 305.487 20.003 o
-4 0 10 6.255 6.045 0.428 o
-4 0 12 70.228 71.113 2.598 o
-4 0 14 183.394 193.388 6.190 o
-4 0 16 0.361 0.768 0.115 o
-4 0 18 86.058 89.361 2.628 o
-4 0 20 13.800 14.382 0.464 o
-4 0 22 6.287 6.504 0.316 o
-4 0 24 17.863 18.336 0.801 o
-4 1 1 83.246 87.291 2.291 o
-4 1 2 141.005 141.036 3.563 o
-4 1 3 345.532 349.503 10.163 o
-4 1 4 570.116 556.024 21.827 o
-4 1 5 136.842 133.699 3.266 o
-4 1 6 57.714 58.264 1.728 o
-4 1 7 126.310 121.428 3.659 o
-4 1 8 73.836 71.104 2.027 o
-4 1 9 644.277 629.336 16.838 o
-4 1 10 240.684 242.243 7.109 o
-4 1 11 35.924 35.403 0.979 o
-4 1 12 4.799 4.656 0.270 o
-4 1 13 23.729 24.633 0.743 o
-4 1 16 0.947 0.987 0.089 o
-4 1 17 24.549 25.257 0.702 o
-4 1 18 80.075 80.736 2.182 o
-4 1 19 134.517 134.047 3.236 o
-4 1 20 18.426 18.812 0.500 o
-4 1 21 2.647 2.571 0.161 o
-4 1 22 0.397 0.419 0.102 o
-4 1 23 2.312 2.030 0.231 o
-4 1 24 14.687 15.844 0.619 o
-4 2 1 566.691 564.355 14.013 o
-4 2 2 1888.049 1903.926 52.709 o
-4 2 3 1033.028 1054.220 26.397 o
-4 2 4 185.456 190.266 6.202 o
-4 2 5 17.955 17.035 0.752 o
-4 2 6 2.740 2.657 0.243 o
-4 2 7 23.539 23.558 0.710 o
-4 2 8 166.439 168.134 4.232 o
-4 2 10 124.506 121.362 3.512 o
-4 2 11 5.606 5.410 0.334 o
-4 2 12 3.724 4.015 0.253 o
-4 2 13 2.182 2.213 0.225 o
-4 2 14 52.174 51.308 1.441 o
-4 2 15 16.628 16.449 0.481 o
-4 2 17 33.148 33.124 0.926 o
-4 2 18 15.103 15.518 0.515 o
-4 2 19 1.598 1.626 0.119 o
-4 2 21 3.789 3.671 0.186 o
-4 2 22 2.126 1.884 0.183 o
-4 2 24 1.435 1.341 0.166 o
-4 3 1 29.815 30.801 0.808 o
-4 3 2 109.600 113.524 2.709 o
-4 3 3 364.785 365.583 9.031 o
-4 3 4 280.232 276.136 6.591 o
-4 3 5 3.019 3.114 0.163 o
-4 3 6 24.028 24.352 0.642 o
-4 3 7 49.881 49.255 1.231 o
-4 3 8 0.605 0.434 0.132 o
-4 3 9 11.879 11.691 0.421 o
-4 3 10 4.148 4.336 0.252 o
-4 3 12 138.481 133.113 3.575 o
-4 3 13 10.791 11.070 0.407 o
-4 3 14 0.509 0.721 0.098 o
-4 3 15 1.352 1.160 0.115 o
-4 3 16 50.116 49.591 1.249 o
-4 3 17 0.664 0.590 0.094 o
-4 3 18 3.095 2.856 0.157 o
-4 3 19 4.532 4.440 0.217 o
-4 3 20 1.419 1.229 0.144 o
-4 3 21 1.160 1.009 0.133 o
-4 3 23 0.329 0.364 0.116 o
-4 4 1 17.548 16.595 0.532 o
-4 4 2 4.913 4.622 0.257 o
-4 4 3 21.164 21.381 0.613 o
-4 4 5 15.648 15.990 0.482 o
-4 4 6 20.720 20.938 0.603 o
-4 4 7 4.124 3.933 0.244 o
-4 4 8 224.552 225.201 7.893 o
-4 4 9 9.375 9.394 0.549 o
-4 4 10 21.756 21.627 0.775 o
-4 4 12 0.363 0.389 0.078 o
-4 4 14 9.095 8.998 0.292 o
-4 4 16 1.396 1.361 0.174 o
-4 4 17 4.227 3.757 0.270 o
-4 4 19 2.248 2.032 0.226 o
-4 4 20 17.318 17.132 0.602 o
-4 4 22 0.527 0.526 0.144 o
-4 5 1 4.706 4.583 0.357 o
-4 5 2 58.287 58.116 1.660 o
-4 5 3 98.946 95.285 2.580 o
-4 5 4 4.506 4.449 0.271 o
-4 5 5 0.892 0.761 0.138 o
-4 5 7 5.538 5.562 0.188 o
-4 5 8 0.551 0.634 0.083 o
-4 5 9 9.409 10.024 0.296 o
-4 5 10 0.971 1.168 0.103 o
-4 5 11 1.343 1.199 0.162 o
-4 5 12 3.328 3.420 0.252 o
-4 5 13 44.213 42.918 1.505 o
-4 5 15 39.776 38.495 1.603 o
-4 5 16 2.746 2.884 0.306 o
-4 5 19 5.111 4.527 0.250 o
-4 6 1 19.645 19.548 0.493 o
-4 6 2 22.248 22.032 0.553 o
-4 6 3 3.741 3.877 0.164 o
-4 6 4 1.176 1.264 0.096 o
-4 6 5 9.231 9.018 0.259 o
-4 6 6 2.049 2.222 0.114 o
-4 6 7 14.184 14.709 0.404 o
-4 6 8 2.710 2.785 0.152 o
-4 6 9 32.010 34.177 1.329 o
-4 6 10 28.806 29.715 0.962 o
-4 6 11 1.128 1.259 0.140 o
-4 6 12 12.015 11.718 0.459 o
-4 6 14 11.671 11.465 1.054 o
-4 6 17 1.615 1.558 0.353 o
-4 7 2 2.031 1.904 0.142 o
-4 7 3 0.756 0.794 0.104 o
-4 7 5 3.233 3.288 0.187 o
-4 7 6 0.638 0.805 0.125 o
-4 7 7 4.709 4.978 0.278 o
-4 7 8 37.398 37.292 1.209 o
-4 7 9 17.743 18.657 1.168 o
-4 7 10 11.917 12.097 1.007 o
-4 8 1 0.468 0.360 0.111 o
-4 8 2 3.279 3.321 0.188 o
-4 8 4 7.774 8.111 0.362 o
-4 8 7 1.023 0.910 0.134 o
-4 8 8 2.171 2.103 0.194 o
-3 0 2 27.087 25.678 3.055 o
-3 0 4 261.184 261.118 16.408 o
-3 0 8 347.510 345.951 20.581 o
-3 0 10 2821.312 2719.746 89.182 o
-3 0 12 42.047 45.349 1.429 o
-3 0 16 53.472 54.713 1.442 o
-3 0 18 8.661 9.395 0.405 o
-3 0 22 37.944 38.919 1.376 o
-3 0 24 1.850 2.205 0.439 o
-3 1 1 381.780 386.821 13.915 o
-3 1 2 326.236 340.638 8.157 o
-3 1 3 270.508 283.227 7.283 o
-3 1 4 92.817 95.367 2.409 o
-3 1 5 1279.678 1238.220 44.327 o
-3 1 6 40.237 42.138 1.154 o
-3 1 7 20.829 19.999 0.665 o
-3 1 8 8.345 8.024 0.390 o
-3 1 9 271.789 280.375 7.481 o
-3 1 10 27.559 26.494 0.741 o
-3 1 11 81.053 77.177 2.114 o
-3 1 12 22.101 23.117 0.697 o
-3 1 13 13.752 13.274 0.469 o
-3 1 14 1.512 1.295 0.184 o
-3 1 15 19.773 19.529 1.167 o
-3 1 16 108.588 109.608 2.549 o
-3 1 17 85.375 87.686 2.059 o
-3 1 18 38.517 38.920 0.926 o
-3 1 19 1.180 1.093 0.093 o
-3 1 20 9.074 9.256 0.281 o
-3 1 21 2.901 2.710 0.166 o
-3 1 23 0.651 0.659 0.111 o
-3 1 24 5.873 5.973 0.299 o
-3 2 1 1452.676 1461.265 35.200 o
-3 2 2 534.741 535.857 13.269 o
-3 2 3 316.892 311.295 7.722 o
-3 2 4 255.154 258.061 6.479 o
-3 2 5 144.925 143.100 3.915 o
-3 2 6 13.367 13.597 0.611 o
-3 2 7 84.866 84.310 2.115 o
-3 2 8 72.812 71.766 1.862 o
-3 2 9 26.399 25.808 0.791 o
-3 2 10 3.607 3.461 0.281 o
-3 2 11 25.975 25.356 0.813 o
-3 2 12 43.245 43.759 1.190 o
-3 2 13 10.744 11.278 0.455 o
-3 2 14 3.631 3.671 0.358 o
-3 2 15 116.548 115.056 2.710 o
-3 2 17 74.419 71.781 2.413 o
-3 2 18 8.358 7.986 0.283 o
-3 2 19 12.040 11.886 0.450 o
-3 2 20 1.967 1.687 0.138 o
-3 2 22 15.863 15.481 0.601 o
-3 3 1 67.690 68.090 1.647 o
-3 3 2 104.946 102.317 2.444 o
-3 3 3 3.340 3.879 0.205 o
-3 3 5 70.596 70.871 1.677 o
-3 3 6 2.721 3.135 0.169 o
-3 3 7 18.161 17.976 0.610 o
-3 3 8 70.549 68.963 1.753 o
-3 3 9 3.352 3.368 0.226 o
-3 3 10 28.543 28.162 0.811 o
-3 3 11 23.097 24.025 0.745 o
-3 3 12 63.162 62.165 2.451 o
-3 3 14 1.749 1.651 0.113 o
-3 3 15 0.377 0.349 0.084 o
-3 3 16 9.437 9.053 0.280 o
-3 3 17 1.194 1.185 0.110 o
-3 3 18 3.407 3.501 0.194 o
-3 3 19 1.365 1.199 0.306 o
-3 3 20 0.670 0.613 0.177 o
-3 3 21 30.141 30.268 1.192 o
-3 3 22 2.267 1.954 0.160 o
-3 4 1 8.482 7.942 0.309 o
-3 4 2 39.033 38.115 1.052 o
-3 4 3 41.085 40.790 1.074 o
-3 4 4 9.539 10.126 0.337 o
-3 4 5 91.704 90.539 2.218 o
-3 4 6 160.521 159.226 3.926 o
-3 4 8 13.850 13.628 0.537 o
-3 4 9 1.359 1.671 0.270 o
-3 4 10 7.590 8.249 0.759 o
-3 4 11 0.564 0.524 0.097 o
-3 4 14 7.033 6.848 0.281 o
-3 4 15 34.519 34.405 0.912 o
-3 4 16 14.009 13.316 0.436 o
-3 4 17 4.302 4.292 0.281 o
-3 4 18 5.376 5.548 0.323 o
-3 4 20 10.942 10.397 0.443 o
-3 4 21 1.614 1.303 0.166 o
-3 4 22 0.623 0.603 0.144 o
-3 5 1 30.124 29.689 0.844 o
-3 5 2 45.111 45.411 1.211 o
-3 5 3 2.726 2.336 0.323 o
-3 5 4 3.878 3.487 0.281 o
-3 5 5 10.582 10.200 0.401 o
-3 5 8 0.295 0.288 0.080 o
-3 5 9 0.357 0.285 0.090 o
-3 5 10 1.463 1.571 0.143 o
-3 5 11 5.559 5.439 0.230 o
-3 5 13 4.559 4.782 0.258 o
-3 5 14 1.843 1.910 0.263 o
-3 5 18 1.755 1.754 0.181 o
-3 5 20 9.675 9.433 0.421 o
-3 6 1 55.759 54.193 1.266 o
-3 6 2 1.363 1.393 0.099 o
-3 6 3 5.968 5.986 0.199 o
-3 6 4 20.340 20.310 0.511 o
-3 6 5 5.283 5.223 0.202 o
-3 6 6 25.566 25.745 0.694 o
-3 6 7 4.830 4.802 0.203 o
-3 6 8 5.363 5.687 0.303 o
-3 6 10 7.289 7.523 0.324 o
-3 6 12 5.703 6.682 0.301 o
-3 6 13 1.968 2.006 0.305 o
-3 6 14 12.382 13.175 0.705 o
-3 6 15 5.257 5.345 0.515 o
-3 6 16 1.439 1.798 0.392 o
-3 6 17 4.871 5.310 0.493 o
-3 7 1 3.970 4.009 0.173 o
-3 7 2 1.119 1.145 0.130 o
-3 7 3 4.761 4.855 0.213 o
-3 7 5 14.046 14.210 0.413 o
-3 7 6 4.344 4.391 0.248 o
-3 7 8 0.827 0.710 0.152 o
-3 7 9 17.132 17.274 0.956 o
-3 7 11 8.681 8.557 0.435 o
-3 8 1 3.282 3.254 0.186 o
-3 8 2 1.505 1.561 0.137 o
-3 8 3 0.573 0.572 0.114 o
-3 8 6 0.512 0.599 0.126 o
-3 8 8 4.367 4.399 0.312 o
-2 0 2 758.561 716.598 38.147 o
-2 0 4 314.096 296.632 29.950 o
-2 0 6 306.617 317.111 8.033 o
-2 0 8 1843.198 1917.269 50.848 o
-2 0 10 55.422 54.669 1.804 o
-2 0 12 2.212 2.198 0.223 o
-2 0 16 6.226 6.500 0.277 o
-2 0 18 6.447 6.686 0.281 o
-2 0 20 17.193 17.114 0.709 o
-2 0 22 18.113 18.057 0.894 o
-2 0 24 23.559 25.998 1.227 o
-2 1 1 7307.392 7218.198 187.098 o
-2 1 2 5404.867 5440.477 135.183 o
-2 1 3 116.519 121.992 3.344 o
-2 1 5 2.252 1.966 0.199 o
-2 1 6 14.781 16.201 0.556 o
-2 1 7 219.452 211.463 8.001 o
-2 1 8 4.438 4.803 0.306 o
-2 1 9 3.570 3.427 0.213 o
-2 1 10 75.351 76.058 1.910 o
-2 1 11 50.541 49.938 1.453 o
-2 1 13 165.500 164.741 4.833 o
-2 1 16 39.866 39.970 1.011 o
-2 1 17 8.356 8.316 0.251 o
-2 1 18 13.543 13.470 0.403 o
-2 1 19 3.225 3.399 0.146 o
-2 1 20 2.223 2.334 0.133 o
-2 1 21 16.452 15.953 0.504 o
-2 1 22 4.167 4.200 0.219 o
-2 1 23 8.785 9.642 0.361 o
-2 1 24 3.067 3.502 0.234 o
-2 2 1 871.587 877.081 21.482 o
-2 2 2 117.212 122.729 3.062 o
-2 2 3 1012.194 992.532 26.845 o
-2 2 4 9.126 9.215 0.428 o
-2 2 5 7.711 8.167 0.383 o
-2 2 6 196.308 193.080 4.821 o
-2 2 7 75.340 75.134 1.895 o
-2 2 8 10.048 10.038 0.413 o
-2 2 9 1.707 1.479 0.189 o
-2 2 10 51.508 50.321 1.404 o
-2 2 11 76.270 74.391 1.913 o
-2 2 12 1.500 1.795 0.189 o
-2 2 13 0.960 0.699 0.205 o
-2 2 14 7.329 7.106 0.378 o
-2 2 15 1.994 2.186 0.140 o
-2 2 16 87.198 86.879 2.449 o
-2 2 17 130.805 131.158 3.162 o
-2 2 18 80.038 79.246 2.185 o
-2 2 19 24.271 24.360 0.652 o
-2 2 20 0.713 0.666 0.107 o
-2 2 21 0.893 0.791 0.157 o
-2 2 22 4.367 4.544 0.225 o
-2 2 23 1.662 1.736 0.157 o
-2 2 24 4.576 4.755 0.276 o
-2 3 1 11.093 10.689 0.409 o
-2 3 2 13.177 12.538 0.406 o
-2 3 3 7.758 7.583 0.270 o
-2 3 4 99.816 99.284 2.360 o
-2 3 5 5.992 6.477 0.253 o
-2 3 6 201.966 201.663 4.772 o
-2 3 7 11.959 12.358 0.420 o
-2 3 8 313.385 304.393 7.862 o
-2 3 10 2.721 2.621 0.208 o
-2 3 11 23.449 23.202 0.715 o
-2 3 13 19.600 19.384 0.663 o
-2 3 15 0.970 1.008 0.135 o
-2 3 16 51.260 51.090 1.676 o
-2 3 17 34.097 33.920 0.875 o
-2 3 18 12.472 12.375 0.561 o
-2 3 19 3.008 2.955 0.210 o
-2 3 21 2.204 2.133 0.169 o
-2 3 23 4.424 4.582 0.225 o
-2 4 1 2.159 2.321 0.162 o
-2 4 2 8.382 8.089 0.291 o
-2 4 3 49.771 48.600 1.197 o
-2 4 4 2.565 2.417 0.168 o
-2 4 5 3.606 3.597 0.209 o
-2 4 6 12.758 12.102 0.394 o
-2 4 8 7.831 7.814 0.490 o
-2 4 10 27.594 27.641 0.859 o
-2 4 11 6.269 6.850 0.265 o
-2 4 12 135.298 130.541 3.296 o
-2 4 13 13.803 13.526 0.491 o
-2 4 15 9.279 9.241 0.337 o
-2 4 18 3.756 4.078 0.288 o
-2 5 1 6.528 6.377 0.402 o
-2 5 3 0.608 0.743 0.221 o
-2 5 4 0.415 0.500 0.151 o
-2 5 5 86.805 87.408 2.441 o
-2 5 6 4.652 4.663 0.209 o
-2 5 7 61.975 62.524 1.644 o
-2 5 8 11.937 12.209 0.387 o
-2 5 9 1.361 1.323 0.134 o
-2 5 10 3.480 3.953 0.200 o
-2 5 11 19.459 20.486 0.589 o
-2 5 12 4.198 4.383 0.245 o
-2 5 13 8.053 8.200 0.390 o
-2 5 15 1.392 1.366 0.304 o
-2 5 16 0.927 1.112 0.199 o
-2 5 17 17.322 17.508 0.633 o
-2 5 18 29.500 29.192 0.867 o
-2 5 20 1.904 1.502 0.184 o
-2 6 1 47.323 46.313 1.085 o
-2 6 2 9.445 9.191 0.260 o
-2 6 3 7.049 6.935 0.228 o
-2 6 4 1.233 1.227 0.105 o
-2 6 5 0.426 0.289 0.083 o
-2 6 6 11.684 11.782 0.357 o
-2 6 7 0.666 0.656 0.088 o
-2 6 8 5.899 5.830 0.245 o
-2 6 10 14.284 15.315 0.481 o
-2 6 11 6.758 7.739 0.323 o
-2 6 12 6.048 6.095 0.292 o
-2 6 13 4.520 4.513 0.510 o
-2 6 14 10.231 9.168 0.624 o
-2 6 15 2.016 2.074 0.409 o
-2 6 16 2.157 1.806 0.387 o
-2 6 17 14.556 15.363 0.731 o
-2 7 1 7.420 7.625 0.257 o
-2 7 2 10.702 10.445 0.359 o
-2 7 3 5.546 5.625 0.309 o
-2 7 6 2.041 2.130 0.163 o
-2 7 7 4.097 3.817 0.401 o
-2 7 8 2.924 3.285 0.298 o
-2 7 9 7.448 7.749 0.770 o
-2 7 10 10.238 10.494 0.641 o
-2 7 11 1.487 1.730 0.182 o
-2 7 12 11.318 11.865 0.982 o
-2 8 1 0.650 0.651 0.149 o
-2 8 2 3.197 3.193 0.185 o
-2 8 3 0.632 0.579 0.117 o
-2 8 5 0.934 1.136 0.154 o
-2 8 6 1.814 1.731 0.177 o
-2 8 7 13.378 13.731 0.574 o
-2 8 8 12.504 11.896 1.438 o
-1 0 2 5495.134 5537.476 100.210 o
-1 0 4 2865.370 3000.004 142.775 o
-1 0 6 151.854 145.051 8.992 o
-1 0 8 335.626 332.585 10.553 o
-1 0 10 116.144 117.099 3.777 o
-1 0 12 33.830 34.849 1.015 o
-1 0 14 213.868 219.266 6.082 o
-1 0 16 3.868 3.832 0.212 o
-1 0 18 22.987 23.365 0.710 o
-1 0 22 4.066 4.312 0.295 o
-1 0 24 5.166 5.636 0.339 o
-1 1 1 149.278 156.185 3.704 o
-1 1 2 114.508 118.035 2.853 o
-1 1 4 6.256 6.019 0.273 o
-1 1 5 0.427 0.548 0.115 o
-1 1 6 4.663 4.879 0.280 o
-1 1 7 135.439 140.425 3.648 o
-1 1 8 692.334 688.836 16.788 o
-1 1 9 979.482 962.413 25.344 o
-1 1 10 284.884 293.627 7.282 o
-1 1 11 6.162 6.233 0.265 o
-1 1 12 10.559 10.763 0.419 o
-1 1 13 20.695 20.177 0.626 o
-1 1 14 62.178 58.963 1.602 o
-1 1 15 24.995 25.363 0.959 o
-1 1 16 50.595 51.196 1.191 o
-1 1 17 3.548 3.646 0.140 o
-1 1 18 10.389 10.498 0.286 o
-1 1 19 14.013 13.841 0.361 o
-1 1 20 0.457 0.557 0.097 o
-1 1 21 18.383 18.642 0.591 o
-1 1 22 0.715 0.742 0.110 o
-1 1 23 2.466 2.609 0.165 o
-1 1 24 1.544 1.729 0.179 o
-1 2 2 3.357 3.574 0.275 o
-1 2 3 91.747 90.713 2.335 o
-1 2 4 401.316 397.257 9.943 o
-1 2 5 3.921 3.504 0.278 o
-1 2 7 333.426 336.160 8.196 o
-1 2 8 64.233 66.358 1.700 o
-1 2 9 83.757 84.635 2.210 o
-1 2 10 16.804 16.238 0.535 o
-1 2 11 15.779 15.801 0.532 o
-1 2 12 38.507 36.229 1.134 o
-1 2 13 0.622 0.661 0.172 o
-1 2 14 1.239 0.955 0.198 o
-1 2 15 34.197 32.514 0.894 o
-1 2 16 75.084 76.032 1.890 o
-1 2 17 1.836 1.746 0.126 o
-1 2 18 11.043 10.599 0.362 o
-1 2 19 8.402 8.567 0.360 o
-1 2 20 32.119 32.421 0.848 o
-1 2 21 2.728 2.672 0.301 o
-1 2 22 0.392 0.370 0.117 o
-1 2 23 6.262 6.590 0.279 o
-1 2 24 0.953 0.810 0.128 o
-1 3 1 2.280 2.425 0.218 o
-1 3 2 675.364 659.024 17.428 o
-1 3 3 31.815 31.610 0.801 o
-1 3 4 116.661 119.225 2.804 o
-1 3 5 10.201 11.090 0.355 o
-1 3 6 142.810 140.701 3.345 o
-1 3 7 2.641 2.602 0.198 o
-1 3 9 2.477 2.230 0.198 o
-1 3 10 0.934 0.888 0.150 o
-1 3 11 0.567 0.524 0.152 o
-1 3 12 2.922 2.602 0.223 o
-1 3 13 25.357 24.331 0.722 o
-1 3 14 53.716 52.670 1.274 o
-1 3 15 36.855 37.226 1.029 o
-1 3 16 1.025 0.970 0.154 o
-1 3 17 1.459 1.331 0.196 o
-1 3 18 29.283 29.185 0.922 o
-1 3 19 4.004 4.109 0.250 o
-1 3 21 6.958 7.137 0.317 o
-1 3 22 1.393 1.414 0.146 o
-1 3 23 2.032 1.861 0.158 o
-1 4 2 3.794 3.894 0.202 o
-1 4 4 20.599 20.742 0.595 o
-1 4 5 0.725 0.740 0.126 o
-1 4 7 27.190 27.237 0.899 o
-1 4 9 5.303 5.690 0.590 o
-1 4 10 43.912 42.872 3.036 o
-1 4 11 5.988 5.866 0.352 o
-1 4 13 1.609 1.401 0.145 o
-1 4 14 1.731 1.718 0.160 o
-1 4 15 1.239 1.143 0.143 o
-1 4 17 1.186 1.318 0.200 o
-1 4 18 20.546 20.150 0.665 o
-1 4 19 12.662 11.529 0.467 o
-1 4 20 6.212 6.128 0.336 o
-1 5 1 3.051 3.101 0.225 o
-1 5 2 14.532 14.609 0.603 o
-1 5 3 99.602 100.994 2.564 o
-1 5 4 0.935 0.921 0.181 o
-1 5 5 109.018 107.911 2.827 o
-1 5 6 3.163 3.373 0.204 o
-1 5 9 11.278 11.642 0.354 o
-1 5 10 0.897 0.877 0.113 o
-1 5 11 1.587 1.582 0.170 o
-1 5 12 1.130 0.826 0.191 o
-1 5 13 2.656 2.708 0.258 o
-1 5 14 18.128 18.423 0.652 o
-1 5 15 25.397 27.309 1.032 o
-1 5 18 13.558 13.855 0.534 o
-1 5 19 1.672 1.510 0.174 o
-1 5 20 2.565 2.561 0.250 o
-1 6 2 18.678 18.167 0.465 o
-1 6 3 1.400 1.321 0.107 o
-1 6 4 25.424 25.210 0.667 o
-1 6 5 0.830 1.051 0.092 o
-1 6 7 6.570 6.523 0.243 o
-1 6 8 15.254 15.877 0.483 o
-1 6 9 29.515 30.479 0.872 o
-1 6 10 5.489 5.766 0.268 o
-1 6 11 1.804 1.797 0.379 o
-1 6 13 3.045 3.028 0.465 o
-1 6 16 0.713 1.075 0.352 o
-1 7 1 4.033 4.273 0.220 o
-1 7 2 2.656 2.661 0.217 o
-1 7 4 0.636 0.597 0.132 o
-1 7 5 1.669 1.741 0.135 o
-1 7 7 0.525 0.506 0.142 o
-1 7 8 14.502 14.457 0.542 o
-1 7 9 10.232 10.699 0.392 o
-1 7 10 25.999 26.667 1.108 o
-1 7 11 3.495 4.174 0.253 o
-1 7 13 9.725 10.402 1.386 o
-1 7 14 1.288 1.386 0.343 o
-1 8 1 1.069 1.000 0.124 o
-1 8 2 5.827 5.787 0.238 o
-1 8 3 13.280 13.553 0.463 o
-1 8 8 5.221 5.196 0.441 o
0 0 2 2318.894 2513.360 73.805 o
0 0 4 1.479 1.892 0.379 o
0 0 6 38.974 43.529 1.698 o
0 0 8 1.999 2.336 0.464 o
0 0 10 9.755 10.331 0.502 o
0 0 12 143.517 145.292 3.844 o
0 0 14 48.100 48.540 1.610 o
0 0 16 35.840 36.303 0.908 o
0 0 18 7.303 7.889 0.272 o
0 0 20 40.880 40.476 1.498 o
0 0 24 7.129 7.080 0.499 o
0 1 1 2462.871 2486.252 58.205 o
0 1 2 71.163 76.077 1.906 o
0 1 3 236.465 237.469 5.883 o
0 1 4 18.189 19.231 0.583 o
0 1 5 853.193 828.660 20.347 o
0 1 6 377.828 357.406 9.213 o
0 1 7 243.771 246.335 6.379 o
0 1 8 166.706 167.807 4.136 o
0 1 9 33.455 34.177 0.880 o
0 1 10 29.797 28.888 0.766 o
0 1 11 3.727 3.471 0.202 o
0 1 12 0.426 0.367 0.112 o
0 1 14 39.990 40.217 1.166 o
0 1 16 0.607 0.613 0.072 o
0 1 18 1.279 1.162 0.086 o
0 1 19 0.454 0.555 0.086 o
0 1 20 4.282 4.340 0.250 o
0 1 21 16.797 17.716 0.474 o
0 1 22 7.123 7.141 0.259 o
0 1 23 2.520 2.478 0.162 o
0 2 0 35.472 36.634 1.165 o
0 2 1 2.141 2.079 0.219 o
0 2 2 225.417 221.804 5.450 o
0 2 3 184.796 185.690 4.602 o
0 2 4 38.970 38.834 1.110 o
0 2 5 435.477 429.663 10.879 o
0 2 6 68.259 66.671 1.694 o
0 2 7 299.917 291.304 7.263 o
0 2 8 103.421 101.929 2.759 o
0 2 9 189.301 182.985 4.488 o
0 2 10 2.228 2.497 0.222 o
0 2 11 11.466 11.133 0.422 o
0 2 12 84.829 80.729 2.087 o
0 2 13 14.069 13.625 0.541 o
0 2 15 14.157 14.112 0.464 o
0 2 16 14.458 14.542 0.485 o
0 2 17 5.763 5.472 0.227 o
0 2 18 1.373 1.130 0.124 o
0 2 20 16.004 15.139 0.689 o
0 2 21 12.764 12.812 0.407 o
0 2 22 3.407 3.553 0.222 o
0 2 23 4.363 4.206 0.315 o
0 2 24 2.469 2.687 0.187 o
0 3 1 23.820 23.414 0.707 o
0 3 2 219.664 215.335 5.174 o
0 3 3 7.618 12.912 0.397 o
0 3 4 0.369 0.306 0.094 o
0 3 5 25.765 26.572 0.694 o
0 3 6 13.140 12.720 0.393 o
0 3 7 8.232 7.923 0.319 o
0 3 8 29.570 29.447 0.826 o
0 3 10 25.368 23.425 0.710 o
0 3 11 136.125 133.907 3.399 o
0 3 12 15.372 14.551 0.590 o
0 3 13 6.103 6.098 0.252 o
0 3 14 3.097 3.072 0.170 o
0 3 15 96.986 96.657 3.007 o
0 3 16 95.273 90.821 2.551 o
0 3 17 55.525 53.342 1.709 o
0 3 18 30.634 29.517 1.229 o
0 3 21 7.255 7.592 0.344 o
0 3 23 4.346 4.467 0.329 o
0 4 0 14.772 15.181 0.565 o
0 4 2 4.810 4.534 0.214 o
0 4 4 94.567 95.692 2.389 o
0 4 5 118.504 115.318 3.014 o
0 4 6 34.823 35.741 1.018 o
0 4 7 26.728 26.863 0.954 o
0 4 8 34.470 36.046 1.282 o
0 4 9 2.613 2.514 0.518 o
0 4 10 38.871 38.661 3.568 o
0 4 11 1.367 1.421 0.219 o
0 4 12 10.180 9.752 0.428 o
0 4 13 1.155 1.210 0.141 o
0 4 14 16.276 16.035 0.534 o
0 4 15 10.859 10.713 0.464 o
0 4 16 181.577 183.504 5.414 o
0 4 17 7.598 7.404 0.361 o
0 4 18 3.516 3.442 0.272 o
0 4 20 3.836 3.925 0.257 o
0 5 1 3.619 3.560 0.235 o
0 5 3 2.287 2.391 0.212 o
0 5 4 2.793 3.101 0.271 o
0 5 5 3.790 3.875 0.351 o
0 5 6 0.510 0.689 0.109 o
0 5 7 1.376 1.546 0.120 o
0 5 8 19.639 20.574 0.543 o
0 5 9 5.052 5.538 0.232 o
0 5 10 99.544 101.804 2.436 o
0 5 11 14.082 14.555 0.545 o
0 5 13 1.135 1.346 0.214 o
0 5 15 7.177 8.402 0.651 o
0 5 16 16.556 16.671 0.836 o
0 5 17 16.512 16.965 0.788 o
0 5 18 10.004 9.731 0.517 o
0 5 19 2.780 2.833 0.280 o
0 6 0 9.998 10.115 0.344 o
0 6 2 7.387 7.448 0.290 o
0 6 3 4.495 4.510 0.182 o
0 6 4 36.994 36.055 0.911 o
0 6 5 9.086 8.852 0.310 o
0 6 6 13.282 13.680 0.491 o
0 6 7 10.774 10.795 0.334 o
0 6 8 0.299 0.449 0.126 o
0 6 9 27.673 29.424 0.896 o
0 6 10 10.137 10.458 0.370 o
0 6 11 18.474 19.224 0.576 o
0 6 12 1.130 1.309 0.209 o
0 6 16 4.576 4.494 0.491 o
0 6 17 7.385 8.355 0.585 o
0 7 1 27.965 28.213 0.740 o
0 7 4 1.212 1.268 0.126 o
0 7 5 11.807 11.819 0.422 o
0 7 6 0.920 1.021 0.134 o
0 7 7 0.858 1.101 0.137 o
0 7 8 2.160 2.315 0.198 o
0 7 9 2.486 2.492 0.206 o
0 7 10 6.477 6.471 0.306 o
0 7 11 0.825 0.961 0.159 o
0 7 12 3.146 3.191 0.690 o
0 7 13 2.870 3.028 0.297 o
0 7 14 3.646 4.050 0.442 o
0 8 0 35.863 35.541 1.565 o
0 8 1 6.048 6.311 0.361 o
0 8 2 5.114 5.479 0.232 o
0 8 3 1.546 1.583 0.137 o
0 8 4 1.086 1.059 0.122 o
0 8 5 0.589 0.477 0.124 o
0 8 7 1.089 1.311 0.282 o
0 8 8 1.786 2.026 0.243 o
0 8 9 3.626 3.659 0.452 o
1 0 2 346.418 328.962 9.032 o
1 0 4 18.702 18.283 0.948 o
1 0 6 167.765 166.209 4.947 o
1 0 8 3.236 3.186 0.433 o
1 0 10 160.831 159.128 4.018 o
1 0 12 75.843 74.202 2.139 o
1 0 14 199.867 198.714 5.701 o
1 0 16 1.691 1.725 0.121 o
1 0 18 91.294 95.499 2.303 o
1 0 20 5.915 5.855 0.277 o
1 1 0 1696.064 1748.102 46.679 o
1 1 1 2763.754 2750.497 67.832 o
1 1 2 3.991 4.328 0.252 o
1 1 3 1447.625 1425.643 39.287 o
1 1 4 131.871 133.689 3.189 o
1 1 5 30.236 29.553 0.867 o
1 1 6 425.047 410.727 10.119 o
1 1 7 2.130 1.857 0.259 o
1 1 8 42.473 43.152 1.154 o
1 1 9 21.398 21.744 0.602 o
1 1 10 36.407 35.295 0.913 o
1 1 11 109.207 106.482 2.639 o
1 1 12 13.627 14.313 0.455 o
1 1 13 79.164 77.865 1.989 o
1 1 14 41.197 41.270 1.150 o
1 1 15 4.338 4.392 0.250 o
1 1 16 15.857 16.268 0.410 o
1 1 17 4.575 4.616 0.165 o
1 1 18 32.900 32.444 0.788 o
1 1 19 13.489 13.936 0.444 o
1 1 20 2.880 3.128 0.155 o
1 1 21 1.494 1.447 0.118 o
1 1 22 0.201 0.313 0.101 o
1 1 23 16.669 17.850 0.605 o
1 2 0 453.172 449.324 11.105 o
1 2 1 236.632 240.968 5.748 o
1 2 2 98.446 96.622 2.469 o
1 2 3 54.978 55.258 1.483 o
1 2 4 5.776 5.931 0.328 o
1 2 5 12.851 12.733 0.503 o
1 2 6 337.019 331.179 8.205 o
1 2 7 623.792 612.750 15.153 o
1 2 8 572.638 568.400 14.501 o
1 2 9 165.304 163.498 3.898 o
1 2 10 17.565 16.892 0.497 o
1 2 11 17.078 16.143 0.472 o
1 2 12 71.527 67.425 1.716 o
1 2 13 5.740 5.199 0.281 o
1 2 14 4.821 4.705 0.317 o
1 2 16 0.840 0.771 0.109 o
1 2 17 9.960 10.223 0.391 o
1 2 18 10.874 10.604 0.456 o
1 2 20 3.918 3.651 0.270 o
1 2 21 0.923 0.736 0.122 o
1 2 23 29.324 31.251 0.832 o
1 2 24 12.958 12.867 0.728 o
1 3 1 54.897 54.944 1.384 o
1 3 3 101.152 100.798 2.425 o
1 3 4 12.094 11.988 0.388 o
1 3 5 0.631 0.782 0.092 o
1 3 6 232.672 231.813 5.534 o
1 3 7 223.826 222.445 5.523 o
1 3 8 70.474 70.850 1.796 o
1 3 9 0.705 0.591 0.174 o
1 3 11 23.058 22.266 0.915 o
1 3 12 4.916 4.907 0.316 o
1 3 14 9.333 9.794 0.311 o
1 3 15 5.740 5.800 0.232 o
1 3 16 58.650 56.728 1.403 o
1 3 17 42.365 42.747 1.548 o
1 3 18 21.051 19.889 0.646 o
1 3 19 2.120 2.086 0.164 o
1 3 20 0.543 0.487 0.117 o
1 3 21 4.153 3.901 0.312 o
1 3 22 8.261 8.865 0.320 o
1 3 23 3.429 3.479 0.204 o
1 4 0 53.818 52.211 1.323 o
1 4 1 22.758 22.380 0.608 o
1 4 2 407.939 401.549 9.906 o
1 4 3 17.809 17.448 0.530 o
1 4 4 14.952 15.263 0.461 o
1 4 5 23.871 23.921 0.696 o
1 4 7 2.650 2.952 0.369 o
1 4 9 3.702 3.944 0.624 o
1 4 10 3.849 3.868 0.566 o
1 4 11 1.023 1.003 0.148 o
1 4 12 16.695 16.531 0.523 o
1 4 13 25.524 24.734 0.669 o
1 4 14 28.289 29.568 0.842 o
1 4 16 40.344 39.520 1.051 o
1 4 17 1.722 1.718 0.172 o
1 4 18 19.705 19.386 1.159 o
1 4 19 7.061 6.796 0.295 o
1 4 20 0.568 0.534 0.118 o
1 4 21 1.336 1.284 0.130 o
1 5 0 4.947 5.016 0.275 o
1 5 1 30.132 30.765 1.592 o
1 5 2 1.651 1.510 0.239 o
1 5 3 15.939 16.180 0.680 o
1 5 7 84.304 84.288 2.011 o
1 5 8 88.241 93.541 2.386 o
1 5 9 0.971 0.924 0.157 o
1 5 10 3.860 4.073 0.260 o
1 5 12 3.110 3.326 0.426 o
1 5 16 2.542 2.673 0.459 o
1 5 17 10.559 10.641 0.719 o
1 5 18 6.209 6.134 0.410 o
1 5 19 4.345 4.363 0.292 o
1 6 0 40.139 40.091 0.944 o
1 6 1 28.430 28.602 0.686 o
1 6 2 0.595 0.689 0.076 o
1 6 3 13.374 13.292 0.370 o
1 6 4 11.772 11.424 0.343 o
1 6 5 7.189 7.315 0.238 o
1 6 6 1.172 1.090 0.116 o
1 6 7 24.291 24.871 0.645 o
1 6 8 22.850 23.491 0.840 o
1 6 9 28.553 29.780 0.909 o
1 6 10 10.118 10.433 0.539 o
1 6 12 1.343 1.360 0.209 o
1 6 13 16.160 16.928 0.897 o
1 6 14 7.303 6.455 0.576 o
1 6 17 4.694 4.384 0.490 o
1 7 0 20.767 20.888 0.573 o
1 7 1 14.220 14.037 0.395 o
1 7 2 38.766 38.987 1.058 o
1 7 3 0.806 0.943 0.109 o
1 7 4 0.514 0.519 0.098 o
1 7 5 1.673 1.515 0.133 o
1 7 6 0.834 0.789 0.129 o
1 7 7 0.435 0.656 0.125 o
1 7 8 5.895 6.338 0.423 o
1 7 10 0.608 0.605 0.151 o
1 7 11 2.207 2.639 0.261 o
1 7 12 0.788 1.106 0.208 o
1 7 14 3.254 3.115 0.423 o
1 8 0 0.502 0.469 0.121 o
1 8 1 1.586 1.619 0.129 o
1 8 2 1.121 0.934 0.277 o
1 8 3 1.404 1.465 0.135 o
1 8 6 4.685 4.893 0.358 o
1 8 8 0.932 0.773 0.197 o
1 8 9 0.846 1.046 0.315 o
2 0 0 1405.480 1481.020 76.260 o
2 0 2 86.058 83.951 2.133 o
2 0 4 3150.493 2978.588 112.936 o
2 0 6 6.348 8.457 0.837 o
2 0 8 143.015 143.072 4.288 o
2 0 10 31.652 33.107 0.965 o
2 0 12 1.824 1.823 0.210 o
2 0 14 31.665 32.959 1.027 o
2 0 16 1.125 1.131 0.108 o
2 0 18 18.927 19.283 0.921 o
2 0 20 10.599 11.056 0.386 o
2 0 24 3.451 3.558 0.294 o
2 1 0 5058.054 5072.685 124.943 o
2 1 1 128.922 131.323 3.329 o
2 1 2 208.656 209.785 5.204 o
2 1 3 118.422 112.560 2.928 o
2 1 4 451.676 439.712 11.361 o
2 1 5 498.328 484.050 12.683 o
2 1 6 206.164 196.135 5.031 o
2 1 7 53.195 52.529 1.559 o
2 1 8 80.229 76.718 1.914 o
2 1 9 55.092 52.340 1.296 o
2 1 10 11.417 11.273 0.370 o
2 1 11 64.979 64.407 1.598 o
2 1 12 3.349 3.247 0.198 o
2 1 13 47.567 46.722 1.317 o
2 1 14 27.953 28.985 0.886 o
2 1 15 5.825 5.764 0.199 o
2 1 16 0.167 0.224 0.059 o
2 1 17 3.431 3.474 0.139 o
2 1 18 8.743 8.853 0.254 o
2 1 19 38.196 38.414 0.963 o
2 1 20 1.445 1.625 0.119 o
2 1 21 5.917 5.915 0.233 o
2 1 22 2.165 2.149 0.152 o
2 1 23 2.106 2.501 0.169 o
2 1 24 35.807 38.340 1.035 o
2 2 0 223.381 224.398 5.378 o
2 2 1 137.467 135.667 3.275 o
2 2 2 418.217 417.422 10.158 o
2 2 3 19.653 21.238 0.697 o
2 2 4 141.895 142.085 3.536 o
2 2 5 7.204 7.163 0.363 o
2 2 6 248.941 248.771 6.224 o
2 2 7 0.278 0.522 0.112 o
2 2 8 13.329 13.060 0.397 o
2 2 9 62.341 60.420 1.476 o
2 2 10 94.957 94.059 2.379 o
2 2 11 30.300 30.261 0.821 o
2 2 12 3.637 3.619 0.213 o
2 2 13 55.453 55.212 3.347 o
2 2 15 13.831 13.488 0.394 o
2 2 16 3.063 3.185 0.179 o
2 2 17 2.545 2.259 0.140 o
2 2 18 3.296 3.241 0.167 o
2 2 19 2.029 2.290 0.225 o
2 2 20 20.269 19.181 0.550 o
2 2 21 2.617 2.736 0.224 o
2 2 22 1.510 1.385 0.163 o
2 3 0 2.489 2.235 0.181 o
2 3 1 3.588 3.566 0.325 o
2 3 2 26.906 26.615 0.723 o
2 3 3 263.905 255.163 6.243 o
2 3 4 157.000 153.207 3.614 o
2 3 5 23.925 24.500 0.632 o
2 3 6 1.403 1.412 0.133 o
2 3 7 37.489 36.393 1.064 o
2 3 8 217.941 219.510 5.746 o
2 3 9 8.211 8.137 0.355 o
2 3 10 4.853 4.964 0.385 o
2 3 11 21.850 21.021 0.705 o
2 3 12 13.691 13.835 0.547 o
2 3 13 0.607 0.607 0.100 o
2 3 14 18.214 18.009 0.528 o
2 3 15 125.897 125.275 3.365 o
2 3 16 41.761 41.099 1.463 o
2 3 17 0.563 0.479 0.125 o
2 3 19 16.313 16.110 0.555 o
2 3 20 5.245 5.515 0.304 o
2 3 21 9.329 9.188 0.501 o
2 3 22 2.725 2.859 0.191 o
2 4 0 14.829 14.898 0.446 o
2 4 1 13.246 13.516 0.410 o
2 4 2 2.107 1.843 0.162 o
2 4 4 5.581 5.803 0.287 o
2 4 5 2.391 2.567 0.212 o
2 4 6 14.057 14.243 0.572 o
2 4 7 3.936 3.817 0.441 o
2 4 8 253.759 269.314 9.613 o
2 4 9 61.648 60.219 2.194 o
2 4 10 0.665 0.748 0.191 o
2 4 11 1.115 1.442 0.163 o
2 4 13 9.702 9.568 0.375 o
2 4 14 107.176 106.355 2.717 o
2 4 15 8.857 8.874 0.303 o
2 4 16 117.399 113.080 3.320 o
2 4 18 4.587 4.433 0.241 o
2 4 20 9.371 9.670 0.351 o
2 4 21 1.638 1.811 0.143 o
2 5 0 3.827 3.890 0.437 o
2 5 2 15.364 14.798 0.553 o
2 5 3 24.529 23.799 0.764 o
2 5 4 43.593 44.086 1.243 o
2 5 5 38.995 39.694 1.035 o
2 5 6 9.868 9.619 0.314 o
2 5 7 1.650 1.584 0.162 o
2 5 8 64.545 64.788 1.561 o
2 5 9 38.236 38.481 1.184 o
2 5 10 41.210 42.995 1.115 o
2 5 11 0.688 0.868 0.147 o
2 5 12 5.364 5.209 0.305 o
2 5 13 11.575 10.904 0.867 o
2 5 14 42.239 43.788 1.469 o
2 5 15 61.074 60.302 1.983 o
2 5 18 4.676 5.352 0.321 o
2 6 0 10.594 10.370 0.287 o
2 6 1 0.562 0.526 0.074 o
2 6 2 1.016 1.036 0.085 o
2 6 3 0.863 0.873 0.082 o
2 6 4 1.868 1.971 0.113 o
2 6 5 4.801 4.607 0.183 o
2 6 6 0.395 0.414 0.100 o
2 6 7 2.754 2.811 0.172 o
2 6 9 47.459 49.420 1.495 o
2 6 10 6.252 6.503 0.363 o
2 6 13 5.557 5.216 1.697 o
2 6 15 3.272 3.258 0.475 o
2 7 0 36.356 35.776 1.006 o
2 7 1 5.361 5.315 0.200 o
2 7 2 0.530 0.489 0.090 o
2 7 3 14.733 14.742 0.399 o
2 7 4 3.630 3.682 0.202 o
2 7 5 7.100 6.722 0.254 o
2 7 6 1.885 1.911 0.162 o
2 7 8 9.357 9.647 0.628 o
2 7 9 0.503 0.474 0.150 o
2 7 10 4.642 4.521 0.275 o
2 7 14 4.906 4.780 0.476 o
2 8 0 4.448 4.625 0.235 o
2 8 1 1.745 1.581 0.179 o
2 8 3 4.714 4.993 0.291 o
2 8 4 4.854 4.736 0.239 o
2 8 6 2.094 2.189 0.196 o
3 0 0 645.083 637.807 17.921 o
3 0 2 936.168 894.429 36.388 o
3 0 4 1445.798 1397.404 59.807 o
3 0 6 433.355 434.353 18.268 o
3 0 8 106.118 102.337 3.822 o
3 0 10 358.944 354.074 10.304 o
3 0 12 1.436 1.664 0.210 o
3 0 14 63.139 61.927 1.800 o
3 0 16 62.177 63.710 1.538 o
3 0 18 41.116 43.457 1.237 o
3 0 20 2.633 2.448 0.383 o
3 0 22 45.962 47.658 1.257 o
3 0 24 6.116 6.453 0.355 o
3 1 0 69.307 67.365 2.049 o
3 1 1 535.666 556.307 14.337 o
3 1 2 74.917 70.627 1.974 o
3 1 3 70.633 69.978 1.868 o
3 1 4 430.350 417.303 11.258 o
3 1 5 14.450 15.084 0.556 o
3 1 6 55.146 54.814 1.599 o
3 1 7 1.066 1.086 0.178 o
3 1 8 25.085 25.029 0.702 o
3 1 9 4.261 4.379 0.212 o
3 1 10 59.244 56.463 1.401 o
3 1 11 123.426 117.918 2.869 o
3 1 12 14.567 14.707 0.496 o
3 1 13 23.959 24.282 0.726 o
3 1 14 8.010 8.683 0.476 o
3 1 15 1.848 1.870 0.101 o
3 1 16 13.177 13.540 0.409 o
3 1 17 59.051 60.153 1.412 o
3 1 18 3.508 3.964 0.157 o
3 1 20 1.112 0.973 0.134 o
3 1 21 5.075 5.443 0.224 o
3 1 22 16.150 16.565 0.719 o
3 1 23 22.780 24.842 0.803 o
3 1 24 7.272 7.104 0.363 o
3 2 0 224.980 231.765 5.726 o
3 2 1 240.409 241.163 5.760 o
3 2 2 377.969 377.197 9.384 o
3 2 3 147.276 145.222 3.595 o
3 2 4 28.098 27.029 0.872 o
3 2 5 20.675 20.159 0.676 o
3 2 6 32.547 32.445 0.950 o
3 2 7 1.524 1.548 0.144 o
3 2 8 2.639 2.458 0.179 o
3 2 9 4.274 4.209 0.223 o
3 2 10 56.175 56.085 1.411 o
3 2 11 41.809 42.503 1.144 o
3 2 12 39.617 38.167 1.063 o
3 2 13 18.978 18.845 0.599 o
3 2 14 27.147 27.429 0.760 o
3 2 15 103.523 102.939 2.929 o
3 2 16 111.335 108.618 3.423 o
3 2 17 20.445 20.011 0.636 o
3 2 18 1.625 1.512 0.123 o
3 2 19 0.561 0.473 0.111 o
3 2 22 26.126 25.365 0.915 o
3 2 23 3.730 3.804 0.212 o
3 3 0 129.926 128.780 3.046 o
3 3 1 196.670 193.001 4.559 o
3 3 2 89.084 87.071 2.074 o
3 3 3 23.938 29.904 0.776 o
3 3 5 214.965 211.997 5.014 o
3 3 6 310.476 310.307 7.858 o
3 3 7 249.703 246.335 6.214 o
3 3 8 164.364 164.905 4.059 o
3 3 9 1.620 3.766 0.236 o
3 3 11 58.545 58.571 1.887 o
3 3 12 2.804 3.266 0.311 o
3 3 13 3.071 3.297 0.186 o
3 3 14 1.346 1.379 0.123 o
3 3 15 47.345 46.516 1.169 o
3 3 16 33.396 31.329 0.811 o
3 3 17 14.531 14.492 0.599 o
3 3 18 10.224 10.559 0.350 o
3 3 20 1.709 1.472 0.145 o
3 3 21 3.964 3.546 0.204 o
3 3 22 3.017 3.216 0.197 o
3 4 0 14.994 14.852 0.475 o
3 4 2 21.017 20.926 0.613 o
3 4 3 14.839 14.845 0.463 o
3 4 4 14.989 15.356 0.471 o
3 4 5 59.445 59.384 1.830 o
3 4 6 579.498 572.037 19.771 o
3 4 7 11.924 11.185 1.092 o
3 4 8 19.550 19.930 1.263 o
3 4 10 7.002 7.846 0.331 o
3 4 11 2.186 2.373 0.210 o
3 4 12 5.759 5.778 0.262 o
3 4 13 6.049 6.073 0.256 o
3 4 14 3.795 3.584 0.210 o
3 4 15 8.497 8.130 0.311 o
3 4 16 7.521 7.146 0.367 o
3 4 17 5.564 5.125 0.254 o
3 4 18 4.944 5.212 0.256 o
3 4 19 3.708 3.862 0.216 o
3 4 20 10.944 10.965 0.345 o
3 5 0 261.534 258.051 6.977 o
3 5 1 8.674 8.940 0.422 o
3 5 2 11.545 11.818 0.486 o
3 5 3 2.979 2.489 0.249 o
3 5 4 1.097 0.985 0.198 o
3 5 5 6.111 6.142 0.232 o
3 5 6 6.543 6.414 0.231 o
3 5 7 60.803 60.732 1.493 o
3 5 8 24.480 24.885 0.663 o
3 5 9 4.482 4.652 0.436 o
3 5 10 1.723 1.737 0.174 o
3 5 11 9.952 10.052 0.680 o
3 5 12 15.807 16.854 0.684 o
3 5 13 5.415 5.688 0.293 o
3 5 14 4.778 4.798 0.536 o
3 5 15 15.446 16.193 0.823 o
3 5 16 1.487 1.762 0.422 o
3 5 17 6.026 6.149 0.562 o
3 5 18 1.554 1.138 0.236 o
3 6 0 37.250 37.611 0.890 o
3 6 1 74.616 73.422 1.891 o
3 6 2 8.045 8.039 0.237 o
3 6 3 0.635 0.971 0.084 o
3 6 5 9.777 10.055 0.296 o
3 6 6 10.917 10.907 0.338 o
3 6 7 4.447 4.946 0.259 o
3 6 8 3.870 4.155 0.324 o
3 6 9 5.692 5.944 0.303 o
3 6 10 4.064 4.272 0.318 o
3 6 12 1.021 1.145 0.209 o
3 6 13 1.217 1.220 0.214 o
3 6 14 8.192 8.209 1.487 o
3 6 15 7.576 7.305 0.582 o
3 6 16 2.160 2.282 0.412 o
3 7 0 12.114 12.046 0.402 o
3 7 2 4.948 4.834 0.202 o
3 7 3 3.465 3.558 0.195 o
3 7 4 7.427 7.469 0.271 o
3 7 5 3.358 3.382 0.235 o
3 7 6 2.267 2.386 0.176 o
3 7 7 1.290 1.085 0.137 o
3 7 10 3.985 3.328 0.616 o
3 7 11 0.407 0.675 0.194 o
3 7 12 3.971 4.406 0.327 o
3 7 13 1.740 1.437 0.428 o
3 8 0 0.554 0.442 0.102 o
3 8 1 8.398 8.433 0.278 o
3 8 4 0.841 0.922 0.132 o
3 8 6 2.851 2.377 0.184 o
4 0 0 2632.419 2700.067 86.345 o
4 0 2 379.926 354.263 26.298 o
4 0 4 1874.118 1728.347 114.463 o
4 0 6 34.943 32.124 1.228 o
4 0 8 389.572 392.868 10.661 o
4 0 10 18.001 18.123 0.618 o
4 0 12 10.832 10.610 0.450 o
4 0 14 8.216 8.624 0.491 o
4 0 18 26.076 26.657 0.715 o
4 0 20 7.414 7.103 0.524 o
4 0 22 86.804 87.476 2.800 o
4 0 24 63.592 66.842 2.187 o
4 1 0 864.112 812.921 45.942 o
4 1 1 1051.843 1032.604 36.657 o
4 1 2 13.450 13.390 0.488 o
4 1 3 698.718 683.811 21.507 o
4 1 4 317.387 320.899 8.087 o
4 1 5 93.149 92.897 2.449 o
4 1 6 39.592 38.845 1.324 o
4 1 7 0.382 0.422 0.104 o
4 1 8 108.083 103.879 2.713 o
4 1 9 17.956 17.125 0.529 o
4 1 10 39.298 39.132 1.038 o
4 1 12 0.568 0.508 0.135 o
4 1 13 93.366 97.020 2.512 o
4 1 15 0.511 0.637 0.075 o
4 1 16 37.283 37.587 0.950 o
4 1 17 3.299 3.308 0.142 o
4 1 19 17.784 17.989 0.466 o
4 1 20 1.027 1.055 0.133 o
4 1 21 1.375 1.408 0.118 o
4 1 23 30.271 32.486 0.859 o
4 2 0 81.773 81.853 2.057 o
4 2 1 236.537 235.565 5.707 o
4 2 2 622.739 621.208 15.121 o
4 2 3 90.814 86.584 2.492 o
4 2 4 2.350 2.268 0.232 o
4 2 5 2.678 2.788 0.230 o
4 2 6 13.479 13.315 0.420 o
4 2 7 18.095 18.648 0.550 o
4 2 8 7.753 7.717 0.299 o
4 2 9 1.581 1.880 0.160 o
4 2 10 3.094 3.124 0.202 o
4 2 11 8.208 8.621 0.357 o
4 2 12 18.903 18.678 0.680 o
4 2 13 149.491 145.408 4.941 o
4 2 14 60.337 59.385 1.637 o
4 2 15 37.618 37.604 1.040 o
4 2 16 16.495 17.092 0.455 o
4 2 17 30.562 31.310 1.106 o
4 2 18 34.178 34.096 1.111 o
4 2 19 0.338 0.331 0.098 o
4 2 20 1.299 1.200 0.151 o
4 2 21 1.210 1.162 0.140 o
4 2 23 9.376 9.302 0.427 o
4 3 0 4.578 4.814 0.221 o
4 3 1 44.450 43.271 1.077 o
4 3 2 33.054 32.712 0.847 o
4 3 3 48.451 49.007 1.215 o
4 3 4 3.650 3.684 0.193 o
4 3 6 258.548 259.223 6.503 o
4 3 7 366.046 356.317 9.084 o
4 3 8 147.606 145.398 3.580 o
4 3 9 4.078 4.127 0.223 o
4 3 10 1.059 1.243 0.152 o
4 3 11 43.016 41.992 1.134 o
4 3 12 34.180 34.481 0.929 o
4 3 13 0.529 0.675 0.100 o
4 3 14 57.523 57.080 1.620 o
4 3 15 8.805 9.137 0.396 o
4 3 16 1.504 1.402 0.132 o
4 3 18 1.068 1.004 0.130 o
4 3 19 15.759 14.164 0.440 o
4 3 22 2.457 2.441 0.179 o
4 4 0 21.619 21.443 0.749 o
4 4 1 10.887 10.449 0.372 o
4 4 2 65.022 64.750 1.624 o
4 4 3 36.427 35.832 0.977 o
4 4 4 11.307 12.391 0.406 o
4 4 5 4.184 4.141 0.226 o
4 4 6 221.606 217.736 5.803 o
4 4 8 249.558 255.628 16.277 o
4 4 9 33.784 34.979 1.154 o
4 4 11 4.632 4.988 0.271 o
4 4 12 6.576 6.968 0.292 o
4 4 14 4.147 4.056 0.225 o
4 4 15 1.941 1.912 0.213 o
4 4 16 13.420 13.825 0.506 o
4 4 17 13.052 12.623 1.110 o
4 4 18 2.612 2.738 0.166 o
4 4 19 4.683 4.491 0.204 o
4 4 20 12.241 12.306 0.449 o
4 5 1 1.331 1.379 0.180 o
4 5 2 1.542 1.348 0.212 o
4 5 3 9.955 9.328 0.616 o
4 5 4 1.614 1.626 0.145 o
4 5 5 18.873 18.805 0.488 o
4 5 6 24.448 24.320 0.679 o
4 5 7 87.584 90.085 2.172 o
4 5 8 5.235 5.452 0.290 o
4 5 9 5.241 5.542 0.404 o
4 5 10 1.185 1.188 0.225 o
4 5 12 32.553 34.100 1.858 o
4 5 13 2.652 2.662 0.312 o
4 5 14 61.926 60.348 1.960 o
4 5 15 8.388 8.126 0.626 o
4 5 17 1.359 1.302 0.213 o
4 5 18 1.377 1.245 0.219 o
4 5 19 2.298 2.214 0.200 o
4 6 0 16.210 15.863 0.430 o
4 6 1 9.774 9.806 0.275 o
4 6 2 4.080 4.136 0.158 o
4 6 3 15.929 16.075 0.418 o
4 6 4 11.520 11.577 0.321 o
4 6 7 3.387 3.438 0.217 o
4 6 8 3.594 3.987 0.233 o
4 6 9 6.383 6.317 0.335 o
4 6 11 2.509 2.412 0.454 o
4 6 12 7.678 7.941 0.441 o
4 6 13 49.895 53.194 2.802 o
4 6 14 10.157 10.659 0.471 o
4 6 15 2.399 2.817 0.447 o
4 7 0 6.601 6.586 0.226 o
4 7 1 6.410 6.765 0.246 o
4 7 2 1.005 1.181 0.105 o
4 7 4 6.417 6.396 0.265 o
4 7 7 3.458 3.966 0.220 o
4 7 8 10.295 10.600 0.396 o
4 7 9 1.072 1.048 0.208 o
4 7 10 2.836 3.202 0.403 o
4 7 11 1.697 1.913 0.298 o
4 7 12 8.349 8.917 0.915 o
4 8 0 0.420 0.366 0.109 o
4 8 1 6.360 6.503 0.232 o
4 8 2 0.479 0.447 0.101 o
4 8 3 4.007 3.955 0.221 o
4 8 4 1.186 1.056 0.148 o
4 8 6 0.894 0.961 0.135 o
4 8 7 0.616 0.686 0.155 o
4 8 8 2.610 1.974 0.350 o
5 0 0 1119.327 1039.690 48.814 o
5 0 2 71.312 71.882 3.011 o
5 0 4 456.029 453.008 18.800 o
5 0 6 86.027 86.136 3.751 o
5 0 8 68.943 67.205 2.030 o
5 0 10 153.874 154.400 3.981 o
5 0 12 1.656 1.731 0.224 o
5 0 14 78.909 76.300 2.400 o
5 0 16 11.308 11.591 0.408 o
5 0 18 17.055 16.073 0.479 o
5 0 20 15.641 15.445 0.492 o
5 0 22 67.011 70.543 1.844 o
5 1 0 196.535 192.511 4.575 o
5 1 1 296.648 287.443 7.338 o
5 1 2 14.466 14.999 0.642 o
5 1 3 681.663 670.222 20.681 o
5 1 4 264.851 253.234 6.605 o
5 1 5 13.441 13.029 0.562 o
5 1 6 8.924 8.656 0.538 o
5 1 7 49.253 49.433 1.268 o
5 1 8 83.634 82.805 2.334 o
5 1 9 216.683 209.595 5.331 o
5 1 10 12.381 13.081 0.450 o
5 1 11 13.362 13.948 0.476 o
5 1 12 21.860 22.311 0.684 o
5 1 13 22.173 21.548 1.019 o
5 1 14 287.433 288.654 8.370 o
5 1 15 89.140 90.146 2.315 o
5 1 16 95.868 97.143 2.359 o
5 1 17 0.573 0.625 0.082 o
5 1 18 0.470 0.582 0.085 o
5 1 20 5.533 5.623 0.250 o
5 1 21 42.841 44.770 1.492 o
5 1 22 2.839 2.937 0.161 o
5 1 23 2.971 3.089 0.198 o
5 2 0 161.052 156.978 3.849 o
5 2 1 217.734 217.619 5.333 o
5 2 2 27.953 29.840 0.868 o
5 2 3 298.046 303.778 7.517 o
5 2 4 27.472 28.837 0.981 o
5 2 5 60.265 57.543 1.473 o
5 2 6 32.344 31.654 0.833 o
5 2 7 29.977 29.940 0.800 o
5 2 8 65.133 63.922 1.590 o
5 2 9 3.846 3.916 0.221 o
5 2 10 87.238 85.412 2.154 o
5 2 11 0.738 0.780 0.137 o
5 2 12 14.493 14.318 0.524 o
5 2 13 0.465 0.456 0.097 o
5 2 14 51.087 50.644 1.363 o
5 2 15 142.169 145.941 3.471 o
5 2 16 0.353 0.358 0.070 o
5 2 17 14.280 14.268 0.389 o
5 2 18 1.632 1.533 0.107 o
5 2 19 7.120 7.182 0.320 o
5 2 20 0.390 0.308 0.101 o
5 2 21 0.565 0.505 0.107 o
5 3 0 18.718 18.302 0.533 o
5 3 1 15.259 15.046 0.458 o
5 3 2 68.941 68.722 1.676 o
5 3 3 38.350 38.160 0.972 o
5 3 4 39.125 37.927 0.966 o
5 3 5 194.092 193.515 4.659 o
5 3 6 170.677 171.290 4.137 o
5 3 7 1.823 1.801 0.165 o
5 3 8 4.592 4.682 0.236 o
5 3 9 13.482 13.401 0.437 o
5 3 10 22.655 22.732 0.846 o
5 3 11 56.644 54.383 1.621 o
5 3 12 5.531 5.628 0.223 o
5 3 13 0.467 0.425 0.088 o
5 3 14 15.166 14.600 0.617 o
5 3 15 7.487 7.417 0.269 o
5 3 17 1.309 1.139 0.117 o
5 3 18 5.774 5.438 0.240 o
5 3 19 2.404 2.592 0.181 o
5 3 20 26.359 25.181 0.830 o
5 3 22 6.092 6.370 0.263 o
5 4 0 31.791 29.968 1.041 o
5 4 1 3.703 3.739 0.223 o
5 4 2 8.914 8.557 0.322 o
5 4 3 25.600 25.721 0.733 o
5 4 4 76.383 75.737 1.885 o
5 4 5 56.419 55.573 1.414 o
5 4 6 271.011 264.201 8.683 o
5 4 7 4.371 4.619 0.371 o
5 4 8 1.829 1.871 0.224 o
5 4 9 2.202 2.073 0.170 o
5 4 10 31.970 33.012 0.874 o
5 4 11 2.821 2.918 0.152 o
5 4 12 4.987 4.792 0.210 o
5 4 13 3.590 3.651 0.241 o
5 4 15 1.356 1.326 0.150 o
5 4 16 1.257 1.245 0.190 o
5 4 17 3.198 3.056 0.192 o
5 4 19 1.085 1.060 0.168 o
5 4 20 3.420 3.457 0.204 o
5 5 0 104.786 105.125 2.764 o
5 5 1 4.632 4.257 0.272 o
5 5 2 10.464 10.890 0.422 o
5 5 3 9.594 10.050 0.480 o
5 5 4 119.554 118.579 3.097 o
5 5 5 111.077 111.884 2.626 o
5 5 6 12.240 12.116 0.434 o
5 5 7 9.659 9.995 0.525 o
5 5 8 27.443 26.984 1.240 o
5 5 9 2.039 1.776 0.189 o
5 5 10 7.576 7.961 0.539 o
5 5 11 6.231 7.035 0.348 o
5 5 12 6.765 7.190 0.574 o
5 5 13 0.859 1.068 0.199 o
5 5 16 1.855 1.324 0.396 o
5 6 0 10.367 10.275 0.286 o
5 6 3 11.273 11.495 0.320 o
5 6 4 3.062 3.070 0.145 o
5 6 5 27.611 27.315 0.739 o
5 6 6 1.113 1.106 0.123 o
5 6 9 7.613 7.674 0.392 o
5 6 10 0.564 0.616 0.184 o
5 6 11 1.285 1.722 0.231 o
5 6 12 1.032 1.374 0.216 o
5 6 13 5.475 5.857 0.378 o
5 6 14 5.693 5.762 0.544 o
5 6 15 7.409 6.710 0.563 o
5 7 0 8.915 9.210 0.332 o
5 7 3 0.375 0.308 0.095 o
5 7 4 15.854 16.107 0.463 o
5 7 6 0.530 0.477 0.124 o
5 7 8 1.213 1.255 0.213 o
5 7 9 6.822 7.271 0.599 o
5 7 10 5.740 6.149 0.412 o
5 7 11 2.683 3.020 0.360 o
5 7 13 4.218 4.319 0.480 o
5 8 1 5.442 5.606 0.289 o
5 8 2 0.302 0.313 0.099 o
5 8 3 7.416 7.501 0.382 o
5 8 4 0.566 0.730 0.116 o
5 8 5 0.571 0.501 0.126 o
6 0 0 4632.011 4266.031 131.818 o
6 0 2 3.134 4.014 0.632 o
6 0 4 414.059 422.587 11.503 o
6 0 6 36.575 37.663 1.756 o
6 0 8 92.909 93.395 3.405 o
6 0 10 1.636 1.549 0.227 o
6 0 12 166.036 173.350 6.445 o
6 0 14 80.956 81.529 1.986 o
6 0 16 12.756 12.873 0.406 o
6 0 18 37.053 35.741 0.938 o
6 0 20 5.630 5.358 0.268 o
6 0 22 56.555 60.306 1.579 o
6 1 0 777.082 778.089 26.122 o
6 1 1 1132.189 1141.025 28.404 o
6 1 2 3.250 2.846 0.273 o
6 1 3 244.426 246.285 8.000 o
6 1 4 32.794 32.894 1.049 o
6 1 5 55.218 55.652 1.864 o
6 1 6 68.428 66.579 1.650 o
6 1 7 122.023 123.504 2.946 o
6 1 8 31.747 31.395 0.809 o
6 1 9 10.198 10.254 0.337 o
6 1 10 11.101 10.956 0.376 o
6 1 11 0.438 0.417 0.122 o
6 1 12 35.387 35.682 0.968 o
6 1 13 113.366 112.131 6.622 o
6 1 14 31.975 32.333 0.932 o
6 1 15 1.778 1.811 0.105 o
6 1 16 7.345 7.246 0.225 o
6 1 17 18.386 18.365 0.536 o
6 1 18 2.314 2.264 0.124 o
6 1 19 1.687 1.536 0.168 o
6 1 20 8.069 8.132 0.268 o
6 1 21 46.874 48.648 1.338 o
6 1 22 24.936 25.358 0.654 o
6 1 23 22.898 23.537 0.670 o
6 2 0 60.839 61.976 1.620 o
6 2 1 95.944 97.074 2.702 o
6 2 2 166.896 175.728 5.503 o
6 2 3 38.252 39.697 1.208 o
6 2 4 65.078 62.162 1.610 o
6 2 5 580.127 575.654 16.455 o
6 2 6 707.695 690.027 16.653 o
6 2 7 173.171 170.820 4.127 o
6 2 8 56.247 55.774 1.403 o
6 2 9 8.584 8.958 0.332 o
6 2 10 13.126 12.941 0.427 o
6 2 11 14.920 14.906 0.580 o
6 2 12 71.003 69.254 2.472 o
6 2 13 0.439 0.447 0.079 o
6 2 14 14.280 14.254 0.370 o
6 2 15 13.157 13.328 0.375 o
6 2 16 9.680 9.517 0.304 o
6 2 18 13.738 14.031 0.395 o
6 2 21 26.531 27.129 0.952 o
6 2 22 6.922 7.210 0.339 o
6 3 1 108.378 108.437 2.851 o
6 3 2 13.859 13.550 0.544 o
6 3 3 0.454 0.631 0.117 o
6 3 4 2.803 2.817 0.180 o
6 3 5 119.445 118.465 2.847 o
6 3 6 154.625 155.597 3.770 o
6 3 7 113.039 113.240 2.778 o
6 3 8 54.083 54.197 1.381 o
6 3 9 0.672 0.892 0.136 o
6 3 10 3.815 4.180 0.254 o
6 3 11 46.469 44.283 1.202 o
6 3 12 4.720 5.357 0.204 o
6 3 13 0.281 0.393 0.089 o
6 3 14 3.827 3.815 0.180 o
6 3 15 0.002 0.505 0.100 o
6 3 16 88.929 88.584 2.635 o
6 3 17 7.306 7.192 0.275 o
6 3 20 1.752 1.544 0.215 o
6 3 22 0.923 0.855 0.148 o
6 4 0 4.359 4.467 0.250 o
6 4 1 31.884 31.305 0.868 o
6 4 2 44.272 42.867 1.114 o
6 4 3 8.495 8.420 0.326 o
6 4 4 2.902 2.970 0.208 o
6 4 5 13.141 13.575 0.559 o
6 4 6 23.348 23.768 0.773 o
6 4 7 7.764 8.886 1.036 o
6 4 8 15.123 14.760 0.645 o
6 4 9 28.532 29.718 0.920 o
6 4 10 43.720 44.176 1.485 o
6 4 11 0.507 0.545 0.091 o
6 4 12 83.531 80.626 2.335 o
6 4 13 2.155 2.171 0.139 o
6 4 14 2.845 2.813 0.177 o
6 4 15 0.580 0.538 0.124 o
6 4 16 1.616 1.547 0.146 o
6 4 18 2.041 2.006 0.162 o
6 4 19 0.549 0.440 0.122 o
6 5 0 11.181 11.369 0.434 o
6 5 1 12.881 12.941 0.599 o
6 5 2 5.596 5.697 0.458 o
6 5 3 3.346 3.513 0.173 o
6 5 4 35.260 35.388 0.888 o
6 5 5 39.610 39.442 1.036 o
6 5 6 36.939 36.351 0.945 o
6 5 7 42.798 42.336 1.978 o
6 5 8 1.624 1.762 0.182 o
6 5 11 10.023 10.319 0.878 o
6 5 12 1.744 1.727 0.238 o
6 5 13 1.749 2.025 0.227 o
6 5 14 2.520 2.446 0.454 o
6 5 16 2.262 2.588 0.257 o
6 5 17 24.603 27.667 1.018 o
6 6 0 13.400 13.965 0.380 o
6 6 1 10.853 10.793 0.335 o
6 6 2 3.146 3.124 0.148 o
6 6 4 22.036 22.678 0.566 o
6 6 5 56.946 56.728 1.387 o
6 6 6 15.120 15.725 0.705 o
6 6 9 4.716 4.818 0.334 o
6 6 10 9.930 9.763 1.085 o
6 6 11 18.329 18.527 1.774 o
6 6 12 3.110 3.808 0.357 o
6 6 13 9.741 10.777 0.633 o
6 6 14 9.537 9.793 0.638 o
6 6 16 9.433 10.397 0.622 o
6 7 0 15.349 15.189 0.409 o
6 7 1 0.265 0.321 0.086 o
6 7 2 0.471 0.564 0.102 o
6 7 3 3.747 3.798 0.191 o
6 7 4 0.668 0.604 0.101 o
6 7 6 1.466 1.336 0.159 o
6 7 7 1.048 0.835 0.158 o
6 7 10 3.247 3.399 0.554 o
6 7 11 3.924 3.831 0.628 o
6 7 12 19.277 20.286 2.580 o
6 7 13 3.393 3.273 0.433 o
6 8 0 3.962 4.001 0.184 o
6 8 1 5.097 4.937 0.225 o
6 8 2 0.623 0.712 0.106 o
6 8 3 1.663 1.648 0.131 o
6 8 5 0.801 0.829 0.135 o
6 8 6 4.754 5.307 0.244 o
7 0 0 52.598 56.398 1.546 o
7 0 2 315.489 310.538 8.017 o
7 0 4 81.668 79.300 2.595 o
7 0 6 4.094 4.808 0.297 o
7 0 8 57.013 59.619 1.625 o
7 0 10 18.721 19.261 0.693 o
7 0 12 504.295 519.934 15.330 o
7 0 14 749.016 752.757 20.265 o
7 0 16 9.497 9.709 0.350 o
7 0 18 7.468 7.628 0.388 o
7 0 20 22.902 22.671 1.270 o
7 0 22 2.273 2.010 0.227 o
7 1 0 449.131 449.640 17.564 o
7 1 1 22.263 22.675 0.958 o
7 1 2 4.416 4.365 0.320 o
7 1 3 359.064 360.113 10.047 o
7 1 4 52.161 53.351 1.828 o
7 1 5 9.519 9.280 0.360 o
7 1 6 286.651 285.685 7.441 o
7 1 7 8.242 8.528 0.386 o
7 1 8 20.405 20.820 0.571 o
7 1 9 130.045 131.092 3.461 o
7 1 10 3.172 2.993 0.199 o
7 1 11 15.571 16.020 0.540 o
7 1 12 4.192 3.929 0.290 o
7 1 13 243.125 244.939 7.109 o
7 1 14 22.216 22.015 0.543 o
7 1 15 2.853 2.985 0.146 o
7 1 17 26.014 26.058 0.658 o
7 1 18 2.602 2.471 0.131 o
7 1 19 0.460 0.429 0.091 o
7 1 20 18.150 17.265 0.740 o
7 1 21 8.706 8.902 0.368 o
7 1 22 2.329 2.284 0.189 o
7 1 23 2.380 2.582 0.209 o
7 2 1 73.815 74.536 2.022 o
7 2 2 362.208 373.494 10.312 o
7 2 3 223.017 220.642 6.798 o
7 2 4 99.916 99.444 2.533 o
7 2 5 73.105 72.791 1.761 o
7 2 6 34.007 33.196 0.870 o
7 2 7 276.506 268.951 6.653 o
7 2 8 94.315 95.728 2.555 o
7 2 9 2.801 2.866 0.193 o
7 2 10 1.390 1.531 0.158 o
7 2 11 6.759 6.855 0.316 o
7 2 12 1.398 1.620 0.191 o
7 2 13 17.532 17.121 0.438 o
7 2 15 1.161 1.129 0.092 o
7 2 16 14.674 14.654 0.388 o
7 2 17 3.192 3.216 0.183 o
7 2 18 2.892 2.940 0.154 o
7 2 19 52.874 50.899 2.000 o
7 2 21 1.161 0.967 0.119 o
7 2 22 9.634 9.781 0.472 o
7 3 0 1.562 1.772 0.160 o
7 3 1 145.693 143.748 4.043 o
7 3 2 42.082 44.423 1.130 o
7 3 3 91.425 90.159 2.352 o
7 3 4 64.767 63.696 1.626 o
7 3 5 3.470 3.514 0.212 o
7 3 7 5.381 5.646 0.260 o
7 3 9 34.251 34.163 1.098 o
7 3 11 0.557 0.605 0.101 o
7 3 12 34.269 35.365 0.936 o
7 3 13 2.784 2.644 0.139 o
7 3 14 17.424 17.895 0.471 o
7 3 15 3.889 3.846 0.163 o
7 3 16 8.481 8.398 0.366 o
7 3 17 3.930 3.684 0.230 o
7 3 18 6.389 6.233 0.258 o
7 3 20 0.605 0.614 0.125 o
7 4 0 3.988 3.633 0.229 o
7 4 1 1.738 1.363 0.151 o
7 4 2 42.143 41.141 1.080 o
7 4 4 1.105 1.234 0.151 o
7 4 5 4.617 4.819 0.305 o
7 4 6 69.862 69.860 2.145 o
7 4 7 55.495 57.648 1.997 o
7 4 8 1.120 1.036 0.137 o
7 4 9 29.981 29.192 0.826 o
7 4 10 28.157 29.171 0.931 o
7 4 12 0.725 0.713 0.100 o
7 4 14 1.020 1.110 0.131 o
7 4 16 7.733 7.946 0.363 o
7 4 17 1.267 1.155 0.138 o
7 4 18 5.800 5.673 0.343 o
7 4 19 13.516 14.225 0.438 o
7 4 20 3.304 3.112 0.301 o
7 5 0 12.512 12.315 0.477 o
7 5 2 24.087 23.920 0.596 o
7 5 3 1.265 1.327 0.089 o
7 5 4 134.438 131.576 3.046 o
7 5 5 12.180 12.267 0.346 o
7 5 6 9.129 9.017 0.364 o
7 5 7 1.243 1.201 0.167 o
7 5 8 5.230 5.052 0.294 o
7 5 9 3.758 4.187 0.278 o
7 5 11 6.662 6.528 0.343 o
7 5 12 0.583 0.550 0.164 o
7 6 1 0.787 0.821 0.089 o
7 6 2 7.524 7.893 0.244 o
7 6 3 78.393 78.647 1.998 o
7 6 4 16.243 16.072 0.488 o
7 6 5 4.880 5.030 0.255 o
7 6 7 6.479 5.934 0.602 o
7 6 8 28.195 28.354 3.513 o
7 6 9 4.000 4.236 0.324 o
7 6 10 5.460 5.185 0.676 o
7 6 11 1.246 1.532 0.227 o
7 6 12 1.483 1.838 0.239 o
7 6 14 3.865 3.148 0.473 o
7 7 0 7.639 7.790 0.261 o
7 7 1 6.705 6.527 0.239 o
7 7 2 17.244 17.594 0.605 o
7 7 4 2.236 2.288 0.145 o
7 7 5 0.329 0.421 0.124 o
7 7 6 5.136 5.144 0.397 o
7 7 7 6.672 7.279 0.393 o
7 7 9 5.072 5.171 0.340 o
7 7 10 1.263 1.219 0.209 o
7 8 3 7.867 7.634 0.395 o
7 8 5 0.964 1.019 0.140 o
7 8 6 1.538 1.645 0.264 o
8 0 0 2055.335 1919.478 80.788 o
8 0 2 80.199 79.837 3.258 o
8 0 4 519.871 529.416 27.144 o
8 0 6 1.954 1.899 0.243 o
8 0 8 123.352 120.362 3.153 o
8 0 10 1.727 1.681 0.235 o
8 0 12 206.379 204.881 6.080 o
8 0 14 16.630 16.995 0.453 o
8 0 16 13.496 14.310 0.565 o
8 0 18 6.825 6.565 0.276 o
8 0 20 0.597 0.622 0.139 o
8 1 0 163.524 161.553 4.553 o
8 1 1 21.452 21.887 0.731 o
8 1 2 46.682 47.050 1.523 o
8 1 3 53.229 56.561 1.600 o
8 1 4 999.694 989.840 32.140 o
8 1 5 828.616 821.651 25.028 o
8 1 6 393.847 389.507 9.730 o
8 1 7 2.964 3.116 0.198 o
8 1 8 0.514 0.570 0.112 o
8 1 9 9.768 9.560 0.354 o
8 1 10 34.428 33.378 0.989 o
8 1 11 68.230 67.158 1.972 o
8 1 12 7.042 7.704 0.391 o
8 1 13 62.003 61.204 1.420 o
8 1 14 23.712 24.061 0.679 o
8 1 15 6.566 6.592 0.226 o
8 1 16 0.229 0.245 0.071 o
8 1 17 27.359 26.772 0.730 o
8 1 18 2.302 2.376 0.181 o
8 1 19 0.947 0.845 0.103 o
8 1 20 28.527 28.865 1.316 o
8 1 21 6.537 6.848 0.241 o
8 1 22 0.411 0.485 0.095 o
8 2 0 123.362 119.978 3.329 o
8 2 1 1.519 1.660 0.215 o
8 2 2 31.667 32.870 0.918 o
8 2 3 6.944 6.606 0.271 o
8 2 4 157.078 160.968 4.065 o
8 2 5 365.765 353.488 8.774 o
8 2 6 5.047 5.247 0.246 o
8 2 7 50.059 50.781 1.532 o
8 2 8 10.283 10.324 0.363 o
8 2 9 8.781 9.198 0.340 o
8 2 10 20.309 20.163 0.595 o
8 2 11 10.261 10.622 0.471 o
8 2 13 1.058 0.996 0.084 o
8 2 14 37.249 37.212 0.931 o
8 2 15 34.314 34.230 0.829 o
8 2 16 0.425 0.289 0.075 o
8 2 19 8.392 8.284 0.313 o
8 2 20 45.078 44.486 1.238 o
8 2 21 37.240 38.437 1.304 o
8 2 22 13.840 13.764 0.427 o
8 3 0 69.483 68.734 1.715 o
8 3 1 89.833 89.000 2.167 o
8 3 2 0.583 0.600 0.119 o
8 3 3 0.847 0.753 0.125 o
8 3 4 25.635 25.950 0.780 o
8 3 5 9.703 9.415 0.352 o
8 3 6 7.161 7.316 0.336 o
8 3 7 4.348 4.437 0.355 o
8 3 8 78.939 77.114 1.954 o
8 3 9 11.991 12.556 0.695 o
8 3 10 100.436 99.271 2.555 o
8 3 11 1.476 1.551 0.108 o
8 3 12 52.772 50.651 1.538 o
8 3 13 0.569 0.646 0.098 o
8 3 14 3.762 3.587 0.164 o
8 3 15 22.085 21.829 0.720 o
8 3 17 1.321 1.386 0.124 o
8 3 18 2.580 2.247 0.168 o
8 3 19 4.456 4.220 0.217 o
8 3 20 24.479 24.212 0.719 o
8 3 21 7.861 8.138 0.334 o
8 4 0 21.286 22.227 0.790 o
8 4 1 1.358 1.222 0.148 o
8 4 2 20.112 19.918 0.592 o
8 4 3 15.679 15.173 0.482 o
8 4 4 9.778 9.831 0.362 o
8 4 6 2.824 3.599 0.347 o
8 4 7 8.436 9.372 0.813 o
8 4 8 2.445 2.553 0.147 o
8 4 9 1.172 1.304 0.112 o
8 4 10 17.327 17.284 0.533 o
8 4 14 38.678 38.946 0.971 o
8 4 15 2.075 2.213 0.164 o
8 4 16 48.738 48.963 1.325 o
8 4 17 4.269 4.132 0.215 o
8 5 0 34.709 34.416 0.854 o
8 5 1 8.253 8.217 0.239 o
8 5 2 3.884 4.068 0.149 o
8 5 3 6.901 6.902 0.206 o
8 5 4 1.300 1.289 0.085 o
8 5 5 3.878 3.865 0.167 o
8 5 6 2.532 2.737 0.157 o
8 5 7 1.524 1.590 0.318 o
8 5 8 1.662 1.758 0.266 o
8 5 9 90.681 90.581 3.652 o
8 5 10 0.501 0.554 0.160 o
8 5 11 16.797 17.958 0.810 o
8 5 12 3.100 3.237 0.679 o
8 5 13 3.258 3.153 0.488 o
8 5 15 12.785 12.380 0.480 o
8 5 16 2.024 2.146 0.271 o
8 6 1 0.871 0.746 0.081 o
8 6 2 2.140 2.273 0.115 o
8 6 3 20.323 20.648 0.524 o
8 6 4 17.596 17.652 0.486 o
8 6 5 29.431 29.277 0.871 o
8 6 6 3.237 3.651 0.280 o
8 6 7 0.935 0.792 0.172 o
8 6 8 2.199 2.525 0.253 o
8 6 10 5.745 5.829 0.559 o
8 6 12 3.033 3.311 0.550 o
8 6 14 6.717 7.699 0.583 o
8 6 15 3.075 3.110 0.448 o
8 7 0 5.263 4.959 0.221 o
8 7 1 10.129 9.821 0.386 o
8 7 2 2.232 2.407 0.147 o
8 7 3 11.953 12.427 0.490 o
8 7 4 39.995 39.936 1.122 o
8 7 5 3.039 2.987 0.209 o
8 7 6 4.758 4.426 0.268 o
8 7 7 1.326 1.424 0.227 o
8 7 9 1.848 1.916 0.417 o
8 7 10 1.493 1.597 0.228 o
8 7 11 4.034 4.124 0.471 o
8 7 12 1.537 1.312 0.350 o
8 8 0 4.061 3.878 0.196 o
8 8 1 1.960 2.104 0.152 o
8 8 4 6.767 6.860 0.350 o
8 8 5 0.760 0.747 0.199 o
9 0 0 23.228 24.117 0.817 o
9 0 2 206.372 216.949 6.386 o
9 0 4 731.717 765.906 20.076 o
9 0 6 386.208 394.315 13.142 o
9 0 8 137.679 137.712 4.307 o
9 0 10 10.853 11.649 0.521 o
9 0 12 222.037 223.092 6.833 o
9 0 14 1.325 1.343 0.111 o
9 0 16 33.462 32.717 0.964 o
9 0 18 29.750 31.477 0.854 o
9 0 22 7.213 7.366 0.589 o
9 1 0 47.878 47.630 1.631 o
9 1 1 329.338 332.483 8.402 o
9 1 2 8.629 8.964 0.428 o
9 1 3 190.430 196.304 5.056 o
9 1 4 76.470 75.997 1.892 o
9 1 5 76.311 78.126 2.119 o
9 1 6 44.807 45.003 1.142 o
9 1 7 5.917 6.016 0.267 o
9 1 8 3.177 3.146 0.206 o
9 1 9 7.489 7.188 0.305 o
9 1 10 33.860 32.998 0.902 o
9 1 11 145.446 147.888 5.456 o
9 1 12 224.204 218.353 6.206 o
9 1 13 160.000 155.874 3.757 o
9 1 14 64.437 64.684 1.630 o
9 1 15 3.846 3.754 0.153 o
9 1 16 6.617 6.839 0.220 o
9 1 17 22.398 21.296 0.636 o
9 1 18 20.062 19.455 0.514 o
9 1 19 1.283 1.270 0.115 o
9 1 20 2.751 2.834 0.157 o
9 1 21 2.170 2.248 0.143 o
9 1 22 3.959 4.177 0.184 o
9 2 0 98.777 95.900 2.606 o
9 2 1 85.437 85.130 2.228 o
9 2 2 53.218 54.676 1.317 o
9 2 3 44.825 44.228 1.115 o
9 2 4 16.816 16.841 0.472 o
9 2 5 46.566 47.958 1.253 o
9 2 6 4.782 4.958 0.237 o
9 2 7 11.110 10.938 0.376 o
9 2 8 59.865 62.189 2.133 o
9 2 9 2.141 2.313 0.188 o
9 2 11 221.363 218.899 6.202 o
9 2 12 30.583 30.574 0.733 o
9 2 13 6.179 6.297 0.202 o
9 2 14 1.067 0.985 0.096 o
9 2 15 3.644 3.596 0.152 o
9 2 16 42.976 43.636 1.113 o
9 2 17 0.325 0.354 0.087 o
9 2 19 4.552 4.367 0.223 o
9 2 20 5.825 5.946 0.237 o
9 2 21 2.278 2.383 0.158 o
9 2 22 3.989 3.743 0.407 o
9 3 1 96.148 91.638 2.321 o
9 3 2 5.760 6.384 0.276 o
9 3 3 1.099 1.995 0.208 o
9 3 4 14.018 13.940 0.424 o
9 3 6 371.388 361.038 18.060 o
9 3 7 12.178 12.465 0.481 o
9 3 8 13.686 13.750 0.769 o
9 3 9 1.496 1.591 0.186 o
9 3 10 1.891 2.071 0.122 o
9 3 12 0.366 0.832 0.090 o
9 3 13 2.719 2.916 0.198 o
9 3 14 4.781 4.593 0.192 o
9 3 15 8.237 7.959 0.266 o
9 3 16 6.377 6.146 0.413 o
9 3 17 7.760 7.626 0.356 o
9 3 18 18.483 17.683 0.671 o
9 3 19 2.944 3.265 0.227 o
9 3 20 3.385 3.592 0.207 o
9 3 21 6.112 6.402 0.289 o
9 4 0 38.574 38.601 1.068 o
9 4 1 7.060 7.398 0.310 o
9 4 2 189.687 181.207 4.604 o
9 4 3 5.452 5.305 0.261 o
9 4 4 4.896 4.746 0.367 o
9 4 6 5.929 6.136 0.639 o
9 4 8 0.882 0.954 0.103 o
9 4 9 3.900 3.952 0.185 o
9 4 10 0.829 1.038 0.110 o
9 4 11 13.201 13.584 0.470 o
9 4 13 3.613 3.962 0.185 o
9 4 14 4.767 4.650 0.201 o
9 4 15 1.087 0.899 0.155 o
9 4 16 2.377 2.663 0.182 o
9 4 17 1.826 1.850 0.248 o
9 4 18 1.765 1.568 0.283 o
9 5 0 2.580 2.934 0.133 o
9 5 1 26.097 26.237 0.684 o
9 5 3 8.123 8.318 0.243 o
9 5 4 9.564 9.655 0.278 o
9 5 6 13.140 13.160 0.380 o
9 5 7 65.952 65.194 1.792 o
9 5 8 2.000 2.080 0.156 o
9 5 9 18.417 18.354 0.881 o
9 5 13 3.387 3.436 0.268 o
9 5 14 5.997 5.716 0.326 o
9 5 15 1.026 1.149 0.210 o
9 6 0 36.754 36.346 0.906 o
9 6 1 20.018 19.852 0.497 o
9 6 3 10.337 11.066 0.303 o
9 6 4 17.965 17.715 0.499 o
9 6 5 1.172 1.234 0.125 o
9 6 6 17.322 18.190 0.580 o
9 6 8 5.529 5.142 0.347 o
9 6 10 1.030 0.786 0.198 o
9 6 11 7.241 6.548 1.202 o
9 6 12 9.204 10.106 0.660 o
9 6 13 6.210 6.686 0.561 o
9 7 0 2.771 2.607 0.180 o
9 7 1 0.881 0.974 0.109 o
9 7 2 26.508 26.444 0.689 o
9 7 3 2.477 2.630 0.153 o
9 7 4 5.476 5.822 0.240 o
9 7 5 9.108 9.372 0.313 o
9 7 6 2.430 2.507 0.333 o
9 8 1 2.557 2.512 0.165 o
9 8 2 1.220 1.184 0.126 o
9 8 4 1.945 1.876 0.162 o
9 8 5 2.368 2.352 0.402 o
10 0 0 145.489 152.292 4.515 o
10 0 2 936.984 992.280 27.678 o
10 0 4 3195.926 3175.928 111.321 o
10 0 6 37.057 37.184 1.193 o
10 0 8 53.237 51.751 1.474 o
10 0 10 10.289 10.429 0.490 o
10 0 12 26.003 24.022 1.343 o
10 0 16 13.441 13.030 0.400 o
10 0 18 41.200 42.315 1.201 o
10 0 20 3.076 3.576 0.837 o
10 0 22 8.537 8.326 1.551 o
10 1 0 0.921 0.849 0.188 o
10 1 1 24.719 26.622 0.855 o
10 1 2 81.124 78.899 2.017 o
10 1 3 600.860 623.279 15.122 o
10 1 4 18.558 18.860 0.564 o
10 1 5 19.622 19.552 0.561 o
10 1 7 73.223 72.366 1.786 o
10 1 9 47.305 48.128 1.251 o
10 1 10 38.651 38.740 1.446 o
10 1 11 16.839 16.730 0.856 o
10 1 12 1.799 2.052 0.151 o
10 1 13 44.950 43.350 1.060 o
10 1 14 13.063 13.508 0.378 o
10 1 16 0.667 0.668 0.083 o
10 1 17 9.198 8.993 0.269 o
10 1 18 4.517 4.518 0.189 o
10 1 22 3.851 3.720 0.233 o
10 2 1 24.325 24.299 0.739 o
10 2 2 3.193 3.274 0.198 o
10 2 3 1.475 1.433 0.126 o
10 2 4 0.610 0.574 0.102 o
10 2 5 6.439 6.240 0.320 o
10 2 6 80.569 82.057 2.851 o
10 2 7 49.355 48.282 1.777 o
10 2 8 11.852 12.019 0.453 o
10 2 9 125.875 127.099 3.481 o
10 2 10 6.895 7.451 0.384 o
10 2 11 0.470 0.552 0.085 o
10 2 12 86.410 86.520 2.149 o
10 2 13 93.506 93.654 2.190 o
10 2 14 0.389 0.390 0.074 o
10 2 15 0.437 0.445 0.077 o
10 2 16 3.607 3.737 0.157 o
10 2 17 4.166 4.368 0.184 o
10 2 19 7.395 7.473 0.304 o
10 2 20 4.331 4.424 0.204 o
10 3 1 9.836 9.506 0.347 o
10 3 2 141.975 139.148 3.407 o
10 3 3 13.702 13.150 0.429 o
10 3 4 4.425 4.616 0.222 o
10 3 5 4.106 4.299 0.239 o
10 3 6 21.912 22.546 0.731 o
10 3 7 30.445 29.565 0.880 o
10 3 8 5.443 5.137 0.469 o
10 3 9 2.990 3.132 0.493 o
10 3 10 0.263 0.252 0.077 o
10 3 11 1.633 1.630 0.134 o
10 3 12 46.772 46.220 1.231 o
10 3 13 0.920 0.927 0.160 o
10 3 14 11.535 11.952 0.399 o
10 3 15 32.102 31.994 0.815 o
10 3 16 6.710 6.750 0.265 o
10 3 17 0.907 0.879 0.125 o
10 3 18 4.771 5.100 0.234 o
10 3 19 48.979 48.646 1.307 o
10 3 20 24.213 25.080 0.958 o
10 4 0 13.435 13.686 0.457 o
10 4 2 10.213 9.974 0.378 o
10 4 4 2.866 2.813 0.376 o
10 4 5 1.131 0.940 0.192 o
10 4 6 52.493 51.428 1.783 o
10 4 7 2.727 2.939 0.148 o
10 4 8 60.702 59.126 1.686 o
10 4 9 55.286 56.996 1.974 o
10 4 10 10.780 10.803 0.392 o
10 4 11 1.739 1.617 0.123 o
10 4 12 7.298 7.261 0.252 o
10 4 14 24.700 24.494 0.694 o
10 4 15 0.437 0.376 0.099 o
10 4 17 4.676 5.011 0.258 o
10 4 18 18.874 19.051 1.107 o
10 4 19 2.095 1.841 0.177 o
10 5 0 1.795 1.922 0.105 o
10 5 1 26.350 25.938 0.677 o
10 5 2 0.382 0.438 0.067 o
10 5 3 2.680 2.726 0.130 o
10 5 7 4.536 4.710 0.206 o
10 5 8 1.179 1.063 0.133 o
10 5 9 1.108 1.206 0.138 o
10 5 11 2.284 2.286 0.234 o
10 5 12 30.876 28.977 0.863 o
10 5 13 0.735 0.788 0.237 o
10 5 14 35.233 34.316 1.156 o
10 5 15 3.708 3.405 0.410 o
10 6 0 10.409 10.497 0.313 o
10 6 1 2.422 2.514 0.122 o
10 6 2 5.453 5.411 0.187 o
10 6 4 7.783 7.824 0.269 o
10 6 5 0.460 0.476 0.098 o
10 6 6 1.433 1.493 0.173 o
10 6 7 2.289 2.489 0.251 o
10 6 8 25.552 27.863 1.510 o
10 6 9 4.624 4.499 0.855 o
10 6 12 2.717 2.771 0.458 o
10 6 14 4.102 3.983 0.468 o
10 7 2 0.579 0.645 0.104 o
10 7 3 30.876 31.353 1.066 o
10 7 5 4.681 4.526 0.235 o
10 7 6 1.876 1.855 0.237 o
10 7 7 0.982 0.956 0.291 o
10 7 9 4.715 4.910 0.505 o
10 8 1 6.873 6.933 0.257 o
10 8 2 8.004 8.040 0.321 o
10 8 3 3.737 3.639 0.209 o
10 8 4 17.796 17.345 0.797 o
11 0 0 424.633 429.603 16.544 o
11 0 2 238.489 236.151 6.805 o
11 0 4 187.808 197.103 6.846 o
11 0 8 35.441 36.529 1.189 o
11 0 10 17.376 16.893 0.682 o
11 0 12 6.517 7.205 0.305 o
11 0 14 40.443 40.067 1.136 o
11 0 16 33.166 32.230 1.031 o
11 0 18 20.761 20.317 1.950 o
11 1 0 56.166 55.465 1.463 o
11 1 1 7.649 8.015 0.330 o
11 1 2 8.094 9.059 0.331 o
11 1 3 380.012 381.293 9.515 o
11 1 4 198.556 205.814 5.132 o
11 1 5 152.151 150.197 4.239 o
11 1 6 7.889 8.150 0.407 o
11 1 7 67.474 67.635 1.849 o
11 1 8 11.357 11.273 0.396 o
11 1 9 36.658 35.259 0.977 o
11 1 10 123.369 118.328 3.005 o
11 1 11 1.934 1.725 0.242 o
11 1 12 2.648 2.808 0.136 o
11 1 13 1.490 1.472 0.097 o
11 1 14 20.463 20.049 0.553 o
11 1 15 63.959 60.629 1.723 o
11 1 16 2.211 2.238 0.124 o
11 1 17 7.307 7.373 0.248 o
11 1 18 2.721 2.729 0.155 o
11 1 19 1.846 1.877 0.132 o
11 1 20 5.059 5.012 0.203 o
11 1 21 1.828 1.806 0.128 o
11 2 0 72.069 71.552 2.097 o
11 2 1 1.555 1.519 0.130 o
11 2 2 0.758 0.714 0.102 o
11 2 3 30.469 30.544 1.068 o
11 2 4 177.509 181.876 5.382 o
11 2 5 54.760 54.702 1.563 o
11 2 6 13.398 12.575 0.540 o
11 2 7 2.280 2.056 0.210 o
11 2 8 8.268 8.062 0.359 o
11 2 9 23.676 24.653 0.824 o
11 2 10 126.682 128.376 3.462 o
11 2 11 186.017 179.195 4.513 o
11 2 12 97.490 94.482 2.475 o
11 2 13 3.080 3.152 0.140 o
11 2 14 30.340 30.024 0.777 o
11 2 15 6.404 6.460 0.215 o
11 2 16 28.422 28.896 0.863 o
11 2 17 2.822 2.725 0.153 o
11 2 18 1.136 1.111 0.164 o
11 2 20 2.049 1.778 0.149 o
11 2 21 2.655 2.685 0.169 o
11 3 0 83.760 82.303 2.097 o
11 3 1 1.395 1.101 0.139 o
11 3 2 105.289 103.021 2.763 o
11 3 3 2.019 2.091 0.175 o
11 3 5 49.373 49.187 1.722 o
11 3 6 1.487 1.521 0.202 o
11 3 7 3.060 3.240 0.275 o
11 3 8 21.256 20.429 0.693 o
11 3 9 6.455 6.726 0.336 o
11 3 10 114.699 113.860 2.982 o
11 3 11 61.606 60.069 1.494 o
11 3 12 2.770 2.892 0.182 o
11 3 15 24.007 23.272 0.705 o
11 3 16 1.995 1.918 0.154 o
11 3 17 1.868 1.507 0.145 o
11 3 18 2.302 2.424 0.175 o
11 3 19 6.567 6.618 0.267 o
11 3 20 15.330 15.156 0.877 o
11 4 0 21.799 21.540 0.843 o
11 4 4 84.662 83.426 2.613 o
11 4 5 7.630 7.692 0.362 o
11 4 6 161.520 158.060 4.773 o
11 4 7 9.871 10.106 0.297 o
11 4 8 1.185 1.232 0.101 o
11 4 9 0.212 0.331 0.092 o
11 4 10 5.298 5.108 0.242 o
11 4 12 8.470 8.588 0.320 o
11 4 13 3.446 3.302 0.257 o
11 4 16 1.708 1.561 0.166 o
11 4 17 3.815 3.627 0.359 o
11 4 18 0.493 0.671 0.141 o
11 5 1 34.808 35.022 0.856 o
11 5 2 4.847 4.868 0.162 o
11 5 3 7.348 7.344 0.216 o
11 5 4 0.977 0.938 0.089 o
11 5 5 23.119 22.963 0.642 o
11 5 6 3.047 3.054 0.191 o
11 5 8 1.230 1.280 0.122 o
11 5 9 1.907 2.022 0.143 o
11 5 10 1.175 1.163 0.127 o
11 5 11 27.474 27.094 0.937 o
11 5 12 16.404 16.769 0.950 o
11 5 15 0.628 0.705 0.188 o
11 5 16 2.764 2.549 0.252 o
11 6 0 17.330 17.149 0.444 o
11 6 1 0.365 0.420 0.078 o
11 6 2 9.992 10.056 0.284 o
11 6 3 4.680 4.765 0.174 o
11 6 4 29.245 29.344 0.869 o
11 6 5 16.014 16.580 0.495 o
11 6 7 3.894 4.267 0.262 o
11 6 9 2.533 2.598 0.424 o
11 6 11 10.619 10.398 0.654 o
11 6 14 3.407 3.263 0.435 o
11 7 0 0.407 0.539 0.099 o
11 7 1 1.369 1.360 0.174 o
11 7 2 1.422 1.357 0.124 o
11 7 3 0.323 0.347 0.096 o
11 7 4 24.302 25.341 0.941 o
11 7 5 10.678 10.886 0.478 o
11 7 6 15.108 14.284 2.189 o
11 7 7 0.952 1.196 0.275 o
11 7 9 2.161 1.751 0.382 o
11 8 1 7.148 7.182 0.261 o
11 8 2 0.650 0.607 0.154 o
12 0 0 2.387 9.761 1.063 o
12 0 2 188.360 187.637 5.846 o
12 0 4 0.400 0.353 0.116 o
12 0 6 31.460 32.353 0.988 o
12 0 8 111.056 109.629 3.979 o
12 0 10 1.668 1.467 0.262 o
12 0 12 37.246 39.171 1.226 o
12 0 14 21.091 21.894 0.974 o
12 0 16 6.617 7.096 0.465 o
12 0 18 6.964 7.322 0.413 o
12 0 20 3.534 3.670 0.283 o
12 1 0 3.780 3.534 0.230 o
12 1 1 150.345 145.974 4.222 o
12 1 2 571.187 574.257 14.303 o
12 1 3 360.228 360.960 10.655 o
12 1 4 256.298 256.719 6.337 o
12 1 5 55.897 55.364 1.672 o
12 1 6 41.131 40.184 1.052 o
12 1 7 47.183 48.098 1.241 o
12 1 8 27.177 26.843 0.758 o
12 1 9 16.841 16.959 0.544 o
12 1 10 5.332 5.280 0.284 o
12 1 11 6.648 6.566 0.210 o
12 1 12 28.360 27.978 0.789 o
12 1 13 19.642 19.452 0.490 o
12 1 17 15.468 16.333 0.550 o
12 1 18 7.639 7.783 0.374 o
12 1 19 0.338 0.324 0.092 o
12 1 20 0.735 0.599 0.101 o
12 1 21 6.201 6.255 0.240 o
12 2 0 6.405 6.724 0.262 o
12 2 1 510.321 514.583 13.066 o
12 2 2 40.475 41.209 1.071 o
12 2 3 43.781 42.825 1.233 o
12 2 4 3.327 3.584 0.231 o
12 2 5 32.477 32.428 1.326 o
12 2 6 141.212 141.637 3.878 o
12 2 7 1.300 1.361 0.222 o
12 2 8 9.277 9.597 0.500 o
12 2 9 0.783 0.693 0.231 o
12 2 10 16.138 15.666 0.597 o
12 2 11 21.230 21.037 0.661 o
12 2 12 3.593 3.870 0.161 o
12 2 13 16.857 16.839 0.509 o
12 2 14 26.204 25.637 0.755 o
12 2 15 7.254 7.320 0.231 o
12 2 16 5.653 5.680 0.417 o
12 2 17 20.113 19.957 0.543 o
12 2 18 1.268 1.230 0.125 o
12 2 20 6.725 6.808 0.313 o
12 3 0 0.733 2.132 0.232 o
12 3 2 12.985 12.789 0.423 o
12 3 3 0.091 1.573 0.174 o
12 3 4 12.034 12.801 0.420 o
12 3 5 31.232 30.149 0.885 o
12 3 6 33.307 33.143 1.467 o
12 3 7 79.283 83.315 3.002 o
12 3 8 47.456 46.302 2.026 o
12 3 9 0.879 1.627 0.116 o
12 3 10 26.346 25.939 0.678 o
12 3 11 69.610 68.520 1.776 o
12 3 12 75.449 74.856 2.950 o
12 3 15 0.308 0.414 0.106 o
12 3 16 2.719 2.839 0.184 o
12 3 17 3.501 3.210 0.191 o
12 3 18 4.265 4.572 0.224 o
12 3 19 17.079 17.098 0.635 o
12 4 0 9.729 10.069 0.399 o
12 4 1 34.533 34.636 1.354 o
12 4 2 4.129 3.892 0.258 o
12 4 3 5.018 5.551 0.293 o
12 4 4 1.355 1.429 0.110 o
12 4 5 1.775 2.005 0.119 o
12 4 6 18.058 18.643 0.594 o
12 4 7 0.628 0.635 0.086 o
12 4 9 1.174 1.208 0.131 o
12 4 10 62.279 61.289 2.658 o
12 4 11 2.547 2.865 0.168 o
12 4 12 90.439 90.546 3.232 o
12 4 13 15.481 15.652 0.529 o
12 4 16 0.983 1.104 0.155 o
12 4 17 6.782 6.480 0.292 o
12 4 18 39.801 39.600 1.140 o
12 5 1 1.395 1.512 0.103 o
12 5 3 3.363 3.327 0.158 o
12 5 4 23.719 23.418 0.628 o
12 5 5 3.435 3.468 0.154 o
12 5 6 6.933 6.638 0.221 o
12 5 7 8.678 8.293 0.265 o
12 5 8 9.906 10.220 0.351 o
12 5 9 9.249 8.711 0.369 o
12 5 10 3.185 3.041 0.215 o
12 5 11 16.652 16.098 1.418 o
12 5 12 44.601 43.577 1.316 o
12 5 13 7.065 7.207 0.305 o
12 5 14 5.234 4.841 0.306 o
12 5 16 6.181 6.599 0.479 o
12 6 0 6.844 7.152 0.226 o
12 6 1 10.154 9.910 0.280 o
12 6 2 9.621 9.914 0.281 o
12 6 3 11.865 12.501 0.346 o
12 6 4 0.550 0.508 0.133 o
12 6 5 5.595 5.690 0.240 o
12 6 6 0.010 0.749 0.126 o
12 6 7 0.941 0.997 0.135 o
12 6 8 1.001 1.052 0.159 o
12 6 11 10.688 10.794 0.653 o
12 7 0 0.273 0.325 0.098 o
12 7 1 3.336 3.614 0.178 o
12 7 2 7.346 7.286 0.268 o
12 7 3 2.465 2.480 0.151 o
12 7 4 5.909 5.816 0.275 o
12 7 5 0.432 0.526 0.137 o
12 7 6 1.835 1.869 0.192 o
12 7 7 8.154 8.324 0.599 o
12 8 1 1.225 1.238 0.170 o
13 0 0 8.656 14.840 0.604 o
13 0 2 63.709 63.740 1.812 o
13 0 4 0.925 0.908 0.143 o
13 0 6 31.981 32.196 1.003 o
13 0 8 245.425 248.258 14.904 o
13 0 10 42.854 46.115 2.320 o
13 0 12 58.140 58.632 1.580 o
13 0 14 123.545 123.576 3.814 o
13 0 16 1.098 1.132 0.187 o
13 0 18 6.447 6.422 0.453 o
13 0 20 18.762 18.453 1.898 o
13 1 0 1.811 1.502 0.168 o
13 1 1 34.841 34.500 0.948 o
13 1 2 3.385 3.194 0.207 o
13 1 3 129.085 129.803 3.223 o
13 1 4 13.131 13.711 0.448 o
13 1 5 21.730 20.980 0.697 o
13 1 6 11.234 11.083 0.418 o
13 1 7 59.944 58.168 1.508 o
13 1 8 23.413 23.590 0.820 o
13 1 9 5.927 5.684 0.445 o
13 1 10 8.760 8.873 0.280 o
13 1 12 36.854 37.192 0.955 o
13 1 13 8.512 8.667 0.255 o
13 1 14 23.230 22.998 0.819 o
13 1 15 28.998 29.003 0.805 o
13 1 16 1.487 1.371 0.115 o
13 1 17 5.360 5.228 0.205 o
13 1 18 0.468 0.395 0.094 o
13 1 20 1.264 1.237 0.131 o
13 2 0 21.302 21.645 0.617 o
13 2 1 4.509 4.645 0.272 o
13 2 2 252.643 253.951 6.427 o
13 2 3 435.534 439.598 11.255 o
13 2 4 14.605 14.206 0.536 o
13 2 5 10.282 10.504 0.488 o
13 2 6 0.892 0.876 0.201 o
13 2 7 16.633 16.637 0.682 o
13 2 8 10.621 9.452 0.781 o
13 2 9 5.832 5.835 0.373 o
13 2 10 9.729 9.520 0.286 o
13 2 11 1.929 1.939 0.131 o
13 2 12 2.799 2.701 0.147 o
13 2 13 3.840 4.087 0.192 o
13 2 14 27.227 25.528 0.680 o
13 2 15 12.985 12.454 0.390 o
13 2 17 0.615 0.620 0.106 o
13 2 18 20.170 19.507 1.062 o
13 2 19 35.330 37.337 0.947 o
13 2 20 21.035 21.681 1.013 o
13 3 0 3.726 3.690 0.309 o
13 3 1 8.430 8.404 0.332 o
13 3 2 140.062 135.739 3.448 o
13 3 3 15.039 15.798 0.647 o
13 3 4 60.699 60.730 2.648 o
13 3 5 49.258 45.880 4.630 o
13 3 6 27.310 26.571 1.008 o
13 3 8 4.010 4.164 0.178 o
13 3 9 121.661 115.738 2.918 o
13 3 10 88.031 85.177 2.187 o
13 3 11 6.946 6.722 0.310 o
13 3 12 39.503 39.178 1.200 o
13 3 14 0.316 0.421 0.127 o
13 3 15 10.364 9.935 0.397 o
13 3 16 0.757 0.668 0.121 o
13 3 18 5.155 5.378 0.266 o
13 3 19 25.820 27.774 1.245 o
13 4 0 5.713 5.834 0.454 o
13 4 1 2.035 2.048 0.206 o
13 4 2 2.817 2.757 0.167 o
13 4 3 1.738 1.660 0.094 o
13 4 4 22.561 22.394 0.642 o
13 4 7 19.680 20.279 0.604 o
13 4 8 26.526 26.233 0.829 o
13 4 9 15.073 14.859 0.472 o
13 4 10 122.060 119.558 3.177 o
13 4 11 2.802 3.003 0.336 o
13 4 12 3.186 3.106 0.249 o
13 4 13 5.116 5.258 0.265 o
13 4 14 9.072 8.992 0.348 o
13 4 17 0.685 0.900 0.148 o
13 4 18 2.421 2.571 0.391 o
13 5 0 0.739 0.726 0.076 o
13 5 1 5.243 5.198 0.195 o
13 5 2 66.541 65.313 1.531 o
13 5 3 14.537 14.513 0.373 o
13 5 4 119.076 115.361 2.744 o
13 5 5 3.678 3.509 0.152 o
13 5 6 3.595 3.752 0.174 o
13 5 7 4.478 4.544 0.181 o
13 5 8 8.224 8.455 0.277 o
13 5 9 7.753 7.248 0.455 o
13 5 10 6.380 6.252 0.476 o
13 5 11 1.074 0.975 0.211 o
13 5 15 1.899 2.178 0.377 o
13 6 0 1.630 1.558 0.107 o
13 6 2 5.464 5.649 0.204 o
13 6 3 63.451 63.082 1.512 o
13 6 4 21.686 21.488 1.060 o
13 6 5 14.762 15.160 0.562 o
13 6 6 4.040 4.206 0.290 o
13 6 7 1.495 1.647 0.156 o
13 6 9 1.780 1.584 0.209 o
13 6 10 2.840 2.704 0.435 o
13 6 12 4.597 4.748 0.478 o
13 7 1 1.964 1.986 0.159 o
13 7 2 0.720 0.563 0.103 o
13 7 3 5.568 5.373 0.283 o
13 7 4 5.323 5.523 0.425 o
13 7 8 3.345 2.982 0.431 o
14 0 0 56.892 60.384 1.763 o
14 0 2 43.944 43.667 1.986 o
14 0 4 211.588 215.761 5.579 o
14 0 6 28.019 29.213 0.935 o
14 0 8 47.577 48.195 2.339 o
14 0 10 2.525 2.621 0.149 o
14 0 12 55.826 56.695 1.476 o
14 0 14 5.774 7.786 0.541 o
14 0 20 0.618 0.534 0.173 o
14 1 0 123.677 122.004 3.032 o
14 1 1 14.554 13.888 0.480 o
14 1 2 0.449 0.440 0.135 o
14 1 3 1.195 1.434 0.154 o
14 1 4 122.705 125.923 3.231 o
14 1 5 141.473 149.245 4.004 o
14 1 7 16.310 15.984 0.696 o
14 1 8 7.174 7.268 0.351 o
14 1 9 18.330 18.345 1.084 o
14 1 10 7.192 7.033 0.280 o
14 1 11 3.076 3.316 0.177 o
14 1 12 44.547 43.268 1.162 o
14 1 14 12.841 13.257 0.383 o
14 1 15 0.354 0.377 0.078 o
14 1 16 2.948 2.897 0.181 o
14 1 17 18.158 17.839 0.648 o
14 1 18 4.771 5.072 0.257 o
14 1 19 3.298 3.351 0.184 o
14 1 20 18.767 19.052 0.546 o
14 2 0 92.207 91.455 2.571 o
14 2 1 245.335 243.646 6.745 o
14 2 2 190.554 188.266 5.262 o
14 2 3 0.682 0.783 0.138 o
14 2 4 60.338 60.302 1.870 o
14 2 5 58.127 56.344 2.545 o
14 2 6 129.867 129.072 3.656 o
14 2 7 9.782 9.032 0.644 o
14 2 8 0.314 0.405 0.106 o
14 2 9 0.921 0.918 0.140 o
14 2 10 12.092 11.849 0.345 o
14 2 11 3.661 3.421 0.228 o
14 2 12 8.048 7.950 0.306 o
14 2 13 1.146 1.075 0.120 o
14 2 14 7.326 7.287 0.252 o
14 2 16 2.210 2.254 0.168 o
14 2 17 30.950 28.312 0.760 o
14 2 18 5.877 5.963 0.258 o
14 2 19 0.785 0.805 0.126 o
14 3 0 154.999 151.764 5.003 o
14 3 1 119.819 117.128 3.044 o
14 3 2 0.721 0.732 0.160 o
14 3 3 1.226 1.130 0.208 o
14 3 4 5.856 5.944 0.567 o
14 3 5 45.899 47.253 1.632 o
14 3 6 12.277 11.742 0.361 o
14 3 8 1.950 1.799 0.123 o
14 3 9 34.320 33.398 0.826 o
14 3 10 77.352 74.507 2.307 o
14 3 11 100.971 95.823 2.366 o
14 3 12 31.770 30.655 0.878 o
14 3 13 0.359 0.359 0.108 o
14 3 15 26.589 26.721 0.759 o
14 3 16 7.273 7.323 0.405 o
14 3 17 0.687 0.643 0.120 o
14 3 18 4.299 4.256 0.316 o
14 4 0 6.135 5.977 0.198 o
14 4 1 4.877 4.922 0.166 o
14 4 2 13.861 14.202 0.377 o
14 4 3 11.473 11.600 0.339 o
14 4 4 8.599 9.018 0.271 o
14 4 5 2.143 2.184 0.129 o
14 4 6 11.503 11.693 0.522 o
14 4 7 4.769 4.870 0.284 o
14 4 9 7.490 7.709 0.294 o
14 4 10 189.619 181.513 5.143 o
14 4 11 2.557 2.774 0.220 o
14 4 12 33.617 32.969 2.069 o
14 4 13 2.862 2.817 0.217 o
14 4 14 2.442 2.360 0.356 o
14 4 15 1.367 1.374 0.167 o
14 5 0 0.594 0.655 0.076 o
14 5 1 45.025 43.440 1.094 o
14 5 2 13.411 13.712 0.427 o
14 5 3 3.986 3.897 0.148 o
14 5 4 14.544 14.835 0.469 o
14 5 7 3.398 3.149 0.164 o
14 5 8 2.420 2.368 0.154 o
14 5 9 40.873 40.004 1.723 o
14 5 10 4.560 3.867 0.207 o
14 5 11 26.008 25.008 0.768 o
14 5 13 3.270 3.253 0.266 o
14 5 14 2.437 2.660 0.357 o
14 6 0 1.010 1.064 0.100 o
14 6 1 2.459 2.379 0.144 o
14 6 2 7.501 7.846 0.266 o
14 6 3 1.284 1.428 0.121 o
14 6 4 5.402 5.344 0.366 o
14 6 5 6.402 6.380 0.292 o
14 6 6 2.342 1.941 0.188 o
14 6 7 3.592 3.487 0.236 o
14 6 8 2.380 2.441 0.259 o
14 6 9 1.595 1.636 0.217 o
14 6 10 0.836 0.699 0.182 o
14 6 11 3.811 3.922 0.462 o
14 7 0 0.463 0.501 0.100 o
14 7 3 0.917 1.075 0.182 o
14 7 4 15.390 15.085 0.523 o
14 7 5 2.837 2.988 0.197 o
15 0 0 49.519 54.424 1.634 o
15 0 2 35.048 35.291 1.568 o
15 0 4 132.494 135.115 3.476 o
15 0 6 59.254 55.065 2.521 o
15 0 8 24.017 25.462 2.111 o
15 0 10 28.322 29.173 0.800 o
15 0 12 114.085 112.873 3.034 o
15 0 14 23.881 24.230 0.655 o
15 0 16 13.248 13.985 0.461 o
15 0 18 15.271 16.346 1.036 o
15 0 20 2.914 2.674 0.388 o
15 1 0 4.590 5.003 0.271 o
15 1 1 3.772 4.578 0.293 o
15 1 2 46.319 45.277 1.215 o
15 1 3 38.250 39.880 1.257 o
15 1 4 0.893 0.791 0.173 o
15 1 5 1.779 2.034 0.245 o
15 1 7 87.149 85.166 2.442 o
15 1 8 38.149 40.373 2.082 o
15 1 9 1.122 1.191 0.093 o
15 1 10 2.779 2.936 0.133 o
15 1 11 26.138 26.579 0.646 o
15 1 12 24.244 24.210 0.612 o
15 1 13 52.798 53.875 1.375 o
15 1 14 5.892 6.059 0.202 o
15 1 15 4.886 4.826 0.230 o
15 1 16 9.781 9.650 0.312 o
15 1 17 31.773 31.610 1.344 o
15 1 18 70.488 69.945 3.276 o
15 1 19 7.059 6.984 0.282 o
15 1 20 8.367 7.882 0.507 o
15 2 0 18.336 18.497 0.610 o
15 2 1 23.044 23.257 0.714 o
15 2 2 0.745 0.870 0.164 o
15 2 3 34.675 34.837 0.955 o
15 2 4 40.522 40.889 1.357 o
15 2 5 16.685 16.544 0.719 o
15 2 6 25.127 24.293 1.286 o
15 2 7 69.073 65.497 7.633 o
15 2 8 0.351 0.466 0.085 o
15 2 9 1.482 1.554 0.118 o
15 2 10 48.527 47.550 1.276 o
15 2 11 19.605 18.666 0.651 o
15 2 12 8.903 9.126 0.439 o
15 2 13 1.085 1.040 0.127 o
15 2 14 8.895 8.360 0.378 o
15 2 15 0.448 0.545 0.113 o
15 2 16 4.892 4.669 0.342 o
15 2 17 8.023 8.129 0.542 o
15 2 18 16.849 16.848 0.497 o
15 2 19 18.814 18.816 0.931 o
15 3 0 45.694 47.114 2.492 o
15 3 1 194.993 186.644 12.437 o
15 3 2 180.362 173.298 12.685 o
15 3 3 20.368 19.946 1.012 o
15 3 4 1.867 1.857 0.270 o
15 3 5 5.890 5.634 0.224 o
15 3 6 9.487 9.369 0.368 o
15 3 7 3.440 3.544 0.168 o
15 3 8 15.836 15.132 0.419 o
15 3 9 26.836 26.716 0.912 o
15 3 10 9.269 9.268 0.297 o
15 3 11 23.744 22.737 0.762 o
15 3 12 5.017 5.342 0.243 o
15 3 13 10.215 9.771 0.605 o
15 3 14 1.513 1.531 0.230 o
15 3 15 1.700 1.487 0.213 o
15 3 17 1.755 1.468 0.172 o
15 3 18 5.861 5.772 0.346 o
15 4 0 119.089 113.406 3.109 o
15 4 1 0.463 0.417 0.066 o
15 4 2 330.487 325.983 9.080 o
15 4 3 27.054 28.000 0.863 o
15 4 4 6.382 6.291 0.238 o
15 4 6 19.324 18.535 0.524 o
15 4 7 20.175 19.853 0.560 o
15 4 8 42.426 40.320 1.030 o
15 4 9 11.813 11.291 0.525 o
15 4 10 12.082 12.036 0.477 o
15 4 11 6.783 6.973 0.301 o
15 4 12 0.720 0.649 0.136 o
15 4 14 5.981 5.785 0.366 o
15 4 15 0.492 0.571 0.143 o
15 4 16 5.099 5.148 0.266 o
15 4 17 0.956 1.016 0.300 o
15 5 1 39.224 38.648 0.928 o
15 5 2 59.215 58.509 1.365 o
15 5 3 36.358 35.762 0.990 o
15 5 4 17.133 17.156 0.539 o
15 5 5 2.018 1.980 0.136 o
15 5 6 9.771 9.774 0.300 o
15 5 7 8.833 8.682 0.369 o
15 5 8 27.988 27.733 0.864 o
15 5 9 16.388 15.920 0.628 o
15 5 10 0.693 0.715 0.147 o
15 5 11 16.183 16.457 0.514 o
15 5 12 17.097 17.503 0.538 o
15 6 0 0.616 0.644 0.092 o
15 6 1 8.331 8.617 0.282 o
15 6 3 18.421 18.665 0.497 o
15 6 4 10.914 10.755 0.362 o
15 6 5 1.760 1.882 0.165 o
15 6 7 11.572 12.060 0.786 o
15 6 8 0.559 0.611 0.144 o
15 6 9 0.752 0.774 0.187 o
15 6 10 2.251 2.266 0.240 o
15 7 0 0.800 0.882 0.109 o
15 7 1 0.683 0.584 0.114 o
15 7 2 6.421 6.118 0.242 o
15 7 3 0.453 0.549 0.126 o
16 0 0 90.542 95.058 2.712 o
16 0 2 163.793 162.231 5.544 o
16 0 4 381.740 388.439 20.546 o
16 0 6 3.510 5.115 0.519 o
16 0 8 15.843 15.949 0.646 o
16 0 10 30.293 31.304 1.083 o
16 0 12 6.349 6.142 0.309 o
16 0 14 2.998 3.080 0.190 o
16 0 16 13.951 14.763 0.623 o
16 0 18 72.508 70.467 2.308 o
16 1 0 28.353 28.443 0.896 o
16 1 2 83.873 85.140 2.191 o
16 1 3 13.314 14.153 0.491 o
16 1 4 120.944 126.498 4.244 o
16 1 5 74.722 74.394 2.128 o
16 1 7 13.086 12.461 0.581 o
16 1 8 5.533 5.631 0.197 o
16 1 9 8.198 8.502 0.284 o
16 1 10 10.861 10.969 0.323 o
16 1 11 18.968 18.456 0.466 o
16 1 12 0.725 0.717 0.079 o
16 1 13 25.443 24.196 0.674 o
16 1 14 2.973 2.956 0.157 o
16 1 15 2.137 2.115 0.145 o
16 1 16 7.510 7.243 0.262 o
16 1 17 0.501 0.696 0.169 o
16 1 19 1.046 1.397 0.172 o
16 2 0 2.708 3.079 0.213 o
16 2 1 16.258 16.724 0.527 o
16 2 2 16.305 15.979 0.544 o
16 2 3 12.374 12.618 0.477 o
16 2 4 24.593 26.107 1.541 o
16 2 5 19.141 17.983 1.336 o
16 2 7 4.009 3.941 0.178 o
16 2 8 42.900 41.567 1.005 o
16 2 9 184.249 179.038 4.860 o
16 2 10 132.579 130.406 4.112 o
16 2 11 5.144 5.182 0.212 o
16 2 12 26.065 25.280 0.684 o
16 2 13 1.664 1.690 0.285 o
16 2 14 10.878 11.132 0.378 o
16 2 15 2.153 2.248 0.203 o
16 2 16 13.373 13.057 0.558 o
16 2 17 0.780 0.793 0.126 o
16 3 0 98.961 93.784 3.045 o
16 3 2 90.661 93.598 2.650 o
16 3 3 25.088 24.495 0.666 o
16 3 4 3.324 2.892 0.176 o
16 3 5 19.938 19.426 0.654 o
16 3 6 1.116 0.977 0.104 o
16 3 7 3.231 3.046 0.219 o
16 3 8 15.129 14.848 0.472 o
16 3 9 70.284 68.705 2.554 o
16 3 10 40.838 40.695 1.042 o
16 3 11 6.966 7.124 0.313 o
16 3 12 1.939 2.052 0.186 o
16 3 13 6.168 6.214 0.295 o
16 3 15 7.106 6.371 0.297 o
16 3 16 2.557 2.349 0.204 o
16 4 0 114.719 113.775 2.772 o
16 4 1 2.826 2.839 0.138 o
16 4 2 40.218 38.774 0.921 o
16 4 3 18.538 18.535 0.542 o
16 4 4 0.634 0.811 0.097 o
16 4 5 3.782 3.794 0.205 o
16 4 6 3.814 3.805 0.205 o
16 4 7 1.196 1.204 0.137 o
16 4 8 3.432 3.665 0.282 o
16 4 9 5.902 5.974 0.447 o
16 4 10 3.175 3.299 0.196 o
16 4 12 9.446 9.447 0.362 o
16 4 13 11.186 11.108 0.604 o
16 4 14 19.284 20.249 0.608 o
16 4 16 6.737 6.758 0.299 o
16 5 1 0.260 0.309 0.082 o
16 5 2 0.536 0.390 0.076 o
16 5 3 2.597 2.484 0.127 o
16 5 4 2.399 2.345 0.132 o
16 5 5 4.471 4.262 0.193 o
16 5 6 0.807 0.733 0.112 o
16 5 7 0.465 0.484 0.116 o
16 5 8 37.582 36.612 1.247 o
16 5 9 26.851 25.127 0.711 o
16 5 10 4.891 4.755 0.258 o
16 5 11 4.392 4.130 0.242 o
16 5 13 1.873 2.124 0.193 o
16 6 0 2.292 2.374 0.147 o
16 6 2 12.669 12.329 0.360 o
16 6 3 25.291 25.335 0.662 o
16 6 4 4.202 3.992 0.201 o
16 6 5 1.539 1.734 0.183 o
16 6 6 1.105 0.871 0.155 o
16 6 7 9.401 9.347 0.365 o
16 6 8 10.581 10.820 0.507 o
16 6 9 22.832 22.896 1.168 o
16 6 10 2.862 2.622 0.402 o
16 7 0 1.602 1.695 0.141 o
16 7 2 3.427 3.598 0.189 o
16 7 3 0.834 0.844 0.136 o
16 7 4 8.060 7.925 0.298 o
17 0 2 70.626 69.706 2.075 o
17 0 4 51.465 52.228 3.229 o
17 0 6 9.011 8.876 0.701 o
17 0 10 2.956 2.977 0.170 o
17 0 12 4.847 5.103 0.219 o
17 0 14 5.523 6.041 0.283 o
17 0 16 202.399 206.518 6.631 o
17 1 0 0.867 0.624 0.190 o
17 1 2 63.650 62.904 1.677 o
17 1 3 8.378 8.649 0.367 o
17 1 4 50.178 49.356 1.612 o
17 1 5 13.657 13.760 0.818 o
17 1 6 4.362 4.438 0.558 o
17 1 7 40.277 40.062 1.076 o
17 1 8 31.018 30.600 1.033 o
17 1 9 27.832 28.744 0.738 o
17 1 10 139.180 139.934 3.371 o
17 1 11 3.277 3.170 0.244 o
17 1 12 6.194 6.546 0.267 o
17 1 13 9.188 9.226 0.283 o
17 1 14 0.485 0.430 0.098 o
17 1 15 20.625 20.398 0.748 o
17 1 17 42.109 44.235 1.204 o
17 1 18 3.928 3.479 0.333 o
17 2 0 14.940 15.565 0.504 o
17 2 2 6.127 6.134 0.372 o
17 2 3 3.377 3.617 0.330 o
17 2 4 20.458 19.925 1.014 o
17 2 5 3.876 4.069 0.185 o
17 2 6 37.076 36.267 1.129 o
17 2 7 51.994 49.951 1.509 o
17 2 8 7.919 7.774 0.260 o
17 2 9 12.343 12.271 0.502 o
17 2 10 1.370 1.268 0.117 o
17 2 11 77.810 75.107 2.258 o
17 2 12 28.576 27.693 0.803 o
17 2 14 1.190 0.983 0.128 o
17 2 16 2.296 2.209 0.193 o
17 2 17 6.431 6.393 0.409 o
17 2 18 2.039 1.946 0.189 o
17 3 0 133.700 134.454 3.870 o
17 3 1 218.630 206.528 6.295 o
17 3 2 72.940 69.540 2.058 o
17 3 3 1.236 1.332 0.110 o
17 3 5 82.448 79.065 2.332 o
17 3 6 6.075 6.476 0.241 o
17 3 7 6.735 6.884 0.345 o
17 3 8 4.276 4.451 0.195 o
17 3 9 4.442 4.386 0.237 o
17 3 10 5.598 5.464 0.222 o
17 3 11 0.283 0.326 0.107 o
17 3 12 2.390 2.337 0.269 o
17 3 13 3.682 3.778 0.238 o
17 3 14 1.510 1.401 0.171 o
17 3 15 1.999 2.238 0.173 o
17 3 16 5.696 5.185 0.410 o
17 4 0 251.145 241.636 6.214 o
17 4 2 98.833 95.476 2.534 o
17 4 3 2.760 2.906 0.200 o
17 4 4 4.262 4.259 0.188 o
17 4 6 10.417 10.091 0.509 o
17 4 7 0.385 0.433 0.115 o
17 4 10 33.015 31.370 1.463 o
17 4 11 19.370 20.193 0.605 o
17 4 13 3.194 3.135 0.225 o
17 4 15 0.488 0.419 0.137 o
17 5 0 28.483 28.066 0.714 o
17 5 1 53.337 51.357 1.241 o
17 5 2 3.534 3.438 0.148 o
17 5 3 8.344 8.252 0.254 o
17 5 4 19.546 19.734 0.526 o
17 5 5 2.210 2.120 0.165 o
17 5 6 14.855 14.804 0.446 o
17 5 8 15.143 14.680 0.451 o
17 5 9 0.725 0.742 0.130 o
17 5 10 1.549 1.353 0.170 o
17 5 11 0.827 0.816 0.156 o
17 5 12 1.810 1.775 0.186 o
17 6 0 0.957 0.935 0.111 o
17 6 2 1.008 0.908 0.110 o
17 6 5 1.829 1.962 0.165 o
17 6 6 2.914 2.915 0.199 o
17 6 7 17.403 17.702 0.547 o
17 6 8 1.170 0.981 0.188 o
17 7 0 1.417 1.121 0.126 o
17 7 1 3.441 3.242 0.183 o
17 7 2 3.446 3.458 0.195 o
17 7 4 4.805 4.726 0.229 o
18 0 0 41.514 50.772 1.605 o
18 0 2 203.380 209.199 6.672 o
18 0 6 38.586 38.458 0.998 o
18 0 8 96.333 100.629 3.668 o
18 0 10 7.752 7.593 0.292 o
18 0 12 60.642 60.408 1.848 o
18 0 14 1.216 0.983 0.147 o
18 0 18 5.202 5.615 0.461 o
18 1 0 7.816 8.095 0.428 o
18 1 1 30.639 30.836 1.005 o
18 1 2 95.809 99.609 2.671 o
18 1 3 97.198 104.632 2.670 o
18 1 4 21.190 19.346 0.966 o
18 1 5 18.797 18.028 0.658 o
18 1 6 13.730 13.766 0.450 o
18 1 7 87.277 86.391 2.073 o
18 1 8 199.424 204.774 5.980 o
18 1 9 63.122 62.433 1.584 o
18 1 10 34.381 34.481 1.250 o
18 1 11 1.946 2.009 0.126 o
18 1 12 2.160 2.249 0.167 o
18 1 13 2.285 2.590 0.159 o
18 1 14 7.369 7.792 0.288 o
18 1 15 3.037 2.824 0.214 o
18 1 16 7.755 7.176 0.350 o
18 1 17 47.964 46.642 2.034 o
18 1 18 3.351 3.337 0.226 o
18 2 0 102.695 101.122 2.818 o
18 2 1 87.136 90.736 2.520 o
18 2 2 78.540 83.984 4.603 o
18 2 4 4.525 4.358 0.204 o
18 2 6 1.365 1.402 0.120 o
18 2 7 7.192 6.897 0.248 o
18 2 8 47.211 47.394 1.156 o
18 2 9 50.749 49.469 1.398 o
18 2 12 12.536 12.250 0.450 o
18 2 13 4.831 5.202 0.239 o
18 2 15 0.860 0.863 0.128 o
18 2 16 3.444 3.427 0.278 o
18 3 0 7.168 8.071 0.322 o
18 3 1 90.285 88.854 2.241 o
18 3 2 27.688 26.793 0.774 o
18 3 3 0.004 1.301 0.106 o
18 3 4 2.804 2.798 0.183 o
18 3 5 0.970 0.953 0.171 o
18 3 6 1.377 1.284 0.120 o
18 3 8 10.327 9.910 0.339 o
18 3 9 1.906 2.405 0.222 o
18 3 10 29.279 28.694 0.988 o
18 3 12 19.940 19.468 0.904 o
18 3 13 5.689 5.649 0.283 o
18 3 14 16.174 15.976 0.479 o
18 3 16 3.182 3.119 0.216 o
18 4 0 2.552 2.622 0.135 o
18 4 1 9.391 9.220 0.274 o
18 4 2 3.713 3.830 0.181 o
18 4 3 1.083 1.096 0.108 o
18 4 4 7.829 7.615 0.256 o
18 4 5 0.901 0.894 0.115 o
18 4 6 26.325 25.571 0.700 o
18 4 7 5.977 6.134 0.267 o
18 4 8 0.614 0.766 0.138 o
18 4 10 0.616 0.476 0.131 o
18 4 12 5.838 6.023 0.406 o
18 4 14 3.267 3.376 0.229 o
18 5 1 46.360 45.467 1.109 o
18 5 2 22.933 22.989 0.609 o
18 5 3 3.632 3.533 0.188 o
18 5 4 6.200 5.826 0.233 o
18 5 7 3.264 3.152 0.199 o
18 5 8 1.107 1.094 0.173 o
18 5 9 0.889 0.880 0.158 o
18 5 10 2.792 2.859 0.253 o
18 5 11 4.638 4.455 0.254 o
18 5 12 1.408 1.356 0.172 o
18 6 0 3.747 3.800 0.183 o
18 6 1 2.220 2.096 0.141 o
18 6 2 0.752 0.595 0.102 o
18 6 3 3.651 3.722 0.198 o
18 6 4 0.709 0.647 0.116 o
18 6 5 2.044 2.068 0.263 o
18 6 6 0.696 0.691 0.150 o
18 6 7 17.521 17.166 0.702 o
18 6 8 7.204 7.480 0.369 o
18 6 9 3.242 3.026 0.419 o
18 7 0 0.280 0.330 0.110 o
18 7 2 1.084 0.921 0.127 o
18 7 3 6.426 6.514 0.444 o
19 0 2 8.935 8.902 0.690 o
19 0 6 12.521 13.212 0.475 o
19 0 8 406.730 402.277 11.624 o
19 0 10 44.037 46.118 1.350 o
19 0 12 3.129 2.828 0.222 o
19 0 14 10.087 10.481 0.378 o
19 0 16 32.266 30.829 3.883 o
19 1 0 16.847 17.460 0.668 o
19 1 1 15.264 15.560 0.619 o
19 1 3 76.250 76.853 2.947 o
19 1 4 5.727 5.784 0.241 o
19 1 5 6.099 6.520 0.252 o
19 1 6 6.270 6.385 0.217 o
19 1 7 0.652 0.713 0.136 o
19 1 9 45.507 45.799 1.195 o
19 1 10 5.580 5.592 0.214 o
19 1 11 1.431 1.222 0.124 o
19 1 12 3.751 3.928 0.265 o
19 1 13 4.693 4.685 0.226 o
19 1 14 16.452 16.158 0.513 o
19 1 15 57.570 56.136 2.812 o
19 1 16 26.561 25.898 0.738 o
19 1 17 4.797 5.026 0.470 o
19 2 0 206.685 205.848 5.867 o
19 2 1 6.076 6.848 0.325 o
19 2 2 54.627 55.752 1.747 o
19 2 3 21.751 21.865 0.818 o
19 2 4 50.052 50.049 1.508 o
19 2 5 16.250 16.781 0.479 o
19 2 6 10.272 10.225 0.508 o
19 2 7 9.467 9.277 0.357 o
19 2 8 0.958 0.908 0.131 o
19 2 9 37.569 36.540 1.087 o
19 2 10 11.424 11.136 0.351 o
19 2 12 4.232 4.221 0.275 o
19 2 13 9.825 10.404 0.365 o
19 2 15 42.280 42.045 1.447 o
19 2 16 2.575 2.576 0.247 o
19 3 0 52.002 51.970 1.316 o
19 3 1 8.762 8.805 0.260 o
19 3 2 0.727 0.597 0.078 o
19 3 3 4.264 4.398 0.280 o
19 3 5 20.239 19.820 0.705 o
19 3 6 3.495 3.435 0.225 o
19 3 7 0.752 0.578 0.124 o
19 3 8 19.405 19.581 0.537 o
19 3 10 86.914 86.057 2.146 o
19 3 11 1.602 1.481 0.145 o
19 3 12 2.931 2.894 0.191 o
19 3 13 2.481 2.404 0.204 o
19 3 14 2.855 3.085 0.199 o
19 4 0 0.275 0.409 0.079 o
19 4 1 1.294 1.445 0.105 o
19 4 2 35.053 34.255 0.993 o
19 4 3 38.180 37.159 1.095 o
19 4 4 21.374 21.148 0.599 o
19 4 6 18.585 17.703 0.542 o
19 4 10 0.800 0.738 0.140 o
19 4 12 1.592 1.580 0.176 o
19 4 13 4.038 4.000 0.243 o
19 4 14 0.434 0.404 0.121 o
19 5 0 18.537 16.760 0.522 o
19 5 1 8.486 8.158 0.268 o
19 5 3 2.405 2.186 0.187 o
19 5 4 0.673 0.555 0.116 o
19 5 5 6.056 6.168 0.308 o
19 5 8 4.772 4.733 0.232 o
19 5 10 3.406 3.090 0.238 o
19 5 11 11.257 11.461 0.410 o
19 5 12 0.842 0.984 0.285 o
19 6 0 4.741 4.576 0.208 o
19 6 2 5.249 4.969 0.204 o
19 6 3 3.700 3.370 0.210 o
19 6 4 21.823 21.529 0.600 o
19 6 5 10.068 10.379 0.352 o
19 6 8 3.141 3.405 0.420 o
20 0 0 54.019 67.329 2.227 o
20 0 4 40.608 40.661 1.053 o
20 0 6 373.460 375.410 12.978 o
20 0 8 232.005 236.776 7.112 o
20 0 10 5.820 6.137 0.359 o
20 0 12 18.181 18.377 0.752 o
20 0 14 1.226 1.392 0.163 o
20 0 16 17.067 18.175 0.616 o
20 1 0 279.263 277.015 8.811 o
20 1 1 7.847 8.495 0.464 o
20 1 2 39.265 39.731 1.481 o
20 1 3 16.093 16.512 0.503 o
20 1 4 4.225 4.373 0.188 o
20 1 5 16.989 17.520 0.483 o
20 1 6 10.403 10.446 0.414 o
20 1 7 99.953 97.972 2.423 o
20 1 8 5.207 5.635 0.239 o
20 1 9 5.675 5.674 0.288 o
20 1 10 2.377 2.440 0.166 o
20 1 11 33.903 34.217 0.881 o
20 1 13 0.611 0.656 0.127 o
20 1 15 0.604 0.671 0.166 o
20 1 17 6.868 6.627 0.478 o
20 2 0 1.042 1.160 0.091 o
20 2 1 213.209 219.785 5.779 o
20 2 2 25.096 24.953 0.720 o
20 2 3 1.372 1.596 0.109 o
20 2 4 3.733 3.803 0.187 o
20 2 5 0.336 0.346 0.091 o
20 2 6 1.419 1.528 0.129 o
20 2 7 1.560 1.757 0.138 o
20 2 8 6.769 6.760 0.391 o
20 2 9 8.355 8.250 0.325 o
20 2 10 13.588 13.819 0.532 o
20 2 11 5.326 5.598 0.230 o
20 2 12 1.096 1.282 0.126 o
20 2 13 15.338 15.307 0.596 o
20 2 14 3.046 3.159 0.198 o
20 2 15 11.776 11.726 0.487 o
20 2 16 24.596 24.393 0.700 o
20 3 0 13.422 13.130 0.377 o
20 3 1 4.852 4.954 0.182 o
20 3 2 3.613 3.383 0.151 o
20 3 3 1.937 2.050 0.133 o
20 3 4 0.588 0.550 0.102 o
20 3 5 13.864 14.275 0.933 o
20 3 6 35.562 35.716 1.081 o
20 3 7 1.932 2.011 0.150 o
20 3 8 1.675 1.610 0.150 o
20 3 10 0.619 0.506 0.119 o
20 3 11 14.690 14.296 0.604 o
20 3 12 3.363 3.117 0.356 o
20 3 14 3.141 3.059 0.198 o
20 3 15 3.808 3.743 0.210 o
20 4 0 44.177 43.903 1.184 o
20 4 1 28.401 27.711 0.755 o
20 4 2 4.943 5.010 0.190 o
20 4 3 6.229 5.854 0.225 o
20 4 4 2.233 2.138 0.155 o
20 4 5 0.831 0.877 0.124 o
20 4 6 8.257 8.004 0.298 o
20 4 8 0.982 1.028 0.145 o
20 4 9 1.130 1.185 0.158 o
20 4 10 39.736 35.655 2.536 o
20 4 11 2.477 2.646 0.185 o
20 4 12 14.283 14.212 0.896 o
20 4 13 8.048 8.427 0.498 o
20 5 2 2.767 2.697 0.191 o
20 5 3 2.287 2.238 0.154 o
20 5 4 1.107 1.110 0.126 o
20 5 5 18.982 19.335 0.615 o
20 5 9 1.393 1.401 0.224 o
20 5 11 4.126 4.202 0.294 o
20 6 1 5.987 5.725 0.233 o
20 6 2 10.846 10.925 0.347 o
20 6 3 2.557 2.427 0.160 o
20 6 6 0.786 0.696 0.130 o
21 0 0 22.559 31.484 0.923 o
21 0 2 78.778 81.192 2.064 o
21 0 4 12.531 13.714 0.833 o
21 0 6 1.679 2.164 0.675 o
21 0 8 65.922 67.408 4.232 o
21 0 10 3.751 3.999 0.297 o
21 0 12 18.066 18.549 0.969 o
21 0 14 0.114 0.509 0.132 o
21 0 16 6.523 6.597 0.474 o
21 1 0 33.052 33.486 0.825 o
21 1 3 13.285 13.970 0.389 o
21 1 4 19.172 19.924 0.593 o
21 1 6 25.092 24.906 0.675 o
21 1 7 196.898 196.847 5.171 o
21 1 8 34.496 34.805 0.870 o
21 1 9 6.115 6.382 0.272 o
21 1 10 4.244 4.689 0.208 o
21 1 11 0.532 0.531 0.120 o
21 1 12 5.502 5.489 0.272 o
21 1 13 5.907 5.826 0.254 o
21 1 14 22.540 22.669 0.622 o
21 1 16 1.361 1.216 0.356 o
21 2 0 0.236 0.296 0.072 o
21 2 1 8.645 9.016 0.267 o
21 2 2 17.070 17.031 0.458 o
21 2 4 4.582 4.833 0.211 o
21 2 5 5.234 5.535 0.228 o
21 2 6 8.168 8.170 0.377 o
21 2 7 12.569 12.631 0.396 o
21 2 8 41.938 40.045 1.153 o
21 2 9 11.791 11.759 0.357 o
21 2 10 7.624 7.697 0.275 o
21 2 12 7.505 7.620 0.280 o
21 2 13 17.955 18.485 0.573 o
21 2 14 26.948 26.063 0.999 o
21 2 15 13.869 14.345 0.436 o
21 3 0 67.909 67.690 1.882 o
21 3 1 0.852 0.856 0.090 o
21 3 2 91.442 87.934 2.488 o
21 3 3 7.787 7.677 0.288 o
21 3 4 17.235 17.671 0.588 o
21 3 6 2.588 2.723 0.172 o
21 3 7 1.632 1.708 0.245 o
21 3 8 0.760 0.784 0.123 o
21 3 9 10.378 10.671 0.358 o
21 3 10 1.213 1.036 0.142 o
21 3 11 1.853 1.730 0.143 o
21 3 12 15.022 15.530 0.494 o
21 3 13 4.051 3.870 0.291 o
21 3 14 14.803 15.562 0.467 o
21 4 0 1.096 1.196 0.103 o
21 4 2 8.128 8.281 0.271 o
21 4 4 3.503 3.551 0.212 o
21 4 5 0.437 0.504 0.115 o
21 4 6 2.152 2.153 0.229 o
21 4 7 0.515 0.580 0.124 o
21 4 8 29.603 29.703 0.793 o
21 4 9 1.373 1.357 0.147 o
21 4 10 19.227 18.571 0.711 o
21 4 11 0.820 0.756 0.116 o
21 5 0 4.611 4.623 0.206 o
21 5 1 7.913 7.730 0.273 o
21 5 2 6.727 6.774 0.257 o
21 5 3 55.695 55.592 1.419 o
21 5 4 1.060 1.224 0.146 o
21 5 5 2.315 2.324 0.179 o
21 5 6 0.413 0.375 0.123 o
21 5 7 3.187 3.216 0.199 o
21 5 9 4.009 3.869 0.214 o
21 5 10 1.000 0.998 0.163 o
21 6 0 2.672 2.508 0.166 o
21 6 2 5.605 5.135 0.226 o
21 6 4 1.723 1.858 0.163 o
21 6 6 3.751 4.144 0.292 o
22 0 0 222.920 237.716 7.994 o
22 0 2 0.712 0.701 0.174 o
22 0 6 27.626 27.099 0.798 o
22 0 8 20.549 20.788 0.671 o
22 0 10 16.909 16.841 0.925 o
22 0 14 0.710 0.802 0.182 o
22 1 0 7.240 7.469 0.262 o
22 1 1 1.857 1.968 0.142 o
22 1 2 10.099 10.147 0.363 o
22 1 3 24.003 24.553 0.631 o
22 1 4 18.344 17.966 0.499 o
22 1 5 54.675 53.373 1.515 o
22 1 6 74.872 76.995 2.969 o
22 1 7 6.149 6.182 0.305 o
22 1 8 29.285 29.375 0.889 o
22 1 9 7.762 7.888 0.289 o
22 1 10 9.634 9.417 0.309 o
22 1 11 8.121 8.139 0.306 o
22 1 12 2.595 2.593 0.184 o
22 1 14 0.449 0.495 0.119 o
22 1 15 2.005 1.875 0.176 o
22 2 0 5.360 5.157 0.220 o
22 2 2 9.630 9.839 0.316 o
22 2 3 12.309 12.164 0.665 o
22 2 4 1.413 1.706 0.164 o
22 2 5 120.390 121.452 4.823 o
22 2 6 2.331 2.306 0.215 o
22 2 7 1.444 1.447 0.148 o
22 2 9 5.036 5.151 0.267 o
22 2 10 41.803 40.957 1.442 o
22 2 13 1.104 1.212 0.124 o
22 2 15 6.358 5.967 0.483 o
22 3 0 120.693 122.725 2.936 o
22 3 1 0.383 0.395 0.082 o
22 3 2 8.547 8.706 0.406 o
22 3 3 9.398 9.038 0.470 o
22 3 4 7.574 7.656 0.350 o
22 3 7 0.583 0.529 0.120 o
22 3 8 10.550 10.307 0.625 o
22 3 9 22.125 20.224 1.176 o
22 3 10 13.544 13.466 0.564 o
22 3 11 9.144 8.656 0.295 o
22 3 12 5.276 5.446 0.249 o
22 3 13 2.748 2.922 0.196 o
22 4 0 1.089 1.090 0.102 o
22 4 2 11.595 10.669 0.426 o
22 4 3 8.400 8.656 0.350 o
22 4 4 4.427 4.327 0.239 o
22 4 5 7.052 6.681 0.274 o
22 4 6 1.078 0.907 0.132 o
22 4 7 2.066 1.819 0.212 o
22 4 8 1.132 1.000 0.138 o
22 4 10 5.077 5.037 0.284 o
22 5 0 5.165 4.925 0.204 o
22 5 1 10.789 10.618 0.323 o
22 5 2 3.091 2.928 0.207 o
22 5 6 0.496 0.505 0.128 o
22 5 7 0.682 0.588 0.131 o
22 5 8 16.361 16.047 0.659 o
22 5 9 3.799 3.519 0.238 o
22 6 0 3.618 3.616 0.176 o
22 6 2 0.491 0.545 0.111 o
22 6 4 2.257 2.103 0.167 o
23 0 0 3.858 8.702 0.750 o
23 0 2 30.820 31.546 0.855 o
23 0 6 30.573 32.042 0.924 o
23 0 8 5.325 5.283 0.324 o
23 0 12 44.738 43.386 1.231 o
23 0 14 0.991 0.908 0.182 o
23 1 0 2.040 2.114 0.164 o
23 1 1 17.019 17.205 0.589 o
23 1 2 3.782 3.832 0.179 o
23 1 3 5.078 5.410 0.232 o
23 1 4 2.963 3.269 0.190 o
23 1 6 8.685 8.817 0.411 o
23 1 7 27.556 27.460 1.019 o
23 1 8 11.527 11.184 0.368 o
23 1 9 4.537 4.524 0.231 o
23 1 10 3.486 3.587 0.215 o
23 1 11 25.431 25.564 1.022 o
23 1 12 0.742 0.611 0.122 o
23 1 14 1.738 1.871 0.154 o
23 2 0 47.124 47.762 1.343 o
23 2 1 22.972 24.054 0.658 o
23 2 3 10.639 10.398 0.314 o
23 2 4 4.413 4.425 0.215 o
23 2 5 46.590 44.491 1.265 o
23 2 6 73.767 72.672 2.559 o
23 2 7 68.675 69.251 1.745 o
23 2 8 1.230 1.199 0.128 o
23 2 10 7.550 7.924 0.279 o
23 2 11 3.992 3.796 0.226 o
23 2 13 1.131 1.205 0.137 o
23 3 0 0.698 0.641 0.109 o
23 3 1 29.271 29.428 0.739 o
23 3 3 1.013 0.954 0.119 o
23 3 4 12.698 12.554 0.476 o
23 3 5 12.853 12.734 0.484 o
23 3 6 43.028 41.401 1.436 o
23 3 7 0.830 0.731 0.125 o
23 3 8 7.848 7.635 0.317 o
23 3 9 1.298 1.326 0.129 o
23 3 10 5.533 5.475 0.341 o
23 3 12 1.439 1.491 0.150 o
23 4 0 73.189 70.605 2.002 o
23 4 1 2.320 2.285 0.167 o
23 4 2 44.041 42.607 1.493 o
23 4 3 14.554 13.517 0.692 o
23 4 8 6.332 6.128 0.379 o
23 4 10 2.067 1.898 0.161 o
23 4 11 7.830 7.878 0.330 o
23 5 1 6.240 6.115 0.228 o
23 5 5 4.055 3.699 0.215 o
23 5 6 27.813 28.067 1.149 o
23 5 7 1.521 1.538 0.157 o
23 5 8 15.206 14.589 0.493 o
23 6 0 0.471 0.491 0.105 o
23 6 1 1.039 1.185 0.114 o
23 6 2 4.271 4.303 0.219 o
23 6 3 1.359 1.219 0.302 o
24 0 2 29.771 30.360 0.845 o
24 0 4 4.733 5.144 0.539 o
24 0 6 20.467 20.503 0.668 o
24 0 8 28.926 30.479 0.925 o
24 0 10 1.027 0.956 0.253 o
24 0 12 0.491 0.939 0.188 o
24 1 0 13.444 13.654 0.570 o
24 1 1 1.266 1.386 0.113 o
24 1 2 1.917 2.088 0.130 o
24 1 3 39.104 40.883 1.597 o
24 1 4 27.400 28.375 0.740 o
24 1 5 1.185 1.089 0.170 o
24 1 6 8.188 8.443 0.306 o
24 1 8 22.126 22.964 0.665 o
24 1 9 29.875 29.699 0.790 o
24 1 11 0.804 0.686 0.147 o
24 1 13 1.634 1.550 0.143 o
24 2 0 23.178 24.045 0.785 o
24 2 2 33.890 34.345 0.879 o
24 2 3 12.671 13.064 0.380 o
24 2 4 23.834 23.844 0.631 o
24 2 5 19.920 19.228 0.633 o
24 2 6 12.610 12.217 0.608 o
24 2 7 7.984 7.902 0.275 o
24 2 8 28.600 28.260 0.852 o
24 2 9 8.024 8.121 0.319 o
24 2 10 14.310 14.158 0.414 o
24 2 11 3.193 3.169 0.180 o
24 3 0 3.186 3.459 0.239 o
24 3 1 8.472 8.278 0.308 o
24 3 2 26.737 25.371 0.870 o
24 3 3 0.448 0.374 0.115 o
24 3 4 24.989 23.668 0.670 o
24 3 5 6.682 6.464 0.339 o
24 3 6 6.453 6.335 0.232 o
24 3 7 0.839 0.630 0.102 o
24 3 8 0.694 0.706 0.103 o
24 3 9 10.271 10.248 0.384 o
24 3 10 3.948 3.860 0.182 o
24 3 11 0.615 0.677 0.103 o
24 3 12 0.253 1.083 0.302 o
24 4 0 20.315 20.573 0.573 o
24 4 1 1.480 1.558 0.135 o
24 4 4 1.598 1.597 0.153 o
24 4 6 21.559 20.054 1.150 o
24 4 7 4.945 4.782 0.300 o
24 4 8 0.515 0.643 0.114 o
24 5 0 1.298 1.154 0.116 o
24 5 1 5.431 5.364 0.211 o
24 5 2 1.981 2.068 0.169 o
24 5 5 3.202 3.162 0.202 o
25 0 2 0.337 0.633 0.139 o
25 0 4 20.709 19.701 2.938 o
25 0 6 14.587 13.980 1.595 o
25 0 8 50.656 50.425 2.571 o
25 0 10 20.970 21.574 1.071 o
25 0 12 4.358 4.170 0.306 o
25 1 0 14.190 15.166 0.458 o
25 1 1 3.173 3.302 0.182 o
25 1 3 0.511 0.457 0.121 o
25 1 4 0.863 0.891 0.141 o
25 1 5 0.651 0.588 0.135 o
25 1 6 3.654 3.591 0.206 o
25 1 7 4.150 4.283 0.221 o
25 1 8 4.909 5.116 0.239 o
25 1 9 12.743 12.294 0.475 o
25 1 11 10.032 9.422 0.389 o
25 1 12 2.581 2.313 0.203 o
25 2 0 38.813 39.266 1.406 o
25 2 1 1.154 1.084 0.103 o
25 2 3 3.456 3.498 0.180 o
25 2 5 9.985 10.016 0.495 o
25 2 7 0.657 0.546 0.162 o
25 2 8 2.470 2.421 0.181 o
25 2 9 2.762 2.768 0.214 o
25 2 10 4.136 3.955 0.215 o
25 2 11 8.782 8.439 0.308 o
25 3 0 26.024 24.395 0.988 o
25 3 1 23.001 22.314 0.892 o
25 3 2 9.614 8.954 0.590 o
25 3 3 5.710 5.948 0.332 o
25 3 4 26.582 26.801 0.828 o
25 3 5 55.074 55.543 1.592 o
25 3 6 29.153 28.832 1.042 o
25 3 9 8.958 8.938 0.288 o
25 3 10 1.271 1.360 0.120 o
25 4 0 7.191 6.880 0.256 o
25 4 1 1.010 0.943 0.114 o
25 4 3 6.732 6.283 0.501 o
25 4 4 66.179 63.540 1.706 o
25 4 5 0.868 0.932 0.128 o
25 4 6 41.016 39.389 1.493 o
25 4 7 1.774 1.642 0.176 o
25 4 8 2.216 2.219 0.234 o
25 5 0 7.381 7.047 0.247 o
25 5 1 1.398 1.183 0.136 o
25 5 3 0.481 0.439 0.126 o
25 5 5 14.589 14.503 0.443 o
26 0 0 0.745 4.485 0.743 o
26 0 2 77.559 78.104 5.033 o
26 0 4 1.940 1.909 0.233 o
26 0 6 51.090 49.621 1.391 o
26 0 8 45.403 43.510 1.335 o
26 0 10 2.373 2.211 0.232 o
26 1 0 11.883 12.198 0.389 o
26 1 1 41.937 42.691 1.855 o
26 1 2 1.684 1.604 0.135 o
26 1 4 4.064 4.184 0.371 o
26 1 6 28.141 28.272 1.207 o
26 1 7 7.166 7.362 0.322 o
26 1 8 19.649 18.894 0.582 o
26 1 9 3.151 2.861 0.221 o
26 1 10 1.358 1.308 0.203 o
26 1 11 2.849 2.414 0.248 o
26 1 12 2.241 2.239 0.198 o
26 2 0 18.884 19.215 0.533 o
26 2 1 6.846 6.849 0.337 o
26 2 2 11.846 12.639 0.503 o
26 2 5 6.216 6.201 0.254 o
26 2 6 3.469 3.428 0.276 o
26 2 7 1.534 1.451 0.135 o
26 2 8 2.448 2.294 0.185 o
26 2 9 3.698 3.637 0.257 o
26 2 10 4.328 4.320 0.224 o
26 2 11 6.770 6.379 0.290 o
26 3 0 8.884 8.533 0.444 o
26 3 1 3.999 3.984 0.333 o
26 3 3 12.641 12.534 0.432 o
26 3 4 18.046 17.986 0.655 o
26 3 5 16.774 17.263 0.663 o
26 3 6 18.849 18.681 0.670 o
26 3 7 1.315 1.255 0.164 o
26 3 8 1.056 0.982 0.112 o
26 4 0 4.717 4.235 0.272 o
26 4 1 10.052 9.444 0.310 o
26 4 2 3.280 3.283 0.203 o
26 4 3 1.562 1.375 0.150 o
26 4 4 1.222 1.237 0.145 o
26 4 6 23.681 23.067 0.798 o
26 4 7 6.365 6.559 0.275 o
26 5 0 0.639 0.512 0.112 o
26 5 1 4.333 4.035 0.198 o
26 5 2 7.130 7.336 0.288 o
27 0 0 1.711 4.730 0.552 o
27 0 8 27.394 26.654 0.830 o
27 1 1 5.159 5.656 0.310 o
27 1 2 1.195 1.155 0.147 o
27 1 3 8.065 8.371 0.495 o
27 1 6 16.813 16.992 0.626 o
27 1 7 12.710 12.323 0.434 o
27 1 8 10.905 10.749 0.552 o
27 1 9 1.259 1.394 0.164 o
27 1 10 1.306 1.142 0.159 o
27 1 11 1.380 1.164 0.161 o
27 2 0 21.382 21.286 0.609 o
27 2 1 6.141 6.129 0.386 o
27 2 3 3.063 3.147 0.219 o
27 2 4 3.251 2.921 0.212 o
27 2 5 0.479 0.556 0.159 o
27 2 6 4.292 4.357 0.228 o
27 2 7 0.634 0.500 0.122 o
27 2 8 13.566 13.110 0.414 o
27 2 10 2.102 2.064 0.210 o
27 3 0 7.719 7.774 0.314 o
27 3 1 2.200 2.090 0.160 o
27 3 3 24.820 23.902 1.470 o
27 3 4 25.809 24.100 1.198 o
27 3 5 15.228 15.351 0.538 o
27 3 6 6.208 6.653 0.253 o
27 4 2 0.499 0.662 0.152 o
27 4 3 7.372 7.488 0.293 o
27 4 4 59.144 56.554 1.791 o
27 4 6 2.970 2.706 0.219 o
27 5 1 1.880 1.524 0.223 o
28 0 2 6.352 5.710 0.304 o
28 0 4 10.398 11.267 0.655 o
28 0 6 45.239 44.906 1.497 o
28 0 8 5.187 5.216 0.493 o
28 0 10 16.303 16.689 0.730 o
28 1 0 1.642 1.467 0.343 o
28 1 1 20.925 21.922 0.678 o
28 1 2 2.399 1.929 0.370 o
28 1 4 8.663 7.970 0.420 o
28 1 5 9.533 9.300 1.157 o
28 1 6 13.357 13.266 0.684 o
28 1 7 4.664 4.503 0.254 o
28 1 8 4.731 4.669 0.256 o
28 1 9 4.013 3.843 0.237 o
28 2 0 6.048 6.022 0.375 o
28 2 1 9.788 9.475 0.401 o
28 2 3 8.166 7.917 0.879 o
28 2 4 45.126 44.065 1.971 o
28 2 5 20.164 20.276 1.078 o
28 2 6 9.820 10.616 0.395 o
28 2 8 1.078 0.870 0.152 o
28 3 0 1.735 1.651 0.207 o
28 3 1 2.982 2.905 0.225 o
28 3 2 1.580 1.551 0.268 o
28 3 3 1.365 1.306 0.165 o
28 3 4 1.034 0.862 0.157 o
28 3 5 27.821 28.216 0.754 o
28 3 6 4.043 4.193 0.223 o
28 4 0 13.969 13.791 0.561 o
28 4 1 5.125 5.155 0.311 o
28 4 3 3.298 3.000 0.253 o
28 4 4 4.649 4.608 0.259 o
29 0 0 7.385 9.345 0.595 o
29 0 4 2.661 2.474 0.413 o
29 0 8 2.107 1.855 0.351 o
29 1 0 4.771 4.427 0.466 o
29 1 1 1.336 1.357 0.272 o
29 1 2 4.420 5.274 0.499 o
29 1 3 1.842 1.780 0.210 o
29 1 5 1.465 1.615 0.333 o
29 1 6 1.505 1.587 0.211 o
29 1 7 21.704 20.796 0.686 o
29 1 8 0.748 0.808 0.223 o
29 2 0 14.917 15.414 0.537 o
29 2 1 7.047 6.538 0.377 o
29 2 2 7.285 7.204 0.537 o
29 2 3 32.888 30.163 1.078 o
29 2 4 20.955 20.010 1.674 o
29 2 5 5.298 5.523 0.326 o
29 2 6 15.240 14.011 1.502 o
29 2 7 2.273 2.398 0.327 o
29 3 1 5.366 5.334 0.356 o
29 3 2 2.702 2.498 0.205 o
29 3 3 7.340 7.158 0.327 o
29 3 4 2.209 2.068 0.292 o
29 4 2 1.150 1.269 0.326 o
30 0 0 4.954 6.569 0.511 o
30 0 4 5.567 5.843 0.502 o
30 0 6 3.125 4.923 0.470 o
30 1 0 1.312 1.381 0.327 o
30 1 1 1.080 1.102 0.312 o
30 1 2 25.649 27.743 0.993 o
30 1 3 34.011 33.483 1.160 o
30 1 4 54.142 54.204 1.503 o
30 1 6 2.698 2.661 0.318 o
30 2 0 5.263 5.384 0.471 o
30 2 1 0.920 0.982 0.175 o
30 2 3 26.556 27.193 0.991 o
30 2 5 19.380 20.137 1.061 o
30 2 6 3.080 3.088 0.401 o
30 3 1 1.194 1.142 0.188 o
30 3 2 2.608 2.484 0.313 o
30 3 3 5.461 5.843 0.324 o
31 0 0 12.722 14.122 0.668 o
31 0 4 14.102 15.763 0.713 o
31 1 2 18.032 17.104 0.724 o
31 2 0 1.183 1.073 0.292 o
31 2 2 2.709 2.335 0.364 o
31 3 0 1.704 1.668 0.288 o
32 0 0 2.502 3.755 0.430 o
32 1 0 1.224 1.124 0.308 o
32 1 1 16.899 17.908 0.717 o
33 0 0 27.818 27.138 0.956 o
