#------------------------------------------------------------------------------
#$Date: 2016-03-24 14:23:22 +0200 (Thu, 24 Mar 2016) $
#$Revision: 179662 $
#$URL: svn://www.crystallography.net/cod/cif/4/51/15/4511575.cif $
#------------------------------------------------------------------------------
#
# This file is available in the Crystallography Open Database (COD),
# http://www.crystallography.net/
#
# All data on this site have been placed in the public domain by the
# contributors.
#
data_4511575
loop_
_publ_author_name
'Kerr, Andrew T.'
'Cahill, Christopher L.'
_publ_section_title
;
 CuPYDC Metalloligands and Postsynthetic Rearrangement/Metalation as
 Routes to Bimetallic Uranyl Containing Hybrid Materials: Syntheses,
 Structures, and Fluorescence
;
_journal_issue                   8
_journal_name_full               'Crystal Growth &amp; Design'
_journal_page_first              4094
_journal_paper_doi               10.1021/cg5007132
_journal_volume                  14
_journal_year                    2014
_chemical_formula_sum            'C14 H10 Cu N2 O12 U'
_chemical_formula_weight         699.81
_space_group_crystal_system      triclinic
_space_group_IT_number           2
_space_group_name_Hall           '-P 1'
_space_group_name_H-M_alt        'P -1'
_symmetry_cell_setting           triclinic
_symmetry_Int_Tables_number      2
_symmetry_space_group_name_Hall  '-P 1'
_symmetry_space_group_name_H-M   'P -1'
_atom_sites_solution_hydrogens   mixed
_audit_creation_method           SHELXL-2013
_cell_angle_alpha                104.448(3)
_cell_angle_beta                 90.485(3)
_cell_angle_gamma                100.058(3)
_cell_formula_units_Z            1
_cell_length_a                   5.3553(10)
_cell_length_b                   7.6850(15)
_cell_length_c                   10.951(2)
_cell_measurement_reflns_used    5974
_cell_measurement_temperature    100(2)
_cell_measurement_theta_max      58.926
_cell_measurement_theta_min      5.556
_cell_volume                     429.09(14)
_computing_cell_refinement       'SAINT, Bruker-AXS'
_computing_data_collection       'APEX, Bruker-AXS'
_computing_data_reduction        'SAINT, Bruker-AXS'
_computing_molecular_graphics    'Crystal Maker (Palmer, 2009)'
_computing_structure_refinement  'SHELXL-2013 (Sheldrick, 2013)'
_computing_structure_solution    'SIR92 (Gualardi, 1993)'
_diffrn_ambient_temperature      100(2)
_diffrn_measured_fraction_theta_full 0.999
_diffrn_measured_fraction_theta_max 0.924
_diffrn_measurement_device_type  'Bruker APEXII CCD'
_diffrn_measurement_method       'omega scans'
_diffrn_radiation_probe          x-ray
_diffrn_radiation_type           MoK\a
_diffrn_radiation_wavelength     0.71073
_diffrn_reflns_av_R_equivalents  0.0310
_diffrn_reflns_av_unetI/netI     0.0404
_diffrn_reflns_Laue_measured_fraction_full 0.999
_diffrn_reflns_Laue_measured_fraction_max 0.924
_diffrn_reflns_limit_h_max       7
_diffrn_reflns_limit_h_min       -7
_diffrn_reflns_limit_k_max       10
_diffrn_reflns_limit_k_min       -10
_diffrn_reflns_limit_l_max       15
_diffrn_reflns_limit_l_min       -14
_diffrn_reflns_number            5974
_diffrn_reflns_point_group_measured_fraction_full 0.999
_diffrn_reflns_point_group_measured_fraction_max 0.924
_diffrn_reflns_theta_full        25.242
_diffrn_reflns_theta_max         30.161
_diffrn_reflns_theta_min         1.923
_diffrn_source                   'Fine-focus sealed tube'
_diffrn_source_type              'Bruker ApexII'
_exptl_absorpt_coefficient_mu    10.738
_exptl_absorpt_correction_T_max  0.7460
_exptl_absorpt_correction_T_min  0.5680
_exptl_absorpt_correction_type   empirical
_exptl_absorpt_process_details   'SADABS, G. Sheldrick (1999)'
_exptl_crystal_colour            Blue
_exptl_crystal_density_diffrn    2.708
_exptl_crystal_description       Prisim
_exptl_crystal_F_000             325
_exptl_crystal_recrystallization_method Hydrothermal
_exptl_crystal_size_max          0.083
_exptl_crystal_size_mid          0.067
_exptl_crystal_size_min          0.049
_refine_diff_density_max         1.219
_refine_diff_density_min         -2.101
_refine_diff_density_rms         0.196
_refine_ls_extinction_method     none
_refine_ls_goodness_of_fit_ref   1.045
_refine_ls_hydrogen_treatment    mixed
_refine_ls_matrix_type           full
_refine_ls_number_parameters     147
_refine_ls_number_reflns         2352
_refine_ls_number_restraints     0
_refine_ls_restrained_S_all      1.045
_refine_ls_R_factor_all          0.0250
_refine_ls_R_factor_gt           0.0249
_refine_ls_shift/su_max          0.000
_refine_ls_shift/su_mean         0.000
_refine_ls_structure_factor_coef Fsqd
_refine_ls_weighting_details
'w=1/[\s^2^(Fo^2^)+(0.0193P)^2^+0.9163P] where P=(Fo^2^+2Fc^2^)/3'
_refine_ls_weighting_scheme      calc
_refine_ls_wR_factor_gt          0.0510
_refine_ls_wR_factor_ref         0.0511
_reflns_Friedel_coverage         0.000
_reflns_number_gt                2345
_reflns_number_total             2352
_reflns_threshold_expression     'I > 2\s(I)'
_cod_data_source_file            cg5007132_si_002.cif
_cod_data_source_block           Compound_1
_cod_depositor_comments
'Adding full bibliography for 4511575--4511577.cif.'
_cod_original_cell_volume        429.11(14)
_cod_database_code               4511575
#BEGIN Tags that were not found in dictionaries:
_shelx_space_group_comment
;
The symmetry employed for this shelxl refinement is uniquely defined
by the following loop, which should always be used as a source of
symmetry information in preference to the above space-group names.
They are only intended as comments.
;
_shelxl_version_number           2013-4
_shelx_res_file
;
TITL Pbar1 in P-1
CELL  0.71073   5.3553   7.6850  10.9514  104.448   90.485  100.058
ZERR     1.00   0.0010   0.0015   0.0021    0.003    0.003    0.003
LATT   1
SFAC  C    H    N    O    CU   U
UNIT  14   10   2    12   1    1
MERG   2
FMAP   2
PLAN    5
ACTA
L.S.  16
WGHT    0.019300    0.916300
FVAR       0.14727
C1    1    0.691821    0.181084    0.345592    11.00000    0.01064    0.00503 =
         0.00462   -0.00289   -0.00222    0.00016
C2    1    0.513663    0.021304    0.263384    11.00000    0.00900    0.00760 =
         0.00505    0.00151   -0.00136   -0.00072
C3    1    0.581970   -0.067242    0.143951    11.00000    0.00875    0.00920 =
         0.00637   -0.00011    0.00126   -0.00043
AFIX  43
H3    2    0.735617   -0.026045    0.112418    11.00000   -1.20000
AFIX   0
C4    1    0.413757   -0.218322    0.073930    11.00000    0.00988    0.00676 =
         0.00595   -0.00025    0.00024    0.00102
C5    1    0.120442   -0.191322    0.230124    11.00000    0.00967    0.00996 =
         0.00831    0.00335    0.00426    0.00002
AFIX  43
H5    2   -0.037173   -0.232600    0.257936    11.00000   -1.20000
AFIX   0
C6    1    0.280246   -0.041934    0.306858    11.00000    0.00927    0.01164 =
         0.00672    0.00082    0.00228    0.00148
AFIX  43
H6    2    0.232373    0.015181    0.386126    11.00000   -1.20000
AFIX   0
C7    1    0.470133   -0.333971   -0.053015    11.00000    0.01205    0.00886 =
         0.00354   -0.00107    0.00029    0.00074
N1    3    0.188296   -0.277596    0.116628    11.00000    0.00904    0.00658 =
         0.00574    0.00090   -0.00062    0.00034
O1    4    1.175071    0.365579    0.566486    11.00000    0.01150    0.01185 =
         0.01067   -0.00143    0.00260   -0.00014
O2    4    0.638531    0.244126    0.457628    11.00000    0.01282    0.01207 =
         0.00600   -0.00339    0.00247   -0.00249
O3    4    0.889864    0.251620    0.301440    11.00000    0.01070    0.01349 =
         0.01080   -0.00168    0.00308   -0.00423
O4    4    0.677402   -0.295422   -0.097589    11.00000    0.01090    0.01491 =
         0.00926   -0.00178    0.00514   -0.00218
O5    4    0.292825   -0.469828   -0.103046    11.00000    0.01078    0.01005 =
         0.00750   -0.00133    0.00250   -0.00217
OW1   4    1.302449    0.500465    0.333876    11.00000    0.00894    0.01475 =
         0.00633   -0.00329    0.00182   -0.00347
CU1   5    0.000000   -0.500000    0.000000    10.50000    0.00793    0.00742 =
         0.00497   -0.00196    0.00123   -0.00310
U1    6    1.000000    0.500000    0.500000    10.50000    0.00605    0.00862 =
         0.00397   -0.00169    0.00067   -0.00138
HW1A  2    1.433052    0.566662    0.353184    11.00000    0.02864
HW1B  2    1.302612    0.433196    0.263352    11.00000    0.03264
HKLF    4

REM  Pbar1 in P-1
REM R1 =  0.0249 for    2345 Fo > 4sig(Fo)  and  0.0250 for all    2352 data
REM    147 parameters refined using      0 restraints

END

WGHT      0.0189      0.9512

REM Highest difference peak  1.219,  deepest hole -2.101,  1-sigma level  0.196
Q1    1   1.1388  0.3860  0.4942  11.00000  0.05    1.22
Q2    1   0.9745  0.3862  0.5608  11.00000  0.05    1.18
Q3    1   1.0412  0.3841  0.4203  11.00000  0.05    0.89
Q4    1   0.0409 -0.5724 -0.0485  11.00000  0.05    0.86
Q5    1   1.1084  0.5390  0.5975  11.00000  0.05    0.86
;
_shelx_res_checksum              37238
_shelx_hkl_file
;
  -1   0   0   94.78    2.24
  -1   0   0  103.01    2.47
   1   0   0   98.66    2.29
  -2   0   0   73.62    2.13
  -2   0   0   83.11    2.34
   2   0   0   77.98    2.14
  -3   0   0  144.15    3.90
  -3   0   0  161.47    4.32
   3   0   0  150.03    3.90
  -4   0   0   78.07    2.83
  -4   0   0   73.31    2.66
   4   0   0   72.78    2.50
  -5   0   0   43.27    2.35
   5   0   0   38.84    2.04
  -6   0   0   66.59    3.27
   6   0   0   61.48    2.89
   6   0   0   64.83    3.18
  -7   0   0   44.25    3.20
   7   0   0   52.17    3.22
   7  -1   0   30.18    2.59
  -7   1   0   32.23    2.77
   6  -1   0   48.28    2.79
   6  -1   0   51.45    2.60
  -6   1   0   54.98    2.95
   5  -1   0   60.15    2.56
  -5   1   0   57.72    2.80
  -5   1   0   64.71    2.82
   4  -1   0   89.98    2.92
  -4   1   0   92.42    2.98
  -4   1   0   84.09    3.08
   3  -1   0  234.00    5.54
  -3   1   0  220.06    5.80
  -3   1   0  227.43    5.40
   2  -1   0  106.15    2.76
  -2   1   0  102.13    2.70
  -2   1   0  106.43    2.86
   1  -1   0  464.47   10.01
  -1   1   0  487.27   10.47
  -1   1   0  475.21    9.67
   0  -1   0  305.83    6.44
   0  -1   0  306.42    6.26
   0   1   0  312.17    6.26
  -1  -1   0  131.17    3.00
  -1  -1   0  121.29    3.20
  -1  -1   0  136.62    2.92
  -1  -1   0  134.47    3.00
  -2  -1   0   85.05    2.37
  -2  -1   0   76.07    2.51
  -2  -1   0   88.75    2.13
   2   1   0   90.86    2.30
  -3  -1   0   98.99    3.01
  -3  -1   0  107.77    3.25
   3   1   0  105.74    2.89
  -4  -1   0   99.68    3.32
   4   1   0  103.13    3.12
  -5  -1   0   61.32    2.79
   5   1   0   56.63    2.38
   5   1   0   57.40    2.80
  -6  -1   0   73.91    3.44
   6   1   0   64.77    3.34
  -7  -1   0   40.99    3.14
   7  -2   0   30.01    2.52
   7  -2   0   40.00    2.87
  -7   2   0   35.78    2.90
   6  -2   0   39.14    2.45
   6  -2   0   47.63    2.69
  -6   2   0   41.09    2.72
   5  -2   0   66.80    2.77
  -5   2   0   65.82    2.92
  -5   2   0   63.81    2.82
   4  -2   0  149.78    4.34
  -4   2   0  162.29    4.64
  -4   2   0  151.49    4.32
   3  -2   0  164.81    4.34
  -3   2   0  172.98    4.46
  -3   2   0  159.36    4.23
   2  -2   0  116.52    3.08
  -2   2   0  116.28    3.06
  -2   2   0  111.18    2.98
   1  -2   0   69.85    1.94
   1  -2   0   69.36    1.70
  -1   2   0   67.83    1.93
  -1   2   0   69.99    1.75
   0  -2   0  113.53    2.73
   0  -2   0  119.09    2.80
   0   2   0  118.52    2.80
  -1  -2   0  197.73    4.57
  -1  -2   0  201.31    4.55
  -1  -2   0  200.45    4.48
   1   2   0  203.11    4.71
  -2  -2   0  141.25    3.41
  -2  -2   0  135.93    3.59
  -2  -2   0  142.98    3.49
  -3  -2   0  131.36    3.31
  -3  -2   0  123.76    3.63
   3   2   0  130.58    3.46
  -4  -2   0  173.76    4.87
  -4  -2   0  163.51    4.19
   4   2   0  167.85    5.02
   4   2   0  172.74    4.54
  -5  -2   0   36.65    2.32
   5   2   0   36.11    2.32
  -6  -2   0   39.93    2.85
   6   2   0   38.80    2.84
   7  -3   0   45.66    2.99
   7  -3   0   36.12    2.70
  -7   3   0   39.62    3.15
   6  -3   0   26.20    2.14
   6  -3   0   22.98    2.18
  -6   3   0   26.23    2.40
   5  -3   0   57.94    2.65
  -5   3   0   52.92    2.66
  -5   3   0   56.65    2.68
   4  -3   0  101.99    3.43
  -4   3   0  104.71    3.45
  -4   3   0  111.69    3.55
   3  -3   0  114.94    3.37
  -3   3   0  114.00    3.27
  -3   3   0  111.46    3.32
   2  -3   0   75.44    2.40
  -2   3   0   77.50    2.40
  -2   3   0   77.22    2.21
   1  -3   0  106.20    2.65
   1  -3   0  109.83    2.91
  -1   3   0  107.46    2.54
  -1   3   0  108.00    2.87
   0  -3   0  145.28    3.58
   0  -3   0  146.46    3.50
   0   3   0  147.24    3.59
  -1  -3   0  260.55    5.79
  -1  -3   0  254.21    5.86
   1   3   0  258.95    5.33
   1   3   0  252.68    5.95
   1   3   0  257.53    5.86
  -2  -3   0  116.95    3.38
  -2  -3   0  120.90    3.25
   2   3   0  125.13    3.38
  -3  -3   0  224.78    5.50
  -3  -3   0  233.46    5.87
   3   3   0  228.43    6.01
  -4  -3   0   40.98    1.83
  -4  -3   0   38.81    2.25
   4   3   0   41.04    2.22
   4   3   0   42.00    1.85
  -5  -3   0   34.93    2.44
   5   3   0   34.46    2.43
  -6  -3   0   42.89    3.03
   6   3   0   41.95    3.01
   7  -4   0   22.91    2.49
   7  -4   0   28.70    2.57
  -7   4   0   22.44    2.60
   6  -4   0   33.50    2.36
   6  -4   0   26.73    2.24
  -6   4   0   31.39    2.51
   5  -4   0   26.86    1.94
  -5   4   0   27.41    2.02
  -5   4   0   26.96    2.12
   4  -4   0   82.84    3.08
  -4   4   0   86.59    3.14
  -4   4   0   86.71    3.05
   3  -4   0  153.41    4.44
  -3   4   0  157.61    4.40
  -3   4   0  164.48    4.29
   2  -4   0   56.70    2.12
   2  -4   0   56.13    1.72
  -2   4   0   54.60    2.07
  -2   4   0   54.17    1.67
   1  -4   0  158.40    4.11
   1  -4   0  160.71    3.85
  -1   4   0  154.01    4.03
   0  -4   0  302.98    6.88
   0  -4   0  309.87    7.07
   0   4   0  305.63    6.96
  -1  -4   0   52.57    1.92
  -1  -4   0   53.05    1.90
   1   4   0   55.07    1.99
   1   4   0   53.73    1.66
  -2  -4   0  114.31    3.23
  -2  -4   0  108.51    3.23
   2   4   0  112.22    3.21
  -3  -4   0  123.00    3.42
  -3  -4   0   98.78    3.23
  -3  -4   0  107.99    3.63
   3   4   0  106.62    3.48
  -4  -4   0   43.66    2.10
  -4  -4   0   43.61    2.51
   4   4   0   47.80    2.46
  -5  -4   0   41.28    2.77
   5   4   0   44.95    2.75
  -6  -4   0   44.11    3.22
   6   4   0   45.00    3.10
   6  -5   0   34.91    2.66
  -6   5   0   41.51    2.77
   5  -5   0   30.52    2.27
  -5   5   0   39.76    2.49
   4  -5   0   70.47    2.97
  -4   5   0   73.88    2.68
  -4   5   0   71.22    2.96
   3  -5   0   93.97    3.36
   3  -5   0  100.11    2.69
  -3   5   0  100.03    2.96
  -3   5   0   98.97    3.35
   2  -5   0   83.13    2.46
   2  -5   0   82.05    2.84
  -2   5   0   78.82    2.83
   1  -5   0  163.45    4.13
   1  -5   0  158.97    4.37
  -1   5   0  157.34    4.31
   0  -5   0  113.13    3.26
   0  -5   0  117.42    3.40
   0   5   0  112.12    3.39
  -1  -5   0   45.23    1.90
  -1  -5   0   43.43    1.89
   1   5   0   42.17    1.97
  -2  -5   0   51.04    2.21
  -2  -5   0   54.96    2.19
   2   5   0   52.40    2.33
   2   5   0   55.81    2.16
   2   5   0   52.07    1.98
  -3  -5   0   92.81    3.25
   3   5   0   90.39    3.11
   3   5   0   93.08    3.44
   3   5   0   99.69    3.28
  -4  -5   0   54.42    2.57
   4   5   0   61.22    2.81
   5   5   0   49.95    2.99
   6  -6   0   43.36    3.02
  -6   6   0   48.71    3.17
   5  -6   0   20.71    2.27
  -5   6   0   19.86    2.09
   4  -6   0   58.80    2.90
  -4   6   0   58.95    2.85
   3  -6   0   54.70    2.56
   3  -6   0   52.41    2.00
  -3   6   0   53.26    2.57
   2  -6   0   94.22    3.32
   2  -6   0   91.63    2.89
  -2   6   0   91.54    3.34
   1  -6   0   66.39    2.65
   1  -6   0   69.86    2.50
  -1   6   0   70.46    2.70
   0  -6   0   88.70    3.02
   0  -6   0   85.35    2.92
   0   6   0   85.68    3.02
  -1  -6   0   62.04    2.53
  -1  -6   0   69.70    2.66
   1   6   0   65.53    2.69
  -2  -6   0   39.12    2.11
   2   6   0   41.00    2.32
  -3  -6   0   65.81    2.87
   3   6   0   68.97    2.86
   3   6   0   64.87    3.07
  -4  -6   0   87.98    3.57
   4   6   0   93.64    3.97
   4   6   0   91.23    3.61
   5   6   0   21.07    2.27
   5   6   0   21.23    2.48
   5  -7   0   32.72    2.64
  -5   7   0   39.82    2.85
   4  -7   0   41.14    2.61
  -4   7   0   42.30    2.73
   3  -7   0   38.49    2.41
   3  -7   0   37.59    2.10
  -3   7   0   39.54    2.46
   2  -7   0   56.41    2.70
   2  -7   0   56.31    2.39
  -2   7   0   57.70    2.86
   1  -7   0   66.38    2.68
   1  -7   0   65.73    2.88
  -1   7   0   66.64    2.92
   0  -7   0   93.85    3.44
   0  -7   0   89.14    3.26
   0   7   0   88.69    3.45
  -1  -7   0   41.31    2.29
  -1  -7   0   45.15    2.39
   1   7   0   44.21    2.46
  -2  -7   0   57.80    2.78
   2   7   0   61.62    3.00
  -3  -7   0   64.99    3.05
   3   7   0   58.80    3.27
  -4  -7   0   20.56    2.08
   4   7   0   25.69    2.54
   5  -8   0   30.94    2.74
  -5   8   0   26.77    2.67
   4  -8   0   33.50    2.66
  -4   8   0   40.39    2.89
   3  -8   0   40.17    2.67
  -3   8   0   41.59    2.80
   2  -8   0   33.08    2.39
   2  -8   0   30.80    2.03
  -2   8   0   29.56    2.49
   1  -8   0   59.82    2.77
   1  -8   0   59.47    2.97
  -1   8   0   55.04    3.02
   0  -8   0   53.22    2.69
   0  -8   0   50.87    2.78
   0   8   0   56.44    2.98
  -1  -8   0   51.49    2.73
   1   8   0   46.28    2.82
  -2  -8   0   52.96    2.88
   2   8   0   49.67    3.03
  -3  -8   0   28.68    2.48
   3   8   0   28.06    2.65
   4  -9   0   27.00    2.83
  -4   9   0   35.47    3.01
   3  -9   0   32.59    2.83
  -3   9   0   40.66    3.06
   2  -9   0    8.34    1.45
   2  -9   0   10.85    1.87
  -2   9   0    8.28    1.90
   1  -9   0   56.59    3.19
   1  -9   0   52.94    2.88
  -1   9   0   52.52    3.27
   0  -9   0   44.26    2.82
   0   9   0   51.40    3.12
  -1  -9   0   28.63    2.46
   1   9   0   35.69    2.87
   2   9   0   29.92    2.75
   3 -10   0   13.23    2.39
   2 -10   0   32.56    2.65
   2 -10   0   29.10    2.88
   1 -10   0   32.09    2.69
  -1  10   0   24.71    2.81
   0  10  -1    2.24    1.65
   0 -10   1    2.78    1.47
  -1  10  -1   12.23    2.19
   1 -10   1    7.23    1.67
   1 -10   1    9.17    1.98
  -2  10  -1    1.55    1.74
   2 -10   1    7.32    1.83
   2 -10   1    2.64    1.37
   3 -10   1   22.12    2.74
   2   9  -1   15.65    2.17
  -2  -9   1   15.29    2.04
   1   9  -1    8.74    1.78
  -1  -9   1    8.14    1.55
   0   9  -1   18.86    2.17
   0  -9   1   19.96    2.19
   0  -9   1   21.27    2.14
  -1   9  -1   10.07    1.85
   1  -9   1    9.17    1.77
   1  -9   1    9.43    1.53
  -2   9  -1   24.14    2.51
   2  -9   1   21.96    2.41
   2  -9   1   19.86    1.93
  -3   9  -1    5.29    1.60
   3  -9   1    7.08    1.61
  -4   9  -1   11.16    2.03
   4  -9   1    7.71    1.75
   3   8  -1   12.46    1.91
  -3  -8   1   12.37    1.80
   2   8  -1   13.22    1.86
  -2  -8   1   10.49    1.58
   1   8  -1   20.37    2.08
  -1  -8   1   22.70    2.18
  -1  -8   1   19.35    1.83
   0   8  -1   28.58    2.31
   0  -8   1   31.18    2.18
   0  -8   1   31.53    2.27
  -1   8  -1    7.71    1.53
   1  -8   1    7.56    1.36
   1  -8   1    8.90    1.30
  -2   8  -1    6.33    1.53
   2  -8   1    4.52    1.29
   2  -8   1    6.57    1.17
  -3   8  -1   11.19    1.68
   3  -8   1    5.96    1.38
  -4   8  -1    8.61    1.70
   4  -8   1    6.91    1.56
  -5   8  -1   12.24    2.12
   5  -8   1    9.35    1.95
   4   7  -1   15.76    2.11
  -4  -7   1   12.99    1.82
   3   7  -1   15.47    1.93
  -3  -7   1   18.47    1.87
   2   7  -1    6.47    1.25
  -2  -7   1    7.31    1.33
   1   7  -1   19.49    1.80
  -1  -7   1   15.72    1.66
  -1  -7   1   13.58    1.47
   0   7  -1   24.21    1.92
   0  -7   1   25.56    1.91
   0  -7   1   24.60    1.77
  -1   7  -1   12.24    1.52
   1  -7   1   11.73    1.28
   1  -7   1   14.52    1.61
  -2   7  -1    7.97    1.39
   2  -7   1    7.31    1.30
   2  -7   1    8.68    1.13
  -3   7  -1   16.35    1.83
   3  -7   1   12.29    1.63
  -4   7  -1   22.90    2.08
   4  -7   1   24.99    2.13
  -5   7  -1   15.57    2.01
   5  -7   1    9.44    1.77
  -6   7  -1   18.22    2.36
   6  -7   1   15.35    2.26
   5   6  -1   17.14    2.29
   5   6  -1   18.26    2.10
   4   6  -1   10.30    1.71
   4   6  -1   12.40    1.63
  -4  -6   1    9.48    1.37
   3   6  -1   10.38    1.54
   3   6  -1    9.81    1.31
  -3  -6   1   13.14    1.55
   2   6  -1    6.08    1.16
  -2  -6   1    6.65    1.15
  -2  -6   1    6.93    1.10
   1   6  -1   19.86    1.60
  -1  -6   1   22.46    1.66
  -1  -6   1   19.81    1.47
   0   6  -1   33.95    1.86
   0  -6   1   33.90    1.89
   0  -6   1   33.99    1.75
  -1   6  -1   33.61    1.88
   1  -6   1   34.13    1.73
   1  -6   1   32.63    1.84
  -2   6  -1   11.50    1.32
   2  -6   1   13.71    1.43
   2  -6   1   13.13    1.15
  -3   6  -1   40.32    2.23
   3  -6   1   40.14    2.21
  -4   6  -1   11.47    1.50
   4  -6   1   11.40    1.58
  -5   6  -1   11.47    1.71
   5  -6   1   10.35    1.71
  -6   6  -1    5.48    1.50
   6  -6   1    8.18    1.75
   5   5  -1   11.86    1.79
   4   5  -1   13.04    1.54
  -4  -5   1    8.35    1.27
   3   5  -1   14.41    1.33
   3   5  -1   18.41    1.69
   3   5  -1   17.82    1.51
  -3  -5   1   18.17    1.56
  -3  -5   1   15.28    1.44
   2   5  -1   45.38    1.77
   2   5  -1   48.12    2.13
   2   5  -1   44.11    1.88
  -2  -5   1   44.48    1.99
  -2  -5   1   44.74    2.08
   1   5  -1   21.80    1.41
  -1  -5   1   20.71    1.32
  -1  -5   1   18.77    1.39
   0   5  -1   13.46    1.12
   0  -5   1   13.24    1.09
   0  -5   1   12.57    1.17
  -1   5  -1   69.25    2.43
   1  -5   1   71.51    2.51
   1  -5   1   70.55    2.28
  -2   5  -1   28.74    1.62
   2  -5   1   30.11    1.64
   2  -5   1   30.07    1.37
  -3   5  -1   15.52    0.96
  -3   5  -1   14.51    1.40
   3  -5   1   15.64    1.02
   3  -5   1   16.40    1.41
  -4   5  -1   12.86    1.47
   4  -5   1   12.40    1.48
   4  -5   1   12.75    1.17
  -5   5  -1    4.63    1.32
   5  -5   1    7.74    1.17
   5  -5   1    7.78    1.38
  -6   5  -1    7.79    1.63
   6  -5   1    8.10    1.69
   6  -5   1    8.13    1.55
   7  -5   1    9.70    1.88
   6   4  -1    8.92    1.81
  -6  -4   1    6.65    1.78
   5   4  -1   19.80    2.02
  -5  -4   1   15.81    1.95
   4   4  -1   34.15    1.83
   4   4  -1   30.97    2.04
  -4  -4   1   28.48    1.75
  -4  -4   1   33.37    2.13
   3   4  -1   62.63    2.43
  -3  -4   1   59.51    2.50
  -3  -4   1   59.44    2.40
  -3  -4   1   63.95    2.35
   2   4  -1   19.01    1.10
  -2  -4   1   17.78    1.22
  -2  -4   1   19.68    1.32
   1   4  -1   16.85    1.10
   1   4  -1   17.61    0.81
  -1  -4   1   14.64    1.04
  -1  -4   1   14.89    1.10
   0   4  -1   32.47    1.41
   0  -4   1   31.45    1.42
   0  -4   1   31.55    1.35
  -1   4  -1   20.41    1.18
   1  -4   1   21.49    1.21
   1  -4   1   20.49    1.06
  -2   4  -1   28.46    1.46
   2  -4   1   27.51    1.06
   2  -4   1   31.13    1.19
   2  -4   1   27.90    1.45
  -3   4  -1   32.38    1.69
   3  -4   1   33.01    1.69
  -4   4  -1   16.45    1.57
   4  -4   1   15.90    1.52
   4  -4   1   15.08    1.29
  -5   4  -1   15.90    1.75
   5  -4   1   12.01    1.54
   5  -4   1   11.81    1.37
  -6   4  -1   12.81    1.83
   6  -4   1   15.29    1.92
   6  -4   1   13.10    1.71
  -7   4  -1   15.18    2.30
   7  -4   1   20.54    2.28
   7  -4   1   19.20    2.20
   6   3  -1   27.66    2.56
  -6  -3   1   20.94    2.42
   5   3  -1    9.51    1.52
  -5  -3   1    9.56    1.53
   4   3  -1   67.39    2.53
  -4  -3   1   63.82    2.29
  -4  -3   1   63.43    2.71
  -3  -3   1   13.14    1.24
  -3  -3   1   15.00    1.32
  -3  -3   1   15.20    1.14
  -2  -3   1   22.53    1.22
  -2  -3   1   21.10    1.23
  -2  -3   1   22.89    1.24
  -2  -3   1   23.93    1.20
   1   3  -1   43.49    1.42
   1   3  -1   44.97    1.57
  -1  -3   1   46.32    1.45
  -1  -3   1   44.40    1.56
  -1  -3   1   44.38    1.62
   0   3  -1   29.35    1.18
   0  -3   1   28.20    1.20
   0  -3   1   29.22    1.15
  -1   3  -1    5.08    0.64
   1  -3   1    4.58    0.51
   1  -3   1    5.31    0.64
  -2   3  -1   64.47    2.15
   2  -3   1   67.68    2.17
  -3   3  -1   51.97    2.07
   3  -3   1   61.59    2.15
  -4   3  -1    9.71    1.21
   4  -3   1   10.51    1.18
  -5   3  -1   26.73    1.98
   5  -3   1   24.12    1.76
   5  -3   1   25.29    1.81
  -6   3  -1   18.03    2.07
   6  -3   1   22.11    2.04
   6  -3   1   21.54    1.90
  -7   3  -1    7.11    1.81
   7  -3   1    4.74    1.38
   7  -3   1    3.63    1.38
  -7  -2   1   18.36    2.37
   6   2  -1   13.93    1.93
  -6  -2   1   12.46    1.87
   5   2  -1   19.32    1.58
  -5  -2   1   19.95    1.88
   4   2  -1    8.90    1.04
  -4  -2   1    5.79    0.76
  -4  -2   1   11.30    1.31
  -4  -2   1   10.19    1.28
   3   2  -1   27.48    1.33
  -3  -2   1   25.35    1.53
  -3  -2   1   29.30    1.27
  -3  -2   1   27.54    1.43
  -2  -2   1   42.79    1.43
  -2  -2   1   42.37    1.54
  -2  -2   1   43.35    1.55
  -2  -2   1   38.21    1.56
  -1  -2   1   52.97    1.56
  -1  -2   1   50.36    1.62
  -1  -2   1   52.62    1.58
  -1  -2   1   55.37    1.61
   0   2  -1   83.80    2.07
   0  -2   1   83.80    2.18
   0  -2   1   85.19    2.09
  -1   2  -1   12.85    0.77
   1  -2   1   13.00    0.57
   1  -2   1   13.44    0.77
  -2   2  -1   38.41    1.45
  -2   2  -1   35.63    1.37
   2  -2   1   37.40    1.40
  -3   2  -1   24.56    1.35
  -3   2  -1   23.11    1.32
   3  -2   1   25.50    1.30
  -4   2  -1   66.46    2.57
   4  -2   1   73.33    2.58
  -5   2  -1   19.07    1.83
   5  -2   1   15.23    1.60
   5  -2   1   17.34    1.50
  -6   2  -1    9.99    1.70
   6  -2   1   11.06    1.61
   6  -2   1    8.33    1.40
  -7   2  -1    8.97    1.90
   7  -2   1    9.87    1.81
  -7  -1   1    7.99    1.85
   6   1  -1   12.62    1.72
   6   1  -1   14.88    1.65
  -6  -1   1   18.87    2.04
   5   1  -1   24.31    1.65
  -5  -1   1   21.48    1.85
  -5  -1   1   21.10    1.96
   4   1  -1    3.44    0.75
  -4  -1   1    2.64    0.82
  -4  -1   1    2.96    0.82
   3   1  -1   33.55    1.41
  -3  -1   1   31.25    1.55
  -3  -1   1   29.94    1.43
   2   1  -1  141.32    3.45
  -2  -1   1  139.98    3.34
  -2  -1   1  143.68    3.14
  -2  -1   1  125.47    3.65
  -1  -1   1   34.36    1.15
  -1  -1   1   33.75    1.14
  -1  -1   1   35.44    1.02
  -1  -1   1   34.24    1.04
   0   1  -1   59.12    1.33
   0   1  -1   60.43    1.45
   0  -1   1   53.98    1.41
   0  -1   1   60.70    1.47
  -1   1  -1   53.80    1.46
   1  -1   1   53.48    1.47
   1  -1   1   55.31    1.46
  -2   1  -1    3.94    0.57
   2  -1   1    3.30    0.48
  -3   1  -1   52.67    1.94
   3  -1   1   56.05    1.88
  -4   1  -1   47.41    2.13
   4  -1   1   47.77    1.94
   4  -1   1   46.32    2.09
  -5   1  -1    9.51    1.39
   5  -1   1   11.82    1.45
   5  -1   1   10.59    1.22
  -6   1  -1   20.21    2.16
   6  -1   1   16.63    1.74
   6  -1   1   15.99    1.90
  -7   1  -1   11.33    1.99
   7  -1   1   12.08    1.91
   7   0  -1    9.08    1.71
  -7   0   1    9.95    1.94
   6   0  -1   19.69    1.95
  -6   0   1   17.44    1.95
   5   0  -1   21.77    1.61
  -5   0   1   25.29    1.86
  -5   0   1   24.97    1.90
   4   0  -1   13.00    1.21
  -4   0   1   15.86    1.34
  -4   0   1   11.16    1.20
   3   0  -1   64.21    2.15
  -3   0   1   63.79    2.30
  -3   0   1   63.71    2.11
   2   0  -1   31.50    1.22
  -2   0   1   30.38    1.14
  -2   0   1   28.64    1.25
   1   0  -1   84.31    2.09
  -1   0   1   84.48    2.18
  -1   0   1   82.24    1.91
   0   0  -1   38.34    0.97
   0   0   1   39.23    0.92
   0   0   1   39.87    1.09
  -1   0  -1  127.28    2.93
  -1   0  -1  133.65    2.84
   1   0   1  131.79    3.17
  -2   0  -1   20.91    1.02
   2   0   1   19.47    1.02
   2   0   1   21.38    0.85
  -3   0  -1   16.85    1.12
   3   0   1   17.65    0.96
   3   0   1   16.41    1.15
  -4   0  -1   22.86    1.55
   4   0   1   23.96    1.33
   4   0   1   23.53    1.52
  -5   0  -1   19.91    1.88
   5   0   1   17.79    1.43
   5   0   1   18.08    1.78
  -6   0  -1   21.82    2.26
   6   0   1   23.22    2.14
  -7   0  -1    6.86    1.78
   7   0   1    5.44    1.55
   7  -1  -1    7.17    1.52
   7  -1  -1    9.31    1.68
  -7   1   1    9.73    1.88
   6  -1  -1   11.72    1.67
  -6   1   1   10.03    1.63
  -6   1   1    9.80    1.58
   5  -1  -1   38.55    2.10
  -5   1   1   41.64    2.28
  -5   1   1   38.05    2.31
   4  -1  -1   53.94    2.24
  -4   1   1   55.32    2.21
  -4   1   1   56.76    2.33
   3  -1  -1    5.77    0.74
  -3   1   1    5.14    0.75
  -3   1   1    5.95    0.82
   2  -1  -1   35.38    1.34
  -2   1   1   35.54    1.29
  -2   1   1   33.43    1.32
   1  -1  -1   98.68    2.15
   1  -1  -1   98.40    2.44
  -1   1   1   98.61    2.35
  -1   1   1   97.43    2.48
   0  -1  -1   36.59    1.05
   0   1   1   36.20    1.06
   0   1   1   36.41    1.10
   0   1   1   36.21    0.95
  -1  -1  -1   64.00    1.79
  -1  -1  -1   64.63    1.69
   1   1   1   65.51    1.81
  -2  -1  -1   61.46    1.98
  -2  -1  -1   65.55    1.78
   2   1   1   64.36    2.05
  -3  -1  -1   12.53    1.14
  -3  -1  -1   11.16    0.79
   3   1   1   11.91    1.07
  -4  -1  -1    3.83    0.95
   4   1   1    3.05    0.65
   4   1   1    3.13    0.84
  -5  -1  -1   64.25    2.89
   5   1   1   57.51    2.83
  -6  -1  -1   13.19    1.95
   6   1   1   12.79    1.78
  -7  -1  -1   17.74    2.76
   7  -2  -1   10.08    1.80
   7  -2  -1    6.08    1.56
  -7   2   1    8.92    1.81
   6  -2  -1   32.03    2.28
  -6   2   1   29.80    2.40
  -6   2   1   27.71    2.38
   5  -2  -1   25.36    1.82
  -5   2   1   25.51    1.87
  -5   2   1   25.16    1.97
   4  -2  -1   27.64    1.65
  -4   2   1   26.08    1.61
  -4   2   1   30.00    1.66
   3  -2  -1   21.61    1.29
  -3   2   1   23.14    1.28
  -3   2   1   19.94    1.24
   2  -2  -1   22.93    1.15
  -2   2   1   23.98    1.18
  -2   2   1   24.29    1.09
   1  -2  -1   13.71    0.65
   1  -2  -1   14.85    0.81
  -1   2   1   13.25    0.83
  -1   2   1   12.58    0.65
   0  -2  -1   32.85    1.06
   0  -2  -1   34.61    1.16
   0   2   1   34.05    1.24
  -1  -2  -1   98.31    2.55
  -1  -2  -1   98.71    2.66
   1   2   1   98.64    2.59
  -2  -2  -1   41.13    1.51
  -2  -2  -1   43.74    1.70
   2   2   1   43.86    1.65
  -3  -2  -1   11.03    1.20
  -3  -2  -1   11.35    0.95
   3   2   1   12.59    1.14
  -4  -2  -1   39.99    1.68
  -4  -2  -1   40.66    2.18
   4   2   1   38.10    2.11
  -5  -2  -1   23.66    2.20
   5   2   1   22.40    2.04
  -6  -2  -1   15.53    2.15
   6   2   1   14.60    2.00
   7  -3  -1    7.80    1.74
   7  -3  -1   10.58    1.82
  -7   3   1    9.96    1.93
   6  -3  -1   18.27    2.06
  -6   3   1   18.30    2.02
  -6   3   1   15.89    1.89
   5  -3  -1   19.09    1.89
  -5   3   1   17.98    1.74
  -5   3   1   19.48    1.84
   4  -3  -1   13.18    1.37
  -4   3   1   11.28    1.29
  -4   3   1   17.59    1.36
   3  -3  -1   31.13    1.62
  -3   3   1   33.77    1.53
  -3   3   1   32.50    1.64
   2  -3  -1   30.50    1.40
   2  -3  -1   29.69    1.03
  -2   3   1   30.18    1.43
  -2   3   1   28.26    1.19
   1  -3  -1    9.67    0.71
   1  -3  -1    9.32    0.81
  -1   3   1    8.68    0.56
  -1   3   1    9.31    0.87
   0  -3  -1   76.54    2.11
   0  -3  -1   77.99    2.19
   0   3   1   76.38    2.27
   0   3   1   73.54    2.07
  -1  -3  -1   33.46    1.38
   1   3   1   34.44    1.33
   1   3   1   33.58    1.26
   1   3   1   32.16    1.44
  -2  -3  -1   35.68    1.69
  -2  -3  -1   35.40    1.52
   2   3   1   36.33    1.52
  -3  -3  -1   52.70    2.02
  -3  -3  -1   54.87    2.35
   3   3   1   56.03    2.27
  -4  -3  -1   23.25    2.03
  -4  -3  -1   19.33    1.40
   4   3   1   20.30    1.78
  -5  -3  -1    5.07    1.44
   5   3   1    5.56    1.32
  -6  -3  -1   11.35    2.05
   6   3   1   11.12    1.87
   7  -4  -1    3.09    1.42
   7  -4  -1    6.29    1.61
  -7   4   1    2.89    1.57
   6  -4  -1   14.02    1.84
  -6   4   1   13.80    1.83
  -6   4   1   12.72    1.80
   5  -4  -1   11.08    1.54
  -5   4   1    9.43    1.52
  -5   4   1   10.98    1.46
   4  -4  -1   12.06    1.37
  -4   4   1   11.70    1.20
  -4   4   1   10.26    1.37
   3  -4  -1   36.56    1.84
  -3   4   1   38.54    1.93
  -3   4   1   40.52    1.73
   2  -4  -1  117.55    2.99
   2  -4  -1  118.04    3.45
  -2   4   1  115.62    3.45
  -2   4   1  115.86    3.09
   1  -4  -1    8.67    0.87
   1  -4  -1    7.22    0.73
  -1   4   1    9.54    0.97
  -1   4   1    8.33    0.55
   0  -4  -1   17.76    1.06
   0  -4  -1   19.15    1.11
   0   4   1   19.68    1.20
   0   4   1   17.86    0.86
  -1  -4  -1   45.39    1.76
  -1  -4  -1   41.96    1.63
   1   4   1   44.75    1.67
   1   4   1   43.96    1.83
   1   4   1   42.57    1.51
  -2  -4  -1   30.99    1.57
   2   4   1   31.15    1.49
  -3  -4  -1   16.14    1.61
  -3  -4  -1   16.93    1.38
   3   4   1   15.00    1.38
  -4  -4  -1   18.89    1.97
  -4  -4  -1   14.02    1.40
   4   4   1   19.27    1.81
  -5  -4  -1    8.34    1.74
   5   4   1    7.30    1.57
  -6  -4  -1    9.21    1.99
   6   4   1   12.43    1.99
   6  -5  -1    5.37    1.49
  -6   5   1    6.98    1.65
   5  -5  -1   23.33    2.08
  -5   5   1   25.49    2.02
  -5   5   1   27.74    2.32
   4  -5  -1   11.72    1.47
  -4   5   1   11.44    1.18
  -4   5   1   13.16    1.52
   3  -5  -1   55.34    2.46
   3  -5  -1   55.56    1.88
  -3   5   1   56.31    2.08
  -3   5   1   57.71    2.52
   2  -5  -1   42.69    1.99
   2  -5  -1   41.11    1.68
  -2   5   1   42.41    2.07
   1  -5  -1   18.69    1.33
   1  -5  -1   19.64    1.22
  -1   5   1   18.98    1.36
   0  -5  -1    6.46    0.89
   0  -5  -1    7.81    0.91
   0   5   1    8.91    1.07
  -1  -5  -1   21.51    1.37
  -1  -5  -1   22.65    1.38
   1   5   1   20.11    1.48
  -2  -5  -1   23.78    1.60
   2   5   1   23.85    1.35
   2   5   1   23.78    1.56
   2   5   1   24.10    1.71
  -3  -5  -1    8.63    1.22
   3   5   1    9.30    1.15
   3   5   1    9.85    1.30
   3   5   1   11.63    1.53
  -4  -5  -1   29.87    2.02
   4   5   1   29.83    2.15
   5   5   1   18.95    2.20
   6  -6  -1   18.34    2.32
  -6   6   1   16.95    2.19
   5  -6  -1   19.79    2.22
  -5   6   1   19.81    2.17
   4  -6  -1   16.10    1.84
  -4   6   1   13.28    1.72
   3  -6  -1   11.95    1.50
   3  -6  -1   11.30    1.07
  -3   6   1    9.85    1.39
   2  -6  -1   20.50    1.42
   2  -6  -1   21.98    1.68
  -2   6   1   21.80    1.84
   1  -6  -1   19.24    1.41
   1  -6  -1   20.95    1.54
  -1   6   1   15.57    1.51
   0  -6  -1    8.63    1.07
   0  -6  -1    9.68    1.13
   0   6   1   10.00    1.29
  -1  -6  -1   28.63    1.75
  -1  -6  -1   30.70    1.82
   1   6   1   30.48    1.93
  -2  -6  -1   22.86    1.74
   2   6   1   22.88    2.01
  -3  -6  -1   12.25    1.51
   3   6   1   14.70    1.59
   3   6   1   12.92    1.75
  -4  -6  -1   29.66    2.19
   4   6   1   27.02    2.56
   4   6   1   27.21    2.34
   5  -7  -1    7.99    1.73
  -5   7   1   11.01    1.80
   4  -7  -1    3.86    1.28
  -4   7   1    5.25    1.40
   3  -7  -1   10.71    1.61
  -3   7   1    9.86    1.59
   2  -7  -1   10.90    1.51
   2  -7  -1    9.99    1.25
  -2   7   1   10.34    1.54
   1  -7  -1   37.18    2.09
   1  -7  -1   38.29    2.23
  -1   7   1   39.09    2.35
   0  -7  -1   21.47    1.72
   0  -7  -1   22.23    1.82
   0   7   1   20.65    1.90
  -1  -7  -1   31.19    2.08
   1   7   1   32.59    2.22
  -2  -7  -1    4.29    1.13
   2   7   1    6.03    1.37
  -3  -7  -1   12.47    1.66
   3   7   1   19.78    2.28
  -4  -7  -1    5.92    1.48
   4   7   1   10.75    1.96
   4   7   1    6.53    1.57
   5  -8  -1    6.97    1.63
  -5   8   1    6.95    1.80
   4  -8  -1    5.13    1.50
  -4   8   1    4.79    1.61
   3  -8  -1   12.44    1.81
  -3   8   1   14.81    1.91
   2  -8  -1   41.32    2.67
   2  -8  -1   43.61    2.38
  -2   8   1   42.54    2.86
   1  -8  -1    5.74    1.28
   1  -8  -1    6.71    1.38
  -1   8   1    4.04    1.38
   0  -8  -1   24.85    2.06
   0   8   1   27.00    2.39
  -1  -8  -1   12.21    1.59
   1   8   1   13.95    1.87
  -2  -8  -1    5.47    1.28
   2   8   1    6.95    1.63
  -3  -8  -1    5.47    1.44
   3   8   1    6.24    1.70
   4  -9  -1    8.42    1.91
   3  -9  -1   20.35    2.42
  -3   9   1   21.20    2.44
   2  -9  -1    5.41    1.33
   2  -9  -1    6.43    1.65
  -2   9   1    6.81    1.71
   1  -9  -1    2.71    1.20
  -1   9   1    1.22    1.41
   0  -9  -1   11.00    1.67
   0   9   1    7.42    1.73
  -1  -9  -1   10.13    1.61
   1   9   1   14.53    2.09
   2 -10  -1    7.04    1.57
   1 -10  -1    0.84    1.27
   1  10  -2   36.37    3.03
   0  10  -2   23.27    2.61
   0 -10   2   25.94    3.13
   0 -10   2   26.34    2.54
  -1  10  -2   25.20    2.66
   1 -10   2   19.43    2.53
   1 -10   2   28.14    2.59
  -2  10  -2   27.21    2.71
   2 -10   2   28.26    2.79
  -3  10  -2   15.99    2.47
   3 -10   2   18.59    2.52
   3   9  -2   18.21    2.38
   2   9  -2   58.34    3.33
  -2  -9   2   52.51    3.16
   1   9  -2   45.98    3.00
  -1  -9   2   45.16    2.83
   0   9  -2   20.33    2.14
   0  -9   2   18.45    2.15
   0  -9   2   21.35    2.12
  -1   9  -2   48.65    3.02
   1  -9   2   44.89    2.73
   1  -9   2   45.95    2.94
  -2   9  -2   25.10    2.44
   2  -9   2   28.98    2.73
  -3   9  -2   35.20    2.80
   3  -9   2   33.22    2.67
  -4   9  -2   28.48    2.62
   4  -9   2   25.78    2.70
   3   8  -2   61.59    3.30
  -3  -8   2   54.59    3.12
   2   8  -2   60.77    3.09
  -2  -8   2   61.57    3.07
   1   8  -2   34.57    2.38
  -1  -8   2   32.37    2.21
  -1  -8   2   33.36    2.45
   0   8  -2   50.21    2.66
   0  -8   2   47.85    2.71
   0  -8   2   46.19    2.54
  -1   8  -2   55.39    2.87
   1  -8   2   56.37    2.86
   1  -8   2   52.37    2.59
  -2   8  -2   30.34    2.33
   2  -8   2   27.08    2.20
  -3   8  -2   43.44    2.70
   3  -8   2   41.24    2.67
  -4   8  -2   31.61    2.53
   4  -8   2   30.23    2.48
  -5   8  -2   30.20    2.73
   5  -8   2   28.27    2.81
   4   7  -2   38.09    2.77
  -4  -7   2   36.39    2.66
   3   7  -2   35.39    2.54
  -3  -7   2   39.51    2.46
   2   7  -2   66.75    3.03
  -2  -7   2   71.34    3.00
  -2  -7   2   67.17    3.07
   1   7  -2   51.71    2.52
  -1  -7   2   53.02    2.48
  -1  -7   2   51.05    2.64
   0   7  -2   49.77    2.42
   0  -7   2   43.46    2.22
   0  -7   2   49.14    2.49
  -1   7  -2   66.15    2.82
   1  -7   2   70.68    2.69
   1  -7   2   65.33    2.87
  -2   7  -2   75.67    3.09
   2  -7   2   79.03    2.82
   2  -7   2   74.37    3.13
  -3   7  -2   32.16    1.70
  -3   7  -2   32.61    2.18
   3  -7   2   30.96    2.15
  -4   7  -2   38.15    2.45
   4  -7   2   36.14    2.46
  -5   7  -2   43.55    2.84
   5  -7   2   41.03    2.77
  -6   7  -2   18.51    2.40
   6  -7   2   19.33    2.47
   4   6  -2   49.36    2.56
   4   6  -2   46.79    2.76
  -4  -6   2   38.36    2.48
   3   6  -2   37.56    2.03
   3   6  -2   36.07    2.23
  -3  -6   2   33.47    2.14
   2   6  -2   57.09    2.55
  -2  -6   2   54.89    2.48
  -2  -6   2   61.50    2.67
   1   6  -2   89.69    3.04
  -1  -6   2   87.80    3.20
  -1  -6   2   85.29    2.98
   0   6  -2   57.76    2.33
   0  -6   2   55.66    2.24
   0  -6   2   56.30    2.43
  -1   6  -2  177.90    4.79
   1  -6   2  173.59    4.96
   1  -6   2  176.78    4.65
  -2   6  -2   90.72    3.15
   2  -6   2   95.80    3.30
  -3   6  -2   21.87    1.31
  -3   6  -2   24.79    1.82
   3  -6   2   23.69    1.78
  -4   6  -2   57.51    2.77
   4  -6   2   57.24    2.78
  -5   6  -2   48.60    2.80
   5  -6   2   42.99    2.67
  -6   6  -2   24.86    2.41
   6  -6   2   15.07    2.13
   5   5  -2   58.17    3.14
   4   5  -2   48.01    2.47
  -4  -5   2   42.19    2.31
   3   5  -2   32.88    1.82
   3   5  -2   36.66    2.03
   3   5  -2   36.06    1.88
  -3  -5   2   36.91    2.12
  -3  -5   2   42.92    2.06
   2   5  -2  163.35    4.28
   2   5  -2  154.26    4.34
   2   5  -2  158.80    3.97
  -2  -5   2  158.51    4.60
  -2  -5   2  161.61    4.41
   1   5  -2   60.65    1.83
   1   5  -2   64.99    2.31
  -1  -5   2   67.81    2.50
  -1  -5   2   67.44    2.33
   0   5  -2  173.73    4.39
   0  -5   2  173.97    4.61
   0  -5   2  159.95    4.31
  -1   5  -2  133.97    3.67
   1  -5   2  130.27    3.54
   1  -5   2  134.32    3.84
  -2   5  -2   84.04    2.79
   2  -5   2   87.74    2.93
  -3   5  -2   41.22    1.53
  -3   5  -2   43.00    2.03
   3  -5   2   44.24    2.10
   3  -5   2   42.53    1.63
  -4   5  -2   48.13    2.37
   4  -5   2   49.62    2.42
   4  -5   2   50.05    2.09
  -5   5  -2   42.76    2.55
   5  -5   2   42.39    2.48
   5  -5   2   44.87    2.30
  -6   5  -2   40.81    2.76
   6  -5   2   37.42    2.58
   6  -5   2   30.81    2.46
   7  -5   2   14.67    2.15
   6   4  -2   48.64    3.16
   5   4  -2   49.18    2.79
   4   4  -2   37.71    2.04
  -4  -4   2   40.87    2.00
  -4  -4   2   35.15    2.14
  -3  -4   2  208.24    5.63
  -3  -4   2  184.09    5.10
  -3  -4   2  211.88    5.55
  -3  -4   2  206.33    5.34
   2   4  -2  114.99    3.29
   2   4  -2  121.68    3.04
  -2  -4   2  110.43    3.37
  -2  -4   2  115.10    3.51
  -2  -4   2  119.14    3.33
   1   4  -2   67.52    2.16
  -1  -4   2   65.59    2.30
  -1  -4   2   67.36    2.19
   0   4  -2  113.66    3.02
   0  -4   2  110.35    3.20
   0  -4   2  115.34    3.06
  -1   4  -2  115.96    3.19
   1  -4   2  122.13    3.37
   1  -4   2  121.50    3.12
  -2   4  -2   75.65    2.40
  -2   4  -2   72.17    2.07
   2  -4   2   74.94    2.47
   2  -4   2   69.81    2.04
  -3   4  -2   92.61    2.98
   3  -4   2   89.47    2.73
   3  -4   2   92.01    3.02
  -4   4  -2   78.16    2.99
   4  -4   2   81.11    2.97
   4  -4   2   84.68    2.86
  -5   4  -2   56.13    2.77
   5  -4   2   55.54    2.57
   5  -4   2   56.12    2.63
  -6   4  -2   38.18    2.60
   6  -4   2   33.26    2.37
   6  -4   2   29.72    2.26
  -7   4  -2   26.62    2.87
   7  -4   2   21.08    2.31
   7  -4   2   32.89    2.64
   6   3  -2   44.35    2.98
  -6  -3   2   45.81    2.98
   5   3  -2   73.18    3.03
  -5  -3   2   71.34    3.13
   4   3  -2   69.38    2.74
  -4  -3   2   81.81    3.23
  -4  -3   2   77.12    2.89
  -3  -3   2  139.17    4.35
  -3  -3   2  163.53    3.98
  -3  -3   2  150.54    4.27
  -3  -3   2  149.03    4.08
  -2  -3   2  134.86    3.60
  -2  -3   2  143.66    3.88
  -2  -3   2  138.94    3.84
  -2  -3   2  146.29    3.63
   1   3  -2   62.92    1.89
   1   3  -2   64.34    1.71
  -1  -3   2   63.52    1.98
  -1  -3   2   64.69    2.11
  -1  -3   2   67.23    1.92
   0   3  -2   55.02    1.61
   0  -3   2   51.04    1.65
   0  -3   2   50.86    1.75
  -1   3  -2  142.31    3.31
  -1   3  -2  141.47    3.40
   1  -3   2  131.82    3.28
   1  -3   2  142.72    3.57
  -2   3  -2  256.44    5.74
  -2   3  -2  272.29    6.12
   2  -3   2  275.51    6.33
   2  -3   2  266.71    6.27
  -3   3  -2  100.21    3.07
   3  -3   2  106.57    3.11
   3  -3   2  101.87    3.02
  -4   3  -2  126.24    3.88
   4  -3   2  128.75    3.85
   4  -3   2  131.30    3.92
  -5   3  -2   51.79    2.56
   5  -3   2   48.07    2.31
   5  -3   2   45.14    2.35
  -6   3  -2   27.45    2.34
   6  -3   2   23.14    1.95
   6  -3   2   28.83    2.24
  -7   3  -2   35.46    2.92
   7  -3   2   31.64    2.73
   6   2  -2   54.44    2.94
  -6  -2   2   57.00    3.07
   5   2  -2   66.38    2.79
  -5  -2   2   66.78    3.12
  -5  -2   2   60.00    2.80
   4   2  -2   47.14    1.70
   4   2  -2   45.86    2.08
  -4  -2   2   48.69    2.15
  -4  -2   2   46.33    2.33
   3   2  -2   95.75    2.92
  -3  -2   2   95.66    3.11
  -3  -2   2   90.11    2.76
  -2  -2   2  234.14    5.24
  -2  -2   2  234.39    5.23
  -2  -2   2  233.82    5.59
  -2  -2   2  227.15    5.77
  -1  -2   2  127.87    3.21
  -1  -2   2  129.44    3.22
  -1  -2   2  120.29    3.02
   0   2  -2   24.35    0.93
   0   2  -2   24.97    0.83
   0  -2   2   25.31    1.02
   0  -2   2   22.96    0.84
  -1   2  -2  967.86   19.59
  -1   2  -2 1000.00   19.56
   1  -2   2  997.35   20.33
   1  -2   2  940.67   21.21
  -2   2  -2   95.16    2.62
   2  -2   2   93.98    2.65
   2  -2   2   98.47    2.63
  -3   2  -2   82.82    2.57
   3  -2   2   77.25    2.55
   3  -2   2   80.37    2.45
  -4   2  -2  116.64    3.62
   4  -2   2  117.17    3.70
   4  -2   2  120.29    3.50
  -5   2  -2   60.43    2.84
   5  -2   2   59.54    2.48
   5  -2   2   62.61    2.76
  -6   2  -2   20.08    2.17
   6  -2   2   15.58    1.70
   6  -2   2   20.63    2.06
  -7   2  -2   35.90    3.00
   7  -2   2   32.01    2.67
   6   1  -2   41.82    2.49
  -6  -1   2   42.36    2.78
  -6  -1   2   40.60    2.59
   5   1  -2   56.32    2.56
  -5  -1   2   56.04    2.60
  -5  -1   2   54.91    2.85
   4   1  -2   62.62    2.41
  -4  -1   2   63.63    2.39
  -4  -1   2   60.85    2.56
   3   1  -2   97.34    2.91
  -3  -1   2   93.52    2.71
  -3  -1   2   94.52    3.07
   2   1  -2  388.79    8.00
  -2  -1   2  370.47    8.05
  -2  -1   2  394.08    9.01
   1   1  -2  214.16    4.51
  -1  -1   2  211.12    4.80
  -1  -1   2  202.70    4.96
   0   1  -2  513.93   10.60
   0  -1   2  537.14   10.94
   0  -1   2  514.73   11.55
  -1   1  -2  155.91    3.59
  -1   1  -2  162.25    3.60
   1  -1   2  163.30    3.92
   1  -1   2  170.22    3.68
  -2   1  -2   59.99    1.85
   2  -1   2   57.53    1.92
   2  -1   2   63.13    1.75
  -3   1  -2   69.56    2.36
   3  -1   2   68.94    2.41
   3  -1   2   76.62    2.22
  -4   1  -2  100.09    3.32
   4  -1   2  100.34    3.35
   4  -1   2  100.15    3.03
  -5   1  -2   75.98    3.16
   5  -1   2   76.86    2.80
   5  -1   2   82.80    3.23
  -6   1  -2   47.67    2.90
   6  -1   2   44.81    2.73
  -7   1  -2   40.68    3.15
   7  -1   2   38.97    2.81
   7   0  -2   26.43    2.54
  -7   0   2   30.69    2.86
   6   0  -2   70.62    3.30
  -6   0   2   77.92    3.61
  -6   0   2   75.44    3.36
   5   0  -2   70.66    2.87
  -5   0   2   70.34    2.87
   4   0  -2   73.12    2.66
  -4   0   2   72.43    2.57
  -4   0   2   68.19    2.76
   3   0  -2  186.48    4.71
  -3   0   2  179.81    4.40
  -3   0   2  180.45    4.90
   2   0  -2  225.54    5.26
  -2   0   2  226.38    4.91
  -2   0   2  218.79    5.52
   1   0  -2  215.48    4.89
   1   0  -2  219.97    4.61
  -1   0   2  217.35    5.14
   0   0  -2  199.90    4.45
   0   0   2  206.31    4.90
   0   0   2  213.47    4.42
  -1   0  -2   89.90    2.24
  -1   0  -2   92.74    2.25
   1   0   2   88.26    2.42
  -2   0  -2   92.85    2.55
  -2   0  -2   91.58    2.33
   2   0   2   93.00    2.69
  -3   0  -2  100.40    2.52
  -3   0  -2  101.39    3.01
   3   0   2   98.76    3.10
  -4   0  -2  100.52    3.33
   4   0   2   97.21    3.37
  -5   0  -2  155.12    4.84
   5   0   2  146.63    4.86
  -6   0  -2   41.04    2.80
   6   0   2   41.48    2.67
  -7   0  -2   19.30    2.46
   7  -1  -2   29.01    2.54
  -7   1   2   33.79    2.77
   6  -1  -2   91.12    3.77
  -6   1   2   87.60    3.98
  -6   1   2   95.94    3.76
   5  -1  -2   51.31    2.54
  -5   1   2   52.05    2.60
  -5   1   2   54.46    2.53
   4  -1  -2   81.33    2.80
  -4   1   2   78.05    2.64
  -4   1   2   69.42    2.83
   3  -1  -2  136.74    3.69
  -3   1   2  130.54    3.46
  -3   1   2  126.52    3.74
   2  -1  -2  112.61    3.06
  -2   1   2  113.42    3.15
  -2   1   2  114.15    2.86
   1  -1  -2  109.79    2.55
   1  -1  -2  108.29    2.74
  -1   1   2  109.65    2.86
  -1   1   2  110.86    2.62
   0  -1  -2  272.06    5.74
   0   1   2  266.72    5.65
   0   1   2  267.76    5.11
   0   1   2  262.46    6.24
  -1  -1  -2  217.38    4.90
  -1  -1  -2  224.07    4.86
   1   1   2  213.19    5.22
  -2  -1  -2  217.06    4.92
  -2  -1  -2  215.92    5.12
   2   1   2  218.33    5.45
  -3  -1  -2   77.92    2.24
  -3  -1  -2   74.73    2.58
   3   1   2   79.34    2.69
  -4  -1  -2  175.67    4.98
  -4  -1  -2  174.56    4.28
   4   1   2  177.69    5.21
  -5  -1  -2   37.69    2.38
   5   1   2   38.09    2.37
  -6  -1  -2   36.56    2.74
   6   1   2   37.75    2.63
   7  -2  -2   29.79    2.69
  -7   2   2   34.51    2.79
  -7   2   2   32.80    2.96
   6  -2  -2   43.78    2.65
  -6   2   2   45.40    2.89
  -6   2   2   44.82    2.70
   5  -2  -2   69.11    2.99
  -5   2   2   68.72    2.90
  -5   2   2   67.67    2.97
   4  -2  -2   51.51    2.28
  -4   2   2   52.46    2.23
  -4   2   2   53.66    2.34
   3  -2  -2  117.94    3.46
  -3   2   2  117.07    3.44
  -3   2   2  112.97    3.28
   2  -2  -2  213.38    5.18
  -2   2   2  214.16    5.26
  -2   2   2  205.39    4.94
   1  -2  -2   59.86    1.77
   1  -2  -2   57.93    1.64
  -1   2   2   58.03    1.77
  -1   2   2   54.36    1.74
   0  -2  -2  235.88    5.26
   0   2   2  239.14    5.29
   0   2   2  233.01    5.63
  -1  -2  -2  597.65   12.43
  -1  -2  -2  611.54   12.51
   1   2   2  578.81   13.36
  -2  -2  -2   83.84    2.43
  -2  -2  -2   83.68    2.63
   2   2   2   81.51    2.59
  -3  -2  -2   79.61    2.50
  -3  -2  -2   82.68    2.85
   3   2   2   81.67    2.84
  -4  -2  -2   72.94    2.44
  -4  -2  -2   72.48    3.02
   4   2   2   75.80    2.99
  -5  -2  -2   43.79    2.68
   5   2   2   41.99    2.58
  -6  -2  -2   37.43    2.89
   6   2   2   36.32    2.78
   7  -3  -2   17.57    2.31
  -7   3   2   14.23    2.13
  -7   3   2   17.19    2.24
   6  -3  -2   29.29    2.44
  -6   3   2   35.12    2.42
  -6   3   2   27.35    2.45
   5  -3  -2   75.21    3.21
  -5   3   2   81.29    3.23
  -5   3   2   74.67    3.14
   4  -3  -2   83.96    3.07
  -4   3   2   81.07    3.02
  -4   3   2   79.96    2.96
   3  -3  -2  143.78    4.07
  -3   3   2  139.21    3.96
  -3   3   2  134.43    3.91
   2  -3  -2  159.24    4.22
   2  -3  -2  163.29    3.74
  -2   3   2  156.85    4.14
  -2   3   2  156.95    4.14
   1  -3  -2   83.57    2.43
   1  -3  -2   82.90    2.31
  -1   3   2   81.92    2.48
  -1   3   2   84.94    2.36
   0  -3  -2  199.50    4.70
   0   3   2  195.93    4.77
   0   3   2  197.67    4.89
  -1  -3  -2  208.48    4.94
   1   3   2  203.67    5.02
   1   3   2  206.07    4.57
   1   3   2  203.55    5.09
  -2  -3  -2   81.45    2.77
  -2  -3  -2   82.70    2.60
   2   3   2   81.54    2.67
  -3  -3  -2   60.82    2.57
  -3  -3  -2   62.96    2.27
   3   3   2   60.33    2.46
  -4  -3  -2   75.85    3.28
  -4  -3  -2   82.11    2.77
   4   3   2   79.47    3.23
  -5  -3  -2   46.02    2.91
   5   3   2   49.91    2.87
  -6  -3  -2   47.56    3.32
   6   3   2   46.45    3.19
  -7   4   2   21.34    2.46
   6  -4  -2   39.35    2.72
  -6   4   2   39.31    2.75
  -6   4   2   41.09    2.79
   5  -4  -2   87.78    3.63
  -5   4   2   87.09    3.48
  -5   4   2   92.39    3.63
   4  -4  -2   50.51    2.49
  -4   4   2   54.79    2.44
  -4   4   2   56.05    2.57
   3  -4  -2  137.43    4.11
  -3   4   2  133.40    4.06
  -3   4   2  139.38    3.91
   2  -4  -2   97.71    2.63
   2  -4  -2   90.59    2.97
  -2   4   2   92.75    2.72
  -2   4   2   93.14    3.04
   1  -4  -2  110.39    3.18
   1  -4  -2  111.40    3.04
  -1   4   2  108.48    3.24
  -1   4   2  108.10    2.92
   0  -4  -2   70.83    2.32
   0  -4  -2   70.59    2.19
   0   4   2   70.46    2.41
   0   4   2   69.31    2.18
  -1  -4  -2  108.46    3.14
   1   4   2  107.33    2.92
   1   4   2  101.07    2.99
   1   4   2  102.14    3.19
  -2  -4  -2  110.58    3.37
   2   4   2  112.75    3.42
  -3  -4  -2   72.74    2.69
  -3  -4  -2   73.31    3.01
   3   4   2   69.60    2.81
  -4  -4  -2   64.47    2.70
  -4  -4  -2   67.60    3.23
   4   4   2   66.63    3.03
  -5  -4  -2   85.95    4.03
   5   4   2   81.98    3.82
   6   4   2   16.31    2.26
   6  -5  -2   55.99    3.25
  -6   5   2   60.62    3.42
   5  -5  -2   11.25    1.68
  -5   5   2   11.51    1.41
  -5   5   2    8.62    1.49
   4  -5  -2   77.44    3.17
  -4   5   2   73.70    3.14
  -4   5   2   73.60    2.89
   3  -5  -2   94.31    2.71
   3  -5  -2   93.39    3.36
  -3   5   2   93.35    2.96
  -3   5   2   92.22    3.36
   2  -5  -2   85.84    2.65
   2  -5  -2   87.29    3.06
  -2   5   2   81.98    2.54
  -2   5   2   88.35    3.11
   1  -5  -2   85.12    2.74
   1  -5  -2   88.04    2.90
  -1   5   2   88.06    2.46
  -1   5   2   89.30    3.02
   0  -5  -2   80.34    2.68
   0  -5  -2   83.09    2.64
   0   5   2   79.75    2.81
   0   5   2   76.24    2.38
  -1  -5  -2   92.12    3.03
   1   5   2   89.42    2.82
   1   5   2   91.69    3.17
  -2  -5  -2   70.79    2.68
   2   5   2   63.27    2.44
   2   5   2   65.50    2.78
   2   5   2   69.10    2.55
  -3  -5  -2   85.71    3.24
   3   5   2   91.53    3.26
   3   5   2   89.63    3.56
   3   5   2   92.70    3.35
  -4  -5  -2   86.11    3.31
   4   5   2   79.19    3.48
   6  -6  -2   18.18    2.35
  -6   6   2   16.19    2.16
   5  -6  -2   32.64    2.50
  -5   6   2   26.92    2.47
   4  -6  -2   50.65    2.76
  -4   6   2   43.92    2.76
   3  -6  -2   68.11    3.05
   3  -6  -2   67.64    2.42
  -3   6   2   69.09    3.08
   2  -6  -2   96.57    3.50
   2  -6  -2  100.98    3.17
  -2   6   2   97.42    3.59
   1  -6  -2   61.89    2.43
   1  -6  -2   63.80    2.60
  -1   6   2   63.26    2.72
   0  -6  -2   85.85    3.04
   0  -6  -2   90.26    3.04
   0   6   2   83.86    3.19
  -1  -6  -2   64.04    2.62
   1   6   2   61.64    2.75
  -2  -6  -2   55.59    2.60
   2   6   2   53.23    2.75
  -3  -6  -2   68.79    3.08
   3   6   2   75.87    3.46
   3   6   2   68.82    3.06
  -4  -6  -2   44.02    2.60
   4   6   2   44.59    2.81
   4   6   2   44.42    3.09
   5  -7  -2   33.08    2.76
  -5   7   2   38.33    2.92
   4  -7  -2   32.18    2.52
  -4   7   2   34.86    2.70
   3  -7  -2   50.63    2.81
  -3   7   2   50.27    2.89
   2  -7  -2   80.19    3.39
   2  -7  -2   80.98    3.02
  -2   7   2   84.58    3.54
   1  -7  -2   27.44    1.91
   1  -7  -2   30.95    2.07
  -1   7   2   32.70    2.21
   0  -7  -2   83.44    3.26
   0   7   2   84.90    3.41
  -1  -7  -2   67.81    3.01
   1   7   2   64.97    3.06
  -2  -7  -2   43.40    2.50
   2   7   2   31.26    2.48
  -3  -7  -2   28.56    2.34
   3   7   2   29.17    2.68
  -4  -7  -2   41.60    2.82
   4  -8  -2   18.73    2.35
  -4   8   2   16.65    2.23
   3  -8  -2   44.15    2.88
  -3   8   2   44.21    2.95
   2  -8  -2   30.67    2.10
   2  -8  -2   27.14    2.31
  -2   8   2   30.84    2.63
   1  -8  -2   59.42    2.95
   1  -8  -2   58.08    3.07
  -1   8   2   65.45    3.25
   0  -8  -2   59.43    2.98
   0   8   2   55.81    3.12
  -1  -8  -2   41.51    2.66
   1   8   2   41.30    2.79
  -2  -8  -2   34.73    2.51
   2   8   2   26.85    2.61
   4  -9  -2   31.82    3.31
   3  -9  -2   17.78    2.35
  -3   9   2   24.30    2.64
   2  -9  -2   32.31    2.41
   2  -9  -2   27.06    2.67
  -2   9   2   25.61    2.69
   1  -9  -2   44.28    2.84
  -1   9   2   38.24    3.03
   0  -9  -2   32.42    2.59
   0   9   2   25.63    2.60
  -1  -9  -2   33.82    2.77
   1   9   2   34.94    2.90
   2 -10  -2   15.63    2.06
   1  10  -3    6.21    1.75
   0  10  -3   11.43    1.99
   0 -10   3    5.58    1.74
  -1  10  -3   10.57    2.05
   1 -10   3   12.24    2.05
  -2  10  -3    7.35    1.77
  -2  10  -3    8.95    1.65
   2 -10   3    8.46    1.90
  -3  10  -3    3.08    1.66
   3 -10   3    4.42    1.63
   2   9  -3   18.87    2.18
  -2  -9   3   15.40    2.04
   1   9  -3    4.58    1.47
  -1  -9   3    7.73    1.65
  -1  -9   3    4.32    1.53
   0   9  -3    5.76    1.54
   0  -9   3   10.56    1.70
   0  -9   3    7.07    1.66
  -1   9  -3    9.61    1.77
   1  -9   3    9.20    1.74
  -2   9  -3    8.90    1.59
  -2   9  -3    8.18    1.46
   2  -9   3    7.22    1.64
  -3   9  -3    7.43    1.69
   3  -9   3    5.89    1.61
  -4   9  -3    8.99    1.83
   4  -9   3    8.97    1.91
   3   8  -3    8.17    1.80
   2   8  -3    8.09    1.53
  -2  -8   3   10.64    1.63
  -2  -8   3   11.11    1.73
   1   8  -3    8.63    1.52
  -1  -8   3   10.42    1.78
  -1  -8   3   13.80    1.83
   0   8  -3   17.99    1.81
   0  -8   3   13.87    1.67
   0  -8   3   16.18    1.89
  -1   8  -3   12.50    1.62
   1  -8   3   13.17    1.73
  -2   8  -3   12.37    1.45
  -2   8  -3   14.19    1.71
   2  -8   3   13.19    1.72
  -3   8  -3    9.87    1.58
   3  -8   3   12.62    1.78
  -4   8  -3   24.76    2.24
   4  -8   3   19.42    2.20
  -5   8  -3    8.37    1.65
   5  -8   3    9.06    1.91
   3   7  -3    4.91    1.31
  -3  -7   3    5.36    1.30
  -3  -7   3    6.06    1.47
   2   7  -3   11.51    1.47
  -2  -7   3    6.68    1.28
  -2  -7   3    6.11    1.37
   1   7  -3   46.37    2.36
  -1  -7   3   50.63    2.64
  -1  -7   3   47.83    2.40
   0   7  -3   31.95    1.93
   0  -7   3   26.74    1.88
   0  -7   3   31.28    2.07
  -1   7  -3    8.53    1.28
   1  -7   3    5.54    1.13
  -2   7  -3   23.98    1.59
  -2   7  -3   20.79    1.85
   2  -7   3   23.63    1.84
  -3   7  -3   13.76    1.60
  -3   7  -3   16.11    1.40
   3  -7   3   17.75    1.88
  -4   7  -3    7.96    1.52
   4  -7   3   11.31    1.65
  -5   7  -3    9.90    1.68
   5  -7   3    9.13    1.66
  -6   7  -3   11.54    1.96
   6  -7   3    4.31    1.59
   4   6  -3   13.92    1.75
   4   6  -3   11.09    1.43
   3   6  -3   20.93    1.73
  -3  -6   3   20.16    1.85
  -3  -6   3   14.95    1.80
   2   6  -3   37.82    2.04
  -2  -6   3   37.33    2.27
  -2  -6   3   42.96    2.18
   1   6  -3   23.50    1.56
  -1  -6   3   23.27    1.76
  -1  -6   3   18.92    1.52
   0   6  -3   22.80    1.48
   0  -6   3   21.88    1.50
   0  -6   3   23.28    1.65
  -1   6  -3   29.74    1.73
   1  -6   3   28.43    1.79
  -2   6  -3   12.15    1.28
  -2   6  -3   12.49    1.13
   2  -6   3   11.46    1.35
  -3   6  -3    9.35    0.96
  -3   6  -3    8.22    1.26
   3  -6   3    8.02    1.23
  -4   6  -3   15.12    1.69
   4  -6   3   14.65    1.73
  -5   6  -3   12.69    1.78
   5  -6   3   15.01    1.90
  -6   6  -3   10.70    1.82
   6  -6   3    6.37    1.56
   5   5  -3   33.51    2.51
   3   5  -3   47.31    2.19
   3   5  -3   44.71    1.97
  -3  -5   3   47.45    2.48
  -3  -5   3   48.09    2.27
  -3  -5   3   44.91    2.22
   2   5  -3    8.48    1.05
  -2  -5   3    5.82    0.88
  -2  -5   3    6.83    1.01
  -2  -5   3    5.75    1.09
   1   5  -3   11.85    1.08
  -1  -5   3   13.74    1.25
  -1  -5   3   12.89    1.31
   0   5  -3   30.28    1.44
   0  -5   3   29.22    1.63
   0  -5   3   30.96    1.54
  -1   5  -3   43.56    1.83
   1  -5   3   42.81    1.92
  -2   5  -3   11.68    1.13
  -2   5  -3   10.53    0.92
   2  -5   3   11.60    1.20
   2  -5   3   10.13    0.77
  -3   5  -3   22.46    1.21
  -3   5  -3   25.14    1.61
   3  -5   3   24.34    1.31
   3  -5   3   24.41    1.65
  -4   5  -3   20.79    1.75
   4  -5   3   22.09    1.51
   4  -5   3   21.78    1.69
  -5   5  -3    5.03    1.30
   5  -5   3    5.75    1.12
   5  -5   3    6.45    1.30
  -6   5  -3   17.70    2.14
   6  -5   3   17.28    1.96
   6  -5   3   16.01    1.94
   7  -5   3   16.18    2.20
   6   4  -3   20.28    2.21
   5   4  -3   20.07    1.93
  -5  -4   3   14.99    1.86
   4   4  -3   34.36    1.84
   4   4  -3   30.36    1.95
  -4  -4   3   34.84    2.00
  -4  -4   3   26.23    2.09
  -3  -4   3    8.00    1.14
  -3  -4   3    8.70    1.10
   2   4  -3   14.51    1.05
   2   4  -3   15.89    0.96
  -2  -4   3   14.70    1.20
  -2  -4   3   17.66    1.24
  -2  -4   3   15.31    1.40
   1   4  -3   17.18    0.99
  -1  -4   3   15.31    1.12
  -1  -4   3   16.51    1.23
  -1  -4   3   15.85    0.91
   0   4  -3   25.89    1.15
   0  -4   3   26.45    1.37
  -1   4  -3   64.34    2.05
  -1   4  -3   65.24    2.03
   1  -4   3   65.96    2.24
  -2   4  -3   36.73    1.39
  -2   4  -3   34.53    1.59
   2  -4   3   36.57    1.36
   2  -4   3   37.49    1.66
  -3   4  -3   29.85    1.23
  -3   4  -3   31.52    1.66
   3  -4   3   29.06    1.61
   3  -4   3   30.42    1.46
  -4   4  -3    5.82    1.05
   4  -4   3    5.71    0.92
   4  -4   3    4.95    0.98
  -5   4  -3   27.16    2.14
   5  -4   3   27.80    1.92
   5  -4   3   25.26    1.89
  -6   4  -3   11.51    1.87
   6  -4   3    8.86    1.53
   6  -4   3   10.94    1.64
   7  -4   3    6.91    1.56
   5   3  -3   13.24    1.62
  -5  -3   3   11.19    1.64
  -5  -3   3    9.16    1.42
   4   3  -3   36.09    2.00
   4   3  -3   37.29    1.71
  -4  -3   3   39.77    2.20
  -4  -3   3   35.07    1.91
   3   3  -3    7.91    0.82
  -3  -3   3    9.61    1.00
  -3  -3   3   10.30    1.18
  -3  -3   3    7.34    1.04
  -2  -3   3   26.69    1.34
  -2  -3   3   25.17    1.19
  -2  -3   3   25.70    1.45
   1   3  -3   91.24    2.58
  -1  -3   3   94.64    2.80
  -1  -3   3   95.34    2.62
   0   3  -3   14.56    0.89
   0   3  -3   14.80    0.75
   0  -3   3   13.75    0.74
   0  -3   3   14.53    0.97
  -1   3  -3   19.52    0.96
  -1   3  -3   19.35    0.98
   1  -3   3   20.62    1.09
   1  -3   3   17.80    0.91
  -2   3  -3   74.26    2.12
  -2   3  -3   78.54    2.38
   2  -3   3   78.84    2.33
   2  -3   3   79.41    2.44
  -3   3  -3   16.94    1.25
   3  -3   3   18.10    1.20
   3  -3   3   15.80    1.14
  -4   3  -3   22.08    1.64
   4  -3   3   22.72    1.46
   4  -3   3   23.99    1.55
  -5   3  -3   23.04    2.01
   5  -3   3   20.21    1.60
   5  -3   3   22.20    1.76
  -6   3  -3    7.19    1.60
   6  -3   3    6.66    1.38
   6  -3   3    6.18    1.23
  -7   3  -3   10.35    2.09
   7  -3   3   10.00    1.82
   6   2  -3    5.37    1.25
  -6  -2   3    2.96    1.33
   5   2  -3   15.07    1.61
  -5  -2   3   13.66    1.50
  -5  -2   3   13.29    1.63
   4   2  -3   27.59    1.76
   4   2  -3   29.09    1.36
  -4  -2   3   29.13    1.90
  -4  -2   3   25.82    1.61
   3   2  -3   25.58    1.46
   3   2  -3   27.66    1.19
  -3  -2   3   25.43    1.29
  -3  -2   3   22.73    1.46
   2   2  -3  100.22    2.60
  -2  -2   3   99.74    2.95
  -2  -2   3   96.90    2.94
   1   2  -3   42.04    1.41
  -1  -2   3   41.73    1.48
  -1  -2   3   42.57    1.58
   0   2  -3   20.56    0.94
   0  -2   3   20.16    0.98
   0  -2   3   19.99    1.00
  -1   2  -3    3.67    0.50
  -1   2  -3    3.07    0.47
   1  -2   3    2.84    0.47
   1  -2   3    3.20    0.50
  -2   2  -3   75.74    2.14
  -2   2  -3   82.25    2.33
   2  -2   3   82.61    2.31
   2  -2   3   77.41    2.39
  -3   2  -3   36.01    1.64
   3  -2   3   35.74    1.49
   3  -2   3   35.93    1.64
  -4   2  -3   25.41    1.70
   4  -2   3   22.78    1.55
   4  -2   3   24.50    1.41
  -5   2  -3   16.46    1.76
   5  -2   3   15.09    1.64
   5  -2   3   15.45    1.45
  -6   2  -3   11.24    1.80
   6  -2   3    7.86    1.43
  -7   2  -3   12.94    2.13
   7  -2   3   11.18    1.87
   7   1  -3   13.69    2.03
   6   1  -3   10.27    1.59
  -6  -1   3   11.22    1.63
  -6  -1   3   12.55    1.85
   5   1  -3   13.32    1.55
  -5  -1   3   12.81    1.48
  -5  -1   3    8.52    1.34
   4   1  -3   29.00    1.74
  -4  -1   3   33.48    1.68
  -4  -1   3   31.00    1.90
   3   1  -3   71.09    2.46
   3   1  -3   68.37    1.93
  -3  -1   3   76.70    2.58
  -3  -1   3   66.66    2.15
   2   1  -3   24.35    0.95
  -2  -1   3   22.92    1.21
   1   1  -3   66.98    1.81
  -1  -1   3   65.36    2.02
  -1  -1   3   65.49    1.98
   0   1  -3   50.38    1.52
   0  -1   3   51.61    1.50
   0  -1   3   49.99    1.71
  -1   1  -3    9.67    0.64
  -1   1  -3    9.90    0.76
   1  -1   3    8.70    0.73
   1  -1   3    9.89    0.61
  -2   1  -3   21.83    1.10
  -2   1  -3   21.05    1.04
   2  -1   3   22.29    1.15
  -3   1  -3   63.14    2.25
   3  -1   3   61.28    2.28
  -4   1  -3   29.27    1.74
   4  -1   3   28.75    1.70
   4  -1   3   28.69    1.39
  -5   1  -3    4.37    1.17
   5  -1   3    3.43    0.95
   5  -1   3    3.59    0.84
  -6   1  -3   40.20    2.73
   6  -1   3   31.80    2.43
   7   0  -3    4.91    1.52
  -7   0   3    4.94    1.73
   6   0  -3   12.70    1.76
  -6   0   3   13.77    1.75
  -6   0   3   12.49    1.77
   5   0  -3   40.32    2.30
  -5   0   3   47.26    2.27
  -5   0   3   41.30    2.38
   4   0  -3   15.56    1.39
  -4   0   3   15.01    1.34
  -4   0   3   17.41    1.34
   3   0  -3   15.99    1.13
  -3   0   3   15.08    1.17
  -3   0   3   17.29    1.02
   2   0  -3   37.94    1.51
   2   0  -3   39.04    1.22
  -2   0   3   38.87    1.57
   1   0  -3   76.69    2.05
   1   0  -3   78.15    2.16
  -1   0   3   80.16    2.33
   0   0  -3   28.00    1.11
   0   0   3   28.21    1.29
   0   0   3   29.34    0.94
  -1   0  -3   20.81    0.93
  -1   0  -3   20.81    1.01
   1   0   3   19.56    1.02
  -2   0  -3   42.77    1.52
  -2   0  -3   44.78    1.64
   2   0   3   44.91    1.72
  -3   0  -3   30.62    1.27
  -3   0  -3   31.45    1.57
   3   0   3   27.45    1.53
  -4   0  -3   12.94    0.95
  -4   0  -3   15.01    1.47
   4   0   3   12.50    1.38
  -5   0  -3   50.44    2.68
   5   0   3   46.10    2.55
  -6   0  -3   22.54    2.42
   6   0   3   20.18    2.25
   7  -1  -3   14.92    2.15
  -7   1   3   16.97    2.21
   6  -1  -3   15.65    1.92
  -6   1   3   16.99    1.91
  -6   1   3   17.51    1.88
   5  -1  -3   30.50    2.06
  -5   1   3   30.39    2.15
  -5   1   3   32.61    2.00
   4  -1  -3   20.17    1.49
  -4   1   3   16.74    1.42
  -4   1   3   20.97    1.41
   3  -1  -3    3.42    0.70
  -3   1   3    3.69    0.65
  -3   1   3    3.19    0.68
   2  -1  -3   26.49    0.97
   2  -1  -3   27.69    1.28
  -2   1   3   24.34    1.26
  -2   1   3   27.19    1.14
   1  -1  -3   93.46    2.53
   1  -1  -3   95.28    2.43
  -1   1   3   98.30    2.75
   0  -1  -3   33.82    1.25
   0   1   3   32.85    1.40
   0   1   3   31.39    1.01
   0   1   3   31.30    1.13
  -1  -1  -3   83.68    2.40
  -1  -1  -3   88.67    2.43
   1   1   3   87.61    2.56
  -2  -1  -3   27.35    1.36
  -2  -1  -3   26.92    1.27
   2   1   3   27.24    1.39
  -3  -1  -3   11.56    1.19
  -3  -1  -3   11.95    0.99
   3   1   3   12.67    1.16
  -4  -1  -3   38.07    2.09
  -4  -1  -3   34.95    1.60
   4   1   3   34.85    2.03
  -5  -1  -3   35.12    2.38
   5   1   3   33.05    2.28
  -6  -1  -3    7.76    1.76
   6   1   3    6.89    1.54
   7  -2  -3   10.39    1.91
  -7   2   3    9.48    1.89
  -7   2   3   10.59    1.81
   6  -2  -3    7.16    1.55
  -6   2   3   10.68    1.62
  -6   2   3    9.77    1.60
   5  -2  -3   31.61    2.14
  -5   2   3   33.83    2.27
  -5   2   3   28.55    1.98
   4  -2  -3   22.86    1.67
  -4   2   3   24.37    1.63
  -4   2   3   21.93    1.56
   3  -2  -3    2.82    0.71
  -3   2   3    2.82    0.68
  -3   2   3    3.19    0.70
   2  -2  -3   24.53    1.28
   2  -2  -3   23.87    0.98
  -2   2   3   23.47    1.23
  -2   2   3   24.07    1.25
   1  -2  -3  214.76    5.02
   1  -2  -3  210.21    4.84
  -1   2   3  209.57    4.88
  -1   2   3  213.99    5.29
   0  -2  -3   22.87    1.10
   0   2   3   22.15    1.17
   0   2   3   21.94    1.08
  -1  -2  -3   36.19    1.49
  -1  -2  -3   37.36    1.54
   1   2   3   35.13    1.50
  -2  -2  -3   60.82    2.09
  -2  -2  -3   60.31    2.23
   2   2   3   61.25    2.25
  -3  -2  -3   17.79    1.47
  -3  -2  -3   16.49    1.20
   3   2   3   18.54    1.44
  -4  -2  -3    8.72    1.38
  -4  -2  -3    8.11    1.02
   4   2   3    8.70    1.31
  -5  -2  -3   20.76    2.22
   5   2   3   20.00    2.12
  -6  -2  -3   11.18    1.97
   6   2   3    9.76    1.83
   7  -3  -3    6.35    1.70
  -7   3   3    8.80    1.90
  -7   3   3    6.55    1.70
   6  -3  -3    8.58    1.66
  -6   3   3   10.25    1.64
  -6   3   3    8.11    1.61
   5  -3  -3   15.43    1.77
  -5   3   3   10.81    1.51
  -5   3   3   15.00    1.72
   4  -3  -3   50.74    2.39
  -4   3   3   50.41    2.33
  -4   3   3   52.16    2.40
   3  -3  -3   18.02    1.35
  -3   3   3   15.89    1.26
  -3   3   3   18.60    1.42
   2  -3  -3   69.79    2.40
   2  -3  -3   70.16    2.05
  -2   3   3   67.97    2.31
  -2   3   3   71.17    2.44
   1  -3  -3   29.59    1.29
   1  -3  -3   28.97    1.26
  -1   3   3   29.64    1.31
  -1   3   3   25.91    1.37
   0  -3  -3   27.44    1.30
   0   3   3   25.60    1.33
   0   3   3   26.25    1.32
  -1  -3  -3   19.16    1.18
   1   3   3   18.91    1.22
   1   3   3   19.86    1.18
   1   3   3   18.74    1.13
  -2  -3  -3   36.46    1.69
  -2  -3  -3   35.85    1.84
   2   3   3   38.90    1.80
  -3  -3  -3   23.34    1.53
  -3  -3  -3   26.30    1.83
   3   3   3   23.27    1.72
  -4  -3  -3    6.10    1.42
  -4  -3  -3    5.10    0.99
   4   3   3    7.05    1.26
  -5  -3  -3   24.38    2.48
   5   3   3   22.79    2.32
  -6  -3  -3   25.97    2.84
   6   3   3   31.49    3.03
  -7   4   3    4.92    1.64
  -7   4   3    2.15    1.41
   6  -4  -3   11.70    1.87
  -6   4   3   11.35    1.67
  -6   4   3   11.64    1.83
   5  -4  -3   25.20    2.17
  -5   4   3   27.29    2.19
  -5   4   3   31.41    2.28
   4  -4  -3   38.50    2.22
  -4   4   3   36.64    2.23
  -4   4   3   36.17    2.04
   3  -4  -3   35.34    1.95
   3  -4  -3   35.56    1.42
  -3   4   3   35.71    1.79
  -3   4   3   35.55    2.00
   2  -4  -3   15.95    1.24
   2  -4  -3   12.84    1.00
  -2   4   3   15.80    1.07
  -2   4   3   14.95    1.36
   1  -4  -3   11.11    0.96
   1  -4  -3    9.77    0.97
  -1   4   3    9.46    0.82
  -1   4   3    9.93    1.08
   0  -4  -3   15.74    1.13
   0   4   3   16.53    1.24
   0   4   3   14.96    1.07
  -1  -4  -3   11.90    1.12
   1   4   3   14.39    1.24
   1   4   3   13.29    1.11
   1   4   3   14.50    1.15
  -2  -4  -3   55.54    2.29
   2   4   3   52.23    2.24
  -3  -4  -3   30.26    1.80
  -3  -4  -3   34.39    2.17
   3   4   3   29.39    1.93
  -4  -4  -3   11.58    1.77
  -4  -4  -3    9.71    1.33
   4   4   3   11.80    1.61
  -5  -4  -3   21.07    2.44
   5   4   3   18.72    2.23
   6  -5  -3   15.00    2.07
  -6   5   3   12.41    1.95
   5  -5  -3   20.89    2.15
  -5   5   3   19.43    1.85
  -5   5   3   22.08    2.18
   4  -5  -3   16.03    1.77
  -4   5   3   13.59    1.40
  -4   5   3   14.74    1.75
   3  -5  -3    9.91    1.36
   3  -5  -3   10.99    0.98
  -3   5   3    9.71    1.40
  -3   5   3    9.55    1.04
   2  -5  -3   20.06    1.57
   2  -5  -3   24.97    1.43
  -2   5   3   24.44    1.28
  -2   5   3   21.50    1.72
   1  -5  -3   11.05    1.16
   1  -5  -3   11.26    1.10
  -1   5   3   10.96    0.91
  -1   5   3    9.37    1.20
   0  -5  -3   25.30    1.57
   0   5   3   26.37    1.64
   0   5   3   29.00    1.45
  -1  -5  -3   25.32    1.61
   1   5   3   25.79    1.73
   1   5   3   25.28    1.54
  -2  -5  -3   51.49    2.36
   2   5   3   52.22    2.53
   2   5   3   54.18    2.32
   2   5   3   49.94    2.27
  -3  -5  -3   11.97    1.50
   3   5   3   13.46    1.70
   3   5   3    7.95    1.25
   3   5   3   11.89    1.43
  -4  -5  -3   16.08    1.76
   4   5   3   18.29    1.98
   6  -6  -3    3.85    1.63
  -6   6   3    3.92    1.59
   5  -6  -3   17.13    2.13
  -5   6   3   14.96    2.00
   4  -6  -3    8.16    1.60
  -4   6   3   10.81    1.68
   3  -6  -3    5.54    1.23
  -3   6   3    6.83    1.40
   2  -6  -3   33.44    2.07
   2  -6  -3   34.10    1.82
  -2   6   3   28.89    2.11
   1  -6  -3   78.97    2.91
   1  -6  -3   79.31    2.99
  -1   6   3   85.07    3.24
   0  -6  -3    3.60    0.97
   0   6   3    5.89    1.18
  -1  -6  -3   28.10    1.86
   1   6   3   27.84    1.98
  -2  -6  -3   14.23    1.60
   2   6   3   17.22    1.86
  -3  -6  -3    9.32    1.48
   3   6   3   10.35    1.71
   3   6   3   10.06    1.52
  -4  -6  -3   10.86    1.62
   4   6   3    7.86    1.83
   4   6   3   13.13    1.80
   5  -7  -3   13.71    2.05
  -5   7   3   10.91    1.95
   4  -7  -3    6.45    1.61
  -4   7   3    4.72    1.50
   3  -7  -3   13.98    1.79
  -3   7   3   16.58    2.03
   2  -7  -3   50.84    2.75
   2  -7  -3   53.14    2.48
  -2   7   3   53.54    2.95
   1  -7  -3   17.08    1.62
   1  -7  -3   18.39    1.83
  -1   7   3   17.89    1.83
   0  -7  -3    5.10    1.16
   0   7   3    5.93    1.30
  -1  -7  -3    4.62    1.21
   1   7   3    5.47    1.35
  -2  -7  -3   12.84    1.65
   2   7   3   11.50    1.77
  -3  -7  -3   12.31    1.81
   3   7   3    9.87    1.86
   4  -8  -3   15.57    2.18
  -4   8   3   13.36    2.16
   3  -8  -3   13.58    2.02
  -3   8   3   12.09    1.96
   2  -8  -3    4.96    1.37
   2  -8  -3    2.49    1.08
  -2   8   3    4.79    1.54
   1  -8  -3   19.49    2.02
  -1   8   3   14.86    1.94
   0  -8  -3    9.83    1.58
   0   8   3    9.80    1.69
  -1  -8  -3    7.18    1.39
   1   8   3    9.98    1.72
  -2  -8  -3   12.30    1.87
   2   8   3   13.44    2.05
   3  -9  -3    4.89    1.60
   2  -9  -3    7.92    1.56
  -2   9   3    8.62    1.98
   1  -9  -3   12.36    1.89
  -1   9   3   12.50    2.10
   0  -9  -3   13.88    1.92
   0   9   3    8.58    1.83
  -1 -10   4   33.85    3.24
   0  10  -4   11.29    1.86
   0  10  -4   14.97    2.16
   0 -10   4   16.65    2.41
  -1  10  -4   22.28    2.20
  -1  10  -4   19.37    2.29
   1 -10   4   23.78    2.68
  -2  10  -4   37.14    2.68
  -2  10  -4   38.80    2.93
   2 -10   4   27.67    2.87
  -3  10  -4   13.10    2.08
   3 -10   4   14.98    2.37
  -2  -9   4   33.82    3.03
   1   9  -4   42.38    2.75
  -1  -9   4   42.31    3.04
   0   9  -4   24.94    2.28
   0   9  -4   24.27    2.27
   0  -9   4   24.00    2.49
  -1   9  -4   24.09    2.10
  -1   9  -4   22.97    2.17
   1  -9   4   25.97    2.49
  -2   9  -4   34.23    2.38
  -2   9  -4   32.60    2.53
   2  -9   4   30.64    2.52
  -3   9  -4   43.13    2.85
   3  -9   4   40.14    2.86
  -4   9  -4   16.78    2.12
   4  -9   4   18.99    2.39
   3   8  -4   41.52    2.95
   2   8  -4   33.01    2.38
  -2  -8   4   36.87    2.78
   1   8  -4   42.01    2.48
  -1  -8   4   44.28    2.78
   0   8  -4   49.34    2.62
   0  -8   4   47.33    2.81
  -1   8  -4   21.88    1.94
  -1   8  -4   25.27    1.98
   1  -8   4   26.26    2.18
  -2   8  -4   68.79    3.01
  -2   8  -4   69.83    2.84
   2  -8   4   64.87    3.18
  -3   8  -4   49.54    2.41
  -3   8  -4   53.78    2.83
   3  -8   4   40.94    2.68
  -4   8  -4   20.93    2.13
   4  -8   4   20.29    2.32
  -5   8  -4   24.37    2.41
   5  -8   4   23.64    2.58
   4   7  -4   42.04    2.82
   3   7  -4   37.21    2.56
  -3  -7   4   32.90    2.62
   2   7  -4   30.02    2.00
  -2  -7   4   30.32    2.33
   1   7  -4  124.74    3.93
  -1  -7   4  122.60    4.35
   0   7  -4   48.59    2.29
   0  -7   4   44.31    2.46
  -1   7  -4   78.17    2.95
  -1   7  -4   75.00    2.81
   1  -7   4   73.58    3.14
  -2   7  -4   58.98    2.37
  -2   7  -4   54.38    2.53
   2  -7   4   55.13    2.68
  -3   7  -4   36.66    2.19
  -3   7  -4   38.03    1.90
   3  -7   4   34.90    2.29
  -4   7  -4   28.80    2.26
   4  -7   4   28.56    2.21
  -5   7  -4   33.06    2.59
   5  -7   4   27.83    2.40
   6  -7   4   14.44    2.17
   4   6  -4   41.58    2.52
   3   6  -4   20.05    1.83
   3   6  -4   18.78    1.67
  -3  -6   4   19.05    2.03
   2   6  -4  136.01    4.04
  -2  -6   4  143.97    4.64
   1   6  -4  109.12    3.25
  -1  -6   4  102.75    3.69
   0   6  -4   68.66    2.42
   0   6  -4   63.98    2.47
   0  -6   4   69.48    2.78
  -1   6  -4   79.84    2.72
  -1   6  -4   74.78    2.64
   1  -6   4   78.49    2.93
  -2   6  -4   55.27    2.15
  -2   6  -4   57.60    2.35
   2  -6   4   57.69    2.53
  -3   6  -4   23.42    1.75
  -3   6  -4   26.09    1.44
   3  -6   4   21.35    1.74
  -4   6  -4   42.38    2.38
   4  -6   4   41.91    2.37
  -5   6  -4   48.41    2.80
   5  -6   4   44.58    2.66
  -6   6  -4   31.57    2.76
   6  -6   4   27.74    2.41
   5   5  -4   53.92    3.02
   4   5  -4   77.71    3.07
  -4  -5   4   78.04    3.47
   3   5  -4   50.34    1.99
   3   5  -4   52.77    2.24
   3   5  -4   57.38    2.44
  -3  -5   4   48.38    2.65
  -3  -5   4   63.21    2.53
   2   5  -4   92.47    3.10
   2   5  -4   96.77    2.94
  -2  -5   4   91.08    3.37
  -2  -5   4   93.85    3.10
   1   5  -4   93.92    2.73
  -1  -5   4   90.33    2.70
  -1  -5   4   96.37    3.25
   0   5  -4   75.92    2.52
   0   5  -4   80.02    2.40
   0  -5   4   77.91    2.76
  -1   5  -4   62.30    2.19
  -1   5  -4   66.03    2.18
   1  -5   4   64.93    2.43
  -2   5  -4   67.11    2.44
  -2   5  -4   71.54    2.30
   2  -5   4   75.19    2.69
   2  -5   4   69.86    2.25
  -3   5  -4   96.86    2.82
  -3   5  -4   94.63    3.18
   3  -5   4   95.42    3.00
   3  -5   4   99.36    3.34
  -4   5  -4   41.33    2.32
   4  -5   4   39.33    2.20
   4  -5   4   48.90    2.17
  -5   5  -4   66.15    3.10
   5  -5   4   56.05    2.80
   5  -5   4   64.27    2.85
  -6   5  -4   41.96    2.82
   6  -5   4   32.38    2.40
   6  -5   4   39.80    2.66
   5   4  -4   71.68    3.31
  -5  -4   4   69.36    3.57
   4   4  -4   77.55    2.75
  -4  -4   4   70.29    3.13
   3   4  -4   55.51    2.20
  -3  -4   4   58.00    2.55
  -3  -4   4   51.00    2.50
   2   4  -4   60.76    2.18
  -2  -4   4   57.95    2.42
  -2  -4   4   55.08    2.16
   1   4  -4  122.24    3.34
  -1  -4   4  115.90    3.58
  -1  -4   4  121.55    3.32
   0   4  -4  109.84    3.10
   0  -4   4  116.69    3.35
   0  -4   4  115.08    3.00
  -1   4  -4   49.41    1.68
  -1   4  -4   46.95    1.70
   1  -4   4   49.22    1.89
   1  -4   4   41.70    1.67
  -2   4  -4  389.24    8.68
  -2   4  -4  398.44    8.78
   2  -4   4  404.42    9.24
   2  -4   4  399.83    9.30
  -3   4  -4   64.29    2.45
  -3   4  -4   65.85    2.16
   3  -4   4   68.08    2.51
   3  -4   4   67.77    2.42
  -4   4  -4   34.82    2.01
   4  -4   4   32.73    1.87
   4  -4   4   34.17    1.89
  -5   4  -4   41.67    2.50
   5  -4   4   44.22    2.30
   5  -4   4   45.20    2.42
  -6   4  -4   36.78    2.75
   6  -4   4   41.52    2.61
   6  -4   4   32.25    2.29
   7  -4   4   16.00    2.15
   6   3  -4   27.55    2.44
  -6  -3   4   23.38    2.39
   5   3  -4   51.76    2.67
  -5  -3   4   47.35    2.82
   4   3  -4   77.53    3.08
   4   3  -4   74.50    2.51
  -4  -3   4   76.00    3.24
  -4  -3   4   79.64    2.76
   3   3  -4   92.12    2.79
  -3  -3   4   93.58    3.28
  -3  -3   4   96.93    3.27
   2   3  -4   77.77    2.38
  -2  -3   4   77.79    2.70
  -2  -3   4   76.90    2.61
   1   3  -4  198.39    4.73
  -1  -3   4  200.62    5.00
  -1  -3   4  195.14    5.03
   0   3  -4  106.91    2.84
   0  -3   4  106.10    3.00
   0  -3   4  104.09    2.94
  -1   3  -4  298.61    6.47
  -1   3  -4  295.14    6.64
   1  -3   4  307.94    6.92
   1  -3   4  292.33    7.14
  -2   3  -4  151.25    3.82
  -2   3  -4  146.56    3.71
   2  -3   4  153.52    3.94
   2  -3   4  145.43    3.96
  -3   3  -4   68.28    2.16
  -3   3  -4   63.41    2.34
   3  -3   4   65.65    2.30
   3  -3   4   63.32    2.38
  -4   3  -4   41.08    2.09
   4  -3   4   38.95    1.89
   4  -3   4   43.36    2.10
  -5   3  -4   44.69    2.57
   5  -3   4   44.43    2.39
   5  -3   4   38.30    2.10
  -6   3  -4   37.06    2.74
   6  -3   4   39.23    2.59
   7  -3   4   30.52    2.73
   6   2  -4   29.38    2.43
   5   2  -4   72.97    3.20
  -5  -2   4   76.41    3.35
   4   2  -4   91.97    3.32
  -4  -2   4   88.95    2.88
  -4  -2   4   88.51    3.42
   3   2  -4  102.63    2.73
  -3  -2   4   91.73    3.20
   2   2  -4  235.76    5.42
  -2  -2   4  235.59    5.91
  -2  -2   4  241.56    6.08
   1   2  -4  184.99    4.36
  -1  -2   4  185.06    4.74
  -1  -2   4  186.96    4.65
   0   2  -4   78.85    2.27
   0  -2   4   81.93    2.34
   0  -2   4   81.70    2.52
  -1   2  -4  132.37    3.09
  -1   2  -4  129.19    3.30
   1  -2   4  133.04    3.29
   1  -2   4  128.36    3.52
  -2   2  -4   94.42    2.66
  -2   2  -4   93.64    2.65
   2  -2   4   92.29    2.85
   2  -2   4   98.47    2.64
  -3   2  -4   90.75    2.87
   3  -2   4   90.03    2.66
   3  -2   4   90.50    3.00
  -4   2  -4   83.27    3.08
   4  -2   4   82.72    3.08
   4  -2   4   83.14    2.71
  -5   2  -4   49.00    2.64
   5  -2   4   48.79    2.55
  -6   2  -4   68.54    3.46
   6  -2   4   66.85    3.33
   7   1  -4   40.31    2.96
   6   1  -4   32.94    2.49
  -6  -1   4   33.52    2.58
   5   1  -4  107.25    3.91
  -5  -1   4  105.30    3.52
  -5  -1   4   95.36    3.96
   4   1  -4   64.63    2.69
  -4  -1   4   70.34    2.82
  -4  -1   4   63.27    2.32
   3   1  -4  100.86    3.19
   3   1  -4   98.52    2.63
  -3  -1   4  104.56    3.33
   2   1  -4  230.81    5.12
  -2  -1   4  222.82    5.81
   1   1  -4  142.90    3.45
  -1  -1   4  139.10    3.61
  -1  -1   4  139.87    3.82
   0   1  -4   53.24    1.70
   0  -1   4   51.29    1.92
   0  -1   4   51.71    1.60
  -1   1  -4  120.80    2.86
  -1   1  -4  120.91    3.13
   1  -1   4  117.14    3.31
  -2   1  -4  131.37    3.37
  -2   1  -4  127.36    3.41
   2  -1   4  132.01    3.71
  -3   1  -4  175.94    4.55
  -3   1  -4  170.41    4.30
   3  -1   4  174.89    4.89
  -4   1  -4   72.25    2.84
   4  -1   4   74.00    2.89
  -5   1  -4  119.31    4.29
   5  -1   4  125.45    4.38
  -6   1  -4   17.68    2.26
   6  -1   4   24.93    2.38
   7   0  -4   26.60    2.63
   6   0  -4   56.08    3.01
  -6   0   4   51.97    3.04
   5   0  -4   49.39    2.59
  -5   0   4   47.86    2.70
  -5   0   4   48.61    2.31
   4   0  -4   71.38    2.80
  -4   0   4   65.12    2.74
  -4   0   4   70.31    2.46
   3   0  -4   58.96    2.26
  -3   0   4   57.51    2.32
   2   0  -4  164.00    4.27
   2   0  -4  165.19    3.90
  -2   0   4  163.90    4.48
   1   0  -4  345.11    7.42
   1   0  -4  334.45    7.60
  -1   0   4  343.59    8.19
   0   0  -4   95.39    2.62
   0   0   4   95.64    2.91
  -1   0  -4  112.22    2.84
  -1   0  -4  110.11    3.04
   1   0   4  115.58    3.24
  -2   0  -4  347.65    7.79
  -2   0  -4  351.30    7.77
   2   0   4  347.32    8.47
  -3   0  -4   82.45    2.57
  -3   0  -4   87.07    2.85
   3   0   4   85.43    2.99
  -4   0  -4   80.03    2.52
  -4   0  -4   82.08    3.08
   4   0   4   75.60    3.09
  -5   0  -4   62.19    2.99
   5   0   4   54.27    2.83
  -6   0  -4   28.70    2.66
   6   0   4   33.09    2.58
   7  -1  -4   38.57    3.05
   6  -1  -4   39.66    2.70
   5  -1  -4   41.57    2.36
  -5   1   4   37.33    2.36
  -5   1   4   41.79    2.18
   4  -1  -4   85.22    3.09
  -4   1   4   80.07    2.73
  -4   1   4   80.61    3.09
   3  -1  -4   96.88    3.09
  -3   1   4   94.33    3.17
  -3   1   4   94.41    2.74
   2  -1  -4  167.99    3.95
   2  -1  -4  163.80    4.33
  -2   1   4  168.93    4.56
   1  -1  -4  282.45    6.45
   1  -1  -4  280.30    6.32
  -1   1   4  288.14    7.01
   0  -1  -4  173.62    4.29
   0   1   4  178.70    3.68
   0   1   4  178.71    4.73
   0   1   4  175.19    4.06
  -1  -1  -4  174.68    4.37
  -1  -1  -4  183.24    4.29
   1   1   4  168.30    4.62
  -2  -1  -4  138.59    3.80
  -2  -1  -4  143.49    3.77
   2   1   4  138.99    4.04
  -3  -1  -4   54.84    2.09
  -3  -1  -4   56.65    2.32
   3   1   4   56.00    2.41
  -4  -1  -4   56.31    2.15
  -4  -1  -4   58.59    2.65
   4   1   4   53.83    2.65
  -5  -1  -4   75.23    3.39
   5   1   4   70.84    3.36
  -6  -1  -4   42.27    3.10
   6   1   4   43.26    3.00
   7  -2  -4   24.66    2.74
  -7   2   4   20.90    2.62
   6  -2  -4   42.70    2.88
  -6   2   4   45.71    2.83
  -6   2   4   42.70    2.62
   5  -2  -4   69.53    3.17
  -5   2   4   73.95    3.26
  -5   2   4   69.10    2.91
   4  -2  -4  132.11    4.24
  -4   2   4  134.04    3.96
  -4   2   4  131.82    4.29
   3  -2  -4   63.81    2.42
  -3   2   4   59.95    2.41
  -3   2   4   60.23    2.23
   2  -2  -4  157.34    4.24
   2  -2  -4  160.38    3.88
  -2   2   4  158.39    4.43
  -2   2   4  163.32    4.08
   1  -2  -4  122.58    3.31
   1  -2  -4  124.99    3.30
  -1   2   4  129.06    3.30
  -1   2   4  129.62    3.67
   0  -2  -4  191.12    4.69
   0   2   4  188.07    4.55
   0   2   4  191.71    5.08
  -1  -2  -4  119.62    3.35
  -1  -2  -4  119.74    3.33
   1   2   4  117.40    3.50
  -2  -2  -4   84.28    2.86
  -2  -2  -4   87.19    2.77
   2   2   4   85.43    2.90
  -3  -2  -4   72.50    2.84
  -3  -2  -4   71.41    2.55
   3   2   4   73.19    2.89
  -4  -2  -4   70.79    2.65
  -4  -2  -4   68.74    3.09
   4   2   4   69.46    3.14
  -5  -2  -4   52.02    3.08
   5   2   4   55.61    3.12
  -6  -2  -4   78.85    4.05
   6   2   4   70.10    3.96
  -7   3   4   23.64    2.81
   6  -3  -4   52.21    3.04
  -6   3   4   47.00    2.97
  -6   3   4   49.70    2.90
   5  -3  -4  136.61    4.72
  -5   3   4  134.99    4.72
  -5   3   4  134.84    4.48
   4  -3  -4   27.16    1.90
  -4   3   4   25.38    1.82
  -4   3   4   25.31    1.87
   3  -3  -4  101.27    2.72
   3  -3  -4  100.26    3.38
  -3   3   4  104.23    3.32
  -3   3   4  102.65    3.40
   2  -3  -4  107.59    2.93
   2  -3  -4  105.59    3.23
  -2   3   4  109.32    3.27
  -2   3   4  103.14    3.26
   1  -3  -4   78.51    2.48
   1  -3  -4   85.23    2.58
  -1   3   4   81.20    2.62
  -1   3   4   86.24    2.74
   0  -3  -4  124.78    3.51
   0   3   4  127.53    3.72
   0   3   4  123.85    3.51
  -1  -3  -4  156.83    4.21
   1   3   4  155.22    3.85
   1   3   4  155.41    4.22
   1   3   4  153.92    4.39
  -2  -3  -4  115.58    3.43
  -2  -3  -4  105.94    3.51
   2   3   4  107.94    3.56
  -3  -3  -4   59.44    2.73
  -3  -3  -4   56.52    2.38
   3   3   4   57.86    2.65
  -4  -3  -4   61.70    2.69
  -4  -3  -4   69.75    3.26
   4   3   4   71.18    3.19
  -5  -3  -4   72.39    3.74
   5   3   4   72.81    3.66
   6  -4  -4   39.83    2.86
  -6   4   4   44.15    2.87
  -6   4   4   41.09    2.81
   5  -4  -4   38.34    2.58
  -5   4   4   35.57    2.46
  -5   4   4   35.55    2.42
   4  -4  -4   71.25    3.12
  -4   4   4   68.36    3.00
  -4   4   4   68.75    2.88
   3  -4  -4   85.23    2.57
   3  -4  -4   84.82    3.18
  -3   4   4   83.09    3.01
  -3   4   4   87.61    3.19
   2  -4  -4   81.85    2.62
   2  -4  -4   85.64    2.91
  -2   4   4   83.85    2.79
  -2   4   4   83.54    2.98
   1  -4  -4  108.26    3.25
   1  -4  -4  112.07    3.27
  -1   4   4  112.99    3.37
  -1   4   4  108.60    3.41
   0  -4  -4   81.48    2.72
   0   4   4   78.21    2.74
   0   4   4   78.52    2.76
  -1  -4  -4  126.02    3.82
   1   4   4  128.50    3.95
   1   4   4  129.16    3.87
   1   4   4  126.28    3.49
  -2  -4  -4   99.41    3.38
   2   4   4  102.87    3.23
   2   4   4  101.51    3.53
   2   4   4  102.62    3.48
  -3  -4  -4   65.22    2.77
   3   4   4   69.53    2.98
  -4  -4  -4   51.57    2.57
  -4  -4  -4   58.55    3.19
   4   4   4   53.66    2.90
  -5  -4  -4   38.16    3.00
   5   4   4   34.61    2.81
   6  -5  -4   14.13    2.08
  -6   5   4   17.58    2.21
   5  -5  -4   38.16    2.61
  -5   5   4   38.78    2.84
  -5   5   4   36.61    2.71
   4  -5  -4   72.07    3.28
  -4   5   4   80.19    3.11
  -4   5   4   73.43    3.36
   3  -5  -4   70.03    2.48
   3  -5  -4   74.10    3.03
  -3   5   4   76.07    2.82
  -3   5   4   70.94    3.10
   2  -5  -4   80.82    3.04
   2  -5  -4   83.90    2.83
  -2   5   4   78.42    2.74
  -2   5   4   80.22    3.12
   1  -5  -4  122.91    3.70
   1  -5  -4  119.35    3.67
  -1   5   4  119.05    3.57
  -1   5   4  116.88    3.86
   0  -5  -4   33.10    1.86
   0   5   4   32.71    1.69
   0   5   4   29.84    1.85
  -1  -5  -4   87.87    3.27
   1   5   4   94.69    3.32
   1   5   4   96.89    3.43
  -2  -5  -4  105.94    3.68
   2   5   4  103.56    3.78
   2   5   4  101.39    3.41
   2   5   4  101.29    3.63
  -3  -5  -4   62.34    2.82
   3   5   4   56.30    2.71
   3   5   4   55.03    2.80
   3   5   4   53.44    2.95
  -4  -5  -4   32.35    2.27
   4   5   4   27.74    2.83
  -6   6   4   17.27    2.22
   5  -6  -4   36.17    2.76
  -5   6   4   32.32    2.76
   4  -6  -4   72.23    3.42
  -4   6   4   64.96    3.40
   3  -6  -4   52.60    2.75
  -3   6   4   48.80    2.83
   2  -6  -4   91.38    3.43
   2  -6  -4   86.42    3.09
  -2   6   4   88.41    3.53
   1  -6  -4   36.74    2.07
   1  -6  -4   41.07    2.17
  -1   6   4   40.77    2.37
   0  -6  -4   73.25    2.95
   0   6   4   67.08    2.99
  -1  -6  -4   62.66    2.82
   1   6   4   63.62    2.95
  -2  -6  -4   53.02    2.73
   2   6   4   54.28    2.91
  -3  -6  -4   51.24    2.84
   3   6   4   55.58    3.17
   3   6   4   53.19    2.80
  -4  -6  -4   30.28    2.49
   5  -7  -4   35.35    2.89
  -5   7   4   30.71    2.77
   4  -7  -4   23.66    2.53
  -4   7   4   19.11    2.30
   3  -7  -4   56.22    3.09
  -3   7   4   60.40    3.32
   2  -7  -4   49.20    2.48
   2  -7  -4   52.31    2.80
  -2   7   4   51.74    2.99
   1  -7  -4   52.74    2.61
  -1   7   4   48.12    2.76
   0  -7  -4   61.56    2.93
   0   7   4   62.37    3.05
  -1  -7  -4   35.77    2.41
   1   7   4   41.40    2.61
  -2  -7  -4   39.02    2.56
   2   7   4   39.53    2.78
  -3  -7  -4   32.45    2.62
   3   7   4   28.12    2.80
   4  -8  -4   31.82    3.01
  -4   8   4   24.23    2.65
   3  -8  -4   29.63    2.78
  -3   8   4   35.18    2.97
   2  -8  -4   39.55    2.52
  -2   8   4   39.97    2.97
   1  -8  -4   40.29    2.60
  -1   8   4   42.66    2.85
   0  -8  -4   54.36    3.02
   0   8   4   57.18    3.27
  -1  -8  -4   28.04    2.64
   1   8   4   29.35    2.71
   2  -9  -4   34.88    2.75
   1  -9  -4   46.05    2.99
  -1 -10   5    2.56    1.63
   0  10  -5    4.69    1.48
   0 -10   5    6.51    1.77
  -1  10  -5   10.82    1.77
  -1  10  -5    6.47    1.62
   1 -10   5   11.79    2.14
  -2  10  -5   11.77    1.75
  -2  10  -5    8.72    1.77
   2 -10   5    9.03    1.94
  -3  10  -5    7.20    1.78
   2   9  -5    7.48    1.65
  -2  -9   5   10.14    1.99
   1   9  -5    4.99    1.37
  -1  -9   5    2.41    1.48
   0   9  -5   16.43    1.93
   0   9  -5   19.76    2.00
   0  -9   5   19.68    2.27
  -1   9  -5   17.09    1.81
  -1   9  -5   17.43    1.93
   1  -9   5   11.92    1.92
  -2   9  -5    6.24    1.34
  -2   9  -5    5.59    1.46
   2  -9   5    4.03    1.45
  -3   9  -5   13.18    1.80
   3  -9   5   13.45    1.98
  -4   9  -5   11.33    1.88
   4  -9   5    8.02    1.82
   3   8  -5   10.18    1.82
  -3  -8   5    9.86    2.00
   2   8  -5   18.57    1.98
  -2  -8   5   15.67    2.13
   1   8  -5   21.26    1.99
   1   8  -5   29.19    2.17
  -1  -8   5   26.47    2.48
   0   8  -5   11.57    1.54
   0   8  -5   12.42    1.50
   0  -8   5   10.78    1.66
  -1   8  -5    4.95    1.20
  -1   8  -5    5.89    1.25
   1  -8   5    5.10    1.33
  -2   8  -5   13.11    1.44
  -2   8  -5   10.99    1.51
   2  -8   5   11.58    1.65
  -3   8  -5   12.41    1.43
  -3   8  -5   12.07    1.62
   3  -8   5   11.12    1.74
  -4   8  -5    8.87    1.60
   4  -8   5   10.52    1.84
  -5   8  -5    5.14    1.74
   5  -8   5    8.45    1.83
   4   7  -5   18.45    2.03
  -4  -7   5   20.12    2.44
   3   7  -5    9.03    1.54
  -3  -7   5   11.51    1.91
   2   7  -5   34.89    2.36
  -2  -7   5   39.31    2.67
   1   7  -5    8.53    1.17
   1   7  -5    9.08    1.27
  -1  -7   5   11.84    1.65
   0   7  -5   10.83    1.23
   0   7  -5   11.15    1.32
   0  -7   5   12.60    1.57
  -1   7  -5    7.93    1.12
  -1   7  -5    6.47    1.07
   1  -7   5    7.05    1.28
  -2   7  -5   15.12    1.55
  -2   7  -5   18.51    1.53
   2  -7   5   17.29    1.85
  -3   7  -5    9.81    1.38
  -3   7  -5   10.41    1.20
   3  -7   5   10.48    1.57
  -4   7  -5   17.36    1.83
   4  -7   5   15.35    1.88
  -5   7  -5   13.98    1.94
   5  -7   5   16.05    2.04
   6  -7   5    1.95    1.33
   4   6  -5   11.98    1.61
  -4  -6   5   12.68    1.97
   3   6  -5   22.28    1.88
  -3  -6   5   22.77    2.26
   2   6  -5    5.76    0.95
   2   6  -5    4.78    1.08
  -2  -6   5    5.17    1.26
   1   6  -5   20.26    1.58
  -1  -6   5   22.40    1.83
   0   6  -5   24.60    1.45
   0   6  -5   22.29    1.55
   0  -6   5   25.97    1.83
  -1   6  -5   16.92    1.39
  -1   6  -5   17.55    1.35
   1  -6   5   17.78    1.57
  -2   6  -5   20.39    1.46
  -2   6  -5   17.39    1.49
   2  -6   5   17.72    1.58
  -3   6  -5   17.53    1.34
  -3   6  -5   16.97    1.63
   3  -6   5   15.14    1.66
  -4   6  -5   24.21    1.99
   4  -6   5   20.59    2.03
  -5   6  -5    5.37    1.42
   5  -6   5    5.24    1.32
  -6   6  -5   15.55    2.10
   6  -6   5   14.53    1.97
   5   5  -5    5.94    1.45
  -5  -5   5    9.78    1.73
   4   5  -5    9.73    1.30
  -4  -5   5   10.37    1.48
   3   5  -5   20.90    1.68
  -3  -5   5   23.63    2.15
  -3  -5   5   19.72    1.82
   2   5  -5    4.94    0.94
  -2  -5   5    5.81    1.17
  -2  -5   5    3.00    0.78
   1   5  -5   14.98    1.27
  -1  -5   5   18.53    1.19
  -1  -5   5   17.29    1.60
   0   5  -5   79.94    2.68
   0  -5   5   83.53    2.46
   0  -5   5   86.26    2.98
  -1   5  -5   31.90    1.56
  -1   5  -5   31.48    1.46
   1  -5   5   28.42    1.39
   1  -5   5   32.14    1.74
  -2   5  -5    7.90    0.96
  -2   5  -5    7.37    0.93
   2  -5   5    7.82    0.98
   2  -5   5    6.28    1.01
  -3   5  -5   24.15    1.64
  -3   5  -5   22.82    1.39
   3  -5   5   24.38    1.56
   3  -5   5   23.20    1.66
  -4   5  -5    9.73    1.32
   4  -5   5   10.53    1.27
   4  -5   5    9.90    1.34
  -5   5  -5   19.04    2.01
   5  -5   5   11.32    1.58
   5  -5   5   13.53    1.62
  -6   5  -5   18.63    2.31
   6  -5   5   14.25    1.88
   6  -5   5   15.71    2.06
   6   4  -5   11.64    1.82
  -6  -4   5   12.48    1.89
   5   4  -5   11.32    1.76
  -5  -4   5   11.89    1.79
   4   4  -5   18.02    1.47
  -4  -4   5   17.49    1.79
   3   4  -5   23.43    1.49
  -3  -4   5   20.89    1.81
  -3  -4   5   23.13    1.69
   2   4  -5   12.41    1.14
  -2  -4   5   12.00    1.34
  -2  -4   5   11.09    1.09
   1   4  -5   48.07    1.89
  -1  -4   5   48.25    2.13
  -1  -4   5   50.51    1.90
   0   4  -5   45.49    1.77
   0  -4   5   44.02    1.71
   0  -4   5   44.49    1.91
  -1   4  -5   37.35    1.41
  -1   4  -5   33.40    1.52
   1  -4   5   34.42    1.63
   1  -4   5   35.98    1.67
  -2   4  -5    7.04    0.83
  -2   4  -5    7.33    0.87
   2  -4   5    8.53    0.95
   2  -4   5    6.45    0.92
  -3   4  -5   29.86    1.71
  -3   4  -5   32.00    1.56
   3  -4   5   31.12    1.69
   3  -4   5   30.25    1.69
  -4   4  -5   13.78    1.48
   4  -4   5   13.97    1.44
   4  -4   5   13.83    1.41
  -5   4  -5   13.80    1.80
   5  -4   5   15.35    1.72
   5  -4   5   15.45    1.60
  -6   4  -5   15.36    2.09
   6  -4   5   12.86    1.84
   6   3  -5    9.98    1.81
  -6  -3   5   10.36    1.93
   5   3  -5   12.96    1.77
  -5  -3   5   12.93    1.69
   4   3  -5   25.54    1.52
   4   3  -5   23.92    1.89
  -4  -3   5   25.39    1.96
   3   3  -5   33.05    1.59
  -3  -3   5   39.13    2.08
  -3  -3   5   32.92    1.88
   2   3  -5   42.19    1.72
  -2  -3   5   43.26    1.92
  -2  -3   5   42.53    2.00
   1   3  -5   10.27    0.91
  -1  -3   5    9.76    0.94
  -1  -3   5    9.46    0.99
   0   3  -5   31.34    1.42
   0  -3   5   30.94    1.50
   0  -3   5   29.33    1.43
  -1   3  -5   37.78    1.54
   1  -3   5   36.80    1.71
   1  -3   5   39.01    1.60
  -2   3  -5   34.16    1.54
  -2   3  -5   33.57    1.48
   2  -3   5   32.85    1.58
   2  -3   5   35.62    1.56
  -3   3  -5   18.57    1.27
  -3   3  -5   17.65    1.36
   3  -3   5   18.83    1.44
   3  -3   5   18.68    1.26
  -4   3  -5   22.91    1.90
   4  -3   5   25.58    1.82
   4  -3   5   22.02    1.48
  -5   3  -5   15.26    1.94
   5  -3   5   16.70    1.49
   5  -3   5   19.45    1.89
  -6   3  -5    1.16    1.28
   6  -3   5    3.02    1.18
   6   2  -5    4.29    1.48
  -6  -2   5    5.78    1.50
   5   2  -5    8.83    1.45
  -5  -2   5    6.47    1.37
   4   2  -5   62.22    2.83
  -4  -2   5   69.01    2.95
   3   2  -5   32.65    1.45
  -3  -2   5   29.50    1.76
   2   2  -5   13.90    0.98
  -2  -2   5   14.94    1.17
  -2  -2   5   13.63    1.13
   1   2  -5   19.21    1.09
  -1  -2   5   19.78    1.20
  -1  -2   5   17.99    1.17
   0   2  -5   27.27    1.30
   0  -2   5   26.87    1.45
   0  -2   5   28.42    1.29
  -1   2  -5   17.50    1.12
   1  -2   5   19.87    1.00
   1  -2   5   17.02    1.24
  -2   2  -5   40.33    1.70
  -2   2  -5   40.48    1.59
   2  -2   5   43.43    1.56
   2  -2   5   39.11    1.78
  -3   2  -5   49.31    2.08
  -3   2  -5   49.34    1.98
   3  -2   5   51.43    2.22
  -4   2  -5   22.49    1.74
   4  -2   5   21.09    1.76
  -5   2  -5    2.71    1.25
   5  -2   5    3.30    1.13
  -6   2  -5   26.90    2.52
   6  -2   5   21.78    2.35
   6   1  -5   13.90    1.91
  -6  -1   5   11.26    1.64
   5   1  -5   10.84    1.53
  -5  -1   5   12.44    1.54
   4   1  -5   30.90    1.93
  -4  -1   5   30.24    1.94
   3   1  -5   43.35    1.62
   3   1  -5   41.50    1.97
  -3  -1   5   48.54    2.14
   2   1  -5    9.47    0.83
  -2  -1   5   11.65    1.01
   1   1  -5   19.98    1.13
  -1  -1   5   22.15    1.30
  -1  -1   5   23.52    1.20
   0   1  -5   48.51    1.78
   0  -1   5   50.33    2.04
   0  -1   5   51.99    1.68
  -1   1  -5   10.48    0.75
  -1   1  -5    9.93    0.95
   1  -1   5   10.66    1.01
  -2   1  -5   51.39    1.86
  -2   1  -5   52.39    2.00
   2  -1   5   51.37    2.07
  -3   1  -5   44.08    1.99
  -3   1  -5   46.61    1.92
   3  -1   5   46.27    2.15
  -4   1  -5   18.15    1.33
  -4   1  -5   16.44    1.59
   4  -1   5   18.64    1.79
  -5   1  -5   19.54    2.03
   5  -1   5   16.95    1.94
  -6   1  -5   23.41    2.58
   6  -1   5   21.05    2.37
   6   0  -5   15.72    1.96
  -6   0   5   11.98    1.75
   5   0  -5    5.53    1.28
  -5   0   5    5.43    1.18
   4   0  -5   17.99    1.57
  -4   0   5   22.15    1.69
   3   0  -5   39.27    1.87
   3   0  -5   40.39    1.52
  -3   0   5   38.69    1.94
   2   0  -5   11.24    0.97
   2   0  -5   10.65    0.88
  -2   0   5   13.05    1.08
   1   0  -5   34.89    1.47
   1   0  -5   36.88    1.43
  -1   0   5   34.80    1.65
   0   0  -5  190.54    4.71
   0   0   5  194.25    5.21
  -1   0  -5    6.23    0.83
  -1   0  -5    7.17    0.72
   1   0   5    5.61    0.80
  -2   0  -5   10.63    1.01
  -2   0  -5   11.98    1.12
   2   0   5   12.53    1.17
  -3   0  -5   57.46    2.31
  -3   0  -5   58.93    2.22
   3   0   5   54.13    2.43
  -4   0  -5   26.94    1.91
  -4   0  -5   27.70    1.62
   4   0   5   26.59    1.94
  -5   0  -5   10.72    1.69
   5   0   5    8.63    1.53
  -6   0  -5   13.79    2.00
   6   0   5   12.64    2.03
   6  -1  -5   14.17    1.93
  -6   1   5   13.99    1.96
   5  -1  -5   11.47    1.56
  -5   1   5   10.56    1.52
  -5   1   5   12.66    1.47
   4  -1  -5    9.55    1.24
  -4   1   5    7.68    1.01
  -4   1   5   10.17    1.29
   3  -1  -5   48.76    1.65
   3  -1  -5   46.58    2.09
  -3   1   5   47.89    2.18
   2  -1  -5   22.24    1.27
   2  -1  -5   21.78    1.14
  -2   1   5   23.01    1.37
   1  -1  -5  147.54    3.81
   1  -1  -5  145.34    3.76
  -1   1   5  151.24    4.30
   0  -1  -5   41.17    1.71
   0   1   5   44.04    1.35
   0   1   5   44.69    1.95
   0   1   5   44.70    1.50
  -1  -1  -5   12.73    1.09
  -1  -1  -5   16.04    1.10
   1   1   5   15.00    1.18
  -2  -1  -5    9.24    1.03
  -2  -1  -5    8.24    1.00
   2   1   5    9.56    1.08
  -3  -1  -5   25.35    1.72
  -3  -1  -5   24.51    1.58
   3   1   5   28.14    1.84
  -4  -1  -5   29.98    1.74
  -4  -1  -5   28.36    2.09
   4   1   5   28.28    2.12
  -5  -1  -5   11.14    1.81
   5   1   5   12.44    1.82
  -6  -1  -5   11.64    2.10
   6   1   5   12.55    2.05
   6  -2  -5    6.06    1.51
  -6   2   5    4.68    1.49
   5  -2  -5   20.93    2.04
  -5   2   5   20.83    1.78
  -5   2   5   21.41    1.99
   4  -2  -5   39.27    2.21
  -4   2   5   42.72    2.07
  -4   2   5   40.63    2.27
   3  -2  -5   25.10    1.19
   3  -2  -5   24.33    1.52
  -3   2   5   23.06    1.60
  -3   2   5   24.75    1.47
   2  -2  -5   35.71    1.49
   2  -2  -5   35.74    1.63
  -2   2   5   34.06    1.59
  -2   2   5   33.59    1.74
   1  -2  -5   36.72    1.57
   1  -2  -5   36.20    1.47
  -1   2   5   32.26    1.46
  -1   2   5   36.92    1.75
   0  -2  -5   23.31    1.32
   0   2   5   21.60    1.41
   0   2   5   21.55    1.19
  -1  -2  -5   20.50    1.36
   1   2   5   21.85    1.44
  -2  -2  -5    8.43    1.08
  -2  -2  -5    6.66    1.06
   2   2   5   10.82    1.21
  -3  -2  -5   29.72    1.96
  -3  -2  -5   29.10    1.79
   3   2   5   32.17    2.04
  -4  -2  -5   27.38    2.37
  -4  -2  -5   25.40    1.75
   4   2   5   29.59    2.25
  -5  -2  -5   13.31    2.07
   5   2   5   18.07    2.17
   6   2   5   20.25    2.52
   6  -3  -5   21.41    2.34
  -6   3   5   22.93    2.38
   5  -3  -5   23.13    2.18
  -5   3   5   23.91    2.13
  -5   3   5   20.41    1.93
   4  -3  -5   39.96    2.36
  -4   3   5   41.42    2.27
  -4   3   5   43.63    2.36
   3  -3  -5   13.49    1.04
   3  -3  -5   13.21    1.36
  -3   3   5   12.99    1.32
  -3   3   5   13.62    1.35
   2  -3  -5    3.28    0.64
   2  -3  -5    3.10    0.69
  -2   3   5    2.53    0.69
  -2   3   5    3.94    0.85
   1  -3  -5   27.98    1.47
   1  -3  -5   24.65    1.31
  -1   3   5   25.50    1.51
  -1   3   5   26.05    1.46
   0  -3  -5   28.30    1.56
   0   3   5   27.89    1.62
   0   3   5   26.17    1.49
  -1  -3  -5   41.92    1.97
   1   3   5   41.93    1.74
   1   3   5   41.17    1.90
   1   3   5   41.25    2.05
  -2  -3  -5   25.92    1.71
   2   3   5   29.37    1.87
  -3  -3  -5   43.24    2.21
  -3  -3  -5   47.29    2.56
   3   3   5   45.02    2.48
  -4  -3  -5    5.38    1.17
  -4  -3  -5    6.84    1.54
   4   3   5    8.51    1.52
  -5  -3  -5   19.00    2.32
   5   3   5   17.67    2.23
   6  -4  -5   14.99    2.26
  -6   4   5   14.29    2.05
   5  -4  -5    3.65    1.32
  -5   4   5    6.98    1.35
  -5   4   5    7.28    1.49
   4  -4  -5   36.53    2.33
  -4   4   5   33.64    2.27
  -4   4   5   34.88    2.17
   3  -4  -5   18.97    1.28
   3  -4  -5   17.12    1.67
  -3   4   5   17.42    1.52
  -3   4   5   18.79    1.71
   2  -4  -5    1.55    0.69
   2  -4  -5    2.73    0.67
  -2   4   5    2.77    0.90
  -2   4   5    2.39    0.73
   1  -4  -5   24.02    1.44
   1  -4  -5   25.97    1.54
  -1   4   5   24.80    1.55
  -1   4   5   23.19    1.59
   0  -4  -5  117.84    3.68
   0   4   5  118.89    3.69
   0   4   5  121.70    3.85
  -1  -4  -5    5.87    0.96
   1   4   5    6.88    1.15
   1   4   5    6.40    1.04
  -2  -4  -5   41.08    2.19
   2   4   5   40.20    2.05
   2   4   5   40.52    2.25
   2   4   5   42.37    2.30
  -3  -4  -5   18.19    1.85
   3   4   5   19.78    1.90
  -4  -4  -5    4.94    1.51
  -4  -4  -5    5.75    1.23
   4   4   5    6.98    1.54
  -5  -4  -5    9.23    2.08
   5   4   5    7.53    1.78
  -6   5   5    4.26    1.70
   5  -5  -5    9.22    1.72
  -5   5   5    5.80    1.52
   4  -5  -5   30.59    2.29
  -4   5   5   30.98    2.14
  -4   5   5   34.50    2.51
   3  -5  -5   18.12    1.55
   3  -5  -5   21.65    1.84
  -3   5   5   20.16    1.87
  -3   5   5   20.16    1.65
   2  -5  -5   17.03    1.55
   2  -5  -5   17.06    1.40
  -2   5   5   14.93    1.35
  -2   5   5   14.73    1.60
   1  -5  -5   59.84    2.44
   1  -5  -5   58.57    2.48
  -1   5   5   61.76    2.71
  -1   5   5   58.91    2.41
   0  -5  -5   20.26    1.61
   0   5   5   19.73    1.56
   0   5   5   21.36    1.70
  -1  -5  -5    8.47    1.30
   1   5   5    9.62    1.41
   1   5   5    9.32    1.33
  -2  -5  -5   16.11    1.78
   2   5   5   18.60    1.85
   2   5   5   16.40    1.83
   2   5   5   16.11    1.53
  -3  -5  -5   17.94    1.91
   3   5   5   17.35    1.89
   3   5   5   20.45    2.14
   3   5   5   19.13    1.83
  -4  -5  -5    7.93    1.58
   4   5   5    9.05    1.73
   4   5   5    9.24    1.62
  -6   6   5    7.82    1.84
   5  -6  -5   11.50    1.97
  -5   6   5   13.51    1.96
   4  -6  -5   19.10    2.21
  -4   6   5   17.13    2.08
   3  -6  -5   29.40    2.26
  -3   6   5   26.30    2.31
   2  -6  -5   29.83    2.09
   2  -6  -5   27.66    1.88
  -2   6   5   30.27    2.26
   1  -6  -5    9.57    1.37
  -1   6   5    7.47    1.38
   0  -6  -5   10.11    1.51
   0   6   5    7.22    1.33
  -1  -6  -5    9.89    1.45
   1   6   5    9.64    1.51
  -2  -6  -5   15.64    1.85
   2   6   5   15.18    1.96
  -3  -6  -5   15.49    1.90
   3   6   5   22.94    2.39
   3   6   5   20.78    2.10
  -4  -6  -5   31.06    2.61
  -5   7   5   11.79    2.05
   4  -7  -5   13.98    2.06
  -4   7   5   14.66    2.14
   3  -7  -5   10.20    1.77
  -3   7   5   10.58    1.83
   2  -7  -5    6.50    1.32
  -2   7   5    9.51    1.70
   1  -7  -5   13.71    1.69
  -1   7   5   13.64    1.83
   0  -7  -5   11.42    1.64
   0   7   5   14.51    1.91
  -1  -7  -5   11.92    1.78
   1   7   5   13.84    1.89
  -2  -7  -5   10.87    1.81
   2   7   5   14.94    1.98
   4  -8  -5    8.58    1.83
  -3   8   5    5.39    1.77
   2  -8  -5    5.15    1.30
  -2   8   5    2.66    1.53
   1  -8  -5   31.26    2.41
  -1   8   5   25.88    2.47
   0  -8  -5   17.09    2.01
   0   8   5   17.34    2.20
   2  -9  -5    5.23    1.49
  -1 -10   6   14.69    2.64
   0  10  -6   15.59    2.06
   0 -10   6   14.31    2.26
  -1  10  -6   30.93    2.65
   1 -10   6   25.92    2.76
  -2  10  -6   14.21    1.81
  -2  10  -6   14.16    1.98
   2 -10   6   14.77    2.28
  -3  10  -6   20.63    2.24
   2   9  -6   19.59    2.30
  -2  -9   6   23.01    2.68
   1   9  -6    9.62    1.62
  -1  -9   6   16.19    2.23
   0   9  -6   57.61    3.01
   0  -9   6   48.86    3.20
  -1   9  -6   19.94    1.93
  -1   9  -6   23.36    2.13
   1  -9   6   24.10    2.49
  -2   9  -6   44.91    2.60
  -2   9  -6   40.47    2.62
   2  -9   6   36.58    2.84
  -3   9  -6   32.93    2.44
   3  -9   6   27.69    2.74
  -4   9  -6   13.90    1.88
   4  -9   6   11.45    2.08
   3   8  -6   40.59    2.94
  -3  -8   6   45.34    3.36
   2   8  -6   17.33    2.17
  -2  -8   6   16.81    2.20
   1   8  -6   76.88    3.36
  -1  -8   6   78.17    3.73
   0   8  -6   49.91    2.64
   0  -8   6   48.90    2.89
  -1   8  -6   32.41    2.13
  -1   8  -6   30.64    2.05
   1  -8   6   25.23    2.22
  -2   8  -6   33.20    2.24
  -2   8  -6   39.55    2.35
   2  -8   6   34.72    2.50
  -3   8  -6   43.50    2.52
  -3   8  -6   44.50    2.41
   3  -8   6   36.82    2.65
  -4   8  -6   11.21    1.64
   4  -8   6   12.58    1.97
  -5   8  -6   16.30    2.07
   5  -8   6   15.92    2.20
   4   7  -6   39.34    2.74
   3   7  -6   61.33    3.14
  -3  -7   6   59.32    3.48
   2   7  -6   48.85    2.67
  -2  -7   6   49.78    3.00
   1   7  -6   66.81    2.94
  -1  -7   6   70.25    3.29
   0   7  -6   50.44    2.44
   0   7  -6   48.37    2.22
   0  -7   6   52.55    2.71
  -1   7  -6   34.18    1.90
  -1   7  -6   36.28    2.04
   1  -7   6   33.02    2.19
  -2   7  -6   30.45    1.95
  -2   7  -6   32.38    1.94
   2  -7   6   28.63    2.14
  -3   7  -6   36.36    2.00
  -3   7  -6   38.09    2.24
   3  -7   6   33.20    2.29
  -4   7  -6   53.63    2.81
   4  -7   6   47.87    2.81
  -5   7  -6   23.29    2.25
   5  -7   6   21.07    2.34
   6  -7   6   18.12    2.30
   5   6  -6   26.51    2.67
   4   6  -6   46.94    2.66
  -4  -6   6   48.97    3.22
   3   6  -6   48.01    2.56
  -3  -6   6   47.16    2.98
   2   6  -6   55.81    2.59
  -2  -6   6   51.70    2.86
   1   6  -6   55.85    2.49
  -1  -6   6   62.11    2.85
   0   6  -6   68.65    2.64
   0  -6   6   70.11    2.91
  -1   6  -6   59.60    2.44
  -1   6  -6   59.80    2.24
   1  -6   6   61.31    2.66
  -2   6  -6   17.22    1.45
  -2   6  -6   18.47    1.51
   2  -6   6   15.39    1.60
  -3   6  -6  130.34    4.00
  -3   6  -6  130.04    3.81
   3  -6   6  126.02    4.28
  -4   6  -6   42.51    2.44
   4  -6   6   40.53    2.41
  -5   6  -6   30.13    2.43
   5  -6   6   23.53    2.12
  -6   6  -6   18.21    2.27
   6  -6   6   16.97    2.08
   5   5  -6   35.80    2.74
  -5  -5   6   31.40    2.70
   4   5  -6   38.53    2.25
  -4  -5   6   39.29    2.59
   3   5  -6   38.48    2.15
  -3  -5   6   43.47    2.66
  -3  -5   6   44.20    2.36
   2   5  -6   75.68    2.81
  -2  -5   6   75.04    2.82
  -2  -5   6   75.62    3.19
   1   5  -6   68.49    2.59
  -1  -5   6   73.80    2.52
  -1  -5   6   70.21    2.89
   0   5  -6  133.73    3.90
   0  -5   6  137.65    4.19
   0  -5   6  140.49    3.90
  -1   5  -6   68.94    2.45
  -1   5  -6   67.20    2.15
   1  -5   6   67.79    2.60
   1  -5   6   58.50    2.39
  -2   5  -6  114.16    3.44
  -2   5  -6  121.70    3.43
   2  -5   6  118.13    3.75
   2  -5   6  117.21    3.74
  -3   5  -6   52.85    2.34
  -3   5  -6   50.31    2.17
   3  -5   6   52.72    2.33
   3  -5   6   50.30    2.36
  -4   5  -6   37.63    2.25
   4  -5   6   36.30    2.18
   4  -5   6   35.78    2.15
  -5   5  -6   28.33    2.37
   5  -5   6   26.29    2.01
   5  -5   6   30.26    2.21
  -6   5  -6   33.94    2.85
   6  -5   6   30.10    2.68
   6   4  -6   23.61    2.57
  -6  -4   6   17.87    2.40
   5   4  -6   40.47    2.78
  -5  -4   6   39.74    2.73
   4   4  -6   76.14    2.84
  -4  -4   6   73.96    3.39
   3   4  -6   73.88    2.70
  -3  -4   6   74.95    3.22
  -3  -4   6   76.88    3.05
   2   4  -6   56.71    2.27
  -2  -4   6   61.03    2.63
  -2  -4   6   56.62    2.41
   1   4  -6  146.32    4.01
  -1  -4   6  146.76    4.30
  -1  -4   6  143.11    4.18
   0   4  -6  152.07    4.14
   0  -4   6  154.67    4.37
   0  -4   6  154.91    4.35
  -1   4  -6   75.13    2.54
   1  -4   6   77.50    2.78
   1  -4   6   80.13    2.68
  -2   4  -6   84.00    2.62
  -2   4  -6   81.07    2.73
   2  -4   6   80.84    2.78
   2  -4   6   82.50    2.89
  -3   4  -6   46.17    2.11
  -3   4  -6   42.61    1.98
   3  -4   6   45.59    2.07
   3  -4   6   45.03    2.19
  -4   4  -6   34.95    2.12
   4  -4   6   37.81    2.00
   4  -4   6   37.25    2.19
  -5   4  -6   50.15    2.79
   5  -4   6   41.69    2.30
   5  -4   6   50.60    2.76
  -6   4  -6   37.48    2.94
   6  -4   6   40.41    2.77
   6   3  -6   45.59    3.11
   5   3  -6   49.91    2.96
  -5  -3   6   44.83    3.00
   4   3  -6  123.14    4.38
   4   3  -6  123.00    3.96
  -4  -3   6  132.72    4.51
   3   3  -6   74.44    2.62
  -3  -3   6   77.82    3.14
  -3  -3   6   80.36    3.11
   2   3  -6   58.92    2.24
  -2  -3   6   61.36    2.45
  -2  -3   6   60.87    2.52
   1   3  -6  135.75    3.68
  -1  -3   6  127.35    3.93
  -1  -3   6  134.09    3.90
   0   3  -6  102.17    3.02
   0  -3   6  106.53    3.17
   0  -3   6  104.93    3.39
  -1   3  -6   75.33    2.53
   1  -3   6   76.11    2.79
   1  -3   6   79.50    2.51
  -2   3  -6  102.98    2.97
  -2   3  -6  108.63    3.22
   2  -3   6  104.54    3.42
   2  -3   6  108.66    3.12
  -3   3  -6   67.80    2.56
  -3   3  -6   70.61    2.59
   3  -3   6   71.92    2.47
   3  -3   6   72.42    2.82
  -4   3  -6   72.72    3.02
   4  -3   6   71.09    2.63
   4  -3   6   77.26    3.16
  -5   3  -6   36.89    2.52
   5  -3   6   38.42    2.48
  -6   3  -6   73.79    3.76
   6  -3   6   67.56    3.58
   6   2  -6   27.41    2.66
  -6  -2   6   25.61    2.50
   5   2  -6   68.63    3.33
  -5  -2   6   67.50    3.36
   4   2  -6   59.37    2.83
  -4  -2   6   63.42    2.94
   3   2  -6   96.41    2.87
   3   2  -6   92.16    3.30
  -3  -2   6   89.66    3.35
   2   2  -6   62.27    2.16
  -2  -2   6   59.76    2.37
  -2  -2   6   61.39    2.46
   1   2  -6   82.14    2.65
  -1  -2   6   92.51    2.83
  -1  -2   6   83.79    2.96
   0   2  -6  163.47    4.28
   0  -2   6  162.73    4.75
   0  -2   6  170.60    4.28
  -1   2  -6  109.72    3.28
   1  -2   6  115.43    3.64
   1  -2   6  115.50    3.09
  -2   2  -6  102.43    3.21
  -2   2  -6  104.69    2.96
   2  -2   6  104.79    3.41
   2  -2   6  104.68    2.90
  -3   2  -6  190.74    5.12
  -3   2  -6  187.80    5.03
   3  -2   6  202.14    5.61
  -4   2  -6   54.00    2.56
   4  -2   6   55.03    2.73
  -5   2  -6   40.14    2.69
   5  -2   6   40.62    2.58
  -6   2  -6   32.06    2.86
   6  -2   6   35.11    2.75
   6   1  -6   40.18    2.87
  -6  -1   6   25.04    2.56
   5   1  -6   43.24    2.65
  -5  -1   6   45.10    2.75
   4   1  -6   41.99    2.31
  -4  -1   6   43.87    2.35
   3   1  -6  117.43    3.23
   3   1  -6  110.91    3.65
  -3  -1   6  110.57    3.82
   2   1  -6  148.05    3.94
  -2  -1   6  154.95    4.55
   1   1  -6  124.16    3.39
  -1  -1   6  119.61    3.40
  -1  -1   6  118.86    3.78
   0   1  -6  145.50    3.91
   0  -1   6  144.15    3.71
   0  -1   6  144.12    4.31
  -1   1  -6  126.80    3.60
   1  -1   6  124.81    3.89
  -2   1  -6  135.62    3.93
  -2   1  -6  137.49    3.67
   2  -1   6  136.57    4.15
  -3   1  -6  109.40    3.47
  -3   1  -6  105.03    3.44
   3  -1   6  120.66    3.88
  -4   1  -6   50.32    2.24
  -4   1  -6   50.95    2.52
   4  -1   6   49.89    2.64
  -5   1  -6   30.87    2.44
   5  -1   6   29.24    2.36
  -6   1  -6   33.45    2.83
   6  -1   6   39.03    2.87
   6   0  -6   31.69    2.59
  -6   0   6   33.59    2.86
   5   0  -6   37.94    2.50
  -5   0   6   43.47    2.65
   4   0  -6   75.84    3.04
  -4   0   6   69.33    3.10
   3   0  -6  182.66    4.56
   3   0  -6  178.09    5.08
  -3   0   6  181.54    5.37
   2   0  -6  109.27    3.35
   2   0  -6  115.02    3.22
  -2   0   6  112.21    3.68
   1   0  -6  179.22    4.52
   1   0  -6  178.11    4.56
  -1   0   6  177.61    5.12
   0   0  -6   85.10    2.70
   0   0   6   83.70    2.97
  -1   0  -6   99.30    3.13
  -1   0  -6  107.03    2.85
   1   0   6   98.22    3.38
  -2   0  -6   92.05    2.84
  -2   0  -6   90.45    3.01
   2   0   6   87.44    3.14
  -3   0  -6   82.64    2.94
  -3   0  -6   79.95    2.90
   3   0   6   81.05    3.20
  -4   0  -6   70.69    2.71
  -4   0  -6   70.93    3.02
   4   0   6   64.07    3.08
  -5   0  -6   61.45    3.17
   5   0   6   56.32    3.17
  -6   0  -6   34.77    3.18
   6   0   6   31.51    2.78
   6  -1  -6   44.87    2.93
  -6   1   6   39.31    3.01
   5  -1  -6   43.85    2.58
  -5   1   6   39.58    2.58
   4  -1  -6  159.97    4.99
  -4   1   6  162.46    5.24
   3  -1  -6   28.55    1.39
   3  -1  -6   29.84    1.76
  -3   1   6   33.17    1.92
   2  -1  -6  133.78    3.57
   2  -1  -6  124.94    3.71
  -2   1   6  127.53    4.09
   1  -1  -6  164.67    4.31
   1  -1  -6  162.14    4.18
  -1   1   6  163.35    4.81
   0  -1  -6   88.62    2.86
   0   1   6   93.11    3.18
   0   1   6   87.92    2.50
  -1  -1  -6   70.60    2.62
  -1  -1  -6   75.66    2.45
   1   1   6   75.54    2.85
  -2  -1  -6  114.28    3.51
  -2  -1  -6  117.86    3.63
   2   1   6  111.63    3.79
  -3  -1  -6   94.84    3.33
  -3  -1  -6   89.94    3.20
   3   1   6   90.30    3.53
  -4  -1  -6   56.83    2.55
  -4  -1  -6   60.97    2.97
   4   1   6   62.69    3.06
  -5  -1  -6   60.88    3.37
   5   1   6   64.64    3.45
   6   1   6   41.57    3.40
   6  -2  -6   44.90    3.03
  -6   2   6   39.05    3.06
   5  -2  -6   64.72    3.22
  -5   2   6   66.73    3.32
   4  -2  -6   37.13    2.21
  -4   2   6   37.01    2.32
  -4   2   6   36.33    1.96
   3  -2  -6   65.48    2.62
   3  -2  -6   62.34    2.17
  -3   2   6   65.08    2.77
  -3   2   6   63.37    2.38
   2  -2  -6  103.08    3.07
   2  -2  -6   97.75    3.17
  -2   2   6  105.92    3.10
  -2   2   6  103.15    3.54
   1  -2  -6  124.05    3.46
   1  -2  -6  126.41    3.63
  -1   2   6  122.34    3.41
  -1   2   6  131.20    4.06
   0  -2  -6  167.07    4.52
   0   2   6  162.51    4.22
   0   2   6  160.35    4.84
  -1  -2  -6   95.80    3.18
   1   2   6   91.71    3.37
  -2  -2  -6   93.62    3.24
  -2  -2  -6   93.58    3.27
   2   2   6   93.18    3.46
  -3  -2  -6   65.29    2.95
  -3  -2  -6   71.32    2.88
   3   2   6   69.94    3.16
  -4  -2  -6   72.46    3.38
  -4  -2  -6   66.39    2.87
   4   2   6   71.56    3.41
  -5  -2  -6   52.66    3.30
   5   2   6   53.58    3.29
   6  -3  -6   47.91    3.11
  -6   3   6   44.23    3.20
   5  -3  -6   40.43    2.72
  -5   3   6   38.76    2.67
   4  -3  -6   44.15    2.54
  -4   3   6   47.70    2.63
  -4   3   6   39.34    2.26
   3  -3  -6   93.45    2.88
   3  -3  -6   91.39    3.39
  -3   3   6   95.79    3.52
  -3   3   6   89.07    3.19
   2  -3  -6   87.90    3.02
   2  -3  -6   89.32    2.85
  -2   3   6   82.99    2.93
  -2   3   6   86.08    3.20
   1  -3  -6   91.71    2.87
   1  -3  -6   93.88    3.07
  -1   3   6   97.10    3.35
  -1   3   6   89.83    2.98
   0  -3  -6  186.99    5.14
   0   3   6  185.78    5.48
   0   3   6  194.29    5.00
  -1  -3  -6   58.52    2.55
   1   3   6   62.54    2.23
   1   3   6   60.22    2.74
   1   3   6   61.44    2.46
  -2  -3  -6   75.79    2.98
   2   3   6   70.07    3.08
  -3  -3  -6   75.31    3.11
  -3  -3  -6   75.12    3.35
   3   3   6   78.73    3.40
  -4  -3  -6   48.63    2.59
  -4  -3  -6   48.98    3.01
   4   3   6   47.66    2.99
  -5  -3  -6   27.98    2.87
   5   3   6   26.96    2.80
   6  -4  -6   34.98    2.93
  -6   4   6   39.26    3.11
   5  -4  -6   47.01    2.92
  -5   4   6   44.93    2.89
   4  -4  -6   58.38    2.98
  -4   4   6   57.42    2.97
  -4   4   6   63.77    2.94
   3  -4  -6  105.74    3.79
   3  -4  -6  103.14    3.21
  -3   4   6  100.11    3.72
  -3   4   6  102.27    3.69
   2  -4  -6   59.38    2.50
   2  -4  -6   56.18    2.31
  -2   4   6   55.19    2.49
  -2   4   6   53.02    2.50
   1  -4  -6   94.86    3.09
   1  -4  -6   99.46    3.31
  -1   4   6   96.87    3.34
  -1   4   6   98.42    3.47
   0  -4  -6   53.84    2.45
   0   4   6   60.43    2.50
   0   4   6   59.62    2.60
  -1  -4  -6  106.26    3.69
   1   4   6  106.77    3.89
   1   4   6  107.02    3.63
  -2  -4  -6   72.07    3.05
   2   4   6   69.84    3.05
   2   4   6   69.32    3.17
   2   4   6   73.24    2.78
  -3  -4  -6   55.51    2.78
   3   4   6   48.30    2.89
  -4  -4  -6   46.93    2.72
   4   4   6   40.81    2.88
   5   4   6   24.81    2.71
   5  -5  -6   54.95    3.29
  -5   5   6   54.57    3.37
   4  -5  -6   74.96    3.53
  -4   5   6   71.61    3.44
   3  -5  -6   42.22    2.45
  -3   5   6   42.96    2.40
  -3   5   6   41.82    2.56
   2  -5  -6   73.18    2.96
   2  -5  -6   68.00    2.76
  -2   5   6   68.06    2.85
  -2   5   6   69.22    3.05
   1  -5  -6   53.16    2.48
  -1   5   6   53.47    2.62
  -1   5   6   52.64    2.45
   0  -5  -6   54.66    2.60
   0   5   6   51.43    2.57
   0   5   6   57.64    2.62
  -1  -5  -6   88.74    3.51
   1   5   6   93.59    3.63
   1   5   6   92.77    3.61
  -2  -5  -6   65.44    3.14
   2   5   6   64.92    2.83
   2   5   6   66.55    3.12
   2   5   6   68.38    3.30
  -3  -5  -6   43.03    2.70
   3   5   6   39.79    2.50
   3   5   6   43.58    2.88
  -4  -5  -6   29.51    2.46
   4   5   6   24.99    2.57
   5  -6  -6   41.23    3.05
  -5   6   6   35.26    2.94
   4  -6  -6   33.23    2.66
  -4   6   6   33.99    2.77
   3  -6  -6   51.24    2.91
  -3   6   6   54.42    3.08
   2  -6  -6   55.63    2.71
  -2   6   6   55.71    2.97
   1  -6  -6   49.59    2.62
  -1   6   6   50.96    2.78
   0  -6  -6   43.77    2.61
   0   6   6   47.93    2.71
  -1  -6  -6   71.00    3.36
   1   6   6   73.66    3.40
  -2  -6  -6   44.59    2.79
   2   6   6   43.01    2.86
  -3  -6  -6   39.22    2.81
   3   6   6   41.93    2.92
   4  -7  -6   34.49    2.86
  -4   7   6   30.49    2.81
  -3   7   6   46.50    3.17
   2  -7  -6   33.60    2.31
  -2   7   6   33.05    2.66
   1  -7  -6   45.19    2.69
  -1   7   6   47.32    2.91
   0  -7  -6   61.76    3.21
   0   7   6   61.29    3.27
  -1  -7  -6   22.36    2.36
   1   7   6   21.05    2.32
  -2  -7  -6   44.83    3.34
  -3   8   6   24.66    2.78
   2  -8  -6   54.86    3.02
  -2   8   6   54.31    3.52
   1  -8  -6   36.34    2.68
  -1   8   6   34.01    2.79
   0  -8  -6   24.43    2.60
  -1  10  -7   10.60    1.70
   1 -10   7    9.36    2.18
  -2  10  -7    4.41    1.40
   2   9  -7    5.90    1.71
  -2  -9   7    8.32    2.11
   1   9  -7   14.18    1.86
  -1  -9   7   16.02    2.27
   0   9  -7    3.56    1.26
   0  -9   7    5.55    1.74
  -1   9  -7   12.09    1.73
   1  -9   7   11.05    1.95
  -2   9  -7    6.93    1.37
   2  -9   7    6.45    1.63
  -3   9  -7    7.74    1.60
   3  -9   7    8.33    1.80
  -4   9  -7    4.78    1.47
   4  -9   7    4.98    1.73
   3   8  -7   10.37    1.81
  -3  -8   7    9.81    2.05
   2   8  -7   19.42    2.03
  -2  -8   7   18.00    2.32
   1   8  -7    1.61    1.14
  -1  -8   7    2.00    1.35
   0   8  -7    8.24    1.41
   0  -8   7    4.87    1.37
  -1   8  -7   10.00    1.45
   1  -8   7   10.93    1.73
  -2   8  -7   14.67    1.65
  -2   8  -7   10.17    1.41
   2  -8   7   12.30    1.88
  -3   8  -7   12.77    1.47
  -3   8  -7   13.13    1.66
   3  -8   7   12.62    1.85
  -4   8  -7    7.06    1.58
   4  -8   7   10.84    1.85
  -5   8  -7    5.79    1.64
   5  -8   7   10.14    1.91
   4   7  -7    4.48    1.49
  -4  -7   7    5.37    1.80
   3   7  -7    9.13    1.56
  -3  -7   7    8.82    1.87
   2   7  -7   19.34    1.91
  -2  -7   7   19.21    2.20
   1   7  -7    7.53    1.41
  -1  -7   7    8.76    1.59
   0   7  -7    7.45    1.32
   0  -7   7    5.91    1.31
  -1   7  -7   29.01    1.79
  -1   7  -7   26.83    1.94
   1  -7   7   30.67    2.22
  -2   7  -7   22.05    1.71
  -2   7  -7   23.05    1.86
   2  -7   7   16.99    1.91
  -3   7  -7    7.41    1.27
  -3   7  -7    8.65    1.26
   3  -7   7    8.61    1.50
  -4   7  -7   16.17    1.77
   4  -7   7   18.59    2.12
  -5   7  -7    8.00    1.61
   5  -7   7    4.19    1.44
   4   6  -7    6.64    1.34
  -4  -6   7    6.27    1.74
   3   6  -7   15.25    1.73
  -3  -6   7   13.38    2.00
   2   6  -7   22.61    1.94
  -2  -6   7   23.77    2.31
   1   6  -7   14.48    1.49
  -1  -6   7   19.70    1.93
   0   6  -7   27.72    1.84
   0  -6   7   31.15    2.05
  -1   6  -7   19.05    1.65
   1  -6   7   18.04    1.75
  -2   6  -7   14.40    1.36
  -2   6  -7   14.74    1.41
   2  -6   7   13.91    1.63
  -3   6  -7    4.84    1.10
  -3   6  -7    5.64    1.15
   3  -6   7    7.05    1.34
  -4   6  -7   24.68    2.07
   4  -6   7   21.51    1.94
  -5   6  -7   11.64    1.69
   5  -6   7    8.24    1.52
   5   5  -7   13.21    1.94
  -5  -5   7   13.49    1.97
   4   5  -7    7.26    1.25
  -4  -5   7    6.06    1.43
   3   5  -7   16.04    1.56
  -3  -5   7   16.85    1.67
  -3  -5   7   16.53    1.99
   2   5  -7   27.88    1.85
  -2  -5   7   30.58    2.15
  -2  -5   7   27.17    1.87
   1   5  -7   38.04    2.00
  -1  -5   7   41.23    2.23
  -1  -5   7   39.84    2.01
   0   5  -7   17.05    1.45
   0  -5   7   15.71    1.57
   0  -5   7   13.36    1.29
  -1   5  -7   18.85    1.49
   1  -5   7   19.99    1.58
   1  -5   7   17.55    1.54
  -2   5  -7    9.27    1.08
  -2   5  -7   10.31    1.23
   2  -5   7    8.54    1.27
   2  -5   7    8.74    1.18
  -3   5  -7   17.29    1.55
  -3   5  -7   18.54    1.60
   3  -5   7   16.86    1.65
   3  -5   7   17.80    1.71
  -4   5  -7   17.87    1.75
   4  -5   7   16.16    1.77
   4  -5   7   13.01    1.54
  -5   5  -7   20.60    2.19
   5  -5   7   22.96    2.22
   5  -5   7   16.70    1.87
  -6   5  -7   11.17    2.04
   6  -5   7   11.65    2.06
   5   4  -7   10.57    1.86
  -5  -4   7    7.19    1.65
   4   4  -7    4.34    1.03
  -4  -4   7    4.92    1.23
   3   4  -7   46.73    2.26
  -3  -4   7   49.43    2.70
  -3  -4   7   42.77    2.43
   2   4  -7   18.39    1.55
  -2  -4   7   19.97    1.84
  -2  -4   7   17.47    1.54
   1   4  -7   11.44    1.27
  -1  -4   7   11.96    1.23
  -1  -4   7    9.09    1.23
   0   4  -7   34.05    1.72
   0  -4   7   30.52    1.77
   0  -4   7   32.96    1.86
  -1   4  -7   35.02    1.80
   1  -4   7   36.62    1.83
   1  -4   7   32.92    1.93
  -2   4  -7   10.25    1.18
  -2   4  -7    9.67    1.01
   2  -4   7   10.90    1.31
   2  -4   7    8.77    1.12
  -3   4  -7   16.53    1.47
  -3   4  -7   16.32    1.54
   3  -4   7   15.76    1.49
   3  -4   7   17.80    1.66
  -4   4  -7   23.75    1.98
   4  -4   7   24.57    2.08
   4  -4   7   24.09    1.73
  -5   4  -7   16.75    2.00
   5  -4   7   17.21    1.94
  -6   4  -7    2.85    1.56
   6  -4   7    3.74    1.46
   6   3  -7   12.53    1.98
  -6  -3   7   11.03    1.91
   5   3  -7   21.90    2.32
  -5  -3   7   10.98    1.70
   4   3  -7   17.55    1.82
  -4  -3   7   13.64    1.66
   3   3  -7   24.53    1.57
  -3  -3   7   22.55    1.82
   2   3  -7   23.20    1.51
  -2  -3   7   22.29    1.65
  -2  -3   7   22.07    1.66
   1   3  -7    6.22    0.89
  -1  -3   7    6.90    1.02
  -1  -3   7    7.63    1.04
   0   3  -7   25.45    1.50
   0  -3   7   22.81    1.66
   0  -3   7   24.95    1.48
  -1   3  -7   59.07    2.33
   1  -3   7   62.45    2.61
   1  -3   7   62.04    2.24
  -2   3  -7   18.14    1.50
  -2   3  -7   18.77    1.24
   2  -3   7   17.45    1.23
   2  -3   7   18.80    1.53
  -3   3  -7   19.03    1.67
  -3   3  -7   19.36    1.59
   3  -3   7   20.91    1.76
   3  -3   7   18.92    1.32
  -4   3  -7   18.68    1.78
   4  -3   7   17.69    1.87
  -5   3  -7    9.66    1.67
   5  -3   7   10.26    1.65
  -6   3  -7    8.34    1.88
   6  -3   7   10.62    1.88
   6   2  -7   22.95    2.55
  -6  -2   7   21.28    2.47
   5   2  -7   24.64    2.34
  -5  -2   7   18.63    2.07
   4   2  -7   12.98    1.65
  -4  -2   7   12.97    1.53
   3   2  -7   24.90    1.54
   3   2  -7   20.73    1.67
  -3  -2   7   22.76    1.79
   2   2  -7   30.88    1.65
  -2  -2   7   33.21    1.84
  -2  -2   7   28.17    1.82
   1   2  -7    3.58    0.78
  -1  -2   7    5.13    0.84
  -1  -2   7    2.85    0.78
   0   2  -7   15.79    1.24
   0  -2   7   15.58    1.12
   0  -2   7   16.17    1.40
  -1   2  -7  137.05    3.97
   1  -2   7  139.52    3.67
   1  -2   7  134.13    4.31
  -2   2  -7   20.56    1.28
  -2   2  -7   22.01    1.59
   2  -2   7   21.15    1.60
  -3   2  -7    7.30    1.08
  -3   2  -7    8.42    1.24
   3  -2   7   12.14    1.44
  -4   2  -7   28.36    1.92
  -4   2  -7   28.07    2.03
   4  -2   7   25.38    2.13
  -5   2  -7   11.35    1.73
   5  -2   7   12.10    1.77
  -6   2  -7    7.60    1.86
   6  -2   7    8.77    1.78
   6   1  -7   16.79    2.17
  -6  -1   7   11.03    1.92
   5   1  -7   13.10    1.81
  -5  -1   7   13.62    1.75
   4   1  -7   15.93    1.64
  -4  -1   7   15.15    1.69
   3   1  -7   20.13    1.59
   3   1  -7   19.88    1.41
  -3  -1   7   19.80    1.67
   2   1  -7   55.21    2.24
   2   1  -7   51.04    2.09
  -2  -1   7   52.20    2.44
   1   1  -7    8.90    1.04
  -1  -1   7    8.94    1.19
  -1  -1   7    9.52    1.04
   0   1  -7   81.75    2.77
   0  -1   7   81.08    2.51
   0  -1   7   81.43    3.06
  -1   1  -7   27.34    1.63
   1  -1   7   33.73    1.90
  -2   1  -7   18.34    1.54
  -2   1  -7   23.91    1.37
   2  -1   7   23.11    1.65
  -3   1  -7   18.93    1.67
  -3   1  -7   17.80    1.52
   3  -1   7   18.22    1.75
  -4   1  -7   17.93    1.84
  -4   1  -7   21.12    1.76
   4  -1   7   18.50    1.99
  -5   1  -7   15.67    1.99
   5  -1   7   13.83    1.96
  -6   1  -7    3.29    1.69
   6  -1   7    7.46    1.76
   6   0  -7   16.87    2.09
  -6   0   7   13.98    2.03
   5   0  -7    3.30    1.15
  -5   0   7    4.26    1.27
   4   0  -7   16.60    1.69
  -4   0   7   13.22    1.57
   3   0  -7   73.67    2.51
   3   0  -7   68.59    2.80
  -3   0   7   69.79    3.01
   2   0  -7   34.26    1.72
   2   0  -7   33.10    1.66
  -2   0   7   33.60    1.94
   1   0  -7   30.30    1.42
   1   0  -7   28.56    1.56
  -1   0   7   27.94    1.79
   0   0  -7   23.97    1.51
   0   0   7   23.85    1.60
  -1   0  -7    9.18    1.09
  -1   0  -7    9.67    0.93
   1   0   7    9.68    1.24
  -2   0  -7   18.41    1.36
  -2   0  -7   20.65    1.72
   2   0   7   19.38    1.63
  -3   0  -7   22.06    1.77
  -3   0  -7   22.39    1.77
   3   0   7   20.27    1.91
  -4   0  -7   27.87    2.18
  -4   0  -7   31.30    2.01
   4   0   7   29.85    2.38
  -5   0  -7   20.17    2.27
   5   0   7   17.50    2.23
   6  -1  -7    9.04    1.77
  -6   1   7   14.29    1.99
   5  -1  -7   16.37    1.86
  -5   1   7   11.76    1.73
   4  -1  -7   15.61    1.68
  -4   1   7   15.94    1.73
   3  -1  -7   57.13    2.52
   3  -1  -7   55.04    2.11
  -3   1   7   54.92    2.68
   2  -1  -7   24.41    1.46
   2  -1  -7   26.72    1.48
  -2   1   7   22.41    1.70
   1  -1  -7    9.40    1.06
   1  -1  -7    9.07    0.91
  -1   1   7    8.32    1.16
   0  -1  -7   20.26    1.41
   0   1   7   19.56    1.54
  -1  -1  -7   16.15    1.49
  -1  -1  -7   16.82    1.26
   1   1   7   14.92    1.59
  -2  -1  -7   21.27    1.70
  -2  -1  -7   23.63    1.64
   2   1   7   22.20    1.83
  -3  -1  -7   26.02    1.96
  -3  -1  -7   22.86    1.86
   3   1   7   25.18    2.09
  -4  -1  -7   54.28    2.68
  -4  -1  -7   56.83    3.01
   4   1   7   51.74    3.08
  -5  -1  -7    5.43    1.63
   5   1   7    5.21    1.55
   6  -2  -7   25.23    2.61
  -6   2   7   26.43    2.61
   5  -2  -7   20.54    2.11
  -5   2   7   15.12    1.92
   4  -2  -7    1.74    0.92
  -4   2   7    2.23    1.06
   3  -2  -7   27.84    1.55
   3  -2  -7   26.43    1.79
  -3   2   7   29.77    2.04
   2  -2  -7   30.26    1.67
   2  -2  -7   31.29    1.68
  -2   2   7   31.93    1.98
   1  -2  -7    6.81    0.98
   1  -2  -7    6.89    0.82
  -1   2   7    7.84    0.92
  -1   2   7    6.54    1.10
   0  -2  -7   23.44    1.60
   0   2   7   24.50    1.43
   0   2   7   25.23    1.77
  -1  -2  -7  113.57    3.79
   1   2   7  114.93    3.19
   1   2   7  114.69    4.09
   1   2   7  119.28    3.53
  -2  -2  -7    3.38    1.00
  -2  -2  -7    1.71    0.85
   2   2   7    4.07    1.11
  -3  -2  -7   34.41    2.26
  -3  -2  -7   25.17    2.10
   3   2   7   29.93    2.32
  -4  -2  -7   22.06    2.27
  -4  -2  -7   23.46    2.01
   4   2   7   24.64    2.50
  -5  -2  -7    7.17    1.87
   5   2   7    8.46    1.86
   6  -3  -7   16.60    2.32
  -6   3   7   14.38    2.07
   5  -3  -7   10.14    1.74
  -5   3   7   11.28    1.74
   4  -3  -7    6.88    1.34
  -4   3   7    9.12    1.52
   3  -3  -7   31.39    2.03
   3  -3  -7   28.58    1.67
  -3   3   7   32.49    2.14
  -3   3   7   31.21    1.96
   2  -3  -7   18.18    1.48
   2  -3  -7   19.68    1.46
  -2   3   7   18.71    1.67
  -2   3   7   18.71    1.55
   1  -3  -7   22.40    1.60
  -1   3   7   21.19    1.48
  -1   3   7   21.02    1.70
   0  -3  -7   96.05    3.37
   0   3   7   95.33    3.57
   0   3   7   92.72    3.12
  -1  -3  -7   29.09    1.93
   1   3   7   28.23    2.13
   1   3   7   28.73    1.58
   1   3   7   28.50    1.76
  -2  -3  -7    7.12    1.25
   2   3   7    4.35    1.22
  -3  -3  -7    9.30    1.47
  -3  -3  -7    9.10    1.58
   3   3   7    9.27    1.54
  -4  -3  -7   12.73    1.72
  -4  -3  -7   17.76    2.29
   4   3   7   15.46    2.09
   5   3   7    8.72    1.91
  -6   4   7   12.01    2.01
   5  -4  -7   12.90    1.95
  -5   4   7   10.81    1.71
   4  -4  -7   24.59    2.20
  -4   4   7   24.45    2.24
   3  -4  -7   21.03    1.91
   3  -4  -7   23.41    1.66
  -3   4   7   19.76    1.81
  -3   4   7   21.69    1.91
   2  -4  -7   21.28    1.65
   2  -4  -7   18.40    1.59
  -2   4   7   21.10    1.74
  -2   4   7   18.88    1.72
   1  -4  -7   33.03    2.02
  -1   4   7   32.72    2.00
  -1   4   7   31.45    2.04
   0  -4  -7   17.54    1.66
   0   4   7   18.16    1.71
   0   4   7   14.87    1.51
  -1  -4  -7   15.59    1.73
   1   4   7   15.54    1.64
   1   4   7   13.85    1.71
  -2  -4  -7   13.91    1.76
   2   4   7   13.38    1.63
   2   4   7   11.91    1.41
   2   4   7   16.18    1.95
  -3  -4  -7   10.12    1.64
   3   4   7   12.26    1.76
   3   4   7    8.65    1.45
   3   4   7   12.26    1.80
  -4  -4  -7   11.60    1.90
   4   4   7   12.09    1.97
   5  -5  -7    3.91    1.51
   4  -5  -7   25.12    2.43
  -4   5   7   23.52    2.44
   3  -5  -7   19.12    1.96
  -3   5   7   21.30    2.05
   2  -5  -7    8.40    1.22
  -2   5   7    6.76    1.30
  -2   5   7   10.88    1.49
   1  -5  -7    3.92    1.03
  -1   5   7    6.24    1.25
  -1   5   7    3.98    1.04
   0  -5  -7   15.23    1.66
   0   5   7   21.18    1.87
   0   5   7   20.71    1.85
  -1  -5  -7   24.46    2.08
   1   5   7   23.48    2.12
   1   5   7   24.34    2.14
  -2  -5  -7   18.53    2.04
   2   5   7   22.70    2.17
  -3  -5  -7   10.16    1.86
   3   5   7   13.81    1.72
   3   5   7   13.32    1.98
   4  -6  -7    8.50    1.68
  -4   6   7    7.44    1.70
   3  -6  -7   21.34    2.22
  -3   6   7   18.93    2.23
   2  -6  -7   13.13    1.58
  -2   6   7   11.24    1.69
   1  -6  -7    2.85    1.11
  -1   6   7    1.82    1.21
   0  -6  -7   34.75    2.47
   0   6   7   34.54    2.46
  -1  -6  -7   27.46    2.56
   1   6   7   30.08    2.43
  -2  -6  -7    8.84    1.68
   2   6   7    8.17    1.73
   4  -7  -7    9.51    2.00
  -4   7   7    7.07    1.83
  -3   7   7   26.27    2.56
   2  -7  -7   10.26    1.65
  -2   7   7   10.14    1.73
   1  -7  -7    7.11    1.47
  -1   7   7   10.74    1.75
   0  -7  -7   23.79    2.41
   0   7   7   28.06    2.58
  -1  -7  -7   13.46    2.04
   1   7   7    9.79    1.82
   2  -8  -7    5.85    1.50
  -2  10  -8   15.86    2.10
   1   9  -8   23.82    2.39
  -1  -9   8   20.31    2.54
   0   9  -8   36.75    2.67
   0  -9   8   32.42    2.84
  -1   9  -8   31.00    2.49
   1  -9   8   25.03    2.68
  -2   9  -8   22.84    2.20
   2  -9   8   20.85    2.48
   3  -9   8   14.01    2.24
  -4   9  -8    6.45    1.69
   3   8  -8   39.01    2.95
  -3  -8   8   35.37    3.43
   2   8  -8   23.61    2.31
  -2  -8   8   32.27    3.07
   1   8  -8   29.48    2.48
  -1  -8   8   33.08    2.70
   0   8  -8   30.54    2.28
   0  -8   8   24.47    2.42
  -1   8  -8   34.84    2.43
   1  -8   8   31.67    2.51
  -2   8  -8   39.52    2.57
   2  -8   8   34.19    2.61
  -3   8  -8   15.32    1.72
  -3   8  -8   13.16    1.58
   3  -8   8    9.13    1.71
  -4   8  -8   43.48    2.77
   4  -8   8   44.43    2.93
  -5   8  -8   11.48    1.86
   5  -8   8   14.95    2.27
   4   7  -8   31.77    2.76
   3   7  -8   37.08    2.65
  -3  -7   8   36.27    3.08
   2   7  -8   35.10    2.50
  -2  -7   8   32.47    2.71
   1   7  -8   47.67    2.62
  -1  -7   8   44.18    2.79
   0   7  -8   30.83    2.20
   0  -7   8   32.52    2.38
  -1   7  -8   53.85    2.75
   1  -7   8   55.54    2.94
  -2   7  -8   36.96    2.23
   2  -7   8   31.29    2.34
  -3   7  -8   73.06    3.12
  -3   7  -8   70.98    3.02
   3  -7   8   66.30    3.30
  -4   7  -8   29.83    2.30
   4  -7   8   26.63    2.27
  -5   7  -8   13.89    1.84
   5  -7   8   13.31    1.99
   4   6  -8   30.88    2.57
  -4  -6   8   27.06    2.77
   3   6  -8   55.27    2.90
  -3  -6   8   57.25    3.38
   2   6  -8   73.61    3.15
  -2  -6   8   70.77    3.44
   1   6  -8   45.03    2.45
  -1  -6   8   43.28    2.54
   0   6  -8   73.37    3.01
   0  -6   8   72.69    3.20
  -1   6  -8   68.47    2.81
   1  -6   8   60.39    2.87
  -2   6  -8   40.03    1.99
  -2   6  -8   37.72    2.23
   2  -6   8   39.27    2.30
  -3   6  -8   50.83    2.43
  -3   6  -8   49.35    2.52
   3  -6   8   47.62    2.64
  -4   6  -8   26.54    2.17
   4  -6   8   29.87    2.17
  -5   6  -8   15.47    2.04
   5   5  -8   43.94    3.23
  -5  -5   8   46.68    3.35
   4   5  -8   33.21    2.57
  -4  -5   8   32.03    2.60
   3   5  -8   86.26    3.45
  -3  -5   8   93.47    3.71
  -3  -5   8   86.51    3.90
   2   5  -8   68.42    2.94
  -2  -5   8   62.91    3.13
  -2  -5   8   70.17    3.02
   1   5  -8   54.70    2.57
  -1  -5   8   61.75    2.82
  -1  -5   8   61.96    2.70
   0   5  -8   87.13    3.09
   0  -5   8   81.77    3.24
   0  -5   8   84.66    3.23
  -1   5  -8   53.78    2.44
   1  -5   8   52.29    2.49
   1  -5   8   55.70    2.60
  -2   5  -8   29.86    1.99
  -2   5  -8   29.82    1.66
   2  -5   8   31.89    1.96
   2  -5   8   35.73    2.23
  -3   5  -8   47.61    2.28
  -3   5  -8   49.72    2.48
   3  -5   8   47.81    2.67
   3  -5   8   47.94    2.43
  -4   5  -8   41.49    2.49
   4  -5   8   44.55    2.74
   4  -5   8   37.97    2.32
  -5   5  -8   44.27    2.97
   5  -5   8   47.51    2.96
   6  -5   8   23.20    2.86
   5   4  -8   34.51    2.94
  -5  -4   8   40.46    2.99
   4   4  -8   57.62    3.21
  -4  -4   8   63.56    3.27
   3   4  -8   39.64    2.16
  -3  -4   8   43.86    2.68
  -3  -4   8   34.72    2.42
   2   4  -8   64.82    2.65
  -2  -4   8   63.20    2.85
  -2  -4   8   61.44    2.92
   1   4  -8   60.55    2.54
  -1  -4   8   69.23    2.88
  -1  -4   8   57.95    2.65
   0   4  -8   80.64    2.95
   0  -4   8   79.60    2.99
   0  -4   8   80.92    3.20
  -1   4  -8   93.12    3.23
   1  -4   8   93.18    3.18
   1  -4   8   93.09    3.52
  -2   4  -8   64.19    2.66
  -2   4  -8   61.81    2.25
   2  -4   8   57.88    2.45
   2  -4   8   64.09    2.92
  -3   4  -8   39.91    2.09
  -3   4  -8   38.08    2.19
   3  -4   8   42.27    2.43
   3  -4   8   36.88    2.00
  -4   4  -8   81.75    3.41
   4  -4   8   89.92    3.72
  -5   4  -8   38.08    2.67
   5  -4   8   41.66    2.88
  -6   4  -8   24.00    2.60
   6  -4   8   30.22    2.96
   5   3  -8   41.08    3.02
  -5  -3   8   47.50    3.12
   4   3  -8   51.45    2.94
  -4  -3   8   56.46    3.03
   3   3  -8   32.85    1.96
  -3  -3   8   27.33    2.13
   2   3  -8   64.02    2.62
  -2  -3   8   59.37    2.72
  -2  -3   8   66.24    2.92
   1   3  -8  123.49    3.79
  -1  -3   8  121.64    3.90
  -1  -3   8  120.60    4.19
   0   3  -8  104.18    3.45
   0  -3   8  108.94    3.43
   0  -3   8  114.89    3.95
  -1   3  -8  103.21    3.46
   1  -3   8  101.52    3.25
   1  -3   8  109.93    3.83
  -2   3  -8   87.74    2.73
  -2   3  -8   88.33    3.21
   2  -3   8   87.39    2.87
   2  -3   8   88.53    3.51
  -3   3  -8   63.10    2.53
  -3   3  -8   59.75    2.71
   3  -3   8   65.11    3.04
  -4   3  -8   48.06    2.60
   4  -3   8   55.37    2.98
  -5   3  -8   35.71    2.68
   5  -3   8   33.71    2.75
  -6   3  -8   19.37    2.45
   6  -3   8   23.47    2.74
   5   2  -8   43.85    2.97
  -5  -2   8   45.73    3.01
   4   2  -8   55.24    2.93
  -4  -2   8   54.59    3.02
   3   2  -8   72.07    3.07
   3   2  -8   73.88    2.75
  -3  -2   8   70.57    3.23
   2   2  -8  135.26    4.01
  -2  -2   8  136.46    4.58
  -2  -2   8  131.76    4.23
   1   2  -8   73.95    2.71
  -1  -2   8   74.54    3.07
  -1  -2   8   68.06    2.63
   0   2  -8  118.58    3.79
   0  -2   8  126.14    4.27
   0  -2   8  130.67    3.68
  -1   2  -8   93.62    3.20
   1  -2   8   90.50    3.47
   1  -2   8   89.79    2.78
  -2   2  -8   86.98    2.78
  -2   2  -8   93.78    3.30
   2  -2   8   88.00    3.50
  -3   2  -8   59.44    2.72
  -3   2  -8   56.15    2.47
   3  -2   8   57.04    2.93
  -4   2  -8   37.97    2.38
  -4   2  -8   37.36    2.35
   4  -2   8   37.79    2.62
  -5   2  -8   32.22    2.69
   5  -2   8   35.23    2.80
  -6   2  -8   26.58    2.78
   6  -2   8   31.07    3.17
   6   1  -8   25.80    2.62
  -6  -1   8   33.81    3.03
   5   1  -8   51.43    3.08
  -5  -1   8   55.06    3.27
   4   1  -8   61.63    3.00
  -4  -1   8   64.67    3.22
   3   1  -8  196.97    5.24
   3   1  -8  193.00    5.68
  -3  -1   8  196.09    6.09
   2   1  -8   34.74    1.85
   2   1  -8   34.65    1.85
  -2  -1   8   35.28    2.16
   1   1  -8   74.83    2.76
  -1  -1   8   73.42    3.09
   0   1  -8   99.12    3.31
   0  -1   8   99.11    3.63
   0  -1   8   98.68    2.98
  -1   1  -8   93.43    3.18
   1  -1   8   84.79    3.41
  -2   1  -8   74.35    2.57
  -2   1  -8   69.20    2.91
   2  -1   8   75.26    3.18
  -3   1  -8   87.74    3.17
  -3   1  -8   90.39    3.45
   3  -1   8   91.16    3.75
  -4   1  -8   53.87    2.79
  -4   1  -8   52.61    2.73
   4  -1   8   59.54    3.17
  -5   1  -8   30.77    2.64
   5  -1   8   32.48    2.77
   6   0  -8   40.56    3.04
  -6   0   8   42.33    3.28
   5   0  -8   48.79    2.98
  -5   0   8   52.54    3.18
   4   0  -8   80.95    3.44
  -4   0   8   81.31    3.72
   3   0  -8   54.12    2.55
   3   0  -8   54.99    2.26
  -3   0   8   52.98    2.79
   2   0  -8   78.95    2.79
   2   0  -8   76.82    2.83
  -2   0   8   77.19    3.27
   1   0  -8   85.97    2.76
   1   0  -8   81.92    2.94
  -1   0   8   80.27    3.31
   0   0  -8   74.50    2.81
   0   0   8   71.74    3.03
  -1   0  -8  115.05    3.73
  -1   0  -8  113.38    3.26
   1   0   8  111.12    4.06
  -2   0  -8  102.06    3.62
  -2   0  -8   99.91    3.27
   2   0   8   98.57    3.86
  -3   0  -8   91.92    3.32
  -3   0  -8   83.31    3.40
   3   0   8   85.49    3.74
  -4   0  -8   45.13    2.60
  -4   0  -8   51.81    2.87
   4   0   8   47.85    2.99
  -5   0  -8   38.77    2.99
   5   0   8   47.43    3.22
   6  -1  -8   21.25    2.42
  -6   1   8   22.15    2.47
   5  -1  -8   48.52    2.90
  -5   1   8   47.39    3.05
   4  -1  -8   46.06    2.61
  -4   1   8   45.86    2.82
   3  -1  -8   50.43    2.15
   3  -1  -8   49.42    2.46
  -3   1   8   52.03    2.78
   2  -1  -8  125.20    3.86
   2  -1  -8  132.10    3.98
  -2   1   8  128.54    4.52
   1  -1  -8  114.57    3.39
   1  -1  -8  116.62    3.66
  -1   1   8  111.64    4.07
   0  -1  -8   67.24    2.71
   0   1   8   64.37    2.89
  -1  -1  -8  129.49    4.21
   1   1   8  132.78    4.58
  -2  -1  -8   60.38    2.82
  -2  -1  -8   57.61    2.53
   2   1   8   58.03    2.99
  -3  -1  -8   57.75    2.92
  -3  -1  -8   58.29    2.81
   3   1   8   57.90    3.14
  -4  -1  -8   68.34    3.38
  -4  -1  -8   68.31    3.27
   4   1   8   69.87    3.63
  -5  -1  -8   36.99    3.01
   5   1   8   47.89    3.34
  -6   2   8   21.14    2.52
   5  -2  -8   49.63    3.05
  -5   2   8   47.68    3.15
   4  -2  -8   46.68    2.67
  -4   2   8   49.35    2.97
   3  -2  -8   60.91    2.41
   3  -2  -8   55.62    2.64
  -3   2   8   57.26    2.96
   2  -2  -8  150.28    4.34
   2  -2  -8  141.29    4.31
  -2   2   8  143.41    4.91
   1  -2  -8   88.03    2.83
   1  -2  -8   83.14    3.12
  -1   2   8   89.09    2.82
  -1   2   8   87.06    3.51
   0  -2  -8  102.75    3.59
   0   2   8   99.50    3.82
   0   2   8  103.90    3.18
  -1  -2  -8   37.53    2.22
   1   2   8   36.55    2.42
   1   2   8   38.42    1.73
   1   2   8   39.72    1.95
  -2  -2  -8   77.29    3.32
   2   2   8   80.80    3.68
  -3  -2  -8   58.93    3.00
  -3  -2  -8   59.75    3.09
   3   2   8   60.97    3.32
  -4  -2  -8   51.36    3.20
  -4  -2  -8   53.88    2.94
   4   2   8   50.72    3.33
  -5  -2  -8   33.59    3.28
   5   2   8   36.88    3.22
   5  -3  -8   28.11    2.62
  -5   3   8   30.68    2.67
   4  -3  -8   57.21    3.09
  -4   3   8   63.28    3.39
   3  -3  -8   82.28    3.00
   3  -3  -8   85.76    3.42
  -3   3   8   80.67    3.63
   2  -3  -8   51.30    2.41
   2  -3  -8   54.29    2.46
  -2   3   8   52.05    2.77
  -2   3   8   51.43    2.37
   1  -3  -8   96.80    3.44
  -1   3   8   88.65    3.09
  -1   3   8   88.23    3.62
   0  -3  -8   78.46    3.17
   0   3   8   74.30    2.82
   0   3   8   81.32    3.41
  -1  -3  -8   56.07    2.77
   1   3   8   55.17    2.48
   1   3   8   56.69    2.97
  -2  -3  -8   70.07    3.26
   2   3   8   71.17    3.07
   2   3   8   67.12    2.73
   2   3   8   73.54    3.58
  -3  -3  -8   56.10    3.02
   3   3   8   55.00    3.25
  -4  -3  -8   43.35    2.80
  -4  -3  -8   38.77    2.98
   4   3   8   39.04    3.10
   5  -4  -8   54.35    3.36
  -5   4   8   58.46    3.46
   4  -4  -8   57.39    3.12
  -4   4   8   51.04    3.16
   3  -4  -8   37.10    2.43
  -3   4   8   40.58    2.60
   2  -4  -8   55.37    2.67
   2  -4  -8   58.19    2.69
  -2   4   8   62.00    2.75
  -2   4   8   59.71    2.98
   1  -4  -8   74.63    3.17
  -1   4   8   71.76    2.95
  -1   4   8   71.47    3.25
   0  -4  -8   76.27    3.26
   0   4   8   71.76    3.31
   0   4   8   76.60    3.04
  -1  -4  -8   59.90    2.99
   1   4   8   60.93    2.90
   1   4   8   61.57    3.16
  -2  -4  -8   76.01    3.45
   2   4   8   72.20    2.95
   2   4   8   71.66    3.29
   2   4   8   73.50    3.71
  -3  -4  -8   33.02    2.62
   3   4   8   34.58    2.36
   3   4   8   33.61    2.60
   3   4   8   30.66    2.85
  -4  -4  -8   29.92    2.83
   4   4   8   28.67    2.89
   5  -5  -8   55.62    3.55
   4  -5  -8   21.88    2.37
   3  -5  -8   41.57    2.63
   2  -5  -8   57.05    2.77
  -2   5   8   62.64    3.01
   1  -5  -8   41.38    2.50
  -1   5   8   37.56    2.40
   0  -5  -8   54.31    2.91
   0   5   8   48.90    2.69
  -1  -5  -8   99.80    4.05
   1   5   8   95.93    3.87
  -2  -5  -8   34.23    2.55
   2   5   8   28.37    2.57
  -3  -5  -8   33.59    2.85
   3   5   8   38.54    2.57
   3   5   8   33.90    2.79
   4  -6  -8   24.29    2.52
  -3   6   8   34.54    2.98
   2  -6  -8   37.34    2.42
  -2   6   8   35.84    2.66
   1  -6  -8   64.04    3.13
  -1   6   8   54.91    3.08
   0  -6  -8   37.70    2.63
   0   6   8   37.79    2.61
  -1  -6  -8   43.94    2.97
   1   6   8   43.66    2.85
   2   6   8   46.46    3.25
  -3   7   8   30.15    2.90
   2  -7  -8   52.88    3.05
  -2   7   8   48.79    3.26
   1  -7  -8   38.67    2.81
  -1   7   8   36.85    2.74
   0   7   8   17.59    2.22
  -1  -9   9    6.89    1.80
   0   9  -9    3.50    1.43
   0  -9   9    3.81    1.57
  -1   9  -9    7.64    1.57
   1  -9   9    5.54    1.72
  -2   9  -9   18.31    2.01
   2  -9   9   15.86    2.30
   3  -9   9    9.96    2.01
   2   8  -9    6.25    1.62
  -2  -8   9    5.57    1.71
   1   8  -9    6.89    1.60
  -1  -8   9    7.41    1.73
   0   8  -9    7.14    1.49
   0  -8   9    9.51    1.85
  -1   8  -9   18.82    1.95
   1  -8   9   18.00    2.19
  -2   8  -9   16.69    1.85
   2  -8   9   10.45    1.90
  -3   8  -9    9.38    1.68
   3  -8   9    7.01    1.70
   4  -8   9    2.02    1.35
   3   7  -9    9.87    1.80
  -3  -7   9    7.74    1.94
   2   7  -9   12.23    1.82
  -2  -7   9   14.84    2.13
   1   7  -9   10.52    1.58
  -1  -7   9   11.37    1.79
   0   7  -9   15.70    1.80
   0  -7   9   16.51    2.10
  -1   7  -9    8.01    1.38
   1  -7   9    6.52    1.42
  -2   7  -9   15.35    1.79
   2  -7   9   14.10    1.88
  -3   7  -9    4.63    1.27
   3  -7   9    4.60    1.41
  -4   7  -9    7.92    1.49
   4  -7   9   10.07    1.68
  -5   7  -9    5.75    1.61
   3   6  -9    3.21    1.30
  -3  -6   9    3.57    1.60
   2   6  -9   42.64    2.64
  -2  -6   9   40.62    2.81
   1   6  -9   16.75    1.85
  -1  -6   9   15.02    1.90
   0   6  -9    3.81    1.09
   0  -6   9    2.97    1.13
  -1   6  -9   11.17    1.56
   1  -6   9   11.62    1.62
  -2   6  -9   20.39    1.92
   2  -6   9   19.49    1.95
  -3   6  -9   11.34    1.54
  -3   6  -9   11.48    1.55
   3  -6   9    7.20    1.34
  -4   6  -9   13.84    1.75
   4  -6   9   14.32    1.89
  -5   6  -9   11.39    1.90
  -5  -5   9   10.59    2.08
  -4  -5   9    9.47    1.65
   3   5  -9   12.18    1.56
  -3  -5   9    9.75    1.60
  -3  -5   9   13.50    1.96
   2   5  -9   24.31    1.99
  -2  -5   9   23.05    2.02
  -2  -5   9   24.26    2.35
   1   5  -9   25.16    1.97
  -1  -5   9   26.42    2.06
  -1  -5   9   24.95    2.07
   0   5  -9    9.55    1.38
   0  -5   9    7.80    1.35
   0  -5   9    7.51    1.30
  -1   5  -9   11.28    1.47
   1  -5   9    9.49    1.40
   1  -5   9   10.57    1.52
  -2   5  -9   22.62    1.95
   2  -5   9   23.23    2.08
   2  -5   9   19.44    1.74
  -3   5  -9   13.80    1.72
  -3   5  -9   15.58    1.52
   3  -5   9   13.16    1.62
   3  -5   9   16.33    1.98
  -4   5  -9   15.63    1.84
   4  -5   9   18.15    2.04
  -5   5  -9    9.46    1.74
   5  -5   9   11.28    1.96
   5   4  -9   13.99    2.17
  -5  -4   9   16.68    2.22
   4   4  -9   14.71    1.93
  -4  -4   9   12.97    1.86
   3   4  -9   10.11    1.48
  -3  -4   9   10.14    1.62
  -3  -4   9   10.13    1.70
   2   4  -9   17.61    1.75
  -2  -4   9   17.02    1.81
  -2  -4   9   20.50    2.03
   1   4  -9   33.27    2.15
  -1  -4   9   35.51    2.28
  -1  -4   9   33.28    2.13
   0   4  -9   14.81    1.55
   0  -4   9   13.31    1.63
   0  -4   9   14.35    1.50
  -1   4  -9    8.17    1.21
   1  -4   9    8.52    1.38
   1  -4   9   10.19    1.22
  -2   4  -9   49.32    2.55
   2  -4   9   47.40    2.27
   2  -4   9   49.04    2.78
  -3   4  -9   14.86    1.46
  -3   4  -9   13.62    1.66
   3  -4   9   13.73    1.42
   3  -4   9   12.90    1.80
  -4   4  -9    6.91    1.40
   4  -4   9    6.01    1.46
  -5   4  -9   16.84    2.10
   5  -4   9   22.02    2.44
   5   3  -9   18.37    2.25
  -5  -3   9   17.67    2.17
   4   3  -9   14.56    1.85
  -4  -3   9    9.92    1.75
   3   3  -9   10.84    1.41
  -3  -3   9    9.96    1.56
   2   3  -9   12.02    1.39
  -2  -3   9    9.10    1.48
  -2  -3   9   13.13    1.57
   1   3  -9   41.92    2.24
  -1  -3   9   41.49    2.48
  -1  -3   9   39.56    2.16
   0   3  -9   11.43    1.36
   0  -3   9   12.68    1.60
   0  -3   9   12.80    1.38
  -1   3  -9   63.93    2.82
   1  -3   9   63.47    3.04
   1  -3   9   64.47    2.49
  -2   3  -9   15.17    1.67
   2  -3   9   18.01    1.95
   2  -3   9   16.59    1.35
  -3   3  -9    8.91    1.41
  -3   3  -9    7.81    1.17
   3  -3   9   12.12    1.66
  -4   3  -9   14.54    1.73
   4  -3   9   12.49    1.88
  -5   3  -9   15.88    2.05
   5  -3   9   16.57    2.25
   5   2  -9   32.84    2.79
  -5  -2   9   32.86    2.88
   4   2  -9    5.99    1.35
  -4  -2   9    6.66    1.44
   3   2  -9   10.24    1.28
   3   2  -9    9.40    1.34
  -3  -2   9    7.02    1.39
   2   2  -9   50.46    2.37
  -2  -2   9   43.36    2.64
   1   2  -9   20.08    1.80
  -1  -2   9   18.88    1.51
  -1  -2   9   19.51    1.96
   0   2  -9   29.31    1.88
   0  -2   9   26.27    2.00
   0  -2   9   29.94    1.65
  -1   2  -9   40.53    2.23
   1  -2   9   37.22    1.74
   1  -2   9   37.71    2.35
  -2   2  -9   13.57    1.23
  -2   2  -9   16.10    1.69
   2  -2   9   14.17    1.83
  -3   2  -9    9.35    1.51
  -3   2  -9    9.44    1.29
   3  -2   9    8.38    1.51
  -4   2  -9    9.41    1.57
  -4   2  -9   10.24    1.55
   4  -2   9    9.41    1.74
  -5   2  -9   16.59    2.01
   5  -2   9   13.62    2.08
   5   1  -9   21.57    2.31
  -5  -1   9   17.09    2.14
   4   1  -9   17.06    1.88
  -4  -1   9   22.35    2.33
   3   1  -9   19.11    1.65
   3   1  -9   16.70    1.73
  -3  -1   9   16.25    1.84
   2   1  -9   44.10    2.24
   2   1  -9   41.88    2.13
  -2  -1   9   43.01    2.54
   1   1  -9   16.47    1.62
  -1  -1   9   15.11    1.77
   0   1  -9    9.69    1.34
   0  -1   9    8.58    1.35
   0  -1   9   10.03    1.07
  -1   1  -9   25.18    1.88
   1  -1   9   24.82    2.01
  -2   1  -9   22.54    1.92
  -2   1  -9   18.53    1.45
   2  -1   9   22.97    2.13
  -3   1  -9   24.11    1.84
  -3   1  -9   19.74    1.96
   3  -1   9   23.80    2.31
  -4   1  -9    8.66    1.52
  -4   1  -9   11.29    1.66
   4  -1   9   12.30    1.96
  -5   1  -9   31.12    2.78
   5  -1   9   28.08    3.00
   5   0  -9   26.23    2.46
  -5   0   9   24.81    2.50
   4   0  -9   27.65    2.22
  -4   0   9   26.92    2.44
   3   0  -9    9.96    1.22
   3   0  -9   13.67    1.54
  -3   0   9    8.80    1.45
   2   0  -9   23.46    1.74
   2   0  -9   26.32    1.66
  -2   0   9   23.37    1.98
   1   0  -9   23.61    1.72
   1   0  -9   23.81    1.45
  -1   0   9   23.86    1.96
   0   0  -9    3.52    0.93
   0   0   9    3.89    1.07
  -1   0  -9   13.61    1.48
   1   0   9   13.12    1.66
  -2   0  -9  116.63    4.11
  -2   0  -9  110.77    3.61
   2   0   9  107.13    4.35
  -3   0  -9    7.27    1.46
  -3   0  -9    8.69    1.38
   3   0   9    7.71    1.50
  -4   0  -9   16.22    1.94
  -4   0  -9   18.52    2.03
   4   0   9   21.25    2.49
  -5   0  -9    8.65    1.83
   5   0   9   15.07    2.34
   5  -1  -9   11.60    1.72
  -5   1   9   12.69    1.99
   4  -1  -9   11.08    1.56
  -4   1   9   11.38    1.78
   3  -1  -9   17.40    1.67
   3  -1  -9   15.44    1.45
  -3   1   9   15.32    1.89
   2  -1  -9   36.93    2.01
   2  -1  -9   38.89    2.07
  -2   1   9   38.65    2.50
   1  -1  -9   20.03    1.37
   1  -1  -9   24.90    1.75
  -1   1   9   22.70    1.97
   0  -1  -9    9.33    1.26
   0   1   9   11.88    1.59
  -1  -1  -9   65.28    2.96
   1   1   9   65.56    2.22
   1   1   9   61.96    3.16
   1   1   9   63.49    2.41
  -2  -1  -9   27.04    2.19
  -2  -1  -9   24.31    1.89
   2   1   9   25.99    2.41
  -3  -1  -9    9.28    1.62
  -3  -1  -9   10.33    1.54
   3   1   9   10.31    1.74
  -4  -1  -9   14.95    1.99
  -4  -1  -9   12.47    1.94
   4   1   9   12.65    2.10
  -5  -1  -9   10.07    2.05
   5  -2  -9   12.01    1.85
  -5   2   9   11.00    2.02
   4  -2  -9    9.10    1.48
  -4   2   9   10.23    1.66
   3  -2  -9   28.77    2.03
   3  -2  -9   27.69    1.83
  -3   2   9   27.57    2.35
   2  -2  -9   38.06    2.03
   2  -2  -9   40.03    2.18
  -2   2   9   35.33    2.49
   1  -2  -9   20.49    1.75
  -1   2   9   23.36    2.03
   0  -2  -9   26.65    2.00
   0   2   9   30.41    2.24
   0   2   9   30.02    1.65
  -1  -2  -9   15.64    1.73
   1   2   9   16.16    1.99
   1   2   9   14.32    1.41
   1   2   9   14.83    1.28
  -2  -2  -9    5.73    1.38
   2   2   9    4.74    1.44
  -3  -2  -9   14.28    1.94
  -3  -2  -9   16.41    1.93
   3   2   9   16.79    2.23
  -4  -2  -9   15.86    2.03
  -4  -2  -9   16.69    2.13
   4   2   9   12.45    2.11
   5  -3  -9   29.56    2.76
  -5   3   9   32.98    3.04
   4  -3  -9    6.17    1.43
  -4   3   9    4.59    1.37
   3  -3  -9   18.52    1.84
   3  -3  -9   18.13    1.68
  -3   3   9   19.60    2.09
   2  -3  -9   29.22    2.01
   2  -3  -9   35.71    2.09
  -2   3   9   35.09    2.45
   1  -3  -9   19.39    1.80
  -1   3   9   19.32    2.02
  -1   3   9   19.31    1.79
   0  -3  -9    7.84    1.37
   0   3   9    7.35    1.41
   0   3   9    7.08    1.09
  -1  -3  -9   14.16    1.88
   1   3   9   17.73    1.72
   1   3   9   20.82    2.28
  -2  -3  -9   10.44    1.74
   2   3   9   14.47    2.09
   2   3   9   13.43    1.63
   2   3   9   12.37    1.38
  -3  -3  -9   16.48    2.08
   3   3   9   17.77    2.45
  -4  -3  -9   11.84    1.97
   4   3   9   11.53    2.11
   5  -4  -9    9.53    1.88
  -5   4   9    7.87    1.80
   4  -4  -9   10.84    1.71
  -4   4   9   10.20    1.79
   3  -4  -9    7.25    1.39
  -3   4   9    6.58    1.44
   2  -4  -9   17.82    1.75
  -2   4   9   19.48    2.02
   1  -4  -9   18.25    1.85
  -1   4   9   24.79    2.14
  -1   4   9   21.79    1.84
   0  -4  -9    6.01    1.34
   0   4   9    9.19    1.34
   0   4   9    8.85    1.58
  -1  -4  -9   31.52    2.44
   1   4   9   35.79    2.40
   1   4   9   36.48    2.67
  -2  -4  -9   29.85    2.49
   2   4   9   24.92    2.67
   2   4   9   33.93    2.40
  -3  -4  -9    2.39    1.29
   3   4   9    5.25    1.47
   3   4   9    4.20    1.21
   3   4   9    4.87    1.67
   4  -5  -9   11.59    1.98
   2  -5  -9   21.40    2.01
   1  -5  -9   16.39    1.87
  -1   5   9   19.25    1.96
   0  -5  -9   12.27    1.75
   0   5   9   13.80    1.78
  -1  -5  -9   29.81    2.53
   1   5   9   31.67    2.46
  -2  -5  -9   15.49    2.12
   2   5   9   12.42    1.97
   2  -6  -9   19.98    2.13
   1  -6  -9    3.74    1.40
  -1   6   9    4.94    1.35
   0  -6  -9   23.15    2.49
   0   6   9   23.01    2.28
   1   6   9    6.86    1.60
  -1   9 -10   23.09    2.21
   1  -9  10   20.60    2.67
  -2   9 -10   27.81    2.51
   2  -9  10   21.77    2.82
   2   8 -10   23.64    2.51
   1   8 -10   34.43    2.79
  -1  -8  10   32.93    2.83
   0   8 -10   19.65    2.19
   0  -8  10   20.93    2.50
  -1   8 -10   43.05    2.82
   1  -8  10   41.19    2.94
  -2   8 -10   35.23    2.81
   2  -8  10   35.54    2.90
  -3   8 -10   23.79    2.27
   3  -8  10   21.92    2.54
   4  -8  10   17.42    2.32
   3   7 -10   25.68    2.40
  -3  -7  10   29.16    3.13
   2   7 -10   49.41    3.07
  -2  -7  10   50.40    3.32
   1   7 -10   35.53    2.56
  -1  -7  10   33.66    2.75
   0   7 -10   29.87    2.36
   0  -7  10   30.33    2.52
  -1   7 -10   42.28    2.76
   1  -7  10   45.92    2.90
  -2   7 -10   41.46    2.77
   2  -7  10   32.81    2.59
  -3   7 -10   23.05    2.14
   3  -7  10   20.15    2.28
   4  -7  10   15.22    1.99
   3   6 -10   56.66    3.16
  -3  -6  10   51.19    3.43
   2   6 -10   35.05    2.57
  -2  -6  10   36.91    2.88
   1   6 -10   37.61    2.56
  -1  -6  10   38.50    2.69
   0   6 -10   29.62    2.33
   0  -6  10   30.23    2.35
  -1   6 -10   34.11    2.54
   1  -6  10   37.51    2.47
  -2   6 -10   45.63    2.75
   2  -6  10   43.51    2.62
  -3   6 -10   44.41    2.79
   3  -6  10   40.09    2.58
  -4  -5  10   33.27    2.94
   3   5 -10   43.06    2.82
  -3  -5  10   45.95    3.13
  -3  -5  10   44.51    2.99
   2   5 -10   33.79    2.49
  -2  -5  10   34.50    2.56
  -2  -5  10   32.34    2.62
   1   5 -10   40.47    2.65
  -1  -5  10   41.69    2.58
  -1  -5  10   45.21    2.80
   0   5 -10   79.01    3.35
   0  -5  10   76.89    3.26
   0  -5  10   73.81    3.45
  -1   5 -10   56.49    2.88
   1  -5  10   51.17    2.67
   1  -5  10   55.09    2.99
  -2   5 -10   42.60    2.65
   2  -5  10   43.56    2.43
   2  -5  10   43.93    2.78
  -3   5 -10   53.68    2.92
   3  -5  10   52.19    2.67
   3  -5  10   53.68    3.20
   4  -5  10   48.85    3.33
  -5   5 -10   24.46    2.42
   5  -5  10   27.34    2.85
  -5  -4  10   11.74    2.38
   4   4 -10   29.38    2.74
  -4  -4  10   35.85    2.88
   3   4 -10   38.13    2.49
  -3  -4  10   35.94    2.77
   2   4 -10   55.84    2.88
  -2  -4  10   62.22    3.24
  -2  -4  10   54.57    3.00
   1   4 -10  122.56    4.21
  -1  -4  10  115.97    4.22
  -1  -4  10  120.57    4.65
   0   4 -10   64.76    2.98
   0  -4  10   63.95    2.86
   0  -4  10   67.84    3.31
  -1   4 -10   59.96    2.92
   1  -4  10   61.28    2.70
   1  -4  10   61.32    3.11
  -2   4 -10   36.21    2.49
   2  -4  10   43.74    2.80
   2  -4  10   39.24    2.15
  -3   4 -10   45.59    2.75
   3  -4  10   45.22    3.10
  -4   4 -10   35.26    2.45
   4  -4  10   37.73    2.94
  -5   4 -10   29.06    2.63
   5  -4  10   34.82    3.06
  -5  -3  10   23.43    2.58
   4   3 -10   54.26    3.22
  -4  -3  10   48.88    3.35
   3   3 -10   37.26    2.53
   3   3 -10   36.59    2.36
  -3  -3  10   41.25    2.82
   2   3 -10  143.14    4.64
  -2  -3  10  142.49    4.84
  -2  -3  10  145.12    5.28
   1   3 -10   43.27    2.47
  -1  -3  10   39.44    2.65
  -1  -3  10   40.65    2.31
   0   3 -10   69.11    3.05
   0  -3  10   66.03    2.75
   0  -3  10   68.72    3.32
  -1   3 -10   61.31    2.91
   1  -3  10   65.87    3.22
   1  -3  10   59.10    2.49
  -2   3 -10   51.91    2.80
   2  -3  10   50.88    3.04
  -3   3 -10   26.88    1.93
  -3   3 -10   27.96    2.32
   3  -3  10   31.82    2.70
  -4   3 -10   44.28    2.74
   4  -3  10   56.47    3.41
  -5   3 -10   36.50    2.91
   5  -3  10   43.93    3.41
   5   2 -10   61.05    3.62
  -5  -2  10   69.41    3.97
   4   2 -10   54.65    3.16
  -4  -2  10   60.16    3.58
   3   2 -10   70.86    3.27
   3   2 -10   70.19    3.06
  -3  -2  10   73.09    3.72
   2   2 -10   29.16    2.07
  -2  -2  10   32.05    2.48
   1   2 -10   62.47    2.83
  -1  -2  10   61.38    3.15
  -1  -2  10   60.92    2.66
   0   2 -10   77.53    3.24
   0  -2  10   80.31    2.90
   0  -2  10   78.85    3.56
  -1   2 -10   73.12    3.11
   1  -2  10   66.57    2.50
   1  -2  10   67.04    3.28
  -2   2 -10   71.47    3.27
   2  -2  10   69.40    3.54
  -3   2 -10   56.13    2.97
  -3   2 -10   53.45    2.55
   3  -2  10   56.15    3.37
  -4   2 -10   41.85    2.66
  -4   2 -10   42.84    2.85
   4  -2  10   48.42    3.26
  -5   2 -10   23.92    2.47
   5  -2  10   21.67    2.69
   5   1 -10   34.06    2.85
  -5  -1  10   35.95    3.04
   4   1 -10   57.97    3.17
  -4  -1  10   55.88    3.44
   3   1 -10   53.42    2.62
   3   1 -10   51.93    2.74
  -3  -1  10   53.20    3.11
   2   1 -10   29.43    1.91
   2   1 -10   28.30    1.99
  -2  -1  10   30.23    2.37
   1   1 -10   78.33    3.21
   1   1 -10   83.92    3.00
  -1  -1  10   82.05    3.66
   0   1 -10  107.75    3.81
   0  -1  10  103.39    4.14
  -1   1 -10   65.05    3.02
   1  -1  10   64.26    3.21
  -2   1 -10  100.86    3.36
  -2   1 -10   99.43    3.93
   2  -1  10  104.65    4.37
  -3   1 -10   41.79    2.82
  -3   1 -10   42.37    2.38
   3  -1  10   44.31    3.06
  -4   1 -10   28.85    2.42
  -4   1 -10   25.41    2.47
   4  -1  10   28.94    2.92
  -5   1 -10   31.63    2.86
   5  -1  10   36.33    3.71
   5   0 -10   25.78    2.47
  -5   0  10   24.20    2.72
   4   0 -10   62.07    3.28
  -4   0  10   65.91    3.72
   3   0 -10   63.95    2.97
   3   0 -10   59.68    2.75
  -3   0  10   65.64    3.48
   2   0 -10   53.83    2.59
   2   0 -10   50.06    2.43
  -2   0  10   50.30    2.98
   1   0 -10  111.80    3.54
   1   0 -10  115.08    3.96
  -1   0  10  103.21    4.29
   0   0 -10   63.65    2.90
   0   0  10   64.29    3.18
  -1   0 -10   90.58    3.58
   1   0  10   87.33    3.87
  -2   0 -10   39.91    2.60
  -2   0 -10   39.54    2.18
   2   0  10   36.74    2.82
  -3   0 -10   67.65    3.41
  -3   0 -10   62.54    2.96
   3   0  10   59.63    3.63
  -4   0 -10   34.61    2.84
  -4   0 -10   36.28    2.68
   4   0  10   38.66    3.10
  -5   0 -10   27.19    2.82
   5  -1 -10   39.46    2.95
  -5   1  10   44.28    3.46
   4  -1 -10   44.72    2.83
  -4   1  10   44.66    3.20
   3  -1 -10   71.25    3.22
   3  -1 -10   77.31    3.09
  -3   1  10   74.84    3.79
   2  -1 -10   98.86    3.63
   2  -1 -10  100.56    3.58
  -2   1  10   98.25    4.24
   1  -1 -10   54.35    2.66
  -1   1  10   49.02    2.91
   0  -1 -10   59.01    2.91
   0   1  10   59.76    3.15
  -1  -1 -10   55.12    2.89
   1   1  10   54.46    3.13
  -2  -1 -10   52.30    3.00
   2   1  10   58.21    3.44
  -3  -1 -10   55.20    3.28
  -3  -1 -10   62.15    3.07
   3   1  10   58.27    3.66
  -4  -1 -10   48.63    3.23
  -4  -1 -10   44.77    3.02
   4   1  10   42.30    3.35
   5  -2 -10   32.95    2.85
  -5   2  10   28.03    2.97
   4  -2 -10   62.42    3.34
  -4   2  10   64.50    3.74
   3  -2 -10   61.68    2.80
   3  -2 -10   64.97    3.00
  -3   2  10   58.56    3.41
   2  -2 -10   56.00    2.55
   2  -2 -10   53.10    2.65
  -2   2  10   52.82    3.14
   1  -2 -10   62.15    2.92
  -1   2  10   59.17    3.21
   0  -2 -10   58.66    2.96
   0   2  10   59.32    3.21
  -1  -2 -10   47.71    2.83
   1   2  10   47.73    2.28
   1   2  10   48.31    3.06
  -2  -2 -10   54.97    3.13
   2   2  10   54.38    3.45
   2   2  10   53.80    2.45
   2   2  10   54.06    2.66
  -3  -2 -10   72.92    3.76
   3   2  10   71.23    4.12
  -4  -2 -10   30.46    2.85
  -4  -2 -10   28.73    2.80
   4   2  10   39.80    3.78
   4  -3 -10   58.21    3.36
  -4   3  10   62.76    3.71
   3  -3 -10   29.87    2.36
  -3   3  10   36.61    2.89
   2  -3 -10   48.91    2.63
  -2   3  10   46.76    3.01
   1  -3 -10   86.76    3.62
  -1   3  10   78.24    3.79
   0  -3 -10   48.06    2.84
   0   3  10   52.75    3.08
  -1  -3 -10   33.14    2.55
   1   3  10   41.51    2.88
   1   3  10   34.33    2.25
  -2  -3 -10   76.66    3.83
   2   3  10   80.90    3.13
   2   3  10   83.54    4.22
   2   3  10   80.87    3.49
  -3  -3 -10   33.96    2.80
   3   3  10   28.68    3.02
   3   3  10   28.74    2.31
   3   3  10   34.41    2.59
   4  -4 -10   49.26    3.19
  -4   4  10   51.00    3.47
  -3   4  10   29.11    2.71
   2  -4 -10   40.55    2.55
  -2   4  10   39.49    2.88
   1  -4 -10   54.98    3.08
  -1   4  10   60.94    3.27
   0  -4 -10   79.74    3.78
   0   4  10   83.03    3.93
  -1  -4 -10   39.83    2.82
   1   4  10   37.22    2.48
   1   4  10   40.82    2.99
  -2  -4 -10   31.27    2.71
   2   4  10   35.28    3.02
   2   4  10   31.14    2.53
   3   4  10   37.05    3.45
   2  -5 -10   28.47    2.38
   1  -5 -10   66.46    3.41
   0  -5 -10   48.47    3.14
   0   5  10   53.65    2.94
  -1  -5 -10   23.54    2.62
   1   5  10   27.60    2.48
   2  -6 -10   30.28    2.56
   0   6  10   33.08    2.73
   1   8 -11   18.21    2.20
  -1  -8  11   14.41    2.31
   0   8 -11    9.94    1.71
   0  -8  11   10.16    1.99
  -1   8 -11    1.90    1.38
   1  -8  11    2.04    1.43
  -2   8 -11    6.48    1.66
   2  -8  11    8.18    1.85
  -3   8 -11   10.12    1.82
   3  -8  11    8.33    1.84
   2   7 -11    9.33    1.84
  -2  -7  11    5.41    1.81
   1   7 -11    8.75    1.75
  -1  -7  11    5.43    1.69
   0   7 -11   10.47    1.79
   0  -7  11    6.46    1.65
  -1   7 -11    7.05    1.65
   1  -7  11    9.06    1.78
  -2   7 -11   11.84    1.88
   2  -7  11    9.63    1.79
  -3   7 -11    7.62    1.78
   3  -7  11    7.15    1.63
   3   6 -11   11.70    1.96
  -3  -6  11   12.91    2.30
   2   6 -11   15.17    2.06
  -2  -6  11    9.84    1.90
   1   6 -11    8.54    1.68
  -1  -6  11    6.50    1.55
   0   6 -11   16.73    2.08
   0  -6  11   13.62    1.89
  -1   6 -11    7.59    1.56
   1  -6  11    8.28    1.53
  -2   6 -11    8.76    1.70
   2  -6  11    9.45    1.68
  -3   6 -11   27.01    2.49
   3  -6  11   27.17    2.79
  -4  -5  11    9.23    1.97
   3   5 -11   15.24    1.96
  -3  -5  11   15.61    2.28
  -3  -5  11    8.60    1.74
   2   5 -11   12.42    1.78
  -2  -5  11   13.53    1.98
  -2  -5  11   13.18    1.99
   1   5 -11   12.83    1.75
  -1  -5  11    9.94    1.76
  -1  -5  11   13.27    1.89
   0   5 -11   19.62    2.02
   0  -5  11   21.26    2.07
   0  -5  11   18.75    2.06
  -1   5 -11    1.71    1.22
   1  -5  11    3.51    1.26
   1  -5  11    3.53    1.19
  -2   5 -11   33.69    2.69
   2  -5  11   33.09    2.64
   2  -5  11   34.48    2.30
  -3   5 -11   13.76    1.92
   3  -5  11   11.86    2.05
   4  -5  11    6.42    1.84
   5  -5  11    7.65    2.13
   4   4 -11   19.03    2.32
  -4  -4  11   27.61    2.80
   3   4 -11    9.96    1.62
  -3  -4  11    6.03    1.61
   2   4 -11    8.36    1.55
  -2  -4  11    6.07    1.45
  -2  -4  11    6.31    1.65
   1   4 -11   44.80    2.79
  -1  -4  11   47.02    2.69
  -1  -4  11   45.64    2.95
   0   4 -11   15.54    1.90
   0  -4  11   14.37    1.64
   0  -4  11   16.44    2.03
  -1   4 -11   10.26    1.71
   1  -4  11   10.28    1.41
   1  -4  11   11.01    1.74
  -2   4 -11   20.03    2.14
   2  -4  11   20.20    2.25
  -3   4 -11   10.01    1.79
   3  -4  11   12.47    2.14
   4  -4  11    6.69    1.99
   5  -4  11    7.29    1.93
   4   3 -11    5.12    1.48
  -4  -3  11    8.33    1.80
   3   3 -11   10.35    1.60
   3   3 -11    9.31    1.56
  -3  -3  11   14.18    2.10
   2   3 -11   12.49    1.73
  -2  -3  11   16.82    2.15
   1   3 -11   40.20    2.65
  -1  -3  11   45.62    2.98
  -1  -3  11   44.00    2.47
   0   3 -11   20.42    2.08
   0  -3  11   17.46    1.69
   0  -3  11   17.72    2.14
  -1   3 -11   10.19    1.65
   1  -3  11   10.30    1.26
   1  -3  11    7.67    1.50
  -2   3 -11   11.49    1.75
   2  -3  11   11.13    1.82
  -3   3 -11    9.65    1.70
   3  -3  11    8.22    1.81
   4  -3  11   15.09    2.32
  -5   3 -11    8.72    1.81
   4   2 -11   20.22    2.15
  -4  -2  11   19.91    2.43
   3   2 -11   18.06    2.01
   3   2 -11   18.56    1.91
  -3  -2  11   18.23    2.24
   2   2 -11    7.84    1.28
   2   2 -11    8.91    1.49
  -2  -2  11    8.40    1.65
   1   2 -11   26.99    2.42
  -1  -2  11   20.89    2.26
   0   2 -11   29.30    2.30
   0  -2  11   29.04    2.42
   0  -2  11   28.75    1.82
  -1   2 -11   11.44    1.73
   1  -2  11   10.59    1.75
  -2   2 -11    3.04    1.28
   2  -2  11    3.07    1.34
  -3   2 -11   58.99    3.23
   3  -2  11   52.44    3.50
  -4   2 -11    4.78    1.45
  -4   2 -11    2.86    1.43
   4  -2  11    3.54    1.64
  -5   2 -11   11.08    2.06
   4   1 -11   16.68    2.02
  -4  -1  11   16.68    2.33
   3   1 -11    9.50    1.41
   3   1 -11    8.76    1.42
  -3  -1  11    8.55    1.65
   2   1 -11    9.94    1.49
   2   1 -11   13.06    1.53
  -2  -1  11   11.45    1.82
   1   1 -11   23.76    1.67
   1   1 -11   25.77    2.30
  -1  -1  11   27.54    2.37
   0   1 -11   19.94    2.03
   0  -1  11   24.03    2.23
  -1   1 -11   15.28    1.83
   1  -1  11   14.10    1.93
  -2   1 -11   53.43    2.98
   2  -1  11   49.51    3.26
  -3   1 -11   19.42    2.24
   3  -1  11   11.25    2.06
  -4   1 -11    2.13    1.38
  -4   1 -11    2.28    1.28
   4  -1  11    5.51    1.94
  -5   1 -11    3.78    1.82
   4   0 -11   19.54    2.20
  -4   0  11   22.00    2.51
   3   0 -11   12.67    1.53
   3   0 -11   13.92    1.66
  -3   0  11   13.76    2.04
   2   0 -11   20.33    1.84
   2   0 -11   22.49    1.94
  -2   0  11   22.61    2.46
   1   0 -11   23.87    2.14
  -1   0  11   30.44    2.80
   0   0 -11   18.48    1.92
   0   0  11   20.32    2.24
  -1   0 -11   32.99    2.42
   1   0  11   32.72    2.62
  -2   0 -11   21.70    2.27
   2   0  11   22.54    2.61
  -3   0 -11    4.12    1.39
  -3   0 -11    6.32    1.65
   3   0  11    3.17    1.57
  -4   0 -11    4.56    1.57
  -4   0 -11    3.58    1.45
   4   0  11    7.88    2.07
   4  -1 -11   41.60    2.87
  -4   1  11   51.49    3.55
   3  -1 -11    7.12    1.39
   3  -1 -11    8.72    1.35
  -3   1  11    9.71    1.82
   2  -1 -11   20.27    1.95
   2  -1 -11   22.25    1.81
  -2   1  11   21.16    2.39
   1  -1 -11   24.99    2.09
  -1   1  11   26.82    2.45
   0  -1 -11   10.37    1.53
   0   1  11   11.25    1.81
  -1  -1 -11    8.23    1.50
   1   1  11    9.00    1.71
  -2  -1 -11   18.64    2.19
   2   1  11   18.90    2.40
  -3  -1 -11    9.70    1.64
  -3  -1 -11   15.77    2.11
   3   1  11   11.96    2.18
  -4  -1 -11   12.53    2.03
  -4  -1 -11   13.79    2.10
   4  -2 -11    8.81    1.67
  -4   2  11   10.64    1.95
   3  -2 -11   16.54    1.84
  -3   2  11   18.07    2.27
   2  -2 -11    8.41    1.37
  -2   2  11   10.87    1.80
   1  -2 -11   14.10    1.76
  -1   2  11   18.99    2.17
   0  -2 -11   16.38    1.96
   0   2  11   15.20    2.08
  -1  -2 -11    5.24    1.33
   1   2  11    9.15    1.87
  -2  -2 -11   19.55    2.18
   2   2  11   27.46    2.81
  -3  -2 -11   28.83    2.83
   3   2  11   37.36    3.42
   4  -3 -11    6.30    1.60
  -4   3  11    5.64    1.71
  -3   3  11   13.53    2.06
   2  -3 -11   14.19    1.75
  -2   3  11   13.61    1.95
   1  -3 -11   28.80    2.43
  -1   3  11   30.73    2.63
   0  -3 -11   14.47    1.94
   0   3  11   14.66    2.07
  -1  -3 -11    8.95    1.60
   1   3  11   11.23    1.97
  -2  -3 -11   22.24    2.57
   2   3  11   28.03    2.87
   3   3  11   12.82    1.76
   3   3  11   12.03    1.87
  -3   4  11   24.02    2.61
   2  -4 -11   12.78    1.71
  -2   4  11   12.21    1.89
   1  -4 -11   31.09    2.58
  -1   4  11   28.78    2.66
   0  -4 -11    8.35    1.81
   0   4  11   10.08    1.86
  -1  -4 -11   17.02    2.13
   1   4  11   19.77    2.52
   2   4  11    2.95    1.48
   2   4  11    4.39    1.62
   2  -5 -11   17.72    2.11
   1  -5 -11    9.04    1.78
  -1   8 -12   16.73    2.60
   1  -8  12   22.57    2.66
  -2   8 -12   20.40    2.48
   2  -8  12   16.75    2.42
   1   7 -12   14.20    2.08
  -1  -7  12   14.28    2.24
   0   7 -12   16.41    2.08
   0  -7  12   19.01    2.41
  -1   7 -12   50.53    3.27
   1  -7  12   40.37    3.05
  -2   7 -12   36.88    3.02
   2  -7  12   31.15    2.78
  -3   7 -12   18.30    2.26
   3   6 -12   25.09    2.57
   2   6 -12   27.92    2.68
  -2  -6  12   21.23    2.59
   1   6 -12   23.93    2.40
  -1  -6  12   21.40    2.39
   0   6 -12   60.27    3.44
   0  -6  12   63.30    3.41
  -1   6 -12   37.61    2.86
   1  -6  12   36.43    2.65
  -2   6 -12   37.51    2.99
   2  -6  12   32.83    2.62
  -3   6 -12   24.26    2.47
   3   5 -12   53.12    3.31
  -3  -5  12   53.01    3.70
   2   5 -12   33.19    2.84
  -2  -5  12   26.47    2.70
  -2  -5  12   30.78    2.83
   1   5 -12   91.41    4.07
  -1  -5  12   89.80    4.05
  -1  -5  12   90.78    4.45
   0   5 -12   22.22    2.31
   0  -5  12   28.14    2.62
   0  -5  12   25.03    2.25
  -1   5 -12   35.25    2.82
   1  -5  12   28.30    2.31
   1  -5  12   38.95    2.92
  -2   5 -12   33.06    2.76
   2  -5  12   35.50    2.91
  -3   5 -12   41.52    3.11
   3  -5  12   44.86    3.37
   4  -5  12   18.79    2.71
  -4  -4  12   31.90    3.16
   3   4 -12   46.90    3.04
  -3  -4  12   45.46    3.40
   2   4 -12   68.71    3.53
  -2  -4  12   65.26    3.52
  -2  -4  12   73.66    4.00
   1   4 -12   26.40    2.47
  -1  -4  12   24.88    2.22
  -1  -4  12   23.14    2.48
   0   4 -12   37.91    2.81
   0  -4  12   34.64    2.88
   0  -4  12   37.11    2.43
  -1   4 -12   34.97    2.72
   1  -4  12   43.45    2.97
   1  -4  12   32.73    2.25
  -2   4 -12   33.55    2.77
   2  -4  12   33.07    2.88
  -3   4 -12   45.99    3.16
   3  -4  12   46.09    3.46
   4  -4  12   42.98    3.70
   4   3 -12   23.14    2.62
  -4  -3  12   21.76    2.66
   3   3 -12   38.52    2.68
   3   3 -12   38.78    2.77
  -3  -3  12   39.78    3.24
   2   3 -12   44.51    2.88
  -2  -3  12   48.34    3.38
   1   3 -12   29.49    2.44
  -1  -3  12   27.48    2.19
  -1  -3  12   29.15    2.69
   0   3 -12   57.33    3.25
   0  -3  12   60.65    3.46
   0  -3  12   58.94    2.79
  -1   3 -12   73.42    3.61
   1  -3  12   70.90    3.75
  -2   3 -12   33.26    2.72
   2  -3  12   31.01    2.91
  -3   3 -12   56.22    3.45
   3  -3  12   54.20    3.77
   4  -3  12   33.57    3.40
   4   2 -12   22.40    2.37
  -4  -2  12   18.26    2.62
   3   2 -12   43.58    2.86
   3   2 -12   43.92    2.78
  -3  -2  12   47.10    3.40
   2   2 -12   44.67    2.84
   2   2 -12   50.98    2.74
  -2  -2  12   46.65    3.33
   1   2 -12   45.45    2.85
  -1  -2  12   46.36    3.13
   0   2 -12  104.69    4.22
   0  -2  12  105.75    4.61
  -1   2 -12   50.73    3.10
   1  -2  12   53.82    3.32
  -2   2 -12   53.16    3.22
   2  -2  12   50.79    3.47
  -3   2 -12   19.07    2.25
   3  -2  12   21.01    2.66
  -4   2 -12   36.39    3.17
   4  -2  12   37.54    3.78
   4   1 -12   42.44    3.01
  -4  -1  12   46.05    3.57
   3   1 -12   41.71    2.72
   3   1 -12   43.31    2.71
  -3  -1  12   36.91    3.12
   2   1 -12   46.78    2.60
   2   1 -12   48.06    2.86
  -2  -1  12   51.45    3.39
   1   1 -12   80.92    3.66
  -1  -1  12   79.90    4.01
   0   1 -12   56.98    3.17
   0  -1  12   57.10    3.38
  -1   1 -12   56.23    3.10
   1  -1  12   47.09    3.21
  -2   1 -12   43.70    2.94
   2  -1  12   38.76    3.10
  -3   1 -12   29.09    2.78
   3  -1  12   35.57    3.25
  -4   1 -12   28.23    2.78
   4   0 -12   40.58    2.90
  -4   0  12   36.54    3.35
   3   0 -12   63.68    3.28
   3   0 -12   70.80    3.22
  -3   0  12   64.35    3.92
   2   0 -12   44.72    2.51
   2   0 -12   40.37    2.56
  -2   0  12   47.20    3.31
   1   0 -12   37.11    2.47
  -1   0  12   35.79    2.85
   0   0 -12   57.64    3.07
   0   0  12   51.36    3.32
  -1   0 -12   53.00    3.13
   1   0  12   52.93    3.42
  -2   0 -12   44.59    3.08
   2   0  12   43.53    3.32
  -3   0 -12   39.84    3.14
   3   0  12   39.20    3.48
  -4   0 -12   41.72    3.42
   4  -1 -12   34.69    2.73
   3  -1 -12   72.91    3.51
  -3   1  12   72.23    4.17
   2  -1 -12   31.65    2.40
  -2   1  12   34.00    2.96
   1  -1 -12   34.06    2.51
  -1   1  12   33.10    2.81
   0  -1 -12   69.71    3.45
   0   1  12   61.49    3.68
  -1  -1 -12   49.29    3.14
   1   1  12   50.65    3.44
  -2  -1 -12   35.52    2.87
   2   1  12   34.91    3.25
  -3  -1 -12   63.44    3.86
   3   1  12   70.56    4.49
   4  -2 -12   32.72    2.84
  -3   2  12   63.41    3.95
   2  -2 -12   43.24    2.77
  -2   2  12   41.61    3.25
   1  -2 -12   31.22    2.57
  -1   2  12   34.45    2.86
   0  -2 -12   43.85    3.00
   0   2  12   45.81    3.26
  -1  -2 -12   67.35    3.64
   1   2  12   65.79    3.92
  -2  -2 -12   37.01    3.01
   2   2  12   37.49    3.40
  -3   3  12   37.38    3.32
   2  -3 -12   48.34    2.98
  -2   3  12   46.08    3.41
   1  -3 -12   36.16    2.75
  -1   3  12   32.68    2.85
   0  -3 -12   67.95    3.66
   0   3  12   71.93    3.98
  -1  -3 -12   26.38    2.58
   1   3  12   35.04    3.34
   2  -4 -12   45.36    3.06
  -2   4  12   50.20    3.58
   1  -4 -12   48.98    3.33
  -1   4  12   51.59    3.51
   0   4  12   42.77    3.32
   0  -7  13    5.15    1.78
  -1   7 -13   12.74    2.15
   1  -7  13   13.33    2.16
  -2   7 -13    2.10    1.80
   2  -7  13    2.47    1.49
   1   6 -13    1.09    1.44
  -1  -6  13    1.35    1.52
   0   6 -13   20.57    2.41
   0  -6  13   20.51    2.34
  -1   6 -13    7.02    1.76
   1  -6  13   11.38    1.83
  -2   6 -13    6.88    1.80
  -3   6 -13    9.72    1.95
   3   5 -13    5.86    1.71
  -3  -5  13    5.74    1.90
   2   5 -13   11.87    2.05
  -2  -5  13   10.95    1.99
  -2  -5  13   10.93    2.04
   1   5 -13    3.45    1.50
  -1  -5  13    6.86    1.69
  -1  -5  13    6.05    1.79
   0   5 -13   24.99    2.69
   0  -5  13   19.01    2.16
   0  -5  13   16.19    2.24
  -1   5 -13   10.52    1.93
   1  -5  13    8.44    1.88
  -2   5 -13   11.54    2.03
   2  -5  13    9.93    1.88
  -3   5 -13    9.27    1.89
   3  -5  13   11.29    2.28
   3   4 -13   14.58    2.09
   3   4 -13   14.62    2.02
  -3  -4  13   11.31    2.13
   2   4 -13   20.90    2.43
  -2  -4  13   16.40    2.41
   1   4 -13   14.50    2.13
  -1  -4  13   10.19    1.75
  -1  -4  13   11.17    2.03
   0   4 -13   11.33    1.92
   0  -4  13    9.80    1.63
   0  -4  13    9.26    1.87
  -1   4 -13   14.60    2.14
   1  -4  13   14.22    2.12
  -2   4 -13    8.93    1.77
   2  -4  13    6.47    1.85
  -3   4 -13    4.47    1.64
   3  -4  13    5.11    1.90
   3   3 -13    9.17    1.73
   3   3 -13   12.25    1.90
  -3  -3  13    9.78    2.11
   2   3 -13   11.54    1.91
   2   3 -13   10.02    1.57
  -2  -3  13    9.58    2.01
   1   3 -13   19.45    2.37
  -1  -3  13   21.23    2.65
   0   3 -13   15.51    2.14
   0  -3  13   14.88    2.21
  -1   3 -13   10.45    1.92
   1  -3  13   10.76    1.98
  -2   3 -13    2.50    1.49
   2  -3  13    6.71    1.81
  -3   3 -13   38.08    3.16
   3  -3  13   35.53    3.49
   3   2 -13   15.09    1.90
   3   2 -13   10.85    1.83
  -3  -2  13   14.32    2.31
   2   2 -13   12.61    1.68
   2   2 -13   17.19    2.09
  -2  -2  13    9.79    2.07
   1   2 -13   22.30    2.48
  -1  -2  13   22.89    2.66
   0   2 -13   24.74    2.48
   0  -2  13   25.20    2.70
  -1   2 -13   16.86    2.23
   1  -2  13   13.02    2.11
  -2   2 -13   14.94    2.17
   2  -2  13   19.42    2.49
  -3   2 -13   15.67    2.16
   3  -2  13   16.40    2.54
   3   1 -13   27.92    2.53
   3   1 -13   31.83    2.50
  -3  -1  13   31.80    3.19
   2   1 -13    6.99    1.33
   2   1 -13    4.89    1.41
  -2  -1  13    5.84    1.73
   1   1 -13   17.99    2.18
  -1  -1  13   17.95    2.39
   0   1 -13   30.24    2.78
   0  -1  13   30.04    2.92
  -1   1 -13   13.30    2.04
   1  -1  13   13.47    2.06
  -2   1 -13    7.35    1.77
   2  -1  13    4.61    1.64
  -3   1 -13    7.62    1.82
   3   0 -13    5.81    1.53
  -3   0  13    3.58    1.62
   2   0 -13   11.12    1.64
  -2   0  13   13.61    2.26
   1   0 -13    9.91    1.83
  -1   0  13    9.87    1.99
   0   0 -13   22.93    2.51
   0   0  13   15.25    2.28
  -1   0 -13   19.81    2.28
   1   0  13   24.57    2.76
  -2   0 -13    7.75    1.76
   2   0  13    8.82    2.00
   2  -1 -13   12.27    1.79
  -2   1  13   11.74    2.14
   1  -1 -13   11.94    1.88
  -1   1  13    9.94    1.99
   0  -1 -13   21.66    2.45
   0   1  13   20.08    2.49
  -1  -1 -13   23.35    2.55
   1   1  13   20.42    2.60
  -2  -1 -13   12.79    2.31
   2   1  13   15.98    2.66
   2  -2 -13   26.46    2.45
  -2   2  13   24.59    2.81
   1  -2 -13   10.40    1.76
  -1   2  13    9.15    1.91
   0  -2 -13   18.58    2.31
   0   2  13   22.42    2.77
   1   2  13    7.33    1.89
   2  -3 -13    2.24    1.29
  -1   3  13   16.13    2.51
   0  -6  14    9.03    1.89
  -2  -5  14   24.65    2.84
   1   5 -14   30.76    3.14
  -1  -5  14   26.92    2.62
  -1  -5  14   21.33    2.76
   0   5 -14   15.63    2.40
   0  -5  14   10.12    1.86
   0  -5  14   13.87    2.22
  -1   5 -14   31.62    2.98
   1  -5  14   33.35    3.13
  -2   5 -14   45.58    3.82
   2  -5  14   48.06    3.58
   2   4 -14   36.56    3.17
  -2  -4  14   36.51    3.43
   1   4 -14   35.91    3.34
  -1  -4  14   27.91    3.01
  -1  -4  14   31.14    2.66
   0   4 -14   24.38    2.79
   0  -4  14   22.19    2.60
  -1   4 -14   57.74    3.64
   1  -4  14   50.07    3.61
  -2   4 -14   35.19    3.08
   2  -4  14   26.75    2.95
   3   3 -14   39.52    3.05
   2   3 -14   44.15    2.92
   2   3 -14   41.97    3.16
  -2  -3  14   46.42    3.68
   1   3 -14   35.38    3.04
  -1  -3  14   37.23    3.39
   0   3 -14   45.90    3.29
   0  -3  14   48.86    3.55
  -1   3 -14   35.39    3.13
   1  -3  14   30.17    3.04
  -2   3 -14   28.97    2.89
   2  -3  14   27.23    3.03
   3   2 -14   22.92    2.36
   3   2 -14   26.57    2.62
   2   2 -14   62.96    3.61
  -2  -2  14   66.44    4.28
   1   2 -14   41.40    3.19
  -1  -2  14   51.15    3.61
   0   2 -14   32.88    2.99
   0  -2  14   32.97    3.06
  -1   2 -14   28.54    2.85
   1  -2  14   37.70    3.22
  -2   2 -14   29.40    2.93
   2  -2  14   32.68    3.29
   3   1 -14   28.58    2.66
   2   1 -14   54.91    3.24
  -2  -1  14   57.49    3.93
   1   1 -14   31.97    2.88
  -1  -1  14   32.49    3.05
   0   1 -14   33.90    2.83
   0  -1  14   36.01    3.11
  -1   1 -14   43.22    3.16
   1  -1  14   49.63    3.52
   2   0 -14   41.06    2.91
   1   0 -14   37.81    2.87
  -1   0  14   36.89    3.22
   0   0 -14   34.82    2.96
   0   0  14   36.17    3.19
   2  -1 -14   32.71    2.74
   1  -1 -14   31.47    2.94
   0  -5  15    7.18    1.96
   1  -5  15   10.77    2.40
   0  -4  15    6.08    1.95
   0   0   0    0.00    0.00
;
_shelx_hkl_checksum              80676
#END Tags that were not found in dictionaries
loop_
_space_group_symop_operation_xyz
'x, y, z'
'-x, -y, -z'
loop_
_atom_site_label
_atom_site_type_symbol
_atom_site_fract_x
_atom_site_fract_y
_atom_site_fract_z
_atom_site_U_iso_or_equiv
_atom_site_adp_type
_atom_site_occupancy
_atom_site_site_symmetry_order
_atom_site_calc_flag
_atom_site_refinement_flags_posn
_atom_site_refinement_flags_adp
_atom_site_refinement_flags_occupancy
C1 C 0.6918(7) 0.1811(5) 0.3456(3) 0.0077(7) Uani 1 1 d . . .
C2 C 0.5137(7) 0.0213(5) 0.2634(3) 0.0075(7) Uani 1 1 d . . .
C3 C 0.5820(7) -0.0672(5) 0.1440(3) 0.0087(7) Uani 1 1 d . . .
H3 H 0.7356 -0.0260 0.1124 0.010 Uiso 1 1 calc R U .
C4 C 0.4138(7) -0.2183(5) 0.0739(3) 0.0079(7) Uani 1 1 d . . .
C5 C 0.1204(7) -0.1913(5) 0.2301(3) 0.0093(7) Uani 1 1 d . . .
H5 H -0.0372 -0.2326 0.2579 0.011 Uiso 1 1 calc R U .
C6 C 0.2802(7) -0.0419(5) 0.3069(3) 0.0095(7) Uani 1 1 d . . .
H6 H 0.2324 0.0152 0.3861 0.011 Uiso 1 1 calc R U .
C7 C 0.4701(7) -0.3340(5) -0.0530(3) 0.0088(7) Uani 1 1 d . . .
N1 N 0.1883(6) -0.2776(4) 0.1166(3) 0.0074(6) Uani 1 1 d . . .
O1 O 1.1751(5) 0.3656(4) 0.5665(2) 0.0124(5) Uani 1 1 d . . .
O2 O 0.6385(5) 0.2441(4) 0.4576(2) 0.0119(5) Uani 1 1 d . . .
O3 O 0.8899(5) 0.2516(4) 0.3014(2) 0.0133(5) Uani 1 1 d . . .
O4 O 0.6774(5) -0.2954(4) -0.0976(2) 0.0131(5) Uani 1 1 d . . .
O5 O 0.2928(5) -0.4698(3) -0.1030(2) 0.0106(5) Uani 1 1 d . . .
OW1 O 1.3024(5) 0.5005(4) 0.3339(3) 0.0118(5) Uani 1 1 d . . .
Cu1 Cu 0.0000 -0.5000 0.0000 0.00797(12) Uani 1 2 d S . P
U1 U 1.0000 0.5000 0.5000 0.00715(6) Uani 1 2 d S . P
HW1A H 1.433(11) 0.567(7) 0.353(5) 0.029(15) Uiso 1 1 d . . .
HW1B H 1.303(10) 0.433(8) 0.263(6) 0.033(15) Uiso 1 1 d . . .
loop_
_atom_site_aniso_label
_atom_site_aniso_U_11
_atom_site_aniso_U_22
_atom_site_aniso_U_33
_atom_site_aniso_U_23
_atom_site_aniso_U_13
_atom_site_aniso_U_12
C1 0.0106(17) 0.0050(15) 0.0046(15) -0.0029(12) -0.0022(12) 0.0002(13)
C2 0.0090(16) 0.0076(16) 0.0050(16) 0.0015(13) -0.0014(12) -0.0007(13)
C3 0.0088(16) 0.0092(16) 0.0064(16) -0.0001(13) 0.0013(13) -0.0004(13)
C4 0.0099(16) 0.0068(15) 0.0060(16) -0.0002(12) 0.0002(13) 0.0010(13)
C5 0.0097(17) 0.0100(17) 0.0083(16) 0.0034(13) 0.0043(13) 0.0000(13)
C6 0.0093(16) 0.0116(17) 0.0067(16) 0.0008(13) 0.0023(13) 0.0015(13)
C7 0.0121(17) 0.0089(16) 0.0035(15) -0.0011(12) 0.0003(13) 0.0007(13)
N1 0.0090(14) 0.0066(13) 0.0057(14) 0.0009(11) -0.0006(11) 0.0003(11)
O1 0.0115(13) 0.0119(13) 0.0107(13) -0.0014(10) 0.0026(10) -0.0001(10)
O2 0.0128(13) 0.0121(13) 0.0060(12) -0.0034(10) 0.0025(10) -0.0025(10)
O3 0.0107(13) 0.0135(13) 0.0108(13) -0.0017(10) 0.0031(10) -0.0042(10)
O4 0.0109(13) 0.0149(13) 0.0093(13) -0.0018(10) 0.0051(10) -0.0022(10)
O5 0.0108(12) 0.0100(12) 0.0075(12) -0.0013(10) 0.0025(10) -0.0022(10)
OW1 0.0089(13) 0.0147(14) 0.0063(13) -0.0033(11) 0.0018(10) -0.0035(11)
Cu1 0.0079(3) 0.0074(3) 0.0050(3) -0.0020(2) 0.0012(2) -0.0031(2)
U1 0.00605(9) 0.00862(10) 0.00397(9) -0.00169(6) 0.00067(6) -0.00138(6)
loop_
_atom_type_symbol
_atom_type_description
_atom_type_scat_dispersion_real
_atom_type_scat_dispersion_imag
_atom_type_scat_source
C C 0.0033 0.0016 'International Tables Vol C Tables 4.2.6.8 and 6.1.1.4'
H H 0.0000 0.0000 'International Tables Vol C Tables 4.2.6.8 and 6.1.1.4'
N N 0.0061 0.0033 'International Tables Vol C Tables 4.2.6.8 and 6.1.1.4'
O O 0.0106 0.0060 'International Tables Vol C Tables 4.2.6.8 and 6.1.1.4'
Cu Cu 0.3201 1.2651 'International Tables Vol C Tables 4.2.6.8 and 6.1.1.4'
U U -9.6767 9.6646 'International Tables Vol C Tables 4.2.6.8 and 6.1.1.4'
loop_
_geom_angle_atom_site_label_1
_geom_angle_atom_site_label_2
_geom_angle_atom_site_label_3
_geom_angle
_geom_angle_site_symmetry_1
_geom_angle_site_symmetry_3
O2 C1 O3 121.0(3) . .
O2 C1 C2 119.0(3) . .
O3 C1 C2 120.0(3) . .
O2 C1 U1 59.59(18) . .
O3 C1 U1 61.49(18) . .
C2 C1 U1 175.6(2) . .
C6 C2 C3 119.5(3) . .
C6 C2 C1 119.9(3) . .
C3 C2 C1 120.6(3) . .
C4 C3 C2 118.1(3) . .
N1 C4 C3 121.9(3) . .
N1 C4 C7 114.4(3) . .
C3 C4 C7 123.7(3) . .
N1 C5 C6 121.4(3) . .
C5 C6 C2 118.9(3) . .
O4 C7 O5 125.9(3) . .
O4 C7 C4 119.3(3) . .
O5 C7 C4 114.8(3) . .
C5 N1 C4 120.2(3) . .
C5 N1 Cu1 127.4(2) . .
C4 N1 Cu1 112.3(2) . .
C1 O2 U1 94.2(2) . .
C1 O3 U1 92.2(2) . .
C7 O5 Cu1 114.8(2) . .
O5 Cu1 O5 180.0 2_545 .
O5 Cu1 N1 96.39(11) 2_545 .
O5 Cu1 N1 83.61(11) . .
O5 Cu1 N1 83.61(11) 2_545 2_545
O5 Cu1 N1 96.39(11) . 2_545
N1 Cu1 N1 180.0 . 2_545
O1 U1 O1 180.0 . 2_766
O1 U1 OW1 90.22(11) . 2_766
O1 U1 OW1 89.78(11) 2_766 2_766
O1 U1 OW1 89.78(11) . .
O1 U1 OW1 90.22(11) 2_766 .
OW1 U1 OW1 180.0 2_766 .
O1 U1 O2 88.63(11) . .
O1 U1 O2 91.37(11) 2_766 .
OW1 U1 O2 63.75(9) 2_766 .
OW1 U1 O2 116.25(9) . .
O1 U1 O2 91.37(11) . 2_766
O1 U1 O2 88.63(11) 2_766 2_766
OW1 U1 O2 116.25(9) 2_766 2_766
OW1 U1 O2 63.75(9) . 2_766
O2 U1 O2 180.00(9) . 2_766
O1 U1 O3 91.95(10) . .
O1 U1 O3 88.05(10) 2_766 .
OW1 U1 O3 116.14(9) 2_766 .
OW1 U1 O3 63.86(9) . .
O2 U1 O3 52.52(8) . .
O2 U1 O3 127.48(8) 2_766 .
O1 U1 O3 88.05(10) . 2_766
O1 U1 O3 91.95(10) 2_766 2_766
OW1 U1 O3 63.86(9) 2_766 2_766
OW1 U1 O3 116.14(9) . 2_766
O2 U1 O3 127.48(8) . 2_766
O2 U1 O3 52.52(8) 2_766 2_766
O3 U1 O3 180.00(9) . 2_766
O1 U1 C1 91.25(11) . .
O1 U1 C1 88.75(11) 2_766 .
OW1 U1 C1 89.80(10) 2_766 .
OW1 U1 C1 90.20(10) . .
O2 U1 C1 26.19(9) . .
O2 U1 C1 153.81(9) 2_766 .
O3 U1 C1 26.36(9) . .
O3 U1 C1 153.64(9) 2_766 .
O1 U1 C1 88.75(11) . 2_766
O1 U1 C1 91.25(11) 2_766 2_766
OW1 U1 C1 90.20(10) 2_766 2_766
OW1 U1 C1 89.80(10) . 2_766
O2 U1 C1 153.81(9) . 2_766
O2 U1 C1 26.19(9) 2_766 2_766
O3 U1 C1 153.64(9) . 2_766
O3 U1 C1 26.36(9) 2_766 2_766
C1 U1 C1 180.0 . 2_766
loop_
_geom_bond_atom_site_label_1
_geom_bond_atom_site_label_2
_geom_bond_distance
_geom_bond_site_symmetry_2
C1 O2 1.257(4) .
C1 O3 1.261(4) .
C1 C2 1.501(5) .
C1 U1 2.839(3) .
C2 C6 1.392(5) .
C2 C3 1.399(5) .
C3 C4 1.388(5) .
C4 N1 1.345(5) .
C4 C7 1.516(5) .
C5 N1 1.341(4) .
C5 C6 1.386(5) .
C7 O4 1.235(4) .
C7 O5 1.285(4) .
N1 Cu1 1.964(3) .
O1 U1 1.783(3) .
O2 U1 2.455(3) .
O3 U1 2.497(3) .
O5 Cu1 1.954(3) .
OW1 U1 2.446(3) .
Cu1 O5 1.954(3) 2_545
Cu1 N1 1.964(3) 2_545
U1 O1 1.783(3) 2_766
U1 OW1 2.446(3) 2_766
U1 O2 2.455(3) 2_766
U1 O3 2.497(3) 2_766
U1 C1 2.839(3) 2_766
