#------------------------------------------------------------------------------
#$Date: 2016-03-24 14:28:49 +0200 (Thu, 24 Mar 2016) $
#$Revision: 179665 $
#$URL: svn://www.crystallography.net/cod/cif/4/51/18/4511843.cif $
#------------------------------------------------------------------------------
#
# This file is available in the Crystallography Open Database (COD),
# http://www.crystallography.net/
#
# All data on this site have been placed in the public domain by the
# contributors.
#
data_4511843
loop_
_publ_author_name
'Maximo, Guilherme J.'
'Santos, Ricardo J. B. N.'
'Brand\~ao, Paula'
'Esperan\,ca, Jos\'e M. S. S.'
'Costa, Mariana C.'
'Meirelles, Antonio J. A.'
'Freire, Mara G.'
'Coutinho, Jo\~ao A. P.'
_publ_section_title
;
 Generating Ionic Liquids from Ionic Solids: An Investigation of the
 Melting Behavior of Binary Mixtures of Ionic Liquids
;
_journal_issue                   9
_journal_name_full               'Crystal Growth &amp; Design'
_journal_page_first              4270
_journal_paper_doi               10.1021/cg500655s
_journal_volume                  14
_journal_year                    2014
_chemical_formula_sum            'C9 H14 F6 N P'
_chemical_formula_weight         281.18
_chemical_name_systematic
;
 ?
;
_space_group_crystal_system      triclinic
_space_group_IT_number           2
_space_group_name_Hall           '-P 1'
_space_group_name_H-M_alt        'P -1'
_symmetry_space_group_name_Hall  '-P 1'
_symmetry_space_group_name_H-M   'P -1'
_atom_sites_solution_hydrogens   geom
_audit_creation_method           SHELXL-2013
_cell_angle_alpha                63.953(2)
_cell_angle_beta                 64.555(2)
_cell_angle_gamma                85.076(2)
_cell_formula_units_Z            2
_cell_length_a                   8.8517(5)
_cell_length_b                   9.1524(5)
_cell_length_c                   9.2668(5)
_cell_measurement_reflns_used    148
_cell_measurement_temperature    180(2)
_cell_measurement_theta_max      25.30
_cell_measurement_theta_min      4.02
_cell_volume                     604.15(6)
_computing_cell_refinement       'Bruker Smart'
_computing_data_collection       'Bruker Smart'
_computing_data_reduction        'Bruker Saint'
_computing_molecular_graphics    'Platon(Spek, 2008)'
_computing_publication_material  'SHELXL-2013 (Sheldrick, 2013)'
_computing_structure_refinement  'SHELXL-2013 (Sheldrick, 2013)'
_computing_structure_solution    'SHELXS-2013 (Sheldrick, 2013)'
_diffrn_ambient_temperature      180(2)
_diffrn_measured_fraction_theta_full 1.000
_diffrn_measured_fraction_theta_max 0.999
_diffrn_measurement_device_type  CCD
_diffrn_measurement_method       'omega and phi scans'
_diffrn_radiation_type           MoK\a
_diffrn_radiation_wavelength     0.71073
_diffrn_reflns_av_R_equivalents  0.0206
_diffrn_reflns_av_unetI/netI     0.0148
_diffrn_reflns_Laue_measured_fraction_full 1.000
_diffrn_reflns_Laue_measured_fraction_max 0.999
_diffrn_reflns_limit_h_max       13
_diffrn_reflns_limit_h_min       -13
_diffrn_reflns_limit_k_max       14
_diffrn_reflns_limit_k_min       -14
_diffrn_reflns_limit_l_max       14
_diffrn_reflns_limit_l_min       -14
_diffrn_reflns_number            22246
_diffrn_reflns_point_group_measured_fraction_full 1.000
_diffrn_reflns_point_group_measured_fraction_max 0.999
_diffrn_reflns_theta_full        25.242
_diffrn_reflns_theta_max         33.290
_diffrn_reflns_theta_min         2.497
_diffrn_source                   'fine-focus sealed tube'
_exptl_absorpt_coefficient_mu    0.282
_exptl_absorpt_correction_type   multi-scan
_exptl_crystal_colour            colorless
_exptl_crystal_density_diffrn    1.546
_exptl_crystal_description       plate
_exptl_crystal_F_000             288
_exptl_crystal_size_max          0.200
_exptl_crystal_size_mid          0.120
_exptl_crystal_size_min          0.030
_exptl_transmission_factor_max   0.7465
_exptl_transmission_factor_min   0.7038
_refine_diff_density_max         0.572
_refine_diff_density_min         -0.236
_refine_diff_density_rms         0.077
_refine_ls_extinction_method     none
_refine_ls_goodness_of_fit_ref   1.027
_refine_ls_hydrogen_treatment    constr
_refine_ls_matrix_type           full
_refine_ls_number_parameters     156
_refine_ls_number_reflns         4662
_refine_ls_number_restraints     0
_refine_ls_restrained_S_all      1.027
_refine_ls_R_factor_all          0.0522
_refine_ls_R_factor_gt           0.0443
_refine_ls_shift/su_max          0.001
_refine_ls_shift/su_mean         0.000
_refine_ls_structure_factor_coef Fsqd
_refine_ls_weighting_details
'w=1/[\s^2^(Fo^2^)+(0.0761P)^2^+0.1559P] where P=(Fo^2^+2Fc^2^)/3'
_refine_ls_weighting_scheme      calc
_refine_ls_wR_factor_gt          0.1226
_refine_ls_wR_factor_ref         0.1312
_reflns_Friedel_coverage         0.000
_reflns_number_gt                3940
_reflns_number_total             4662
_reflns_threshold_expression     'I > 2\s(I)'
_cod_data_source_file            cg500655s_si_002.cif
_cod_data_source_block           c3mpy_pf6
_cod_depositor_comments
'Adding full bibliography for 4511841--4511843.cif.'
_cod_database_code               4511843
#BEGIN Tags that were not found in dictionaries:
_shelx_space_group_comment
;
The symmetry employed for this shelxl refinement is uniquely defined
by the following loop, which should always be used as a source of
symmetry information in preference to the above space-group names.
They are only intended as comments.
;
_shelx_estimated_absorpt_t_min   0.946
_shelx_estimated_absorpt_t_max   0.992
_shelxl_version_number           2013-4
_shelx_res_file
;
TITL f in P-1
CELL 0.71073   8.8517   9.1524   9.2668  63.953  64.555  85.076
ZERR    2   0.0005   0.0005   0.0005   0.002   0.002   0.002
LATT  1
SFAC C H N F P
UNIT 18 28 2 12 2
TEMP -93.150
SIZE 0.03 0.12 0.20
acta
L.S. 100
BOND
BOND $H
HTAB
FMAP 2
PLAN 20
WGHT    0.076100    0.155900
FVAR       0.33539
MOLE   1
N1    3    0.798214    0.440153   -0.229922    11.00000    0.02354    0.02774 =
         0.02279   -0.01205   -0.00816    0.00289
C2    1    0.941213    0.527882   -0.280216    11.00000    0.02637    0.02975 =
         0.02634   -0.01151   -0.01228    0.00192
AFIX  43
H2    2    1.006548    0.483108   -0.215584    11.00000   -1.20000
AFIX   0
C3    1    0.995454    0.682113   -0.424170    11.00000    0.03002    0.03068 =
         0.02377   -0.01111   -0.00990   -0.00015
C4    1    0.897074    0.743257   -0.516169    11.00000    0.03564    0.03406 =
         0.02312   -0.00898   -0.01107    0.00485
AFIX  43
H4    2    0.931313    0.848136   -0.616611    11.00000   -1.20000
AFIX   0
C5    1    0.749400    0.651723   -0.461792    11.00000    0.02958    0.04658 =
         0.02708   -0.01233   -0.01425    0.00784
AFIX  43
H5    2    0.681922    0.693535   -0.524330    11.00000   -1.20000
AFIX   0
C6    1    0.701030    0.499719   -0.316490    11.00000    0.02247    0.04229 =
         0.02747   -0.01587   -0.00981    0.00310
AFIX  43
H6    2    0.599004    0.436855   -0.277322    11.00000   -1.20000
AFIX   0
C7    1    1.155392    0.776781   -0.474662    11.00000    0.04388    0.04138 =
         0.03738   -0.00884   -0.01688   -0.01251
AFIX 137
H7A   2    1.127586    0.862045   -0.433712    11.00000   -1.20000
H7B   2    1.221424    0.827823   -0.604783    11.00000   -1.20000
H7C   2    1.221443    0.702197   -0.418411    11.00000   -1.20000
AFIX   0
C8    1    0.744174    0.276496   -0.071297    11.00000    0.03102    0.02338 =
         0.02857   -0.01042   -0.01048    0.00105
AFIX  23
H8A   2    0.843436    0.216979   -0.074082    11.00000   -1.20000
H8B   2    0.663464    0.211432   -0.075168    11.00000   -1.20000
AFIX   0
C9    1    0.661780    0.294750    0.099742    11.00000    0.03192    0.02578 =
         0.02497   -0.00880   -0.01046    0.00066
AFIX  23
H9A   2    0.565024    0.357792    0.100468    11.00000   -1.20000
H9B   2    0.743832    0.356420    0.105592    11.00000   -1.20000
AFIX   0
C10   1    0.600921    0.127961    0.261627    11.00000    0.06005    0.03134 =
         0.03043   -0.00454   -0.01411   -0.00526
AFIX 137
H10A  2    0.515649    0.069053    0.258795    11.00000   -1.20000
H10B  2    0.551470    0.142382    0.370864    11.00000   -1.20000
H10C  2    0.696374    0.064821    0.259681    11.00000   -1.20000
AFIX   0
MOLE   2
P1    5    0.767081    0.770835    0.036041    11.00000    0.02546    0.02495 =
         0.02967   -0.00891   -0.01344    0.00046
F1    4    0.680514    0.698567   -0.042943    11.00000    0.04509    0.04555 =
         0.05113   -0.02406   -0.03162    0.00609
F2    4    0.933861    0.692563   -0.038544    11.00000    0.03582    0.08009 =
         0.05579   -0.04210   -0.02314    0.02234
F3    4    0.836533    0.935571   -0.142766    11.00000    0.08275    0.04148 =
         0.05249    0.01147   -0.03823   -0.01894
F4    4    0.852694    0.839281    0.118518    11.00000    0.04423    0.05622 =
         0.05325   -0.02903   -0.02380   -0.00517
F5    4    0.597907    0.843059    0.115844    11.00000    0.04133    0.07268 =
         0.10350   -0.06345   -0.03487    0.02476
F6    4    0.696869    0.603456    0.218688    11.00000    0.06303    0.04176 =
         0.03470   -0.00109   -0.02043   -0.01325

HKLF 4

REM  f in P-1
REM R1 =  0.0443 for    3940 Fo > 4sig(Fo)  and  0.0522 for all    4662 data
REM    156 parameters refined using      0 restraints

END

WGHT      0.0760      0.1556

REM Instructions for potential hydrogen bonds
EQIV $1 -x+2, -y+1, -z
HTAB C2 F2_$1
EQIV $2 -x+1, -y+1, -z
HTAB C6 F6_$2
HTAB C8 F4_$1
HTAB C8 F5_$2
HTAB C9 F1_$2

REM Highest difference peak  0.572,  deepest hole -0.236,  1-sigma level  0.077
Q1    1   0.8773  0.8802  0.0289  11.00000  0.05    0.57
Q2    1   0.6550  0.6800  0.2096  11.00000  0.05    0.56
Q3    1   0.6540  0.9047  0.0130  11.00000  0.05    0.54
Q4    1   0.9387  0.7766 -0.1181  11.00000  0.05    0.48
Q5    1   0.8228  0.6879 -0.4816  11.00000  0.05    0.45
Q6    1   0.7320  0.5661 -0.4023  11.00000  0.05    0.45
Q7    1   0.9632  0.6035 -0.3473  11.00000  0.05    0.44
Q8    1   0.8634  0.8981 -0.2059  11.00000  0.05    0.44
Q9    1   0.7559  0.4616 -0.2768  11.00000  0.05    0.43
Q10   1   0.9460  0.7071 -0.4633  11.00000  0.05    0.43
Q11   1   0.8647  0.4864 -0.2549  11.00000  0.05    0.40
Q12   1   0.7820  0.6077  0.1569  11.00000  0.05    0.39
Q13   1   0.7935  0.8196 -0.0567  11.00000  0.05    0.39
Q14   1   0.7360  0.7343 -0.0184  11.00000  0.05    0.38
Q15   1   0.7046  0.2839  0.0156  11.00000  0.05    0.38
Q16   1   0.7773  0.3604 -0.1596  11.00000  0.05    0.37
Q17   1   0.7447  0.6942  0.1191  11.00000  0.05    0.36
Q18   1   1.0596  0.7188 -0.4379  11.00000  0.05    0.36
Q19   1   0.6062  0.7650  0.1949  11.00000  0.05    0.35
Q20   1   0.8067  0.8158  0.0693  11.00000  0.05    0.35
;
_shelx_res_checksum              94518
_shelx_hkl_file
;
  -1   0   0  126.76    3.04
   1   0   0  123.41    3.05
   1   0   0  118.60    3.06
  -2   0   0  497.38   12.27
  -2   0   0  501.08   12.22
   2   0   0  499.53   12.23
   2   0   0  496.04   12.28
  -3   0   0   13.07    0.34
  -3   0   0   13.35    0.34
   3   0   0   12.85    0.34
   3   0   0   13.00    0.34
  -4   0   0    0.08    0.02
  -4   0   0    0.09    0.02
  -4   0   0    0.07    0.03
   4   0   0    0.08    0.03
   4   0   0    0.06    0.02
  -5   0   0    0.47    0.05
  -5   0   0    0.51    0.05
  -5   0   0    0.48    0.05
   5   0   0    0.46    0.05
   5   0   0    0.57    0.06
  -6   0   0    4.97    0.15
  -6   0   0    5.11    0.16
   6   0   0    4.78    0.17
   6   0   0    4.82    0.17
  -7   0   0    0.35    0.06
  -7   0   0    0.37    0.05
   7   0   0    0.48    0.07
   7   0   0    0.29    0.06
  -8   0   0    0.03    0.04
  -8   0   0    0.09    0.05
  -8   0   0    0.04    0.05
   8   0   0    0.06    0.07
   8   0   0    0.03    0.05
  -9   0   0    0.78    0.08
  -9   0   0    0.94    0.10
  -9   0   0    1.02    0.11
   9   0   0    0.72    0.09
   9   0   0    0.78    0.10
 -10   0   0    0.41    0.06
 -10   0   0    0.24    0.09
 -10   0   0    0.48    0.08
  10   0   0    0.39    0.11
 -11   0   0    3.36    0.16
 -11   0   0    3.65    0.22
 -11   0   0    3.44    0.20
  11   0   0    3.99    0.30
 -12   0   0    0.87    0.14
  12  -1   0    1.29    0.21
 -12   1   0    1.40    0.17
  11  -1   0    0.52    0.14
 -11   1   0    0.57    0.10
 -11   1   0    0.40    0.11
  10  -1   0    0.91    0.12
 -10   1   0    1.04    0.09
 -10   1   0    0.91    0.09
 -10   1   0    0.99    0.12
 -10   1   0    1.04    0.11
   9  -1   0   -0.03    0.07
   9  -1   0    0.00    0.08
  -9   1   0    0.03    0.05
  -9   1   0    0.05    0.06
  -9   1   0    0.08    0.07
   8  -1   0    1.15    0.13
   8  -1   0    1.29    0.11
  -8   1   0    1.22    0.11
  -8   1   0    1.19    0.10
  -8   1   0    1.31    0.08
   7  -1   0    0.64    0.07
   7  -1   0    0.76    0.08
  -7   1   0    0.83    0.08
  -7   1   0    0.72    0.06
  -7   1   0    0.75    0.07
   6  -1   0    1.11    0.09
   6  -1   0    1.24    0.08
  -6   1   0    1.31    0.08
  -6   1   0    1.31    0.08
   5  -1   0   86.99    2.18
   5  -1   0   86.03    2.18
  -5   1   0   89.75    2.12
  -5   1   0   88.32    2.18
   4  -1   0   10.86    0.30
   4  -1   0   10.81    0.29
  -4   1   0   10.53    0.30
  -4   1   0   10.98    0.29
  -4   1   0   10.96    0.28
  -4   1   0   10.90    0.29
   3  -1   0  106.97    2.64
   3  -1   0  107.07    2.65
  -3   1   0  107.18    2.58
  -3   1   0  107.29    2.64
  -3   1   0  110.14    2.65
  -3   1   0  106.77    2.56
  -3   1   0  106.30    2.66
   2  -1   0  137.86    3.31
   2  -1   0  134.39    3.39
   2  -1   0  136.37    3.40
   2  -1   0  134.88    3.32
  -2   1   0  143.65    3.31
  -2   1   0  137.63    3.32
  -2   1   0  138.51    3.27
  -2   1   0  137.66    3.40
  -2   1   0  133.41    3.36
  -2   1   0  141.16    3.31
  -2   1   0  132.98    3.41
   1  -1   0  236.74    5.52
   1  -1   0  228.07    5.52
   1  -1   0  230.63    5.63
   1  -1   0  228.37    5.53
   1  -1   0  235.64    5.43
   1  -1   0  226.81    5.48
  -1   1   0  226.53    5.69
  -1   1   0  221.19    5.48
  -1   1   0  234.00    5.43
  -1   1   0  235.66    5.53
  -1   1   0  240.67    5.51
  -1   1   0  202.73    5.63
   0  -1   0   83.93    1.98
   0  -1   0   80.55    1.95
   0  -1   0   84.19    1.96
   0  -1   0   85.44    2.01
   0  -1   0   79.83    2.03
   0  -1   0   83.62    2.02
   0  -1   0   90.54    1.98
   0   1   0   78.37    2.04
   0   1   0   70.02    1.97
   0   1   0   79.92    1.96
   0   1   0   82.97    2.01
   0   1   0   69.47    1.96
  -1  -1   0  480.24   11.58
  -1  -1   0  473.58   11.65
  -1  -1   0  496.42   11.63
  -1  -1   0  494.64   11.95
  -1  -1   0  500.76   11.90
  -1  -1   0  491.73   11.92
   1   1   0  486.43   11.95
   1   1   0  442.53   11.89
   1   1   0  486.21   11.92
   1   1   0  507.37   11.58
   1   1   0  470.98   11.65
  -2  -1   0    2.51    0.07
  -2  -1   0    2.63    0.07
  -2  -1   0    2.12    0.07
  -2  -1   0    2.40    0.07
  -2  -1   0    2.11    0.07
  -2  -1   0    2.00    0.07
   2   1   0    2.05    0.07
   2   1   0    2.23    0.07
   2   1   0    2.11    0.08
   2   1   0    2.47    0.07
  -3  -1   0  189.54    4.72
  -3  -1   0  195.78    4.70
  -3  -1   0  188.63    4.61
  -3  -1   0  197.37    4.62
  -3  -1   0  190.04    4.73
  -3  -1   0  193.41    4.62
   3   1   0  194.24    4.62
   3   1   0  185.89    4.71
   3   1   0  192.67    4.62
  -4  -1   0  171.05    4.03
  -4  -1   0  170.21    3.92
  -4  -1   0  164.60    4.02
  -4  -1   0  163.62    3.92
  -4  -1   0  148.45    3.92
  -4  -1   0  162.80    4.01
   4   1   0  163.74    4.01
   4   1   0  167.24    3.93
   4   1   0  159.32    4.04
  -5  -1   0    0.07    0.02
  -5  -1   0    0.05    0.03
  -5  -1   0    0.10    0.03
   5   1   0    0.02    0.03
   5   1   0    0.05    0.03
  -6  -1   0    0.64    0.07
  -6  -1   0    0.63    0.06
  -6  -1   0    0.65    0.05
   6   1   0    0.60    0.06
   6   1   0    0.57    0.06
  -7  -1   0   11.74    0.33
  -7  -1   0   11.09    0.31
  -7  -1   0   11.57    0.32
  -7  -1   0   11.43    0.30
   7   1   0   11.45    0.34
   7   1   0   11.35    0.35
  -8  -1   0   13.53    0.38
  -8  -1   0   13.72    0.39
   8   1   0   13.69    0.42
   8   1   0   13.35    0.40
  -9  -1   0    0.30    0.06
  -9  -1   0    0.37    0.08
   9   1   0    0.34    0.10
   9   1   0    0.27    0.08
 -10  -1   0    5.11    0.22
 -10  -1   0    5.44    0.22
 -11  -1   0   -0.09    0.09
 -11  -1   0   -0.18    0.11
 -12  -1   0    3.39    0.25
  12  -2   0    2.72    0.24
 -12   2   0    3.24    0.24
  11  -2   0    1.72    0.17
 -11   2   0    1.88    0.16
 -11   2   0    1.94    0.18
  10  -2   0    6.14    0.28
 -10   2   0    5.53    0.22
 -10   2   0    5.32    0.19
 -10   2   0    5.47    0.22
   9  -2   0    4.18    0.22
   9  -2   0    4.44    0.19
  -9   2   0    4.49    0.18
  -9   2   0    4.61    0.18
  -9   2   0    4.07    0.14
   8  -2   0   11.19    0.36
   8  -2   0   11.42    0.33
  -8   2   0   11.16    0.29
  -8   2   0   11.37    0.33
   7  -2   0    0.04    0.05
   7  -2   0    0.03    0.05
  -7   2   0    0.09    0.03
  -7   2   0    0.09    0.05
   6  -2   0   30.20    0.76
   6  -2   0   29.32    0.77
  -6   2   0   28.91    0.76
  -6   2   0   29.80    0.71
  -6   2   0   29.32    0.73
   5  -2   0   11.91    0.32
   5  -2   0   11.85    0.33
  -5   2   0   11.94    0.32
  -5   2   0   11.87    0.33
  -5   2   0   12.00    0.31
  -5   2   0   11.70    0.30
   4  -2   0  163.65    4.03
   4  -2   0  162.44    4.12
   4  -2   0  166.14    4.02
   4  -2   0  165.37    4.11
   4  -2   0  167.58    4.02
  -4   2   0  166.17    3.97
  -4   2   0  169.49    4.11
  -4   2   0  174.24    4.02
  -4   2   0  169.38    4.02
  -4   2   0  171.60    3.99
  -4   2   0  162.10    4.14
  -4   2   0  168.29    4.02
   3  -2   0    1.23    0.05
   3  -2   0    1.21    0.05
   3  -2   0    1.19    0.06
   3  -2   0    1.21    0.04
   3  -2   0    1.17    0.05
  -3   2   0    1.32    0.05
  -3   2   0    1.30    0.05
  -3   2   0    1.23    0.05
  -3   2   0    1.28    0.04
  -3   2   0    1.26    0.05
  -3   2   0    1.34    0.05
  -3   2   0    1.27    0.06
   2  -2   0  157.06    3.78
   2  -2   0  152.62    3.76
   2  -2   0  152.58    3.79
   2  -2   0  158.73    3.72
   2  -2   0  156.11    3.87
   2  -2   0  155.90    3.78
  -2   2   0  156.94    3.76
  -2   2   0  162.71    3.77
  -2   2   0  155.49    3.86
  -2   2   0  151.71    3.90
  -2   2   0  163.07    3.79
  -2   2   0  157.23    3.73
   1  -2   0    3.41    0.10
   1  -2   0    3.91    0.10
   1  -2   0    3.80    0.10
   1  -2   0    3.81    0.11
  -1   2   0    3.70    0.11
  -1   2   0    3.71    0.10
  -1   2   0    3.93    0.10
  -1   2   0    3.81    0.10
  -1   2   0    3.98    0.11
   0  -2   0  534.61   13.39
   0  -2   0  548.97   12.96
   0  -2   0  551.98   13.02
   0  -2   0  538.91   13.35
   0  -2   0  529.34   13.06
   0  -2   0  532.82   12.85
   0  -2   0  545.92   13.28
   0   2   0  548.16   13.29
   0   2   0  561.86   13.34
   0   2   0  525.80   13.03
   0   2   0  517.25   13.40
   0   2   0  570.23   13.06
   0   2   0  545.24   12.95
   0   2   0  530.80   12.86
  -1  -2   0   15.66    0.41
  -1  -2   0   15.61    0.40
  -1  -2   0   15.91    0.40
  -1  -2   0   16.07    0.40
  -1  -2   0   15.79    0.40
  -1  -2   0   15.91    0.39
   1   2   0   15.89    0.39
   1   2   0   15.61    0.40
   1   2   0   15.57    0.40
   1   2   0   16.34    0.41
   1   2   0   14.96    0.40
  -2  -2   0    0.26    0.03
  -2  -2   0    0.25    0.02
  -2  -2   0    0.26    0.02
  -2  -2   0    0.28    0.03
  -2  -2   0    0.26    0.03
  -2  -2   0    0.31    0.03
   2   2   0    0.32    0.04
   2   2   0    0.23    0.03
   2   2   0    0.25    0.03
   2   2   0    0.30    0.03
   2   2   0    0.24    0.02
   2   2   0    0.26    0.03
  -3  -2   0    4.64    0.14
  -3  -2   0    4.74    0.14
  -3  -2   0    4.74    0.13
  -3  -2   0    4.61    0.14
  -3  -2   0    4.75    0.14
  -3  -2   0    4.53    0.14
  -3  -2   0    4.62    0.12
   3   2   0    4.84    0.14
   3   2   0    4.67    0.13
   3   2   0    4.66    0.14
  -4  -2   0   83.26    2.01
  -4  -2   0   84.74    2.07
  -4  -2   0   88.27    2.02
  -4  -2   0   82.66    2.07
  -4  -2   0   81.65    2.00
  -4  -2   0   82.39    2.02
   4   2   0   85.98    2.06
   4   2   0   83.08    2.01
   4   2   0   79.96    2.07
  -5  -2   0    5.62    0.17
  -5  -2   0    5.69    0.18
  -5  -2   0    5.74    0.17
   5   2   0    5.77    0.17
   5   2   0    5.54    0.15
  -6  -2   0    2.51    0.12
  -6  -2   0    2.57    0.11
   6   2   0    2.56    0.10
   6   2   0    2.69    0.08
   6   2   0    2.53    0.12
  -7  -2   0    6.10    0.20
  -7  -2   0    6.26    0.21
   7   2   0    6.35    0.22
  -8  -2   0   10.51    0.32
  -8  -2   0   10.25    0.31
   8   2   0   10.33    0.33
  -9  -2   0    9.64    0.31
  -9  -2   0    9.83    0.31
   9   2   0    9.40    0.32
 -10  -2   0    1.32    0.15
 -10  -2   0    1.38    0.13
 -11  -2   0    0.38    0.11
  12  -3   0    2.92    0.33
 -12   3   0    2.73    0.23
  11  -3   0    0.44    0.14
 -11   3   0    0.35    0.11
 -11   3   0    0.34    0.11
  10  -3   0    5.83    0.29
 -10   3   0    5.85    0.24
 -10   3   0    5.65    0.23
   9  -3   0    3.06    0.19
  -9   3   0    2.84    0.12
  -9   3   0    3.01    0.16
   8  -3   0   10.30    0.34
   8  -3   0   10.25    0.31
  -8   3   0   10.14    0.26
  -8   3   0   10.03    0.31
   7  -3   0    1.87    0.13
   7  -3   0    1.85    0.10
  -7   3   0    1.98    0.12
  -7   3   0    1.95    0.08
   6  -3   0    2.63    0.11
   6  -3   0    2.75    0.14
  -6   3   0    2.61    0.09
  -6   3   0    2.68    0.11
  -6   3   0    2.34    0.11
  -6   3   0    2.77    0.12
   5  -3   0  100.90    2.46
   5  -3   0  103.03    2.47
   5  -3   0  103.01    2.53
   5  -3   0  103.78    2.46
   5  -3   0  102.61    2.54
  -5   3   0  107.23    2.46
  -5   3   0  103.31    2.43
  -5   3   0   99.27    2.47
  -5   3   0  101.94    2.45
  -5   3   0   99.22    2.52
  -5   3   0   99.25    2.55
   4  -3   0   42.05    1.07
   4  -3   0   41.28    1.03
   4  -3   0   41.86    1.03
   4  -3   0   42.72    1.01
   4  -3   0   42.76    1.05
  -4   3   0   41.70    1.07
  -4   3   0   41.62    1.01
  -4   3   0   42.63    1.02
  -4   3   0   41.47    1.04
  -4   3   0   42.85    1.02
  -4   3   0   42.63    1.05
   3  -3   0   84.75    2.10
   3  -3   0   89.70    2.11
   3  -3   0   89.35    2.08
   3  -3   0   86.55    2.12
   3  -3   0   88.19    2.15
   3  -3   0   85.40    2.11
  -3   3   0   88.30    2.12
  -3   3   0   88.20    2.11
  -3   3   0   88.57    2.15
  -3   3   0   88.08    2.10
  -3   3   0   86.40    2.08
  -3   3   0   85.96    2.18
   2  -3   0    1.69    0.06
   2  -3   0    1.77    0.06
   2  -3   0    1.71    0.07
   2  -3   0    1.74    0.06
  -2   3   0    1.76    0.06
  -2   3   0    1.73    0.06
  -2   3   0    1.78    0.07
  -2   3   0    1.63    0.07
  -2   3   0    1.74    0.08
   1  -3   0    2.83    0.08
   1  -3   0    2.29    0.09
   1  -3   0    2.27    0.08
   1  -3   0    2.44    0.07
  -1   3   0    2.38    0.08
  -1   3   0    2.45    0.09
  -1   3   0    2.31    0.09
  -1   3   0    2.28    0.07
   0  -3   0    3.96    0.11
   0  -3   0    3.93    0.11
   0  -3   0    4.03    0.10
   0  -3   0    3.78    0.11
   0  -3   0    3.69    0.12
   0  -3   0    3.80    0.11
   0   3   0    3.73    0.11
   0   3   0    3.67    0.12
   0   3   0    4.01    0.11
   0   3   0    3.93    0.12
   0   3   0    3.94    0.13
  -1  -3   0    1.58    0.07
  -1  -3   0    1.84    0.08
  -1  -3   0    1.75    0.06
  -1  -3   0    1.65    0.06
  -1  -3   0    1.53    0.08
  -1  -3   0    1.80    0.06
   1   3   0    1.65    0.06
   1   3   0    1.67    0.08
   1   3   0    1.59    0.06
   1   3   0    1.66    0.06
   1   3   0    1.72    0.08
   1   3   0    1.70    0.07
  -2  -3   0    0.18    0.03
  -2  -3   0    0.18    0.03
  -2  -3   0    0.21    0.04
  -2  -3   0    0.20    0.02
  -2  -3   0    0.17    0.02
  -2  -3   0    0.22    0.02
  -2  -3   0    0.22    0.03
   2   3   0    0.27    0.04
   2   3   0    0.19    0.02
   2   3   0    0.24    0.02
   2   3   0    0.20    0.02
   2   3   0    0.23    0.04
  -3  -3   0   43.40    1.07
  -3  -3   0   43.53    1.10
  -3  -3   0   43.07    1.08
  -3  -3   0   44.91    1.10
  -3  -3   0   45.26    1.10
  -3  -3   0   45.38    1.08
  -3  -3   0   42.26    1.06
  -3  -3   0   44.78    1.09
   3   3   0   40.05    1.08
   3   3   0   45.02    1.10
   3   3   0   44.07    1.07
   3   3   0   44.52    1.10
   3   3   0   44.22    1.09
  -4  -3   0    3.51    0.13
  -4  -3   0    3.43    0.12
  -4  -3   0    3.37    0.13
  -4  -3   0    3.40    0.13
   4   3   0    3.53    0.12
   4   3   0    3.40    0.13
   4   3   0    3.48    0.12
   4   3   0    2.86    0.10
  -5  -3   0    1.60    0.10
  -5  -3   0    1.49    0.09
   5   3   0    1.35    0.09
   5   3   0    1.43    0.06
   5   3   0    1.51    0.09
  -6  -3   0   30.45    0.75
  -6  -3   0   29.86    0.77
  -6  -3   0   29.70    0.78
   6   3   0   29.49    0.78
   6   3   0   30.35    0.74
   6   3   0   30.00    0.75
  -7  -3   0    9.73    0.28
  -7  -3   0    9.59    0.29
  -7  -3   0    9.58    0.30
   7   3   0    9.64    0.27
   7   3   0    9.86    0.25
   7   3   0    9.94    0.30
  -8  -3   0    9.71    0.31
  -8  -3   0    9.97    0.31
   8   3   0    9.81    0.32
  -9  -3   0    0.39    0.08
  -9  -3   0    0.68    0.10
 -10  -3   0    1.57    0.18
 -10  -3   0    1.59    0.17
 -11  -3   0    3.73    0.24
  12  -4   0    0.41    0.17
 -12   4   0    0.19    0.14
  11  -4   0   -0.04    0.13
 -11   4   0   -0.01    0.10
 -11   4   0   -0.09    0.11
  10  -4   0    2.87    0.23
 -10   4   0    2.46    0.19
   9  -4   0   -0.03    0.08
  -9   4   0    0.05    0.08
   8  -4   0   -0.06    0.07
  -8   4   0    0.02    0.06
  -8   4   0    0.00    0.04
   7  -4   0    0.00    0.02
   7  -4   0   -0.02    0.06
  -7   4   0   -0.06    0.05
  -7   4   0   -0.03    0.03
   6  -4   0    2.23    0.09
   6  -4   0    2.32    0.14
   6  -4   0    2.39    0.10
   6  -4   0    2.28    0.09
   6  -4   0    2.35    0.09
  -6   4   0    2.45    0.10
  -6   4   0    2.24    0.12
  -6   4   0    2.29    0.08
   5  -4   0   11.19    0.29
   5  -4   0   11.33    0.30
   5  -4   0   10.97    0.33
   5  -4   0   11.20    0.30
  -5   4   0   11.24    0.30
  -5   4   0   11.18    0.29
  -5   4   0   11.31    0.28
  -5   4   0   11.33    0.31
  -5   4   0   11.37    0.33
   4  -4   0   34.54    0.90
   4  -4   0   35.52    0.87
   4  -4   0   35.64    0.86
   4  -4   0   35.11    0.88
   4  -4   0   34.60    0.86
   4  -4   0   35.60    0.85
  -4   4   0   35.91    0.88
  -4   4   0   35.02    0.87
  -4   4   0   34.95    0.91
  -4   4   0   34.87    0.85
  -4   4   0   35.79    0.87
   3  -4   0    0.29    0.03
   3  -4   0    0.29    0.03
   3  -4   0    0.35    0.04
   3  -4   0    0.33    0.04
   3  -4   0    0.28    0.04
  -3   4   0    0.31    0.04
  -3   4   0    0.37    0.04
  -3   4   0    0.27    0.03
  -3   4   0    0.37    0.04
  -3   4   0    0.36    0.04
   2  -4   0    0.03    0.02
   2  -4   0    0.14    0.03
   2  -4   0    0.08    0.03
   2  -4   0    0.07    0.03
  -2   4   0    0.11    0.03
  -2   4   0    0.06    0.02
  -2   4   0    0.05    0.02
  -2   4   0    0.11    0.03
  -2   4   0    0.13    0.03
   1  -4   0   49.96    1.22
   1  -4   0   51.25    1.22
   1  -4   0   51.35    1.20
   1  -4   0   50.25    1.23
  -1   4   0   48.64    1.26
  -1   4   0   50.88    1.24
  -1   4   0   49.07    1.22
  -1   4   0   48.98    1.26
  -1   4   0   48.08    1.20
  -1   4   0   51.62    1.22
   0  -4   0   15.83    0.39
   0  -4   0   16.01    0.42
   0  -4   0   16.09    0.39
   0  -4   0   15.17    0.40
   0  -4   0   16.04    0.40
   0   4   0   15.49    0.39
   0   4   0   15.80    0.43
   0   4   0   16.01    0.42
   0   4   0   15.41    0.40
   0   4   0   16.05    0.40
   0   4   0   15.72    0.42
  -1  -4   0   18.83    0.47
  -1  -4   0   18.29    0.48
  -1  -4   0   18.61    0.49
  -1  -4   0   18.86    0.50
  -1  -4   0   17.97    0.47
  -1  -4   0   19.24    0.48
  -1  -4   0   18.82    0.49
   1   4   0   18.77    0.49
   1   4   0   19.28    0.48
   1   4   0   18.64    0.47
   1   4   0   19.37    0.50
   1   4   0   19.11    0.49
  -2  -4   0   80.32    2.05
  -2  -4   0   87.73    2.01
  -2  -4   0   83.61    2.04
  -2  -4   0   83.39    2.02
  -2  -4   0   81.37    2.05
  -2  -4   0   80.29    2.00
   2   4   0   80.40    2.05
   2   4   0   82.11    2.04
   2   4   0   81.02    2.00
   2   4   0   82.71    2.05
   2   4   0   84.74    2.02
  -3  -4   0    4.31    0.15
  -3  -4   0    3.58    0.14
  -3  -4   0    4.23    0.15
   3   4   0    4.20    0.13
   3   4   0    4.27    0.13
   3   4   0    4.43    0.14
   3   4   0    4.69    0.17
   3   4   0    4.59    0.15
  -4  -4   0   19.81    0.53
  -4  -4   0   19.71    0.54
  -4  -4   0   20.12    0.53
   4   4   0   19.89    0.51
   4   4   0   20.30    0.53
   4   4   0   20.48    0.53
   4   4   0   20.73    0.54
  -5  -4   0    1.75    0.10
  -5  -4   0    1.90    0.12
  -5  -4   0    1.97    0.12
   5   4   0    1.89    0.11
   5   4   0    1.81    0.10
   5   4   0    1.83    0.08
   5   4   0    1.60    0.13
  -6  -4   0    3.78    0.17
  -6  -4   0    3.66    0.16
  -6  -4   0    3.76    0.16
   6   4   0    3.82    0.16
   6   4   0    4.00    0.13
  -7  -4   0   19.42    0.55
  -7  -4   0   21.18    0.57
  -7  -4   0   21.21    0.58
   7   4   0   21.43    0.58
   7   4   0   21.47    0.53
   7   4   0   21.19    0.55
  -8  -4   0   -0.09    0.08
  -8  -4   0    0.07    0.07
   8   4   0    0.06    0.08
  -9  -4   0    5.03    0.22
  -9  -4   0    4.96    0.23
 -10  -4   0   -0.12    0.09
 -11  -4   0    2.22    0.23
  11  -5   0    0.39    0.15
 -11   5   0    0.66    0.13
  10  -5   0    0.50    0.13
 -10   5   0    0.45    0.11
   9  -5   0    1.12    0.13
  -9   5   0    1.40    0.16
   8  -5   0    0.11    0.07
   8  -5   0    0.06    0.04
   8  -5   0    0.07    0.03
  -8   5   0    0.09    0.07
  -8   5   0    0.09    0.04
   7  -5   0    0.82    0.10
   7  -5   0    0.96    0.08
   7  -5   0    0.93    0.06
   7  -5   0    1.05    0.08
  -7   5   0    1.00    0.10
  -7   5   0    0.98    0.11
  -7   5   0    0.95    0.07
   6  -5   0    0.59    0.06
   6  -5   0    0.43    0.08
   6  -5   0    0.53    0.05
  -6   5   0    0.49    0.06
  -6   5   0    0.50    0.04
  -6   5   0    0.53    0.07
   5  -5   0   29.83    0.74
   5  -5   0   30.83    0.75
   5  -5   0   30.34    0.79
   5  -5   0   27.90    0.74
   5  -5   0   29.36    0.73
  -5   5   0   30.29    0.74
  -5   5   0   29.63    0.73
  -5   5   0   30.54    0.79
   4  -5   0    4.48    0.14
   4  -5   0    4.81    0.16
   4  -5   0    4.47    0.17
   4  -5   0    4.49    0.14
   4  -5   0    4.59    0.15
   4  -5   0    4.74    0.15
  -4   5   0    4.70    0.15
  -4   5   0    4.85    0.17
  -4   5   0    4.56    0.14
   3  -5   0   54.49    1.33
   3  -5   0   54.16    1.32
   3  -5   0   52.31    1.31
   3  -5   0   53.92    1.29
  -3   5   0   52.54    1.29
  -3   5   0   56.34    1.32
  -3   5   0   54.16    1.32
  -3   5   0   53.28    1.37
   2  -5   0    3.90    0.14
   2  -5   0    3.94    0.13
   2  -5   0    4.03    0.13
   2  -5   0    4.11    0.13
  -2   5   0    4.03    0.12
  -2   5   0    4.18    0.13
  -2   5   0    4.73    0.15
   1  -5   0    5.24    0.16
   1  -5   0    5.40    0.18
   1  -5   0    5.46    0.17
   1  -5   0    5.69    0.17
  -1   5   0    5.31    0.16
  -1   5   0    5.45    0.17
  -1   5   0    5.32    0.19
  -1   5   0    5.54    0.16
   0  -5   0   20.00    0.52
   0  -5   0   20.67    0.51
   0  -5   0   20.09    0.52
   0  -5   0   20.86    0.54
   0   5   0   20.23    0.54
   0   5   0   19.89    0.53
   0   5   0   20.43    0.55
   0   5   0   20.14    0.52
   0   5   0   20.47    0.51
  -1  -5   0    0.46    0.06
  -1  -5   0    0.57    0.06
  -1  -5   0    0.52    0.04
   1   5   0    0.45    0.05
   1   5   0    0.48    0.05
   1   5   0    0.50    0.07
   1   5   0    0.53    0.08
  -2  -5   0   27.90    0.71
  -2  -5   0   27.95    0.71
  -2  -5   0   27.86    0.73
  -2  -5   0   28.05    0.72
   2   5   0   27.71    0.70
   2   5   0   28.61    0.72
   2   5   0   27.59    0.73
   2   5   0   28.32    0.73
  -3  -5   0   18.91    0.51
  -3  -5   0   19.12    0.50
  -3  -5   0   18.88    0.51
   3   5   0   18.43    0.49
   3   5   0   19.46    0.50
   3   5   0   18.51    0.49
   3   5   0   19.47    0.52
   3   5   0   18.81    0.51
  -4  -5   0    1.46    0.10
  -4  -5   0    1.36    0.12
  -4  -5   0    1.65    0.12
   4   5   0    1.71    0.13
   4   5   0    1.34    0.07
   4   5   0    1.55    0.15
   4   5   0    1.52    0.10
   4   5   0    1.46    0.08
  -5  -5   0    0.23    0.08
  -5  -5   0    0.26    0.07
  -5  -5   0    0.23    0.06
   5   5   0    0.27    0.10
   5   5   0    0.32    0.05
   5   5   0    0.27    0.06
  -6  -5   0    6.60    0.24
  -6  -5   0    6.75    0.24
  -6  -5   0    6.76    0.24
   6   5   0    6.84    0.20
   6   5   0    6.78    0.23
   6   5   0    6.65    0.27
  -7  -5   0    1.05    0.11
  -7  -5   0    0.59    0.09
   7   5   0    0.86    0.08
  -8  -5   0    5.73    0.24
  -8  -5   0    5.80    0.24
   8   5   0    5.84    0.18
  -9  -5   0    0.25    0.10
 -10  -5   0    0.69    0.13
  11  -6   0   -0.28    0.14
 -11   6   0   -0.11    0.13
  10  -6   0    1.95    0.23
 -10   6   0    2.22    0.20
   9  -6   0    0.19    0.11
  -9   6   0    0.28    0.10
   8  -6   0    6.02    0.18
   8  -6   0    6.03    0.26
  -8   6   0    5.73    0.17
  -8   6   0    5.92    0.25
   7  -6   0    0.01    0.04
   7  -6   0    0.05    0.07
   7  -6   0   -0.07    0.04
  -7   6   0    0.02    0.04
  -7   6   0    0.06    0.07
  -7   6   0    0.04    0.06
   6  -6   0    4.61    0.20
   6  -6   0    4.56    0.15
   6  -6   0    4.45    0.16
   6  -6   0    4.21    0.16
   6  -6   0    4.66    0.16
  -6   6   0    4.71    0.17
  -6   6   0    4.64    0.14
  -6   6   0    4.65    0.19
   5  -6   0    1.34    0.10
   5  -6   0    1.29    0.09
   5  -6   0    1.28    0.10
   5  -6   0    1.41    0.12
   5  -6   0    1.29    0.09
  -5   6   0    1.35    0.08
  -5   6   0    1.29    0.11
  -5   6   0    1.34    0.09
   4  -6   0   32.94    0.81
   4  -6   0   34.16    0.83
   4  -6   0   32.49    0.83
   4  -6   0   33.56    0.83
   4  -6   0   33.38    0.85
  -4   6   0   33.14    0.81
  -4   6   0   32.97    0.83
  -4   6   0   32.79    0.88
   3  -6   0    5.57    0.19
   3  -6   0    5.78    0.18
   3  -6   0    5.66    0.18
  -3   6   0    5.57    0.20
  -3   6   0    5.38    0.18
  -3   6   0    5.35    0.16
   2  -6   0   14.23    0.39
   2  -6   0   14.58    0.41
   2  -6   0   14.92    0.39
  -2   6   0   14.57    0.38
  -2   6   0   14.81    0.41
  -2   6   0   14.83    0.39
   1  -6   0   18.78    0.47
   1  -6   0   18.13    0.49
  -1   6   0   18.91    0.49
  -1   6   0   18.37    0.47
  -1   6   0   15.16    0.45
   0  -6   0    1.34    0.10
   0  -6   0    1.53    0.09
   0   6   0    1.34    0.09
   0   6   0    1.31    0.08
  -1  -6   0   30.81    0.78
  -1  -6   0   30.67    0.80
  -1  -6   0   31.52    0.77
   1   6   0   30.47    0.80
   1   6   0   30.44    0.78
  -2  -6   0   40.71    1.02
  -2  -6   0   40.28    1.03
  -2  -6   0   38.93    1.02
  -2  -6   0   40.77    1.05
   2   6   0   40.86    1.03
   2   6   0   41.50    1.01
   2   6   0   41.15    1.05
  -3  -6   0   73.05    1.88
  -3  -6   0   74.80    1.84
  -3  -6   0   75.38    1.85
   3   6   0   75.23    1.83
   3   6   0   74.97    1.86
   3   6   0   74.80    1.87
  -4  -6   0    0.89    0.10
  -4  -6   0    0.69    0.08
  -4  -6   0    0.91    0.09
   4   6   0    0.94    0.14
   4   6   0    0.89    0.07
   4   6   0    0.73    0.08
  -5  -6   0    5.07    0.20
  -5  -6   0    5.02    0.22
  -5  -6   0    5.06    0.20
   5   6   0    4.83    0.27
   5   6   0    4.94    0.17
  -6  -6   0   -0.03    0.08
  -6  -6   0    0.04    0.10
  -6  -6   0    0.01    0.06
   6   6   0    0.04    0.04
  -7  -6   0   10.72    0.35
  -7  -6   0   10.01    0.34
   7   6   0   10.83    0.30
  -8  -6   0    0.56    0.10
  -8  -6   0    0.42    0.12
   8   6   0    0.58    0.07
  -9  -6   0    1.92    0.19
   9   6   0    1.74    0.12
 -10  -6   0    0.37    0.13
  11  -7   0   -0.24    0.14
 -11   7   0    0.07    0.14
  10  -7   0    0.14    0.12
 -10   7   0    0.10    0.11
   9  -7   0    0.61    0.13
   9  -7   0    0.54    0.06
  -9   7   0    0.48    0.12
   8  -7   0    0.82    0.09
   8  -7   0    0.66    0.07
   8  -7   0    0.52    0.12
  -8   7   0    0.80    0.11
  -8   7   0    0.73    0.07
   7  -7   0    1.27    0.10
   7  -7   0    1.41    0.16
   7  -7   0    1.51    0.10
  -7   7   0    1.43    0.10
  -7   7   0    1.71    0.15
  -7   7   0    1.47    0.14
   6  -7   0    1.39    0.15
   6  -7   0    1.41    0.10
   6  -7   0    1.52    0.10
  -6   7   0    1.42    0.14
  -6   7   0    1.37    0.13
  -6   7   0    1.38    0.09
   5  -7   0    0.27    0.08
   5  -7   0    0.24    0.06
   5  -7   0    0.29    0.07
   5  -7   0    0.25    0.05
  -5   7   0    0.31    0.05
  -5   7   0    0.30    0.07
  -5   7   0    0.31    0.07
   4  -7   0    4.81    0.18
   4  -7   0    4.76    0.19
   4  -7   0    5.06    0.17
   4  -7   0    4.95    0.17
  -4   7   0    4.73    0.16
  -4   7   0    5.00    0.18
  -4   7   0    4.96    0.20
   3  -7   0   34.62    0.91
   3  -7   0   36.35    0.93
   3  -7   0   36.57    0.91
  -3   7   0   35.11    0.91
  -3   7   0   37.01    0.89
  -3   7   0   37.34    0.96
   2  -7   0    6.61    0.21
   2  -7   0    6.52    0.23
  -2   7   0    6.01    0.20
  -2   7   0    6.46    0.22
  -2   7   0    6.36    0.19
   1  -7   0    6.79    0.24
   1  -7   0    6.95    0.22
  -1   7   0    6.99    0.23
  -1   7   0    6.86    0.21
  -1   7   0    6.72    0.21
   0  -7   0    0.00    0.05
   0  -7   0   -0.05    0.04
   0   7   0    0.05    0.05
   0   7   0   -0.06    0.04
  -1  -7   0    0.43    0.06
  -1  -7   0    0.52    0.05
  -1  -7   0    0.45    0.07
   1   7   0    0.45    0.05
   1   7   0    0.53    0.06
  -2  -7   0    3.74    0.17
  -2  -7   0    3.27    0.16
   2   7   0    3.67    0.15
   2   7   0    3.73    0.14
  -3  -7   0    0.50    0.09
  -3  -7   0    0.34    0.07
   3   7   0    0.36    0.06
   3   7   0    0.36    0.05
  -4  -7   0    5.68    0.24
  -4  -7   0    5.52    0.22
  -4  -7   0    5.44    0.22
   4   7   0    5.53    0.19
   4   7   0    5.61    0.19
  -5  -7   0    0.04    0.10
  -5  -7   0   -0.02    0.08
  -5  -7   0    0.10    0.06
   5   7   0    0.06    0.05
  -6  -7   0    0.76    0.11
  -6  -7   0    0.66    0.10
  -6  -7   0    0.77    0.14
   6   7   0    0.65    0.07
  -7  -7   0    0.58    0.12
  -7  -7   0    0.47    0.10
   7   7   0    0.48    0.07
  -8  -7   0    5.45    0.25
   8   7   0    4.94    0.19
  -9  -7   0    0.03    0.11
   9   7   0    0.02    0.07
  10  -8   0    0.37    0.15
 -10   8   0    0.50    0.14
   9  -8   0    1.67    0.12
   9  -8   0    1.75    0.18
  -9   8   0    2.35    0.22
   8  -8   0    6.70    0.22
   8  -8   0    7.21    0.24
   8  -8   0    7.33    0.32
  -8   8   0    7.20    0.31
   7  -8   0    2.64    0.21
   7  -8   0    2.88    0.14
   7  -8   0    2.51    0.14
  -7   8   0    2.93    0.20
  -7   8   0    2.48    0.12
   6  -8   0   16.38    0.46
   6  -8   0   16.78    0.44
   6  -8   0   17.17    0.51
  -6   8   0   15.77    0.46
  -6   8   0   16.15    0.43
  -6   8   0   16.73    0.50
   5  -8   0   15.46    0.42
   5  -8   0   15.23    0.44
   5  -8   0   15.53    0.47
   5  -8   0   15.95    0.42
  -5   8   0   15.11    0.40
  -5   8   0   15.00    0.43
  -5   8   0   15.55    0.47
   4  -8   0    0.38    0.06
   4  -8   0    0.22    0.07
   4  -8   0    0.31    0.06
  -4   8   0    0.40    0.08
  -4   8   0    0.29    0.07
  -4   8   0    0.31    0.05
   3  -8   0    6.91    0.25
   3  -8   0    7.39    0.24
  -3   8   0    7.25    0.26
  -3   8   0    7.07    0.23
  -3   8   0    7.35    0.22
   2  -8   0    2.35    0.13
   2  -8   0    2.33    0.14
  -2   8   0    2.12    0.12
  -2   8   0    2.33    0.14
   1  -8   0    8.20    0.26
   1  -8   0    7.99    0.28
  -1   8   0    8.10    0.27
  -1   8   0    7.92    0.25
   0  -8   0    0.00    0.05
   0  -8   0    0.00    0.06
   0   8   0   -0.06    0.05
   0   8   0    0.00    0.05
  -1  -8   0    0.17    0.07
  -1  -8   0    0.14    0.06
   1   8   0    0.27    0.06
   1   8   0    0.23    0.06
  -2  -8   0    0.71    0.09
  -2  -8   0    0.78    0.10
   2   8   0    0.70    0.08
   2   8   0    0.83    0.09
  -3  -8   0    6.09    0.23
  -3  -8   0    5.48    0.24
   3   8   0    5.94    0.21
   3   8   0    6.11    0.21
  -4  -8   0    0.34    0.10
  -4  -8   0    0.34    0.08
   4   8   0    0.23    0.08
   4   8   0    0.33    0.06
  -5  -8   0    5.48    0.23
  -5  -8   0    4.91    0.26
   5   8   0    5.23    0.19
  -6  -8   0    0.14    0.09
   6   8   0    0.18    0.06
  -7  -8   0    2.14    0.20
   7   8   0    2.63    0.14
  -8  -8   0    0.32    0.12
   8   8   0    0.63    0.08
   9  -9   0    2.02    0.20
   9  -9   0    2.16    0.15
  -9   9   0    2.30    0.25
   8  -9   0    0.00    0.07
   8  -9   0    0.05    0.12
  -8   9   0    0.24    0.10
   7  -9   0    6.05    0.22
   7  -9   0    6.32    0.30
   7  -9   0    6.76    0.24
  -7   9   0    5.97    0.28
   6  -9   0    0.04    0.07
   6  -9   0    0.21    0.11
   6  -9   0    0.11    0.07
  -6   9   0   -0.03    0.10
  -6   9   0   -0.06    0.09
   5  -9   0    9.38    0.31
   5  -9   0    9.84    0.30
   5  -9   0    9.37    0.29
   5  -9   0    9.61    0.35
  -5   9   0    8.79    0.29
  -5   9   0    8.82    0.33
   4  -9   0    3.36    0.18
   4  -9   0    3.61    0.16
   4  -9   0    3.38    0.16
  -4   9   0    3.68    0.19
  -4   9   0    3.47    0.17
   3  -9   0    3.06    0.16
   3  -9   0    3.04    0.15
  -3   9   0    3.28    0.17
  -3   9   0    2.85    0.15
   2  -9   0    0.06    0.06
   2  -9   0    0.06    0.06
  -2   9   0    0.05    0.06
  -2   9   0   -0.01    0.07
   1  -9   0    3.03    0.17
   1  -9   0    2.87    0.16
  -1   9   0    3.02    0.15
  -1   9   0    2.76    0.17
   0  -9   0    0.49    0.09
   0  -9   0    0.37    0.08
   0   9   0    0.50    0.08
   0   9   0    0.53    0.08
  -1  -9   0    0.02    0.06
  -1  -9   0    0.10    0.08
   1   9   0   -0.12    0.06
   1   9   0    0.02    0.05
  -2  -9   0    3.02    0.19
  -2  -9   0    2.89    0.17
   2   9   0    2.74    0.14
   2   9   0    2.80    0.16
  -3  -9   0    0.90    0.10
  -3  -9   0    0.78    0.12
   3   9   0    0.76    0.08
   3   9   0    1.07    0.12
  -4  -9   0    2.72    0.21
  -4  -9   0    2.83    0.18
   4   9   0    2.67    0.15
   4   9   0    2.85    0.16
  -5  -9   0    2.50    0.19
  -5  -9   0    2.03    0.22
   5   9   0    2.37    0.14
  -6  -9   0    2.91    0.21
   6   9   0    2.77    0.16
  -7  -9   0    0.49    0.13
   7   9   0    0.45    0.09
   8 -10   0    2.98    0.30
   8 -10   0    2.58    0.18
  -8  10   0    2.66    0.26
   7 -10   0    0.43    0.15
   7 -10   0    0.48    0.10
   7 -10   0    0.55    0.09
  -7  10   0    0.63    0.13
   6 -10   0    2.82    0.25
   6 -10   0    2.73    0.19
   6 -10   0    3.11    0.18
  -6  10   0    2.81    0.22
   5 -10   0    0.06    0.08
   5 -10   0    0.12    0.08
   5 -10   0    0.19    0.08
   5 -10   0    0.10    0.11
  -5  10   0    0.10    0.09
  -5  10   0    0.01    0.09
   4 -10   0   -0.05    0.07
   4 -10   0    0.01    0.07
   4 -10   0   -0.03    0.07
  -4  10   0   -0.04    0.09
  -4  10   0    0.05    0.08
   3 -10   0    0.21    0.07
   3 -10   0    0.10    0.08
  -3  10   0    0.26    0.09
  -3  10   0    0.35    0.08
   2 -10   0    0.05    0.08
   2 -10   0    0.05    0.07
  -2  10   0    0.11    0.08
  -2  10   0    0.10    0.07
   1 -10   0    0.07    0.07
   1 -10   0   -0.02    0.08
  -1  10   0    0.06    0.07
  -1  10   0    0.15    0.08
   0 -10   0    0.15    0.09
   0 -10   0    0.03    0.07
   0  10   0    0.10    0.07
   0  10   0    0.09    0.09
  -1 -10   0    3.48    0.19
  -1 -10   0    3.50    0.22
   1  10   0    3.47    0.19
   1  10   0    3.29    0.17
  -2 -10   0    0.46    0.10
  -2 -10   0    0.73    0.13
   2  10   0    0.70    0.10
   2  10   0    0.53    0.09
  -3 -10   0   24.49    0.71
  -3 -10   0   25.68    0.71
   3  10   0   24.43    0.68
   3  10   0   25.01    0.68
  -4 -10   0   -0.03    0.08
  -4 -10   0    0.16    0.13
   4  10   0    0.14    0.08
  -5 -10   0    8.39    0.34
   5  10   0    8.21    0.29
  -6 -10   0    0.30    0.12
   6  10   0    0.11    0.08
   7 -11   0    0.87    0.18
   7 -11   0    1.00    0.12
  -7  11   0    0.74    0.15
   6 -11   0    0.28    0.14
   6 -11   0    0.26    0.09
   6 -11   0    0.23    0.11
  -6  11   0    0.27    0.12
   5 -11   0   -0.01    0.09
   5 -11   0    0.09    0.09
   5 -11   0    0.02    0.12
   5 -11   0    0.03    0.09
  -5  11   0   -0.10    0.11
  -5  11   0    0.12    0.12
   4 -11   0    0.21    0.10
   4 -11   0    0.19    0.09
   4 -11   0    0.15    0.13
   4 -11   0    0.28    0.10
  -4  11   0    0.09    0.10
  -4  11   0    0.10    0.11
   3 -11   0    0.34    0.10
   3 -11   0    0.23    0.10
  -3  11   0    0.32    0.11
  -3  11   0    0.12    0.10
   2 -11   0    1.14    0.15
   2 -11   0    1.06    0.11
  -2  11   0    1.15    0.12
  -2  11   0    1.19    0.14
   1 -11   0    0.46    0.11
   1 -11   0    0.60    0.10
  -1  11   0    0.44    0.12
  -1  11   0    0.62    0.10
   0 -11   0    4.24    0.23
   0 -11   0    4.40    0.26
   0  11   0    4.74    0.25
   0  11   0    4.65    0.22
  -1 -11   0    0.34    0.10
  -1 -11   0    0.31    0.13
   1  11   0    0.37    0.09
   1  11   0    0.49    0.12
  -2 -11   0    1.17    0.16
  -2 -11   0    0.85    0.12
   2  11   0    0.89    0.13
   2  11   0    1.09    0.12
  -3 -11   0   -0.10    0.14
  -3 -11   0    0.01    0.09
   3  11   0    0.17    0.09
  -4 -11   0    1.66    0.17
   4  11   0    1.34    0.13
   5 -12   0    1.79    0.20
   5 -12   0    1.92    0.21
   5 -12   0    1.96    0.22
   5 -12   0    2.05    0.21
  -5  12   0    2.42    0.27
   4 -12   0    0.14    0.11
   4 -12   0    0.15    0.11
   4 -12   0    0.27    0.12
   4 -12   0    0.06    0.16
  -4  12   0    0.32    0.13
  -4  12   0    0.02    0.13
   3 -12   0    1.07    0.14
   3 -12   0    1.15    0.13
  -3  12   0    0.85    0.14
  -3  12   0    1.09    0.16
   2 -12   0    0.05    0.10
   2 -12   0   -0.14    0.11
  -2  12   0   -0.08    0.13
  -2  12   0   -0.06    0.11
   1 -12   0    2.73    0.22
   1 -12   0    2.75    0.26
  -1  12   0    2.57    0.22
  -1  12   0    2.61    0.26
   0 -12   0    0.25    0.14
   0 -12   0    0.10    0.11
   0  12   0    0.01    0.11
   0  12   0    0.11    0.14
  -1 -12   0    5.81    0.33
  -1 -12   0    6.25    0.30
   1  12   0    5.96    0.32
   1  12   0    6.14    0.28
  -2 -12   0    0.40    0.12
  -2 -12   0    0.32    0.17
   2  12   0    0.39    0.11
   0  12  -1    1.49    0.16
   0  12  -1    1.48    0.18
   0 -12   1    1.55    0.16
   0 -12   1    1.30    0.18
  -1  12  -1    6.29    0.34
  -1  12  -1    5.56    0.29
   1 -12   1    5.70    0.29
   1 -12   1    6.31    0.33
  -2  12  -1   -0.05    0.12
  -2  12  -1   -0.26    0.13
   2 -12   1   -0.01    0.13
   2 -12   1    0.11    0.12
  -3  12  -1    0.45    0.14
  -3  12  -1    0.73    0.16
   3 -12   1    0.80    0.13
   3 -12   1    0.52    0.14
   3 -12   1    0.54    0.12
  -4  12  -1    0.32    0.15
  -4  12  -1    0.03    0.14
   4 -12   1   -0.10    0.11
   4 -12   1    0.25    0.13
   4 -12   1    0.20    0.13
   3  11  -1    0.07    0.09
  -3 -11   1   -0.02    0.10
   2  11  -1    0.99    0.13
   2  11  -1    1.21    0.15
  -2 -11   1    1.40    0.15
  -2 -11   1    1.47    0.17
   1  11  -1    1.12    0.13
   1  11  -1    1.22    0.14
  -1 -11   1    1.38    0.15
  -1 -11   1    1.29    0.17
   0  11  -1   -0.03    0.09
   0  11  -1    0.13    0.12
   0 -11   1    0.17    0.12
   0 -11   1    0.00    0.10
  -1  11  -1    0.45    0.13
  -1  11  -1    0.55    0.11
   1 -11   1    0.53    0.13
   1 -11   1    0.48    0.11
  -2  11  -1    2.46    0.23
  -2  11  -1    2.31    0.20
   2 -11   1    2.20    0.19
   2 -11   1    2.91    0.23
  -3  11  -1    0.79    0.14
  -3  11  -1    0.80    0.12
   3 -11   1    0.97    0.14
   3 -11   1    1.00    0.11
  -4  11  -1    0.19    0.11
  -4  11  -1   -0.19    0.11
   4 -11   1    0.11    0.10
   4 -11   1    0.10    0.10
   4 -11   1    0.10    0.09
  -5  11  -1    0.16    0.12
  -5  11  -1   -0.09    0.11
   5 -11   1    0.10    0.10
   5 -11   1    0.19    0.10
   5 -11   1    0.08    0.10
   5 -11   1   -0.09    0.14
  -6  11  -1    0.29    0.13
   6 -11   1    0.10    0.10
   6 -11   1    0.03    0.11
   6 -11   1   -0.15    0.14
   7 -11   1    0.63    0.13
   7 -11   1    0.46    0.17
   5  10  -1    2.39    0.17
  -5 -10   1    1.99    0.23
   4  10  -1    0.15    0.08
  -4 -10   1    0.08    0.10
   3  10  -1    8.17    0.30
   3  10  -1    8.41    0.32
  -3 -10   1    8.71    0.33
  -3 -10   1    8.43    0.36
   2  10  -1   -0.06    0.07
   2  10  -1   -0.21    0.10
  -2 -10   1   -0.18    0.11
  -2 -10   1   -0.08    0.08
   1  10  -1   12.71    0.40
   1  10  -1   13.17    0.42
  -1 -10   1   13.05    0.42
  -1 -10   1   12.72    0.44
   0  10  -1    0.01    0.08
   0  10  -1   -0.04    0.09
   0 -10   1   -0.04    0.09
   0 -10   1   -0.04    0.07
  -1  10  -1    3.02    0.18
  -1  10  -1    3.28    0.21
   1 -10   1    2.76    0.21
   1 -10   1    3.25    0.19
  -2  10  -1    0.86    0.11
  -2  10  -1    0.77    0.12
   2 -10   1    0.73    0.11
   2 -10   1    0.75    0.10
  -3  10  -1    0.36    0.09
  -3  10  -1    0.43    0.11
   3 -10   1    0.54    0.10
   3 -10   1    0.38    0.09
  -4  10  -1    1.11    0.12
  -4  10  -1    1.80    0.18
   4 -10   1    1.07    0.11
   4 -10   1    1.38    0.16
   4 -10   1    1.11    0.12
  -5  10  -1    0.11    0.10
  -5  10  -1    0.05    0.09
   5 -10   1   -0.04    0.08
   5 -10   1    0.07    0.08
   5 -10   1    0.11    0.08
  -6  10  -1    0.98    0.13
   6 -10   1    1.21    0.12
   6 -10   1    1.21    0.17
   6 -10   1    1.25    0.12
  -7  10  -1    0.04    0.11
   7 -10   1    0.23    0.10
   7 -10   1    0.15    0.13
   7 -10   1   -0.02    0.09
  -8  10  -1    1.02    0.16
   8 -10   1    0.93    0.12
   8 -10   1    0.93    0.18
   6   9  -1    5.54    0.23
  -6  -9   1    5.76    0.29
   5   9  -1    0.00    0.07
  -5  -9   1    0.00    0.09
   4   9  -1    3.66    0.18
  -4  -9   1    3.73    0.24
  -4  -9   1    4.20    0.23
   3   9  -1    0.30    0.08
   3   9  -1    0.41    0.09
  -3  -9   1    0.42    0.12
  -3  -9   1    0.34    0.10
   2   9  -1    0.06    0.06
   2   9  -1    0.04    0.08
  -2  -9   1    0.09    0.07
  -2  -9   1    0.09    0.10
   1   9  -1    0.22    0.08
   1   9  -1    0.24    0.07
  -1  -9   1    0.29    0.08
  -1  -9   1    0.10    0.09
   0   9  -1    0.06    0.06
   0   9  -1   -0.02    0.07
   0  -9   1   -0.07    0.08
   0  -9   1   -0.01    0.06
  -1   9  -1   -0.07    0.07
  -1   9  -1   -0.02    0.05
   1  -9   1   -0.02    0.07
   1  -9   1   -0.02    0.06
  -2   9  -1    1.53    0.15
  -2   9  -1    1.37    0.13
   2  -9   1    1.37    0.14
   2  -9   1    1.49    0.13
  -3   9  -1    2.45    0.17
  -3   9  -1    2.19    0.15
   3  -9   1    2.48    0.15
   3  -9   1    2.28    0.16
  -4   9  -1    0.03    0.07
  -4   9  -1    0.14    0.08
   4  -9   1    0.12    0.06
   4  -9   1    0.04    0.06
   4  -9   1    0.25    0.07
  -5   9  -1    0.60    0.10
  -5   9  -1    0.69    0.09
   5  -9   1    0.48    0.08
   5  -9   1    0.67    0.08
   5  -9   1    0.48    0.08
  -6   9  -1    2.23    0.19
   6  -9   1    1.99    0.21
   6  -9   1    2.22    0.15
   6  -9   1    2.41    0.15
  -7   9  -1    4.98    0.26
   7  -9   1    4.82    0.21
   7  -9   1    4.92    0.29
   7  -9   1    4.75    0.21
  -8   9  -1    0.02    0.11
   8  -9   1    0.02    0.12
   8  -9   1    0.05    0.07
   8  -9   1    0.10    0.09
  -9   9  -1    1.11    0.16
   9  -9   1    1.21    0.18
   9  -9   1    0.93    0.10
  -7  -8   1    1.78    0.20
   6   8  -1    0.39    0.08
  -6  -8   1    0.37    0.11
   5   8  -1    7.88    0.27
  -5  -8   1    8.29    0.31
   4   8  -1    6.34    0.25
   4   8  -1    7.17    0.24
  -4  -8   1    7.24    0.28
  -4  -8   1    7.27    0.27
   3   8  -1    3.80    0.16
   3   8  -1    3.89    0.18
  -3  -8   1    3.88    0.21
  -3  -8   1    3.99    0.19
   2   8  -1   -0.04    0.05
   2   8  -1    0.05    0.06
  -2  -8   1   -0.03    0.06
  -2  -8   1    0.01    0.07
   1   8  -1    0.03    0.05
   1   8  -1   -0.01    0.06
  -1  -8   1   -0.03    0.07
  -1  -8   1    0.06    0.06
   0   8  -1    4.46    0.18
   0   8  -1    4.67    0.19
   0  -8   1    4.54    0.19
   0  -8   1    4.34    0.20
  -1   8  -1    1.57    0.11
  -1   8  -1    1.58    0.13
   1  -8   1    1.50    0.12
   1  -8   1    1.55    0.13
  -2   8  -1    0.86    0.10
  -2   8  -1    0.70    0.09
   2  -8   1    0.64    0.07
   2  -8   1    0.75    0.09
  -3   8  -1    2.90    0.17
  -3   8  -1    2.66    0.14
   3  -8   1    2.94    0.15
   3  -8   1    2.76    0.14
  -4   8  -1    3.33    0.18
  -4   8  -1    3.08    0.15
   4  -8   1    3.16    0.15
   4  -8   1    3.49    0.16
   4  -8   1    3.28    0.15
  -5   8  -1    1.49    0.15
  -5   8  -1    1.40    0.12
   5  -8   1    1.54    0.12
   5  -8   1    1.49    0.11
   5  -8   1    1.46    0.12
  -6   8  -1    0.02    0.08
   6  -8   1    0.05    0.06
   6  -8   1    0.01    0.06
   6  -8   1   -0.08    0.09
  -7   8  -1    0.30    0.10
  -7   8  -1    0.17    0.12
   7  -8   1    0.26    0.11
   7  -8   1    0.27    0.07
   7  -8   1    0.28    0.07
  -8   8  -1    6.55    0.30
   8  -8   1    6.36    0.23
   8  -8   1    6.62    0.23
   8  -8   1    6.75    0.31
  -9   8  -1   -0.06    0.11
   9  -8   1   -0.10    0.06
   9  -8   1   -0.03    0.07
   9  -8   1    0.16    0.12
 -10   8  -1    0.43    0.14
  10  -8   1    0.29    0.15
  10  -8   1    0.54    0.08
   8   7  -1    3.26    0.16
  -8  -7   1    3.93    0.25
  -7  -7   1    0.09    0.10
   6   7  -1    8.79    0.28
  -6  -7   1    8.86    0.32
   5   7  -1    0.08    0.05
  -5  -7   1    0.14    0.12
  -5  -7   1    0.12    0.08
   4   7  -1    2.73    0.13
   4   7  -1    2.66    0.15
  -4  -7   1    2.63    0.20
  -4  -7   1    2.86    0.16
   3   7  -1    0.32    0.07
   3   7  -1    0.25    0.05
  -3  -7   1    0.26    0.07
  -3  -7   1    0.21    0.07
   2   7  -1   -0.01    0.04
   2   7  -1    0.02    0.05
  -2  -7   1   -0.03    0.06
  -2  -7   1   -0.05    0.05
   1   7  -1   -0.02    0.05
   1   7  -1    0.01    0.04
  -1  -7   1    0.12    0.06
  -1  -7   1   -0.07    0.05
   0   7  -1    5.73    0.21
   0   7  -1    5.77    0.19
   0  -7   1    5.80    0.22
  -1   7  -1    0.01    0.04
  -1   7  -1    0.02    0.05
   1  -7   1    0.03    0.05
   1  -7   1    0.02    0.04
  -2   7  -1    0.24    0.05
  -2   7  -1    0.30    0.07
   2  -7   1    0.33    0.07
   2  -7   1    0.20    0.05
  -3   7  -1   75.53    1.93
  -3   7  -1   77.16    1.86
   3  -7   1   75.93    1.88
   3  -7   1   74.51    1.86
  -4   7  -1    2.50    0.15
  -4   7  -1    2.32    0.13
   4  -7   1    2.55    0.13
   4  -7   1    2.40    0.12
   4  -7   1    2.49    0.13
  -5   7  -1   28.54    0.78
  -5   7  -1   27.19    0.73
   5  -7   1   27.87    0.74
   5  -7   1   29.36    0.73
   5  -7   1   28.93    0.73
  -6   7  -1    1.20    0.13
   6  -7   1    1.13    0.12
   6  -7   1    1.08    0.10
   6  -7   1    1.21    0.10
  -7   7  -1    2.02    0.16
  -7   7  -1    1.96    0.15
   7  -7   1    1.84    0.12
   7  -7   1    1.67    0.11
   7  -7   1    1.81    0.17
  -8   7  -1    0.37    0.10
   8  -7   1    0.19    0.06
   8  -7   1    0.29    0.06
   8  -7   1    0.16    0.10
  -9   7  -1    5.83    0.28
   9  -7   1    5.53    0.19
   9  -7   1    5.64    0.30
   9  -7   1    5.49    0.20
 -10   7  -1    2.18    0.23
  10  -7   1    2.21    0.12
  10  -7   1    2.55    0.25
 -11   7  -1    0.40    0.14
  11  -7   1    0.08    0.15
  -9  -6   1    2.65    0.23
   8   6  -1   -0.10    0.06
  -8  -6   1   -0.03    0.10
  -7  -6   1    2.39    0.17
   6   6  -1   -0.01    0.07
   6   6  -1   -0.01    0.05
  -6  -6   1   -0.07    0.07
   5   6  -1    0.15    0.05
   5   6  -1    0.07    0.06
  -5  -6   1    0.10    0.07
  -5  -6   1    0.08    0.10
   4   6  -1    0.07    0.05
   4   6  -1   -0.13    0.06
   4   6  -1   -0.07    0.04
   4   6  -1   -0.10    0.15
  -4  -6   1   -0.02    0.08
  -4  -6   1   -0.03    0.06
   3   6  -1    3.54    0.15
   3   6  -1    3.87    0.26
   3   6  -1    3.81    0.14
   3   6  -1    3.90    0.14
  -3  -6   1    3.52    0.18
  -3  -6   1    4.00    0.17
   2   6  -1    0.41    0.13
   2   6  -1    0.24    0.04
   2   6  -1    0.34    0.05
   2   6  -1    0.27    0.06
  -2  -6   1    0.20    0.07
  -2  -6   1    0.18    0.06
   1   6  -1    5.48    0.18
   1   6  -1    5.72    0.19
  -1  -6   1    5.50    0.19
  -1  -6   1    5.46    0.20
   0   6  -1   15.53    0.41
   0   6  -1   15.62    0.43
   0  -6   1   15.65    0.43
   0  -6   1   15.20    0.43
  -1   6  -1   14.99    0.42
  -1   6  -1   15.18    0.40
   1  -6   1   14.87    0.41
   1  -6   1   14.87    0.42
  -2   6  -1   40.47    0.99
  -2   6  -1   39.91    1.03
   2  -6   1   38.88    1.01
   2  -6   1   39.64    0.99
  -3   6  -1   25.66    0.68
  -3   6  -1   25.22    0.64
   3  -6   1   25.12    0.65
   3  -6   1   25.19    0.66
   3  -6   1   24.77    0.65
  -4   6  -1  125.53    3.05
  -4   6  -1  127.40    3.16
   4  -6   1  125.37    3.04
   4  -6   1  121.69    3.05
   4  -6   1  127.85    3.07
   4  -6   1  127.33    3.06
  -5   6  -1    1.25    0.10
  -5   6  -1    1.32    0.07
  -5   6  -1    1.33    0.12
   5  -6   1    1.23    0.10
   5  -6   1    1.23    0.09
   5  -6   1    1.26    0.09
   5  -6   1    1.27    0.12
  -6   6  -1    8.81    0.27
  -6   6  -1    9.06    0.30
   6  -6   1    8.97    0.26
   6  -6   1    8.84    0.27
   6  -6   1    8.45    0.24
   6  -6   1    8.84    0.27
   6  -6   1    9.22    0.31
  -7   6  -1    0.28    0.08
  -7   6  -1    0.31    0.08
   7  -6   1    0.29    0.05
   7  -6   1    0.36    0.09
   7  -6   1    0.30    0.05
  -8   6  -1    3.80    0.19
   8  -6   1    3.83    0.14
   8  -6   1    3.67    0.21
   8  -6   1    3.81    0.15
  -9   6  -1    0.00    0.08
   9  -6   1    0.01    0.04
   9  -6   1   -0.08    0.09
 -10   6  -1    4.27    0.25
  10  -6   1    4.12    0.27
 -11   6  -1    0.37    0.13
  11  -6   1    0.32    0.14
  -9  -5   1    0.51    0.11
   8   5  -1    0.06    0.05
  -8  -5   1    0.03    0.08
   7   5  -1    0.29    0.08
  -7  -5   1    0.21    0.07
  -7  -5   1    0.14    0.10
   6   5  -1    0.28    0.05
   6   5  -1    0.34    0.07
  -6  -5   1    0.27    0.07
  -6  -5   1    0.25    0.09
  -6  -5   1    0.18    0.09
   5   5  -1    3.48    0.15
   5   5  -1    3.78    0.23
   5   5  -1    3.54    0.13
  -5  -5   1    3.62    0.18
  -5  -5   1    3.46    0.16
  -5  -5   1    3.33    0.16
   4   5  -1    0.21    0.11
   4   5  -1    0.23    0.04
   4   5  -1    0.17    0.05
   4   5  -1    0.30    0.08
   4   5  -1    0.19    0.05
  -4  -5   1    0.21    0.06
  -4  -5   1    0.26    0.06
  -4  -5   1    0.22    0.07
   3   5  -1   17.73    0.47
   3   5  -1   17.77    0.46
   3   5  -1   17.54    0.46
   3   5  -1   17.85    0.50
   3   5  -1   17.35    0.48
  -3  -5   1   16.55    0.46
  -3  -5   1   17.41    0.47
  -3  -5   1   17.57    0.48
   2   5  -1    0.69    0.06
   2   5  -1    0.80    0.09
   2   5  -1    0.81    0.10
   2   5  -1    0.67    0.07
   2   5  -1    0.71    0.06
  -2  -5   1    0.59    0.06
  -2  -5   1    0.68    0.07
  -2  -5   1    0.69    0.07
   1   5  -1   22.06    0.57
   1   5  -1   22.26    0.55
   1   5  -1   21.18    0.58
   1   5  -1   21.34    0.58
   1   5  -1   21.76    0.56
  -1  -5   1   20.80    0.57
  -1  -5   1   21.85    0.57
  -1  -5   1   21.87    0.56
  -1  -5   1   21.88    0.55
   0   5  -1    0.04    0.02
   0   5  -1   -0.05    0.03
   0   5  -1   -0.03    0.04
   0   5  -1   -0.04    0.07
   0  -5   1    0.01    0.04
   0  -5   1   -0.07    0.04
  -1   5  -1   73.38    1.83
  -1   5  -1   72.63    1.78
   1  -5   1   71.74    1.79
   1  -5   1   75.63    1.77
   1  -5   1   70.68    1.77
  -2   5  -1    7.86    0.22
  -2   5  -1    7.78    0.23
   2  -5   1    7.56    0.21
   2  -5   1    7.76    0.22
   2  -5   1    6.24    0.21
   2  -5   1    7.78    0.23
  -3   5  -1   96.91    2.39
  -3   5  -1   98.05    2.27
  -3   5  -1   94.50    2.31
   3  -5   1   95.95    2.32
   3  -5   1   99.54    2.31
   3  -5   1   98.69    2.27
   3  -5   1   82.37    2.29
  -4   5  -1    0.86    0.07
  -4   5  -1    0.82    0.09
  -4   5  -1    0.73    0.06
   4  -5   1    0.73    0.07
   4  -5   1    0.86    0.07
   4  -5   1    0.77    0.07
   4  -5   1    0.83    0.07
   4  -5   1    0.93    0.09
  -5   5  -1   30.64    0.76
  -5   5  -1   30.31    0.81
  -5   5  -1   30.76    0.74
  -5   5  -1   30.05    0.76
   5  -5   1   30.75    0.76
   5  -5   1   30.29    0.80
   5  -5   1   30.33    0.74
   5  -5   1   30.63    0.77
   5  -5   1   29.93    0.76
  -6   5  -1    0.12    0.06
  -6   5  -1    0.21    0.05
  -6   5  -1    0.26    0.05
  -6   5  -1    0.25    0.03
   6  -5   1    0.12    0.04
   6  -5   1    0.25    0.04
   6  -5   1    0.28    0.07
   6  -5   1    0.18    0.05
   6  -5   1    0.15    0.04
  -7   5  -1    1.56    0.11
  -7   5  -1    1.66    0.13
   7  -5   1    1.68    0.09
   7  -5   1    1.74    0.14
   7  -5   1    1.78    0.11
   7  -5   1    1.47    0.09
  -8   5  -1    1.11    0.13
   8  -5   1    1.16    0.07
   8  -5   1    1.26    0.15
   8  -5   1    1.20    0.09
   8  -5   1    1.22    0.10
  -9   5  -1    1.30    0.15
   9  -5   1    1.21    0.10
   9  -5   1    1.42    0.07
   9  -5   1    1.30    0.13
 -10   5  -1    1.05    0.12
  10  -5   1    0.90    0.13
 -11   5  -1    2.32    0.22
  11  -5   1    2.03    0.19
 -12   5  -1    1.65    0.19
 -12   5  -1    1.79    0.18
  12  -5   1    1.73    0.21
 -10  -4   1   -0.01    0.11
  -9  -4   1    5.77    0.25
   8   4  -1    5.54    0.23
  -8  -4   1    5.45    0.23
   7   4  -1    8.05    0.27
   7   4  -1    7.88    0.27
   7   4  -1    8.14    0.22
  -7  -4   1    8.15    0.27
  -7  -4   1    7.36    0.27
   6   4  -1    1.63    0.12
   6   4  -1    1.62    0.08
  -6  -4   1    1.55    0.12
  -6  -4   1    1.38    0.13
  -6  -4   1    1.64    0.13
   5   4  -1   17.19    0.47
   5   4  -1   17.24    0.47
   5   4  -1   16.68    0.45
   5   4  -1   17.22    0.44
  -5  -4   1   17.15    0.46
  -5  -4   1   17.04    0.46
  -5  -4   1   16.65    0.46
   4   4  -1   21.78    0.59
   4   4  -1   22.78    0.57
   4   4  -1   22.45    0.58
   4   4  -1   22.99    0.60
  -4  -4   1   22.62    0.59
  -4  -4   1   22.00    0.57
  -4  -4   1   22.52    0.59
  -4  -4   1   22.74    0.59
   3   4  -1    1.88    0.09
   3   4  -1    2.01    0.13
   3   4  -1    1.97    0.08
   3   4  -1    1.88    0.10
   3   4  -1    1.83    0.09
  -3  -4   1    2.00    0.10
  -3  -4   1    1.92    0.09
  -3  -4   1    1.91    0.10
  -3  -4   1    1.92    0.11
   2   4  -1  150.25    3.70
   2   4  -1  148.73    3.68
   2   4  -1  150.98    3.60
   2   4  -1  149.79    3.62
   2   4  -1  150.01    3.68
  -2  -4   1  150.27    3.70
  -2  -4   1  143.33    3.68
  -2  -4   1  152.25    3.62
  -2  -4   1  148.69    3.68
   1   4  -1   62.00    1.57
   1   4  -1   63.18    1.55
   1   4  -1   62.43    1.53
   1   4  -1   62.67    1.57
   1   4  -1   63.45    1.55
  -1  -4   1   62.91    1.55
  -1  -4   1   62.91    1.54
  -1  -4   1   61.31    1.57
  -1  -4   1   63.19    1.53
   0   4  -1  191.46    4.65
   0   4  -1  191.22    4.65
   0   4  -1  191.89    4.56
   0   4  -1  185.40    4.67
   0   4  -1  193.05    4.54
   0  -4   1  187.50    4.52
   0  -4   1  189.57    4.55
   0  -4   1  185.54    4.67
   0  -4   1  186.29    4.54
   0  -4   1  184.92    4.48
  -1   4  -1   90.20    2.19
  -1   4  -1   90.74    2.26
  -1   4  -1   93.54    2.21
  -1   4  -1   91.69    2.26
  -1   4  -1   87.20    2.18
   1  -4   1   91.45    2.16
   1  -4   1   93.94    2.19
   1  -4   1   89.30    2.18
   1  -4   1   90.46    2.21
   1  -4   1   87.14    2.26
  -2   4  -1   38.83    0.98
  -2   4  -1   35.87    0.94
  -2   4  -1   37.45    0.96
  -2   4  -1   38.59    0.94
   2  -4   1   37.77    0.94
   2  -4   1   38.04    0.95
   2  -4   1   39.52    0.94
   2  -4   1   39.60    0.92
  -3   4  -1    1.86    0.09
  -3   4  -1    1.81    0.07
  -3   4  -1    1.70    0.09
  -3   4  -1    1.88    0.08
   3  -4   1    1.77    0.08
   3  -4   1    1.80    0.07
   3  -4   1    1.79    0.08
   3  -4   1    1.93    0.08
   3  -4   1    1.99    0.08
  -4   4  -1   82.56    2.00
  -4   4  -1   81.37    1.93
  -4   4  -1   82.34    1.97
  -4   4  -1   79.94    2.04
   4  -4   1   81.67    1.98
   4  -4   1   78.71    1.97
   4  -4   1   81.46    1.93
   4  -4   1   83.80    1.97
   4  -4   1   78.78    1.96
  -5   4  -1    6.06    0.18
  -5   4  -1    6.23    0.17
  -5   4  -1    6.31    0.21
  -5   4  -1    6.02    0.16
   5  -4   1    6.09    0.16
   5  -4   1    6.35    0.18
   5  -4   1    6.29    0.22
   5  -4   1    5.99    0.18
   5  -4   1    5.85    0.18
  -6   4  -1    0.06    0.05
  -6   4  -1    0.05    0.04
  -6   4  -1    0.01    0.04
   6  -4   1    0.04    0.05
   6  -4   1    0.10    0.04
   6  -4   1    0.03    0.03
   6  -4   1    0.02    0.03
  -7   4  -1    0.11    0.05
  -7   4  -1    0.10    0.05
   7  -4   1    0.02    0.03
   7  -4   1    0.01    0.04
   7  -4   1    0.08    0.04
   7  -4   1   -0.01    0.05
  -8   4  -1    0.28    0.07
  -8   4  -1    0.31    0.07
   8  -4   1    0.33    0.05
   8  -4   1    0.37    0.04
   8  -4   1    0.27    0.08
  -9   4  -1    2.35    0.15
   9  -4   1    2.30    0.18
 -10   4  -1    2.43    0.18
  10  -4   1    2.20    0.21
 -11   4  -1    1.44    0.14
 -11   4  -1    1.37    0.14
  11  -4   1    1.08    0.16
 -12   4  -1    1.42    0.17
 -12   4  -1    1.50    0.17
  12  -4   1    1.38    0.19
 -10  -3   1    0.04    0.10
   9   3  -1    0.02    0.08
  -9  -3   1    0.10    0.08
   8   3  -1    1.97    0.15
  -8  -3   1    1.85    0.14
  -8  -3   1    1.91    0.17
   7   3  -1    8.40    0.22
   7   3  -1    8.26    0.28
  -7  -3   1    8.25    0.27
  -7  -3   1    8.35    0.27
   6   3  -1    3.79    0.16
   6   3  -1    3.70    0.16
  -6  -3   1    3.80    0.15
  -6  -3   1    3.56    0.14
  -6  -3   1    3.78    0.15
   5   3  -1    0.01    0.03
   5   3  -1    0.05    0.04
  -5  -3   1    0.08    0.05
  -5  -3   1    0.09    0.04
  -5  -3   1    0.02    0.05
   4   3  -1   49.59    1.22
   4   3  -1   49.95    1.22
   4   3  -1   50.37    1.20
  -4  -3   1   48.68    1.21
  -4  -3   1   48.33    1.23
  -4  -3   1   49.39    1.21
  -4  -3   1   47.89    1.22
   3   3  -1    1.76    0.08
   3   3  -1    1.75    0.10
   3   3  -1    1.79    0.07
   3   3  -1    1.79    0.08
   3   3  -1    1.87    0.08
  -3  -3   1    1.81    0.08
  -3  -3   1    1.86    0.09
  -3  -3   1    1.63    0.08
  -3  -3   1    1.82    0.07
   2   3  -1   12.11    0.32
   2   3  -1   12.22    0.33
   2   3  -1   12.28    0.32
   2   3  -1   12.00    0.31
   2   3  -1   12.00    0.32
  -2  -3   1   11.88    0.32
  -2  -3   1   11.32    0.31
  -2  -3   1   12.03    0.32
  -2  -3   1   12.46    0.32
  -2  -3   1   12.06    0.32
  -2  -3   1   12.26    0.32
   1   3  -1   18.04    0.45
   1   3  -1   17.44    0.46
   1   3  -1   18.21    0.45
   1   3  -1   17.46    0.46
   1   3  -1   17.89    0.45
   1   3  -1   17.86    0.46
  -1  -3   1   17.70    0.45
  -1  -3   1   17.58    0.45
  -1  -3   1   17.82    0.45
  -1  -3   1   17.77    0.44
  -1  -3   1   18.00    0.46
  -1  -3   1   17.91    0.46
   0   3  -1    0.00    0.02
   0   3  -1    0.05    0.01
   0   3  -1    0.05    0.03
   0   3  -1    0.04    0.02
   0   3  -1    0.04    0.03
   0   3  -1    0.07    0.02
   0  -3   1   -0.01    0.02
   0  -3   1    0.04    0.01
   0  -3   1    0.08    0.02
   0  -3   1    0.07    0.03
   0  -3   1    0.00    0.03
  -1   3  -1    9.80    0.26
  -1   3  -1    9.27    0.26
  -1   3  -1    9.21    0.25
  -1   3  -1    9.12    0.24
   1  -3   1    9.29    0.26
   1  -3   1    9.13    0.25
   1  -3   1    9.41    0.24
   1  -3   1    9.02    0.25
   1  -3   1    9.69    0.25
  -2   3  -1    0.65    0.04
  -2   3  -1    0.63    0.04
  -2   3  -1    0.56    0.03
  -2   3  -1    0.65    0.05
  -2   3  -1    0.72    0.05
   2  -3   1    0.66    0.04
   2  -3   1    0.58    0.04
   2  -3   1    0.60    0.05
   2  -3   1    0.64    0.05
  -3   3  -1    2.63    0.09
  -3   3  -1    2.60    0.07
  -3   3  -1    2.52    0.09
  -3   3  -1    2.60    0.10
  -3   3  -1    2.52    0.10
  -3   3  -1    2.49    0.07
   3  -3   1    2.52    0.09
   3  -3   1    2.46    0.09
   3  -3   1    2.50    0.09
   3  -3   1    2.55    0.09
   3  -3   1    2.54    0.07
  -4   3  -1    9.97    0.24
  -4   3  -1    9.80    0.28
  -4   3  -1    9.35    0.27
  -4   3  -1   10.12    0.27
  -4   3  -1   10.34    0.26
   4  -3   1    9.98    0.26
   4  -3   1   10.02    0.24
   4  -3   1    9.61    0.26
   4  -3   1    9.88    0.26
  -5   3  -1   82.24    1.94
  -5   3  -1   77.87    1.94
  -5   3  -1   79.76    2.02
  -5   3  -1   82.05    1.99
   5  -3   1   79.23    1.95
   5  -3   1   79.12    2.00
   5  -3   1   82.22    1.95
   5  -3   1   80.95    1.94
  -6   3  -1   14.04    0.35
  -6   3  -1   13.88    0.38
   6  -3   1   13.74    0.35
   6  -3   1   11.70    0.34
   6  -3   1   13.80    0.35
   6  -3   1   14.02    0.39
  -7   3  -1    2.11    0.09
  -7   3  -1    2.10    0.12
   7  -3   1    1.97    0.13
   7  -3   1    2.12    0.08
   7  -3   1    2.06    0.07
  -8   3  -1    3.60    0.16
   8  -3   1    3.77    0.18
  -9   3  -1    8.85    0.29
   9  -3   1    8.77    0.31
 -10   3  -1    7.78    0.28
 -10   3  -1    7.60    0.27
  10  -3   1    7.47    0.31
 -11   3  -1    1.76    0.18
 -11   3  -1    1.43    0.14
  11  -3   1    1.17    0.16
 -12   3  -1    2.94    0.23
  12  -3   1    3.43    0.32
 -11  -2   1    4.75    0.26
  10   2  -1    2.73    0.20
 -10  -2   1    2.69    0.19
   9   2  -1    7.89    0.29
  -9  -2   1    7.34    0.29
  -9  -2   1    7.90    0.27
   8   2  -1    2.26    0.15
  -8  -2   1    2.25    0.15
  -8  -2   1    2.43    0.14
   7   2  -1   22.76    0.63
  -7  -2   1   23.22    0.60
  -7  -2   1   23.05    0.61
   6   2  -1   18.12    0.50
  -6  -2   1   18.38    0.48
  -6  -2   1   18.21    0.48
   5   2  -1    0.05    0.05
   5   2  -1    0.02    0.04
   5   2  -1    0.06    0.02
  -5  -2   1    0.09    0.04
  -5  -2   1    0.04    0.04
  -5  -2   1    0.03    0.03
  -5  -2   1    0.10    0.04
   4   2  -1    0.00    0.03
   4   2  -1    0.03    0.02
   4   2  -1    0.03    0.03
  -4  -2   1    0.05    0.03
  -4  -2   1    0.07    0.03
  -4  -2   1    0.07    0.03
  -4  -2   1    0.05    0.03
   3   2  -1    8.75    0.24
   3   2  -1    8.38    0.24
   3   2  -1    8.90    0.23
   3   2  -1    8.54    0.23
  -3  -2   1    8.64    0.24
  -3  -2   1    8.72    0.22
  -3  -2   1    8.57    0.24
  -3  -2   1    8.84    0.23
  -3  -2   1    8.60    0.25
  -3  -2   1    9.16    0.24
  -3  -2   1    8.69    0.23
   2   2  -1   20.24    0.51
   2   2  -1   20.18    0.50
   2   2  -1   20.74    0.51
   2   2  -1   19.71    0.51
   2   2  -1   19.72    0.50
   2   2  -1   19.62    0.51
  -2  -2   1   19.59    0.50
  -2  -2   1   20.45    0.50
  -2  -2   1   20.63    0.51
  -2  -2   1   19.72    0.51
  -2  -2   1   20.05    0.50
  -2  -2   1   19.61    0.51
   1   2  -1    0.41    0.04
   1   2  -1    0.44    0.03
   1   2  -1    0.42    0.03
   1   2  -1    0.58    0.05
   1   2  -1    0.44    0.04
   1   2  -1    0.41    0.04
  -1  -2   1    0.37    0.04
  -1  -2   1    0.43    0.03
  -1  -2   1    0.42    0.04
  -1  -2   1    0.41    0.04
  -1  -2   1    0.45    0.03
  -1  -2   1    0.37    0.04
   0   2  -1   73.42    1.91
   0   2  -1   78.01    1.90
   0   2  -1   76.92    1.86
   0   2  -1   76.84    1.85
   0   2  -1   77.58    1.86
   0   2  -1   77.74    1.90
   0  -2   1   75.25    1.85
   0  -2   1   77.02    1.91
   0  -2   1   74.12    1.86
   0  -2   1   78.51    1.86
  -1   2  -1    8.46    0.23
  -1   2  -1    8.94    0.24
  -1   2  -1    8.78    0.23
  -1   2  -1    8.65    0.24
   1  -2   1    8.82    0.23
   1  -2   1    8.47    0.23
   1  -2   1    8.66    0.24
   1  -2   1    9.11    0.22
   1  -2   1    8.81    0.23
  -2   2  -1    2.20    0.08
  -2   2  -1    2.20    0.07
  -2   2  -1    2.17    0.07
  -2   2  -1    2.19    0.06
  -2   2  -1    2.24    0.08
   2  -2   1    2.08    0.07
   2  -2   1    2.11    0.07
   2  -2   1    2.18    0.07
   2  -2   1    2.06    0.07
   2  -2   1    2.36    0.06
  -3   2  -1  105.39    2.50
  -3   2  -1  104.45    2.62
  -3   2  -1  107.29    2.53
  -3   2  -1  107.83    2.55
  -3   2  -1  106.90    2.59
   3  -2   1  104.69    2.62
   3  -2   1  107.03    2.50
   3  -2   1  106.02    2.54
   3  -2   1  103.51    2.54
   3  -2   1  102.39    2.55
  -4   2  -1   77.74    1.84
  -4   2  -1   77.39    1.83
  -4   2  -1   76.77    1.82
  -4   2  -1   76.82    1.87
  -4   2  -1   74.60    1.89
  -4   2  -1   75.40    1.84
   4  -2   1   72.79    1.83
   4  -2   1   74.31    1.83
   4  -2   1   76.20    1.88
  -5   2  -1    0.21    0.04
  -5   2  -1    0.17    0.03
  -5   2  -1    0.17    0.04
  -5   2  -1    0.09    0.03
  -5   2  -1    0.15    0.03
  -5   2  -1    0.14    0.04
   5  -2   1    0.13    0.03
   5  -2   1    0.13    0.02
   5  -2   1    0.13    0.02
   5  -2   1    0.15    0.03
  -6   2  -1   15.37    0.42
  -6   2  -1   15.16    0.38
  -6   2  -1   14.73    0.40
   6  -2   1   15.84    0.38
   6  -2   1   15.33    0.38
  -7   2  -1   -0.02    0.05
   7  -2   1    0.01    0.05
  -8   2  -1    0.09    0.05
   8  -2   1    0.21    0.07
  -9   2  -1    2.39    0.14
  -9   2  -1    2.33    0.13
   9  -2   1    2.04    0.16
 -10   2  -1    7.71    0.27
 -10   2  -1    7.51    0.26
  10  -2   1    7.65    0.31
 -11   2  -1    3.56    0.20
 -11   2  -1    3.04    0.20
  11  -2   1    3.33    0.26
 -12   2  -1    0.18    0.12
 -12   2  -1    0.07    0.10
  12  -2   1    0.35    0.15
 -11  -1   1    0.06    0.11
  10   1  -1    1.11    0.13
 -10  -1   1    0.97    0.11
   9   1  -1    0.23    0.08
  -9  -1   1    0.21    0.07
  -9  -1   1    0.07    0.08
   8   1  -1    0.05    0.07
  -8  -1   1    0.10    0.06
  -8  -1   1    0.21    0.08
   7   1  -1    0.73    0.08
  -7  -1   1    0.83    0.09
  -7  -1   1    0.75    0.07
  -7  -1   1    0.88    0.07
  -7  -1   1    0.80    0.08
   6   1  -1    8.63    0.28
   6   1  -1    8.14    0.26
  -6  -1   1    7.49    0.24
  -6  -1   1    8.69    0.24
  -6  -1   1    8.52    0.24
   5   1  -1    1.65    0.09
   5   1  -1    1.66    0.10
  -5  -1   1    1.45    0.08
  -5  -1   1    1.78    0.08
  -5  -1   1    1.60    0.08
   4   1  -1    7.41    0.20
  -4  -1   1    7.55    0.19
  -4  -1   1    7.43    0.20
  -4  -1   1    7.55    0.20
  -4  -1   1    7.26    0.21
  -4  -1   1    7.37    0.19
   3   1  -1   12.47    0.32
   3   1  -1   12.57    0.31
   3   1  -1   12.24    0.33
  -3  -1   1   12.48    0.32
  -3  -1   1   12.56    0.32
  -3  -1   1   12.85    0.31
  -3  -1   1   11.81    0.33
  -3  -1   1   12.38    0.31
  -3  -1   1   12.21    0.33
  -3  -1   1   12.66    0.32
   2   1  -1   -0.02    0.01
   2   1  -1   -0.01    0.02
   2   1  -1    0.00    0.01
   2   1  -1    0.00    0.01
  -2  -1   1   -0.01    0.02
  -2  -1   1    0.02    0.01
  -2  -1   1    0.00    0.02
  -2  -1   1    0.01    0.02
  -2  -1   1   -0.01    0.02
  -2  -1   1    0.01    0.02
  -2  -1   1    0.00    0.01
   1   1  -1  227.24    5.60
   1   1  -1  227.40    5.46
   1   1  -1  223.94    5.60
   1   1  -1  226.89    5.46
   1   1  -1  227.91    5.55
   1   1  -1  231.33    5.41
  -1  -1   1  232.05    5.46
  -1  -1   1  227.29    5.47
  -1  -1   1  220.55    5.58
  -1  -1   1  221.99    5.56
  -1  -1   1  223.47    5.60
  -1  -1   1  222.02    5.43
   0   1  -1   11.48    0.34
   0   1  -1   12.37    0.35
   0   1  -1   12.60    0.34
   0   1  -1   12.55    0.34
   0   1  -1   12.81    0.34
   0  -1   1   12.86    0.35
   0  -1   1   12.33    0.34
   0  -1   1   12.49    0.34
   0  -1   1   12.31    0.34
  -1   1  -1  531.95   12.27
  -1   1  -1  524.36   12.36
  -1   1  -1  493.82   12.70
  -1   1  -1  518.70   12.34
   1  -1   1  517.40   12.35
   1  -1   1  520.67   12.34
   1  -1   1  488.19   12.27
   1  -1   1  510.46   12.70
  -2   1  -1   76.16    1.84
  -2   1  -1   77.51    1.83
  -2   1  -1   76.60    1.84
  -2   1  -1   74.55    1.90
  -2   1  -1   74.79    1.84
   2  -1   1   73.88    1.84
   2  -1   1   76.75    1.85
   2  -1   1   75.45    1.89
   2  -1   1   80.88    1.85
  -3   1  -1   36.20    0.87
  -3   1  -1   36.65    0.89
  -3   1  -1   35.19    0.90
  -3   1  -1   36.51    0.87
  -3   1  -1   35.78    0.87
   3  -1   1   36.26    0.89
   3  -1   1   35.54    0.87
   3  -1   1   34.86    0.87
   3  -1   1   35.25    0.90
  -4   1  -1   18.95    0.47
  -4   1  -1   18.15    0.46
  -4   1  -1   18.64    0.46
  -4   1  -1   18.46    0.45
  -4   1  -1   18.44    0.48
   4  -1   1   18.17    0.48
   4  -1   1   18.09    0.45
   4  -1   1   18.59    0.46
  -5   1  -1   28.47    0.67
  -5   1  -1   27.52    0.70
  -5   1  -1   27.18    0.67
  -5   1  -1   26.60    0.69
  -5   1  -1   27.93    0.65
  -5   1  -1   24.60    0.66
   5  -1   1   26.93    0.70
   5  -1   1   27.90    0.66
   5  -1   1   27.56    0.69
   5  -1   1   27.33    0.66
  -6   1  -1   45.38    1.13
  -6   1  -1   46.47    1.10
  -6   1  -1   45.78    1.17
   6  -1   1   46.13    1.17
   6  -1   1   47.16    1.17
  -7   1  -1    0.63    0.06
  -7   1  -1    0.56    0.05
   7  -1   1    0.57    0.07
  -8   1  -1    0.87    0.06
  -8   1  -1    0.93    0.09
  -8   1  -1    0.77    0.07
  -8   1  -1    0.70    0.08
   8  -1   1    0.94    0.11
  -9   1  -1    1.80    0.13
  -9   1  -1    1.67    0.09
  -9   1  -1    1.90    0.12
   9  -1   1    1.65    0.15
 -10   1  -1    1.05    0.09
 -10   1  -1    1.11    0.12
 -10   1  -1    1.01    0.09
  10  -1   1    1.08    0.13
 -11   1  -1    0.06    0.08
 -11   1  -1   -0.04    0.09
  11  -1   1    0.02    0.11
 -12   1  -1    6.11    0.30
 -12   1  -1    6.43    0.26
  12  -1   1    6.47    0.36
 -11   0   1    1.97    0.16
 -11   0   1    1.86    0.19
  10   0  -1    5.28    0.24
 -10   0   1    5.42    0.20
 -10   0   1    5.35    0.23
 -10   0   1    5.27    0.22
   9   0  -1   -0.06    0.09
   9   0  -1    0.00    0.07
  -9   0   1    0.05    0.07
  -9   0   1    0.02    0.06
  -9   0   1   -0.06    0.07
   8   0  -1    0.19    0.08
   8   0  -1    0.10    0.06
  -8   0   1    0.13    0.06
  -8   0   1    0.26    0.06
  -8   0   1    0.19    0.05
   7   0  -1    1.15    0.09
   7   0  -1    1.25    0.12
  -7   0   1    1.13    0.09
  -7   0   1    1.23    0.08
  -7   0   1    1.10    0.09
   6   0  -1    0.71    0.08
   6   0  -1    0.73    0.08
  -6   0   1    0.82    0.07
  -6   0   1    0.82    0.07
   5   0  -1   12.32    0.35
   5   0  -1   12.57    0.34
  -5   0   1   12.52    0.33
  -5   0   1   12.37    0.33
   4   0  -1    1.20    0.07
   4   0  -1    1.15    0.06
  -4   0   1    1.11    0.06
  -4   0   1    1.20    0.06
   3   0  -1    6.36    0.19
   3   0  -1    6.32    0.18
  -3   0   1    6.27    0.18
  -3   0   1    6.53    0.17
  -3   0   1    6.43    0.17
  -3   0   1    6.58    0.18
  -2   0   1    0.28    0.02
  -2   0   1    0.27    0.02
  -2   0   1    0.30    0.02
   1   0  -1   43.98    1.03
   1   0  -1   41.37    1.06
   1   0  -1   42.73    1.06
   1   0  -1   42.87    1.03
  -1   0   1   41.99    1.06
  -1   0   1   42.80    1.03
  -1   0   1   43.48    1.03
  -1   0   1   43.73    1.06
  -1   0   1   42.95    1.03
   0   0  -1  583.46   14.56
   0   0   1  595.24   14.56
  -1   0  -1   23.39    0.59
  -1   0  -1   23.87    0.58
  -1   0  -1   23.67    0.58
  -1   0  -1   20.91    0.57
   1   0   1   24.17    0.57
   1   0   1   23.64    0.58
   1   0   1   23.57    0.58
   1   0   1   24.18    0.59
  -2   0  -1  729.88   17.51
  -2   0  -1  745.81   17.47
  -2   0  -1  705.41   17.98
  -2   0  -1  742.90   17.89
   2   0   1  734.39   17.98
   2   0   1  719.94   17.51
   2   0   1  718.95   17.80
  -3   0  -1   46.30    1.11
  -3   0  -1   45.49    1.10
  -3   0  -1   45.47    1.14
  -3   0  -1   47.34    1.10
  -3   0  -1   46.26    1.09
  -3   0  -1   45.34    1.14
  -3   0  -1   45.81    1.13
   3   0   1   44.85    1.10
   3   0   1   45.12    1.14
   3   0   1   45.53    1.13
  -4   0  -1    7.99    0.22
  -4   0  -1    7.93    0.22
  -4   0  -1    8.24    0.21
  -4   0  -1    8.34    0.21
  -4   0  -1    8.29    0.21
   4   0   1    8.11    0.22
   4   0   1    8.19    0.20
   4   0   1    7.94    0.22
   4   0   1    8.23    0.20
  -5   0  -1    3.29    0.11
  -5   0  -1    3.10    0.10
  -5   0  -1    3.38    0.11
  -5   0  -1    3.02    0.12
   5   0   1    3.26    0.11
   5   0   1    3.25    0.12
  -6   0  -1   17.75    0.46
  -6   0  -1   17.80    0.47
   6   0   1   17.73    0.47
   6   0   1   17.44    0.47
  -7   0  -1   38.74    0.97
  -7   0  -1   38.09    0.93
  -7   0  -1   38.85    0.98
   7   0   1   38.45    0.99
   7   0   1   37.88    0.99
  -8   0  -1    0.00    0.05
  -8   0  -1   -0.04    0.05
  -8   0  -1    0.00    0.05
   8   0   1    0.04    0.06
  -9   0  -1    3.76    0.16
  -9   0  -1    3.86    0.15
   9   0   1    3.58    0.19
 -10   0  -1    0.41    0.09
 -10   0  -1    0.46    0.08
 -10   0  -1    0.47    0.08
 -10   0  -1    0.39    0.06
  10   0   1    0.53    0.11
 -11   0  -1    8.11    0.28
 -11   0  -1    7.86    0.30
  11   0   1    8.33    0.35
 -12   0  -1    0.05    0.13
 -12   0  -1    0.21    0.10
  12   0   1    0.00    0.16
  11  -1  -1    2.05    0.22
  10  -1  -1    1.84    0.17
  10  -1  -1    2.00    0.23
 -10   1   1    1.83    0.14
 -10   1   1    1.75    0.16
 -10   1   1    1.78    0.12
   9  -1  -1    0.61    0.09
   9  -1  -1    0.47    0.11
  -9   1   1    0.55    0.06
  -9   1   1    0.58    0.07
  -9   1   1    0.58    0.08
  -9   1   1    0.51    0.08
   8  -1  -1    0.69    0.08
   8  -1  -1    0.72    0.09
  -8   1   1    0.75    0.07
  -8   1   1    0.74    0.07
  -8   1   1    0.88    0.10
  -8   1   1    0.70    0.08
   7  -1  -1    2.88    0.13
   7  -1  -1    2.84    0.15
  -7   1   1    2.70    0.11
  -7   1   1    2.81    0.12
  -7   1   1    2.69    0.12
   6  -1  -1    1.42    0.09
   6  -1  -1    1.45    0.11
  -6   1   1    1.44    0.08
  -6   1   1    1.48    0.09
   5  -1  -1    2.13    0.10
  -5   1   1    1.98    0.08
   4  -1  -1    1.88    0.08
   4  -1  -1    1.93    0.09
  -4   1   1    1.88    0.07
  -4   1   1    2.03    0.07
   3  -1  -1   62.69    1.55
   3  -1  -1   62.44    1.55
  -3   1   1   60.80    1.55
  -3   1   1   64.03    1.55
   2  -1  -1   12.12    0.32
   2  -1  -1   11.99    0.32
  -2   1   1   11.99    0.32
  -2   1   1   11.81    0.31
   1  -1  -1   66.50    1.65
   1  -1  -1   67.82    1.62
   1  -1  -1   64.28    1.65
  -1   1   1   69.22    1.62
  -1   1   1   66.66    1.59
  -1   1   1   66.97    1.65
  -1   1   1   68.28    1.61
   0  -1  -1   93.84    2.16
   0  -1  -1   88.94    2.21
   0  -1  -1   90.97    2.17
   0  -1  -1   89.52    2.21
   0  -1  -1   93.10    2.17
   0  -1  -1   89.13    2.14
   0   1   1   83.40    2.17
   0   1   1   92.01    2.21
   0   1   1   86.16    2.14
   0   1   1   75.27    2.20
  -1  -1  -1   40.63    0.99
  -1  -1  -1   41.15    1.00
  -1  -1  -1   41.51    1.00
  -1  -1  -1   39.74    1.03
   1   1   1   40.77    1.00
   1   1   1   40.90    0.99
   1   1   1   40.55    1.03
   1   1   1   41.83    1.01
  -2  -1  -1  216.88    5.37
  -2  -1  -1  225.94    5.28
  -2  -1  -1  218.12    5.42
  -2  -1  -1  213.86    5.29
  -2  -1  -1  221.30    5.21
  -2  -1  -1  213.63    5.42
  -2  -1  -1  219.04    5.41
   2   1   1  220.01    5.37
   2   1   1  217.39    5.29
   2   1   1  215.23    5.21
   2   1   1  223.77    5.41
   2   1   1  224.73    5.40
   2   1   1  217.79    5.28
  -3  -1  -1   18.68    0.45
  -3  -1  -1   18.88    0.46
  -3  -1  -1   19.49    0.46
  -3  -1  -1   18.08    0.48
  -3  -1  -1   18.68    0.48
  -3  -1  -1   18.52    0.47
  -3  -1  -1   19.17    0.47
   3   1   1   18.38    0.47
   3   1   1   18.62    0.48
   3   1   1   18.37    0.45
   3   1   1   18.69    0.47
  -4  -1  -1    4.48    0.14
  -4  -1  -1    4.37    0.13
  -4  -1  -1    4.46    0.13
  -4  -1  -1    4.64    0.14
  -4  -1  -1    4.57    0.12
  -4  -1  -1    4.49    0.12
  -4  -1  -1    4.74    0.12
   4   1   1    4.34    0.14
   4   1   1    4.36    0.12
   4   1   1    4.58    0.14
   4   1   1    4.57    0.12
  -5  -1  -1   36.41    0.91
  -5  -1  -1   38.19    0.87
  -5  -1  -1   36.22    0.91
  -5  -1  -1   36.29    0.90
  -5  -1  -1   32.46    0.88
  -5  -1  -1   36.74    0.87
  -5  -1  -1   34.91    0.89
   5   1   1   36.16    0.92
   5   1   1   36.93    0.88
   5   1   1   36.61    0.87
   5   1   1   36.18    0.91
  -6  -1  -1    2.08    0.08
  -6  -1  -1    2.20    0.09
  -6  -1  -1    2.19    0.10
   6   1   1    2.37    0.10
   6   1   1    2.16    0.10
  -7  -1  -1    1.90    0.08
  -7  -1  -1    1.49    0.10
  -7  -1  -1    1.60    0.10
   7   1   1    1.88    0.11
   7   1   1    1.67    0.11
  -8  -1  -1    7.11    0.23
  -8  -1  -1    7.12    0.20
   8   1   1    6.93    0.25
  -9  -1  -1    1.30    0.12
  -9  -1  -1    1.15    0.11
   9   1   1    1.24    0.15
 -10  -1  -1    1.84    0.13
 -10  -1  -1    1.74    0.15
  10   1   1    1.86    0.19
 -11  -1  -1    0.33    0.09
 -11  -1  -1    0.32    0.11
  11   1   1    0.28    0.13
 -12  -1  -1    2.81    0.22
 -12  -1  -1    2.70    0.24
  11  -2  -1    2.12    0.21
 -11   2   1    1.95    0.19
  10  -2  -1    2.24    0.18
  10  -2  -1    2.46    0.23
 -10   2   1    2.37    0.16
 -10   2   1    2.45    0.17
 -10   2   1    2.45    0.13
 -10   2   1    2.37    0.15
   9  -2  -1   -0.01    0.07
   9  -2  -1    0.10    0.09
  -9   2   1    0.00    0.07
  -9   2   1    0.09    0.07
  -9   2   1   -0.04    0.04
  -9   2   1    0.08    0.05
   8  -2  -1    2.09    0.13
   8  -2  -1    2.05    0.16
  -8   2   1    2.27    0.12
  -8   2   1    2.20    0.12
  -8   2   1    2.19    0.10
  -8   2   1    2.06    0.11
   7  -2  -1    2.26    0.14
   7  -2  -1    2.34    0.11
  -7   2   1    1.89    0.11
  -7   2   1    2.13    0.09
   6  -2  -1   18.63    0.53
   6  -2  -1   19.51    0.51
  -6   2   1   19.02    0.48
  -6   2   1   19.16    0.51
  -6   2   1   19.58    0.48
   5  -2  -1    0.04    0.03
   5  -2  -1    0.02    0.03
  -5   2   1    0.02    0.03
  -5   2   1    0.00    0.03
   4  -2  -1  206.71    5.22
   4  -2  -1  211.08    5.27
  -4   2   1  211.08    5.23
  -4   2   1  216.13    5.12
  -4   2   1  219.00    5.07
   3  -2  -1   23.17    0.61
   3  -2  -1   23.66    0.58
   3  -2  -1   23.33    0.60
   3  -2  -1   24.17    0.58
  -3   2   1   24.43    0.58
  -3   2   1   23.54    0.61
  -3   2   1   23.95    0.58
  -3   2   1   24.74    0.58
  -3   2   1   23.77    0.60
  -3   2   1   24.23    0.58
  -3   2   1   23.71    0.58
   2  -2  -1  417.19   10.04
   2  -2  -1  418.16   10.06
   2  -2  -1  414.62   10.30
   2  -2  -1  425.20    9.92
   2  -2  -1  412.05   10.29
  -2   2   1  428.00   10.05
  -2   2   1  408.29    9.92
  -2   2   1  423.61   10.04
  -2   2   1  416.40   10.29
  -2   2   1  423.26    9.97
  -2   2   1  406.43   10.26
   1  -2  -1  953.40   23.50
   1  -2  -1 1000.00   23.16
   1  -2  -1  964.27   23.92
  -1   2   1  973.03   23.49
  -1   2   1  997.26   24.03
  -1   2   1  980.37   23.28
   0  -2  -1  299.94    7.10
   0  -2  -1  298.55    7.01
   0  -2  -1  293.95    7.14
   0  -2  -1  293.80    7.06
   0  -2  -1  282.17    7.29
   0   2   1  306.71    7.12
   0   2   1  304.73    7.11
   0   2   1  296.45    7.05
   0   2   1  288.13    7.28
   0   2   1  282.24    7.01
  -1  -2  -1  138.87    3.52
  -1  -2  -1  137.69    3.44
  -1  -2  -1  146.65    3.46
  -1  -2  -1  145.69    3.40
  -1  -2  -1  141.05    3.46
   1   2   1  142.52    3.51
   1   2   1  143.86    3.46
   1   2   1  145.62    3.47
   1   2   1  145.50    3.44
  -2  -2  -1   69.09    1.70
  -2  -2  -1   69.12    1.71
  -2  -2  -1   72.73    1.73
  -2  -2  -1   72.22    1.70
  -2  -2  -1   72.16    1.68
  -2  -2  -1   69.31    1.75
   2   2   1   71.44    1.71
   2   2   1   73.83    1.75
   2   2   1   70.08    1.70
   2   2   1   67.77    1.68
  -3  -2  -1   38.31    0.91
  -3  -2  -1   37.50    0.92
  -3  -2  -1   36.81    0.94
  -3  -2  -1   37.79    0.93
  -3  -2  -1   36.85    0.94
  -3  -2  -1   37.68    0.90
   3   2   1   36.73    0.91
   3   2   1   37.59    0.92
   3   2   1   38.13    0.94
   3   2   1   37.26    0.94
  -4  -2  -1   24.76    0.63
  -4  -2  -1   25.58    0.61
  -4  -2  -1   24.42    0.64
  -4  -2  -1   24.31    0.60
  -4  -2  -1   24.33    0.62
   4   2   1   24.62    0.64
   4   2   1   25.26    0.63
   4   2   1   25.24    0.63
   4   2   1   24.76    0.61
  -5  -2  -1    7.47    0.20
  -5  -2  -1    6.93    0.21
  -5  -2  -1    6.85    0.21
  -5  -2  -1    7.10    0.18
  -5  -2  -1    6.96    0.20
  -5  -2  -1    6.97    0.19
   5   2   1    7.19    0.21
   5   2   1    7.25    0.21
   5   2   1    7.17    0.19
   5   2   1    7.04    0.19
  -6  -2  -1    0.98    0.07
  -6  -2  -1    0.89    0.08
  -6  -2  -1    0.78    0.07
   6   2   1    1.02    0.05
   6   2   1    0.90    0.08
   6   2   1    0.87    0.06
   6   2   1    0.83    0.08
  -7  -2  -1   24.55    0.57
  -7  -2  -1   22.14    0.59
   7   2   1   19.07    0.59
  -8  -2  -1    0.03    0.06
  -8  -2  -1    0.04    0.05
   8   2   1    0.08    0.07
  -9  -2  -1    5.51    0.22
  -9  -2  -1    5.65    0.21
 -10  -2  -1    0.04    0.07
 -10  -2  -1    0.05    0.09
 -11  -2  -1    4.24    0.22
 -11  -2  -1    3.74    0.23
 -12  -2  -1    0.80    0.14
  11  -3  -1    0.29    0.14
 -11   3   1    0.64    0.12
 -11   3   1    0.47    0.12
  10  -3  -1    0.01    0.11
  10  -3  -1   -0.04    0.09
 -10   3   1   -0.03    0.06
 -10   3   1    0.09    0.09
 -10   3   1    0.03    0.08
 -10   3   1    0.02    0.07
   9  -3  -1   -0.08    0.08
   9  -3  -1    0.01    0.07
  -9   3   1    0.02    0.07
  -9   3   1    0.03    0.05
   8  -3  -1    5.12    0.23
   8  -3  -1    5.00    0.19
  -8   3   1    4.80    0.16
  -8   3   1    5.12    0.19
   7  -3  -1    8.33    0.25
   7  -3  -1    8.49    0.28
  -7   3   1    8.35    0.23
  -7   3   1    7.92    0.24
  -7   3   1    8.30    0.26
  -7   3   1    8.21    0.25
   6  -3  -1    1.44    0.09
   6  -3  -1    1.71    0.12
  -6   3   1    1.83    0.09
  -6   3   1    1.83    0.09
  -6   3   1    1.90    0.11
  -6   3   1    1.84    0.08
   5  -3  -1  128.95    3.20
   5  -3  -1  127.84    3.20
  -5   3   1  133.42    3.09
  -5   3   1  128.88    3.07
  -5   3   1  127.58    3.22
  -5   3   1  129.41    3.12
   4  -3  -1   28.64    0.71
   4  -3  -1   29.38    0.74
   4  -3  -1   29.45    0.72
   4  -3  -1   28.97    0.76
  -4   3   1   30.59    0.71
  -4   3   1   29.02    0.72
  -4   3   1   29.06    0.71
  -4   3   1   30.06    0.72
  -4   3   1   28.98    0.74
   3  -3  -1  279.10    6.58
   3  -3  -1  276.82    6.87
   3  -3  -1  266.89    6.70
   3  -3  -1  274.39    6.87
   3  -3  -1  279.18    6.70
  -3   3   1  270.48    6.67
  -3   3   1  293.01    6.70
  -3   3   1  278.78    6.62
  -3   3   1  274.96    6.84
  -3   3   1  285.73    6.64
   2  -3  -1    7.71    0.21
   2  -3  -1    7.73    0.20
   2  -3  -1    8.12    0.20
   2  -3  -1    7.78    0.20
   2  -3  -1    8.45    0.20
   2  -3  -1    7.86    0.22
   2  -3  -1    7.76    0.20
  -2   3   1    7.96    0.20
  -2   3   1    7.93    0.20
  -2   3   1    7.78    0.21
  -2   3   1    7.84    0.20
   1  -3  -1   10.65    0.27
   1  -3  -1   10.59    0.27
   1  -3  -1   10.08    0.28
   1  -3  -1   10.65    0.27
  -1   3   1   10.92    0.27
  -1   3   1   11.14    0.28
  -1   3   1   10.40    0.27
  -1   3   1   11.05    0.27
   0  -3  -1    1.47    0.07
   0  -3  -1    1.63    0.05
   0  -3  -1    1.52    0.06
   0   3   1    1.58    0.06
   0   3   1    1.66    0.06
   0   3   1    1.66    0.07
  -1  -3  -1    0.09    0.03
  -1  -3  -1    0.12    0.02
  -1  -3  -1    0.16    0.02
  -1  -3  -1    0.11    0.02
  -1  -3  -1    0.13    0.03
  -1  -3  -1    0.10    0.02
   1   3   1    0.10    0.02
   1   3   1    0.12    0.02
   1   3   1    0.13    0.02
   1   3   1    0.10    0.02
   1   3   1    0.11    0.03
   1   3   1    0.12    0.03
  -2  -3  -1   12.79    0.35
  -2  -3  -1   12.55    0.33
  -2  -3  -1   13.05    0.33
  -2  -3  -1   13.08    0.34
  -2  -3  -1   13.38    0.34
  -2  -3  -1   13.19    0.33
   2   3   1   12.35    0.33
   2   3   1   13.58    0.35
   2   3   1   13.23    0.34
   2   3   1   12.91    0.33
   2   3   1   13.26    0.33
  -3  -3  -1    1.04    0.04
  -3  -3  -1    1.02    0.07
  -3  -3  -1    0.98    0.05
  -3  -3  -1    1.12    0.06
  -3  -3  -1    0.98    0.07
  -3  -3  -1    1.08    0.05
   3   3   1    1.13    0.06
   3   3   1    1.02    0.07
   3   3   1    1.01    0.05
  -4  -3  -1    6.90    0.21
  -4  -3  -1    6.81    0.20
  -4  -3  -1    6.66    0.18
  -4  -3  -1    7.07    0.20
  -4  -3  -1    6.60    0.19
  -4  -3  -1    6.96    0.20
   4   3   1    7.28    0.20
   4   3   1    6.73    0.19
   4   3   1    6.89    0.20
   4   3   1    7.27    0.20
  -5  -3  -1    1.48    0.09
  -5  -3  -1    1.53    0.08
  -5  -3  -1    1.42    0.09
  -5  -3  -1    1.49    0.09
   5   3   1    1.49    0.06
   5   3   1    1.45    0.09
   5   3   1    1.40    0.08
  -6  -3  -1   42.09    1.02
  -6  -3  -1   40.98    1.02
  -6  -3  -1   41.22    1.05
   6   3   1   39.42    1.01
   6   3   1   41.39    1.00
  -7  -3  -1    0.14    0.04
  -7  -3  -1    0.08    0.06
  -7  -3  -1    0.08    0.05
   7   3   1    0.08    0.03
   7   3   1    0.12    0.05
  -8  -3  -1   50.72    1.28
  -8  -3  -1   51.64    1.31
  -9  -3  -1    0.46    0.08
  -9  -3  -1    0.26    0.07
 -10  -3  -1    3.66    0.20
 -10  -3  -1    3.70    0.19
 -11  -3  -1    0.11    0.12
 -11  -3  -1    0.15    0.10
 -12  -3  -1    3.96    0.26
  11  -4  -1   -0.09    0.15
 -11   4   1   -0.02    0.12
 -11   4   1    0.05    0.11
  10  -4  -1   14.04    0.49
 -10   4   1   13.61    0.43
   9  -4  -1    3.58    0.22
   9  -4  -1    3.53    0.18
  -9   4   1    3.72    0.19
  -9   4   1    3.68    0.15
   8  -4  -1   11.74    0.35
   8  -4  -1   11.66    0.38
  -8   4   1   11.87    0.36
  -8   4   1   11.53    0.31
   7  -4  -1    0.64    0.08
   7  -4  -1    0.72    0.08
  -7   4   1    0.67    0.07
  -7   4   1    0.66    0.08
  -7   4   1    0.53    0.09
   6  -4  -1   23.64    0.61
   6  -4  -1   24.05    0.64
  -6   4   1   23.18    0.58
  -6   4   1   23.29    0.59
  -6   4   1   23.56    0.63
   5  -4  -1    1.06    0.06
   5  -4  -1    1.09    0.07
   5  -4  -1    1.02    0.05
   5  -4  -1    1.08    0.10
  -5   4   1    1.01    0.06
  -5   4   1    0.93    0.07
  -5   4   1    1.06    0.08
  -5   4   1    1.07    0.06
  -5   4   1    0.99    0.09
   4  -4  -1  241.92    6.04
   4  -4  -1  243.37    5.80
   4  -4  -1  243.31    5.90
   4  -4  -1  244.02    6.01
  -4   4   1  244.79    6.07
  -4   4   1  246.21    5.83
  -4   4   1  246.17    5.84
  -4   4   1  249.71    5.89
   3  -4  -1   72.65    1.73
   3  -4  -1   72.46    1.74
   3  -4  -1   73.05    1.76
   3  -4  -1   70.65    1.71
   3  -4  -1   71.33    1.72
   3  -4  -1   70.31    1.73
   3  -4  -1   72.59    1.78
  -3   4   1   72.18    1.72
  -3   4   1   71.03    1.71
  -3   4   1   68.79    1.74
  -3   4   1   72.15    1.73
  -3   4   1   70.56    1.80
   2  -4  -1   16.00    0.38
   2  -4  -1   15.40    0.38
   2  -4  -1   15.80    0.38
   2  -4  -1   14.87    0.40
   2  -4  -1   15.15    0.38
  -2   4   1   14.89    0.41
  -2   4   1   15.01    0.38
  -2   4   1   14.87    0.40
  -2   4   1   15.00    0.42
  -2   4   1   15.48    0.38
  -2   4   1   15.12    0.38
   1  -4  -1    2.05    0.07
   1  -4  -1    1.93    0.08
   1  -4  -1    2.17    0.08
  -1   4   1    2.11    0.09
  -1   4   1    2.21    0.08
  -1   4   1    2.19    0.08
  -1   4   1    2.04    0.07
  -1   4   1    2.05    0.07
   0  -4  -1  146.14    3.64
   0  -4  -1  151.35    3.61
   0  -4  -1  155.61    3.58
   0  -4  -1  146.69    3.72
   0   4   1  147.47    3.73
   0   4   1  155.11    3.65
   0   4   1  154.57    3.61
   0   4   1  147.37    3.61
   0   4   1  152.43    3.64
  -1  -4  -1   26.09    0.65
  -1  -4  -1   26.91    0.65
  -1  -4  -1   26.70    0.66
  -1  -4  -1   26.13    0.69
  -1  -4  -1   26.48    0.66
  -1  -4  -1   25.83    0.67
   1   4   1   26.63    0.66
   1   4   1   26.34    0.65
   1   4   1   27.28    0.68
   1   4   1   26.68    0.66
   1   4   1   26.46    0.67
   1   4   1   26.78    0.69
  -2  -4  -1    2.15    0.10
  -2  -4  -1    2.18    0.07
  -2  -4  -1    2.10    0.09
  -2  -4  -1    2.11    0.08
  -2  -4  -1    2.12    0.07
  -2  -4  -1    2.15    0.08
   2   4   1    2.12    0.10
   2   4   1    2.18    0.07
   2   4   1    2.13    0.08
   2   4   1    2.03    0.08
   2   4   1    2.24    0.11
   2   4   1    2.13    0.08
  -3  -4  -1    2.58    0.11
  -3  -4  -1    2.36    0.11
  -3  -4  -1    2.47    0.09
   3   4   1    2.43    0.11
   3   4   1    2.52    0.08
   3   4   1    2.37    0.09
   3   4   1    2.61    0.12
  -4  -4  -1    4.73    0.17
  -4  -4  -1    5.05    0.16
  -4  -4  -1    4.94    0.17
   4   4   1    5.02    0.17
   4   4   1    5.09    0.15
   4   4   1    5.39    0.18
  -5  -4  -1    2.72    0.13
  -5  -4  -1    2.56    0.13
  -5  -4  -1    2.58    0.13
  -5  -4  -1    2.68    0.12
   5   4   1    2.78    0.14
   5   4   1    2.60    0.10
   5   4   1    3.06    0.13
  -6  -4  -1   12.99    0.38
  -6  -4  -1   12.85    0.37
  -6  -4  -1   12.94    0.37
   6   4   1   13.16    0.34
   6   4   1   13.44    0.37
  -7  -4  -1   46.12    1.16
  -7  -4  -1   46.30    1.19
  -7  -4  -1   46.37    1.15
   7   4   1   44.99    1.14
   7   4   1   46.19    1.13
  -8  -4  -1    0.02    0.07
  -8  -4  -1    0.03    0.06
   8   4   1    0.11    0.07
   8   4   1    0.11    0.04
  -9  -4  -1   14.55    0.43
  -9  -4  -1   14.53    0.44
 -10  -4  -1    0.46    0.10
 -10  -4  -1    0.24    0.12
 -11  -4  -1    2.45    0.21
  11  -5  -1    0.20    0.16
 -11   5   1    0.28    0.13
  10  -5  -1    4.29    0.29
 -10   5   1    4.27    0.24
   9  -5  -1   14.38    0.47
  -9   5   1   13.94    0.44
  -9   5   1   13.82    0.37
   8  -5  -1   -0.04    0.08
   8  -5  -1   -0.01    0.06
  -8   5   1   -0.14    0.07
  -8   5   1    0.03    0.05
   7  -5  -1    1.44    0.10
   7  -5  -1    1.28    0.14
  -7   5   1    1.25    0.09
  -7   5   1    1.45    0.12
   6  -5  -1    0.26    0.07
   6  -5  -1    0.42    0.05
   6  -5  -1    0.31    0.04
   6  -5  -1    0.31    0.04
  -6   5   1    0.31    0.07
  -6   5   1    0.35    0.06
  -6   5   1    0.32    0.04
   5  -5  -1   32.29    0.80
   5  -5  -1   31.92    0.78
   5  -5  -1   31.27    0.84
   5  -5  -1   31.59    0.81
  -5   5   1   32.53    0.79
  -5   5   1   32.05    0.84
  -5   5   1   31.61    0.79
  -5   5   1   32.03    0.78
   4  -5  -1    3.65    0.12
   4  -5  -1    3.65    0.13
   4  -5  -1    3.62    0.11
   4  -5  -1    3.47    0.11
   4  -5  -1    3.36    0.12
  -4   5   1    3.50    0.15
  -4   5   1    3.57    0.12
  -4   5   1    3.53    0.11
  -4   5   1    3.55    0.13
   3  -5  -1   59.95    1.44
   3  -5  -1   58.64    1.45
   3  -5  -1   60.23    1.45
   3  -5  -1   58.55    1.47
   3  -5  -1   59.49    1.43
   3  -5  -1   59.66    1.50
   3  -5  -1   60.41    1.47
  -3   5   1   59.23    1.43
  -3   5   1   59.49    1.51
  -3   5   1   61.13    1.45
  -3   5   1   59.56    1.45
   2  -5  -1    5.78    0.17
   2  -5  -1    6.03    0.17
   2  -5  -1    5.01    0.18
   2  -5  -1    6.02    0.17
  -2   5   1    5.88    0.16
  -2   5   1    5.90    0.17
  -2   5   1    6.18    0.18
  -2   5   1    5.81    0.19
   1  -5  -1   15.29    0.39
   1  -5  -1   15.23    0.38
   1  -5  -1   15.68    0.39
   1  -5  -1   15.41    0.41
  -1   5   1   15.40    0.40
  -1   5   1   14.69    0.41
  -1   5   1   15.23    0.38
  -1   5   1   15.17    0.39
  -1   5   1   15.23    0.41
   0  -5  -1    5.23    0.15
   0  -5  -1    5.01    0.15
   0  -5  -1    5.22    0.16
   0  -5  -1    5.04    0.17
   0  -5  -1    5.41    0.14
   0   5   1    5.22    0.15
   0   5   1    5.17    0.16
   0   5   1    5.24    0.18
   0   5   1    4.99    0.16
   0   5   1    5.15    0.15
  -1  -5  -1    5.07    0.14
  -1  -5  -1    4.96    0.17
  -1  -5  -1    4.97    0.16
  -1  -5  -1    4.69    0.15
  -1  -5  -1    4.74    0.17
   1   5   1    4.99    0.15
   1   5   1    5.13    0.18
   1   5   1    4.82    0.18
   1   5   1    5.04    0.15
  -2  -5  -1    4.13    0.14
  -2  -5  -1    4.33    0.13
  -2  -5  -1    4.01    0.15
  -2  -5  -1    4.01    0.15
   2   5   1    4.15    0.13
   2   5   1    4.03    0.16
   2   5   1    4.51    0.17
   2   5   1    3.97    0.13
   2   5   1    4.22    0.13
  -3  -5  -1   13.41    0.36
  -3  -5  -1   13.13    0.38
  -3  -5  -1   13.07    0.37
   3   5   1   13.20    0.35
   3   5   1   14.29    0.38
   3   5   1   13.25    0.35
   3   5   1   13.15    0.38
  -4  -5  -1  141.68    3.37
  -4  -5  -1  133.97    3.42
  -4  -5  -1  138.80    3.45
  -4  -5  -1  138.99    3.35
   4   5   1  140.92    3.38
   4   5   1  138.71    3.35
  -5  -5  -1    6.29    0.23
  -5  -5  -1    6.41    0.22
   5   5   1    6.26    0.19
   5   5   1    6.35    0.24
  -6  -5  -1   46.89    1.20
  -6  -5  -1   46.21    1.17
  -6  -5  -1   46.15    1.17
   6   5   1   45.67    1.17
   6   5   1   47.90    1.15
  -7  -5  -1    0.06    0.06
  -7  -5  -1   -0.01    0.07
  -7  -5  -1    0.05    0.09
   7   5   1    0.08    0.11
   7   5   1    0.04    0.04
  -8  -5  -1   15.64    0.47
  -8  -5  -1   16.01    0.46
   8   5   1   15.86    0.41
  -9  -5  -1    0.39    0.09
  -9  -5  -1    0.42    0.12
   9   5   1    0.45    0.05
 -10  -5  -1    0.38    0.11
 -10  -5  -1    0.46    0.15
 -11  -5  -1   -0.02    0.11
  11  -6  -1    0.24    0.16
 -11   6   1    0.05    0.14
  10  -6  -1    0.96    0.16
 -10   6   1    0.95    0.14
   9  -6  -1   -0.09    0.10
  -9   6   1   -0.13    0.09
   8  -6  -1   10.05    0.36
  -8   6   1    9.85    0.28
  -8   6   1    9.86    0.34
   7  -6  -1    0.24    0.08
   7  -6  -1    0.25    0.04
   7  -6  -1    0.29    0.05
  -7   6   1    0.29    0.05
  -7   6   1    0.15    0.07
   6  -6  -1    0.29    0.04
   6  -6  -1    0.26    0.07
   6  -6  -1    0.36    0.05
   6  -6  -1    0.28    0.05
  -6   6   1    0.30    0.06
  -6   6   1    0.36    0.07
  -6   6   1    0.31    0.05
   5  -6  -1    0.22    0.05
   5  -6  -1    0.19    0.04
   5  -6  -1    0.20    0.04
   5  -6  -1    0.22    0.04
   5  -6  -1    0.23    0.06
  -5   6   1    0.18    0.04
  -5   6   1    0.23    0.05
  -5   6   1    0.21    0.05
   4  -6  -1   22.36    0.56
   4  -6  -1   21.98    0.57
   4  -6  -1   22.16    0.61
   4  -6  -1   22.88    0.56
   4  -6  -1   22.68    0.58
   4  -6  -1   22.09    0.56
  -4   6   1   21.95    0.56
  -4   6   1   22.20    0.61
  -4   6   1   22.48    0.57
   3  -6  -1    4.58    0.17
   3  -6  -1    4.77    0.16
   3  -6  -1    4.81    0.18
   3  -6  -1    4.88    0.15
  -3   6   1    4.80    0.15
  -3   6   1    4.84    0.18
  -3   6   1    4.95    0.15
   2  -6  -1   35.31    0.87
   2  -6  -1   34.70    0.90
   2  -6  -1   36.06    0.88
  -2   6   1   34.89    0.88
  -2   6   1   35.15    0.86
  -2   6   1   35.18    0.91
   1  -6  -1    2.64    0.11
   1  -6  -1    2.75    0.12
  -1   6   1    2.72    0.10
  -1   6   1    2.17    0.11
  -1   6   1    2.68    0.10
   0  -6  -1    0.18    0.05
   0  -6  -1    0.21    0.04
   0  -6  -1    0.14    0.05
   0   6   1    0.14    0.03
   0   6   1    0.28    0.05
   0   6   1    0.19    0.04
  -1  -6  -1   18.17    0.50
  -1  -6  -1   18.76    0.48
  -1  -6  -1   18.64    0.47
   1   6   1   18.38    0.49
   1   6   1   18.74    0.48
   1   6   1   18.36    0.47
   1   6   1   17.75    0.51
  -2  -6  -1   25.23    0.63
  -2  -6  -1   25.50    0.64
  -2  -6  -1   21.15    0.66
  -2  -6  -1   24.90    0.65
   2   6   1   24.78    0.66
   2   6   1   25.38    0.63
   2   6   1   25.56    0.64
  -3  -6  -1   77.28    1.91
  -3  -6  -1   75.68    1.97
  -3  -6  -1   78.94    1.94
   3   6   1   80.38    1.91
   3   6   1   77.48    1.94
   3   6   1   80.11    1.95
  -4  -6  -1   52.69    1.33
  -4  -6  -1   53.90    1.37
  -4  -6  -1   54.31    1.35
   4   6   1   53.11    1.34
   4   6   1   53.01    1.35
   4   6   1   54.23    1.32
  -5  -6  -1   35.98    0.92
  -5  -6  -1   35.79    0.93
  -5  -6  -1   35.92    0.94
   5   6   1   35.92    0.90
   5   6   1   35.76    0.94
  -6  -6  -1    0.43    0.10
  -6  -6  -1    0.32    0.07
  -6  -6  -1    0.34    0.08
   6   6   1    0.38    0.05
   6   6   1    0.38    0.14
  -7  -6  -1    1.62    0.19
  -7  -6  -1    1.62    0.15
  -7  -6  -1    1.34    0.13
   7   6   1    1.44    0.09
  -8  -6  -1    0.56    0.11
  -8  -6  -1    0.43    0.10
   8   6   1    0.52    0.06
  -9  -6  -1    2.33    0.18
  -9  -6  -1    2.50    0.22
   9   6   1    2.52    0.12
 -10  -6  -1    0.40    0.11
  10  -7  -1   -0.19    0.12
 -10   7   1    0.13    0.12
   9  -7  -1    4.34    0.27
  -9   7   1    4.38    0.25
   8  -7  -1    0.79    0.12
   8  -7  -1    1.30    0.09
  -8   7   1    1.26    0.13
  -8   7   1    1.00    0.11
   7  -7  -1    2.85    0.12
   7  -7  -1    3.00    0.20
   7  -7  -1    2.97    0.13
  -7   7   1    3.04    0.18
  -7   7   1    2.36    0.12
   6  -7  -1    0.38    0.08
   6  -7  -1    0.50    0.06
   6  -7  -1    0.58    0.06
  -6   7   1    0.55    0.09
  -6   7   1    0.50    0.05
  -6   7   1    0.58    0.08
   5  -7  -1    0.17    0.07
   5  -7  -1    0.14    0.05
   5  -7  -1    0.17    0.05
   5  -7  -1    0.20    0.07
  -5   7   1    0.20    0.06
  -5   7   1    0.08    0.06
  -5   7   1    0.19    0.04
   4  -7  -1    8.25    0.28
   4  -7  -1    8.47    0.26
   4  -7  -1    7.76    0.25
   4  -7  -1    8.10    0.23
   4  -7  -1    8.26    0.24
  -4   7   1    8.09    0.23
  -4   7   1    8.24    0.24
  -4   7   1    8.29    0.27
   3  -7  -1    2.52    0.11
   3  -7  -1    2.64    0.14
   3  -7  -1    2.22    0.13
   3  -7  -1    2.21    0.13
  -3   7   1    2.48    0.10
  -3   7   1    2.23    0.11
  -3   7   1    2.34    0.13
   2  -7  -1    6.29    0.22
   2  -7  -1    6.56    0.20
   2  -7  -1    5.92    0.21
  -2   7   1    6.19    0.20
  -2   7   1    6.43    0.22
  -2   7   1    6.34    0.19
   1  -7  -1   14.06    0.38
   1  -7  -1   13.82    0.40
  -1   7   1   14.55    0.40
  -1   7   1   13.23    0.38
  -1   7   1   13.93    0.37
   0  -7  -1    0.05    0.05
   0  -7  -1    0.10    0.04
   0   7   1    0.11    0.04
   0   7   1    0.18    0.04
   0   7   1    0.12    0.04
  -1  -7  -1    0.18    0.04
  -1  -7  -1    0.16    0.06
  -1  -7  -1    0.07    0.05
   1   7   1    0.13    0.04
   1   7   1    0.10    0.04
   1   7   1    0.08    0.05
  -2  -7  -1   -0.01    0.06
  -2  -7  -1    0.06    0.05
  -2  -7  -1   -0.06    0.05
  -2  -7  -1   -0.07    0.05
   2   7   1    0.00    0.05
   2   7   1    0.02    0.04
  -3  -7  -1    0.66    0.09
  -3  -7  -1    0.67    0.08
  -3  -7  -1    0.73    0.09
   3   7   1    0.88    0.08
   3   7   1    0.66    0.07
  -4  -7  -1   16.70    0.47
  -4  -7  -1   16.84    0.48
  -4  -7  -1   16.51    0.48
   4   7   1   17.25    0.45
   4   7   1   15.77    0.52
   4   7   1   16.45    0.44
  -5  -7  -1    0.11    0.06
  -5  -7  -1    0.05    0.08
  -5  -7  -1    0.25    0.10
   5   7   1    0.20    0.05
  -6  -7  -1    3.40    0.19
  -6  -7  -1    3.32    0.22
  -6  -7  -1    3.70    0.17
   6   7   1    3.34    0.14
  -7  -7  -1    2.82    0.17
  -7  -7  -1    2.79    0.20
   7   7   1    2.87    0.13
  -8  -7  -1    0.01    0.12
  -8  -7  -1    0.07    0.08
   8   7   1   -0.03    0.05
  -9  -7  -1    0.39    0.10
   9   7   1    0.36    0.07
 -10  -7  -1    0.00    0.12
  10  -8  -1    0.66    0.16
 -10   8   1    0.67    0.15
   9  -8  -1    0.72    0.15
   9  -8  -1    0.69    0.07
  -9   8   1    0.74    0.13
   8  -8  -1    9.45    0.28
   8  -8  -1    9.65    0.37
  -8   8   1    9.14    0.36
   7  -8  -1    3.25    0.14
   7  -8  -1    2.69    0.12
   7  -8  -1    2.89    0.22
  -7   8   1    2.99    0.20
  -7   8   1    2.56    0.13
   6  -8  -1    8.05    0.30
   6  -8  -1    8.14    0.26
   6  -8  -1    7.81    0.23
  -6   8   1    8.17    0.30
  -6   8   1    7.73    0.23
  -6   8   1    7.57    0.26
   5  -8  -1    0.12    0.06
   5  -8  -1    0.17    0.05
   5  -8  -1    0.12    0.07
  -5   8   1    0.27    0.07
  -5   8   1    0.12    0.07
  -5   8   1    0.14    0.05
   4  -8  -1   18.36    0.51
   4  -8  -1   18.07    0.53
   4  -8  -1   18.65    0.48
   4  -8  -1   18.44    0.48
  -4   8   1   18.60    0.47
  -4   8   1   18.03    0.53
  -4   8   1   17.54    0.49
   3  -8  -1    6.49    0.21
   3  -8  -1    6.31    0.23
  -3   8   1    6.38    0.22
  -3   8   1    6.53    0.20
  -3   8   1    6.42    0.24
   2  -8  -1    2.22    0.14
   2  -8  -1    2.47    0.12
  -2   8   1    2.35    0.13
  -2   8   1    2.36    0.12
  -2   8   1    2.45    0.11
   1  -8  -1   10.62    0.33
   1  -8  -1   10.81    0.31
  -1   8   1   10.48    0.31
  -1   8   1   10.66    0.30
  -1   8   1   10.64    0.33
   0  -8  -1    0.35    0.07
   0  -8  -1    0.25    0.06
   0   8   1    0.39    0.06
   0   8   1    0.38    0.05
   0   8   1    0.44    0.06
  -1  -8  -1   22.53    0.60
  -1  -8  -1   23.03    0.62
  -1  -8  -1   21.97    0.57
   1   8   1   22.51    0.59
   1   8   1   22.11    0.60
  -2  -8  -1    2.13    0.14
  -2  -8  -1    2.60    0.16
   2   8   1    2.44    0.12
   2   8   1    2.24    0.12
  -3  -8  -1    5.52    0.21
  -3  -8  -1    5.55    0.23
  -3  -8  -1    5.66    0.23
   3   8   1    5.38    0.20
   3   8   1    5.41    0.19
  -4  -8  -1    0.05    0.06
  -4  -8  -1   -0.04    0.08
  -4  -8  -1    0.07    0.08
   4   8   1   -0.02    0.06
   4   8   1    0.01    0.04
  -5  -8  -1    4.46    0.21
  -5  -8  -1    4.60    0.20
  -5  -8  -1    3.75    0.23
   5   8   1    4.05    0.16
  -6  -8  -1    0.59    0.15
  -6  -8  -1    0.59    0.09
  -6  -8  -1    0.52    0.11
   6   8   1    0.47    0.07
  -7  -8  -1    0.48    0.12
  -7  -8  -1    0.21    0.09
   7   8   1    0.24    0.07
  -8  -8  -1    0.03    0.10
  -8  -8  -1    0.10    0.13
   8   8   1    0.13    0.07
  -9  -8  -1    0.12    0.11
   9   8   1    0.12    0.07
   9  -9  -1    1.40    0.12
   9  -9  -1    1.27    0.19
  -9   9   1    1.60    0.17
   8  -9  -1   -0.07    0.07
   8  -9  -1   -0.08    0.12
  -8   9   1    0.36    0.11
   7  -9  -1    0.94    0.08
   7  -9  -1    1.04    0.14
   7  -9  -1    1.19    0.13
  -7   9   1    1.24    0.14
  -7   9   1    1.08    0.09
   6  -9  -1    0.36    0.07
   6  -9  -1    0.29    0.07
   6  -9  -1    0.06    0.10
  -6   9   1    0.23    0.09
  -6   9   1    0.26    0.07
   5  -9  -1    0.03    0.09
   5  -9  -1    0.16    0.06
   5  -9  -1    0.08    0.07
   5  -9  -1    0.15    0.06
  -5   9   1    0.18    0.08
  -5   9   1    0.08    0.06
  -5   9   1    0.04    0.09
   4  -9  -1    0.19    0.08
   4  -9  -1    0.18    0.06
   4  -9  -1    0.17    0.06
   4  -9  -1    0.18    0.06
  -4   9   1    0.19    0.06
  -4   9   1    0.17    0.07
  -4   9   1    0.11    0.08
   3  -9  -1    1.05    0.12
   3  -9  -1    1.19    0.11
  -3   9   1    1.19    0.14
  -3   9   1    1.12    0.10
  -3   9   1    0.99    0.11
   2  -9  -1    3.96    0.19
   2  -9  -1    3.93    0.17
  -2   9   1    4.10    0.19
  -2   9   1    3.82    0.15
  -2   9   1    3.88    0.17
   1  -9  -1   -0.09    0.05
   1  -9  -1   -0.02    0.06
  -1   9   1    0.04    0.06
  -1   9   1    0.03    0.05
  -1   9   1    0.03    0.06
   0  -9  -1    0.10    0.07
   0  -9  -1    0.10    0.06
   0   9   1    0.02    0.06
   0   9   1    0.10    0.05
  -1  -9  -1    0.00    0.07
  -1  -9  -1    0.01    0.06
   1   9   1   -0.06    0.06
   1   9   1    0.00    0.05
  -2  -9  -1    0.91    0.10
  -2  -9  -1    0.87    0.11
   2   9   1    1.03    0.10
   2   9   1    0.95    0.11
  -3  -9  -1   -0.06    0.08
  -3  -9  -1   -0.08    0.06
   3   9   1   -0.03    0.06
   3   9   1    0.05    0.05
  -4  -9  -1    5.51    0.26
  -4  -9  -1    5.27    0.22
   4   9   1    5.31    0.20
   4   9   1    4.97    0.20
  -5  -9  -1    0.55    0.10
  -5  -9  -1    0.52    0.12
   5   9   1    0.41    0.08
  -6  -9  -1    2.55    0.19
   6   9   1    2.79    0.15
  -7  -9  -1    3.32    0.23
   7   9   1    3.13    0.16
  -8  -9  -1    0.86    0.14
   8   9   1    1.08    0.11
   8 -10  -1    1.15    0.11
   8 -10  -1    1.16    0.18
  -8  10   1    1.08    0.16
   7 -10  -1    6.74    0.34
   7 -10  -1    7.11    0.27
  -7  10   1    6.93    0.32
   6 -10  -1    0.23    0.12
   6 -10  -1    0.24    0.08
   6 -10  -1    0.17    0.08
  -6  10   1    0.07    0.10
  -6  10   1    0.11    0.07
   5 -10  -1    0.13    0.07
   5 -10  -1    0.08    0.11
   5 -10  -1    0.09    0.07
   5 -10  -1    0.06    0.07
  -5  10   1    0.17    0.09
  -5  10   1    0.12    0.09
  -5  10   1    0.17    0.07
   4 -10  -1    0.07    0.07
   4 -10  -1    0.00    0.07
   4 -10  -1   -0.04    0.09
   4 -10  -1    0.04    0.07
  -4  10   1   -0.02    0.08
  -4  10   1    0.08    0.08
  -4  10   1    0.06    0.06
   3 -10  -1    0.56    0.08
   3 -10  -1    0.68    0.09
   3 -10  -1    0.65    0.11
  -3  10   1    0.62    0.09
  -3  10   1    0.62    0.10
  -3  10   1    0.59    0.08
   2 -10  -1    0.09    0.08
   2 -10  -1    0.14    0.07
  -2  10   1    0.05    0.06
  -2  10   1    0.05    0.08
  -2  10   1    0.06    0.07
   1 -10  -1    6.47    0.24
   1 -10  -1    6.26    0.26
  -1  10   1    6.55    0.25
  -1  10   1    6.38    0.23
   0 -10  -1    0.38    0.10
   0 -10  -1    0.34    0.08
   0  10   1    0.53    0.09
   0  10   1    0.41    0.08
  -1 -10  -1    2.36    0.16
  -1 -10  -1    2.19    0.19
   1  10   1    2.27    0.14
   1  10   1    2.33    0.16
  -2 -10  -1    0.56    0.11
  -2 -10  -1    0.69    0.10
   2  10   1    0.65    0.09
   2  10   1    0.72    0.09
  -3 -10  -1    3.11    0.19
  -3 -10  -1    2.65    0.22
   3  10   1    2.90    0.17
   3  10   1    2.78    0.16
  -4 -10  -1   -0.14    0.12
  -4 -10  -1    0.14    0.09
   4  10   1   -0.08    0.07
   4  10   1    0.01    0.08
  -5 -10  -1    7.22    0.33
  -5 -10  -1    6.42    0.29
   5  10   1    6.81    0.25
  -6 -10  -1    0.01    0.10
   6  10   1    0.17    0.07
  -7 -10  -1   -0.04    0.11
   7  10   1    0.14    0.08
   7 -11  -1    1.03    0.18
   7 -11  -1    1.19    0.13
  -7  11   1    1.48    0.16
   6 -11  -1    1.08    0.16
   6 -11  -1    1.80    0.18
  -6  11   1    1.53    0.17
   5 -11  -1   -0.09    0.13
   5 -11  -1   -0.04    0.08
   5 -11  -1    0.02    0.08
   5 -11  -1   -0.13    0.09
  -5  11   1    0.04    0.10
   4 -11  -1    0.13    0.12
   4 -11  -1    0.12    0.08
   4 -11  -1    0.15    0.09
   4 -11  -1   -0.06    0.08
  -4  11   1    0.20    0.10
  -4  11   1    0.09    0.10
   3 -11  -1    0.08    0.12
   3 -11  -1   -0.04    0.08
   3 -11  -1   -0.02    0.08
  -3  11   1    0.06    0.08
  -3  11   1   -0.07    0.08
   2 -11  -1    1.96    0.16
   2 -11  -1    1.96    0.18
  -2  11   1    2.00    0.16
  -2  11   1    2.07    0.19
   1 -11  -1    0.28    0.08
   1 -11  -1    0.51    0.11
  -1  11   1    0.39    0.10
  -1  11   1    0.42    0.09
   0 -11  -1    4.65    0.22
   0 -11  -1    4.15    0.25
   0  11   1    4.39    0.23
   0  11   1    4.44    0.21
  -1 -11  -1    0.62    0.12
  -1 -11  -1    0.69    0.11
   1  11   1    0.48    0.10
   1  11   1    0.37    0.11
  -2 -11  -1    1.06    0.13
  -2 -11  -1    1.27    0.16
   2  11   1    1.02    0.12
   2  11   1    1.13    0.11
  -3 -11  -1    0.46    0.13
  -3 -11  -1    0.55    0.11
   3  11   1    0.42    0.11
   3  11   1    0.37    0.09
  -4 -11  -1    0.33    0.15
  -4 -11  -1    0.35    0.11
   4  11   1    0.13    0.08
  -5 -11  -1    1.40    0.15
   5  11   1    1.49    0.15
  -6  12   1   -0.06    0.13
   5 -12  -1    0.27    0.12
   5 -12  -1    0.45    0.12
   5 -12  -1    0.28    0.15
   5 -12  -1    0.48    0.11
  -5  12   1    0.31    0.14
   4 -12  -1   -0.01    0.11
   4 -12  -1    0.19    0.10
   4 -12  -1    0.13    0.14
   4 -12  -1    0.09    0.10
  -4  12   1    0.06    0.12
  -4  12   1    0.12    0.13
   3 -12  -1    0.69    0.13
   3 -12  -1    0.52    0.15
   3 -12  -1    0.75    0.12
  -3  12   1    0.61    0.14
  -3  12   1    0.67    0.13
   2 -12  -1    0.16    0.11
   2 -12  -1    0.36    0.11
  -2  12   1    0.25    0.11
  -2  12   1    0.06    0.10
   1 -12  -1    2.36    0.23
   1 -12  -1    2.32    0.20
  -1  12   1    2.18    0.20
  -1  12   1    2.77    0.23
   0 -12  -1    0.19    0.12
   0 -12  -1    0.11    0.10
   0  12   1   -0.06    0.11
   0  12   1   -0.03    0.10
  -1 -12  -1    6.91    0.30
  -1 -12  -1    7.00    0.34
   1  12   1    6.63    0.31
   1  12   1    6.45    0.28
  -2 -12  -1    2.77    0.23
  -2 -12  -1    3.44    0.28
   2  12   1    2.92    0.20
   2  12   1    3.04    0.24
  -3 -12  -1    5.57    0.28
  -3 -12  -1    4.57    0.34
   3  12   1    4.90    0.24
   2 -13  -1    2.13    0.23
   2 -13  -1    1.73    0.19
   2 -13  -1    1.63    0.22
  -2  13   1    1.64    0.18
   1 -13  -1    1.38    0.16
   1 -13  -1    1.33    0.18
  -1  13   1    1.22    0.18
  -1  13   1    1.12    0.15
   0 -13  -1    1.36    0.16
   0  13   1    1.33    0.15
   0  13   1    1.37    0.18
   1  11  -2    0.11    0.10
   1  11  -2    0.10    0.15
  -1 -11   2    0.16    0.11
  -1 -11   2    0.30    0.15
   0  11  -2    0.53    0.15
   0  11  -2    0.38    0.11
   0 -11   2    0.30    0.11
   0 -11   2    0.58    0.15
  -1  11  -2    7.15    0.34
  -1  11  -2    7.24    0.30
   1 -11   2    6.76    0.30
   1 -11   2    7.03    0.34
  -2  11  -2   -0.01    0.10
  -2  11  -2    0.01    0.13
   2 -11   2   -0.18    0.09
   2 -11   2   -0.03    0.12
  -3  11  -2    3.49    0.24
  -3  11  -2    3.62    0.28
   3 -11   2    3.96    0.26
   3 -11   2    4.26    0.24
  -4  11  -2    1.09    0.17
  -4  11  -2    1.15    0.15
   4 -11   2    1.25    0.14
   4 -11   2    1.40    0.15
   4 -11   2    1.40    0.15
  -5  11  -2    4.03    0.28
  -5  11  -2    3.70    0.26
   5 -11   2    3.28    0.23
   5 -11   2    3.97    0.24
   5 -11   2    3.76    0.23
  -6  11  -2    0.14    0.14
   6 -11   2   -0.04    0.10
   6 -11   2   -0.10    0.16
   6 -11   2   -0.01    0.12
   3  10  -2    1.02    0.12
  -3 -10   2    0.87    0.13
   2  10  -2    1.24    0.15
   2  10  -2    1.20    0.12
  -2 -10   2    1.06    0.13
  -2 -10   2    1.30    0.17
   1  10  -2    6.70    0.27
   1  10  -2    7.05    0.30
  -1 -10   2    6.70    0.29
  -1 -10   2    6.81    0.32
   0  10  -2    1.43    0.14
   0  10  -2    1.62    0.16
   0 -10   2    1.24    0.15
   0 -10   2    1.51    0.17
  -1  10  -2    4.85    0.26
  -1  10  -2    4.45    0.22
   1 -10   2    4.62    0.26
   1 -10   2    4.68    0.23
  -2  10  -2    0.50    0.12
  -2  10  -2    0.45    0.10
   2 -10   2    0.48    0.10
   2 -10   2    0.47    0.11
  -3  10  -2    0.89    0.13
  -3  10  -2    0.67    0.11
   3 -10   2    0.63    0.09
   3 -10   2    0.67    0.12
  -4  10  -2    0.59    0.12
  -4  10  -2    0.46    0.11
   4 -10   2    0.56    0.10
   4 -10   2    0.47    0.11
   4 -10   2    0.58    0.10
  -5  10  -2    0.76    0.14
  -5  10  -2    1.04    0.12
   5 -10   2    1.11    0.12
   5 -10   2    1.14    0.12
   5 -10   2    1.14    0.12
  -6  10  -2    2.38    0.24
  -6  10  -2    2.37    0.21
   6 -10   2    2.48    0.19
   6 -10   2    2.56    0.19
  -7  10  -2   -0.04    0.12
   7 -10   2    0.14    0.09
   7 -10   2    0.03    0.14
   7 -10   2    0.11    0.10
  -8  10  -2    2.66    0.27
   8 -10   2    2.62    0.19
   8 -10   2    2.85    0.31
   8 -10   2    2.34    0.22
   5   9  -2    0.78    0.10
  -5  -9   2    0.87    0.14
   4   9  -2    5.63    0.23
  -4  -9   2    6.10    0.28
   3   9  -2    1.68    0.14
   3   9  -2    1.58    0.19
  -3  -9   2    1.43    0.14
  -3  -9   2    1.77    0.17
   2   9  -2    0.97    0.11
   2   9  -2    1.05    0.12
  -2  -9   2    1.06    0.12
  -2  -9   2    1.17    0.14
   1   9  -2    0.67    0.11
   1   9  -2    0.88    0.10
  -1  -9   2    0.72    0.10
  -1  -9   2    0.77    0.12
   0   9  -2    0.23    0.09
   0   9  -2    0.08    0.07
   0  -9   2    0.28    0.09
   0  -9   2    0.19    0.08
  -1   9  -2    5.62    0.24
  -1   9  -2    5.08    0.22
   1  -9   2    5.35    0.24
   1  -9   2    5.32    0.23
  -2   9  -2   -0.03    0.07
  -2   9  -2    0.00    0.08
   2  -9   2    0.04    0.08
   2  -9   2    0.05    0.06
  -3   9  -2    3.61    0.21
  -3   9  -2    3.39    0.18
   3  -9   2    3.49    0.19
   3  -9   2    3.18    0.18
  -4   9  -2    0.18    0.08
  -4   9  -2    0.12    0.09
   4  -9   2    0.15    0.07
   4  -9   2    0.38    0.08
   4  -9   2    0.26    0.08
  -5   9  -2    2.18    0.19
   5  -9   2    2.37    0.16
   5  -9   2    2.23    0.16
   5  -9   2    2.21    0.16
  -6   9  -2    0.10    0.09
  -6   9  -2    0.04    0.10
   6  -9   2    0.09    0.07
   6  -9   2    0.15    0.08
  -7   9  -2    2.74    0.22
   7  -9   2    2.52    0.18
   7  -9   2    2.87    0.17
   7  -9   2    2.39    0.25
  -8   9  -2   -0.05    0.12
   8  -9   2   -0.07    0.09
   8  -9   2    0.07    0.08
   8  -9   2    0.13    0.13
  -9   9  -2    2.52    0.27
   9  -9   2    2.58    0.18
   9  -9   2    2.65    0.21
   9  -9   2    2.66    0.31
   6   8  -2    0.24    0.07
  -6  -8   2    0.37    0.12
  -5  -8   2    3.87    0.23
   4   8  -2    1.22    0.12
  -4  -8   2    0.90    0.12
  -4  -8   2    1.11    0.14
   3   8  -2   15.41    0.44
   3   8  -2   15.13    0.45
  -3  -8   2   14.83    0.46
  -3  -8   2   15.25    0.47
   2   8  -2    9.59    0.31
   2   8  -2    9.25    0.30
  -2  -8   2    9.52    0.32
  -2  -8   2    9.25    0.33
   1   8  -2    4.11    0.18
   1   8  -2    4.47    0.20
  -1  -8   2    4.51    0.21
  -1  -8   2    4.29    0.19
   0   8  -2    0.84    0.09
   0   8  -2    0.87    0.10
   0  -8   2    0.68    0.08
   0  -8   2    0.77    0.10
  -1   8  -2   -0.04    0.07
  -1   8  -2    0.03    0.06
   1  -8   2    0.04    0.06
   1  -8   2    0.02    0.07
  -2   8  -2    0.57    0.09
  -2   8  -2    0.46    0.08
   2  -8   2    0.63    0.09
   2  -8   2    0.63    0.09
  -3   8  -2    0.08    0.07
  -3   8  -2    0.19    0.07
   3  -8   2    0.19    0.07
   3  -8   2    0.15    0.07
  -4   8  -2    4.49    0.21
  -4   8  -2    4.22    0.18
   4  -8   2    4.22    0.18
   4  -8   2    4.60    0.19
   4  -8   2    4.38    0.18
  -5   8  -2    0.21    0.08
   5  -8   2    0.15    0.06
   5  -8   2    0.11    0.06
   5  -8   2    0.23    0.06
  -6   8  -2    1.97    0.16
  -6   8  -2    1.93    0.14
   6  -8   2    1.82    0.13
   6  -8   2    1.85    0.14
  -7   8  -2    0.28    0.09
  -7   8  -2    0.10    0.11
   7  -8   2    0.22    0.07
   7  -8   2    0.10    0.07
   7  -8   2    0.12    0.10
  -8   8  -2    3.30    0.22
   8  -8   2    3.07    0.25
   8  -8   2    3.15    0.17
   8  -8   2    3.13    0.17
  -9   8  -2    0.14    0.11
   9  -8   2    0.03    0.13
   9  -8   2   -0.11    0.08
   9  -8   2    0.02    0.07
 -10   8  -2    1.26    0.18
  10  -8   2    1.32    0.14
  10  -8   2    1.21    0.18
   7   7  -2    2.49    0.15
  -7  -7   2    2.87    0.23
   6   7  -2    2.93    0.15
  -6  -7   2    2.85    0.20
   5   7  -2    0.69    0.08
  -5  -7   2    0.71    0.11
   4   7  -2    0.68    0.08
   4   7  -2    0.54    0.09
   4   7  -2    0.63    0.09
  -4  -7   2    0.63    0.14
  -4  -7   2    0.65    0.10
   3   7  -2    0.53    0.07
   3   7  -2    0.62    0.08
   3   7  -2    0.49    0.07
  -3  -7   2    0.58    0.09
  -3  -7   2    0.43    0.08
   2   7  -2    0.10    0.05
   2   7  -2    0.16    0.05
   2   7  -2    0.11    0.06
  -2  -7   2    0.28    0.08
  -2  -7   2    0.01    0.06
   1   7  -2    0.02    0.05
   1   7  -2   -0.03    0.05
  -1  -7   2   -0.04    0.06
  -1  -7   2    0.01    0.05
   0   7  -2    0.72    0.07
   0   7  -2    0.65    0.08
   0  -7   2    0.57    0.07
   0  -7   2    0.68    0.08
  -1   7  -2    2.20    0.12
  -1   7  -2    2.14    0.13
   1  -7   2    2.06    0.13
   1  -7   2    2.25    0.14
  -2   7  -2    0.04    0.05
  -2   7  -2    0.08    0.06
   2  -7   2    0.16    0.06
   2  -7   2    0.10    0.05
  -3   7  -2   17.22    0.47
  -3   7  -2   16.98    0.50
   3  -7   2   17.24    0.47
   3  -7   2   17.10    0.48
  -4   7  -2    1.35    0.11
  -4   7  -2    1.43    0.13
   4  -7   2    1.26    0.11
   4  -7   2    1.35    0.11
   4  -7   2    1.42    0.11
  -5   7  -2   52.90    1.37
   5  -7   2   51.67    1.31
   5  -7   2   52.95    1.31
   5  -7   2   52.12    1.32
  -6   7  -2    0.03    0.07
  -6   7  -2   -0.05    0.07
   6  -7   2    0.04    0.05
   6  -7   2   -0.02    0.05
  -7   7  -2    5.62    0.24
  -7   7  -2    5.86    0.26
   7  -7   2    6.05    0.21
   7  -7   2    5.99    0.27
   7  -7   2    6.37    0.22
  -8   7  -2    0.07    0.09
   8  -7   2    0.05    0.07
   8  -7   2    0.07    0.10
   8  -7   2    0.09    0.06
  -9   7  -2    1.80    0.19
   9  -7   2    1.69    0.14
   9  -7   2    1.69    0.12
   9  -7   2    1.62    0.17
 -10   7  -2    0.91    0.14
  10  -7   2    0.76    0.10
  10  -7   2    0.78    0.16
  10  -7   2    0.74    0.08
 -11   7  -2   -0.05    0.14
  11  -7   2    0.19    0.14
  11  -7   2    0.01    0.06
   8   6  -2    0.28    0.08
  -8  -6   2    0.13    0.11
   7   6  -2    4.07    0.22
   7   6  -2    3.90    0.17
  -7  -6   2    4.15    0.23
   6   6  -2    1.40    0.10
   6   6  -2    1.43    0.15
  -6  -6   2    1.31    0.15
   5   6  -2    0.37    0.06
   5   6  -2    0.30    0.08
  -5  -6   2    0.30    0.08
  -5  -6   2    0.39    0.12
   4   6  -2   -0.03    0.06
   4   6  -2   -0.07    0.07
   4   6  -2    0.04    0.05
  -4  -6   2    0.01    0.09
  -4  -6   2    0.01    0.06
   3   6  -2    1.16    0.10
   3   6  -2    1.34    0.12
   3   6  -2    1.25    0.09
  -3  -6   2    1.17    0.11
  -3  -6   2    1.21    0.14
   2   6  -2    0.14    0.05
   2   6  -2    0.08    0.04
   2   6  -2    0.07    0.05
  -2  -6   2    0.30    0.08
  -2  -6   2    0.14    0.06
   1   6  -2    0.94    0.07
   1   6  -2    1.04    0.09
   1   6  -2    0.97    0.09
  -1  -6   2    0.99    0.09
  -1  -6   2    0.90    0.09
   0   6  -2    2.19    0.11
   0   6  -2    2.22    0.12
   0   6  -2    2.17    0.08
   0  -6   2    2.11    0.13
   0  -6   2    2.00    0.12
  -1   6  -2    3.48    0.14
  -1   6  -2    3.38    0.15
   1  -6   2    3.36    0.15
   1  -6   2    3.25    0.14
  -2   6  -2   21.52    0.56
  -2   6  -2   20.87    0.58
   2  -6   2   21.38    0.56
   2  -6   2   21.38    0.57
  -3   6  -2    2.31    0.12
   3  -6   2    2.65    0.13
   3  -6   2    2.69    0.12
  -4   6  -2    5.38    0.21
  -4   6  -2    5.28    0.19
   4  -6   2    5.24    0.19
   4  -6   2    5.52    0.19
   4  -6   2    5.34    0.19
  -5   6  -2    9.28    0.30
   5  -6   2    9.28    0.27
   5  -6   2    9.09    0.28
   5  -6   2    9.20    0.27
   5  -6   2    8.86    0.26
   5  -6   2    8.68    0.29
  -6   6  -2    4.11    0.19
  -6   6  -2    4.01    0.17
   6  -6   2    4.05    0.19
   6  -6   2    3.83    0.16
   6  -6   2    3.82    0.16
  -7   6  -2   -0.01    0.07
  -7   6  -2   -0.02    0.07
   7  -6   2   -0.01    0.04
   7  -6   2   -0.02    0.05
   7  -6   2    0.04    0.08
  -8   6  -2    0.04    0.08
  -8   6  -2   -0.05    0.09
   8  -6   2    0.00    0.05
   8  -6   2    0.04    0.09
   8  -6   2   -0.03    0.05
  -9   6  -2    0.02    0.09
   9  -6   2   -0.07    0.09
   9  -6   2   -0.13    0.06
   9  -6   2    0.02    0.05
 -10   6  -2    1.27    0.14
  10  -6   2    1.22    0.10
  10  -6   2    1.16    0.15
 -11   6  -2    0.18    0.13
  11  -6   2    0.37    0.14
  -9  -5   2    0.17    0.13
   8   5  -2    4.71    0.24
  -8  -5   2    4.68    0.24
   7   5  -2    5.00    0.23
   7   5  -2    5.19    0.18
  -7  -5   2    5.29    0.23
   6   5  -2    0.58    0.09
   6   5  -2    0.54    0.06
  -6  -5   2    0.48    0.09
   5   5  -2    0.03    0.06
  -5  -5   2    0.01    0.06
  -5  -5   2   -0.06    0.09
   4   5  -2   -0.01    0.04
   4   5  -2    0.04    0.05
   4   5  -2    0.02    0.13
  -4  -5   2    0.03    0.06
  -4  -5   2    0.00    0.08
  -4  -5   2    0.03    0.07
   3   5  -2   -0.03    0.04
   3   5  -2    0.04    0.08
   3   5  -2    0.05    0.05
   3   5  -2    0.03    0.04
   3   5  -2    0.19    0.12
  -3  -5   2   -0.01    0.06
  -3  -5   2   -0.04    0.07
  -3  -5   2   -0.01    0.05
   2   5  -2    2.00    0.19
   2   5  -2    1.44    0.14
   2   5  -2    1.61    0.11
   2   5  -2    1.58    0.08
   2   5  -2    1.62    0.09
  -2  -5   2    1.59    0.10
  -2  -5   2    1.68    0.12
   1   5  -2   10.87    0.34
   1   5  -2   10.48    0.36
   1   5  -2   11.56    0.31
   1   5  -2   11.36    0.30
   1   5  -2   11.12    0.32
  -1  -5   2   11.18    0.33
  -1  -5   2   11.13    0.32
   0   5  -2    1.32    0.06
   0   5  -2    1.06    0.09
   0   5  -2    1.21    0.08
   0  -5   2    1.24    0.10
  -1   5  -2   26.85    0.71
  -1   5  -2   27.66    0.67
  -1   5  -2   27.50    0.69
   1  -5   2   26.64    0.70
   1  -5   2   26.44    0.69
  -2   5  -2   11.21    0.30
  -2   5  -2   10.50    0.32
   2  -5   2   10.44    0.30
   2  -5   2   10.70    0.31
  -3   5  -2   80.08    2.03
  -3   5  -2   81.22    1.96
   3  -5   2   81.14    1.96
   3  -5   2   78.19    1.92
   3  -5   2   80.10    1.96
   3  -5   2   81.32    1.97
  -4   5  -2   27.67    0.74
  -4   5  -2   27.01    0.70
   4  -5   2   27.33    0.70
   4  -5   2   28.02    0.70
   4  -5   2   27.60    0.70
   4  -5   2   27.77    0.68
   4  -5   2   27.52    0.71
  -5   5  -2   29.98    0.76
  -5   5  -2   30.49    0.81
   5  -5   2   29.78    0.77
   5  -5   2   30.47    0.77
   5  -5   2   30.05    0.77
   5  -5   2   30.88    0.74
  -6   5  -2    0.87    0.09
  -6   5  -2    0.92    0.10
  -6   5  -2    0.85    0.07
   6  -5   2    0.94    0.07
   6  -5   2    0.87    0.08
   6  -5   2    0.91    0.08
   6  -5   2    0.85    0.08
  -7   5  -2    0.22    0.07
  -7   5  -2    0.07    0.06
  -7   5  -2    0.06    0.06
   7  -5   2    0.12    0.07
   7  -5   2    0.12    0.04
   7  -5   2    0.14    0.07
   7  -5   2    0.11    0.05
  -8   5  -2    0.92    0.10
  -8   5  -2    0.97    0.09
   8  -5   2    0.96    0.08
   8  -5   2    0.69    0.10
   8  -5   2    0.89    0.09
  -9   5  -2    0.29    0.09
   9  -5   2    0.37    0.05
   9  -5   2    0.25    0.09
   9  -5   2    0.22    0.06
 -10   5  -2    2.77    0.20
  10  -5   2    2.14    0.22
  10  -5   2    2.55    0.10
 -11   5  -2   -0.10    0.12
  11  -5   2   -0.16    0.12
 -12   5  -2    0.43    0.15
 -12   5  -2    0.28    0.13
  12  -5   2    0.05    0.16
   9   4  -2    1.47    0.15
  -9  -4   2    1.60    0.15
   8   4  -2   -0.07    0.08
  -8  -4   2   -0.02    0.09
   7   4  -2    4.76    0.15
   7   4  -2    4.71    0.21
  -7  -4   2    4.69    0.21
   6   4  -2    0.00    0.06
   6   4  -2   -0.01    0.04
  -6  -4   2   -0.05    0.06
   5   4  -2   -0.04    0.10
   5   4  -2    0.03    0.05
  -5  -4   2   -0.03    0.05
  -5  -4   2    0.18    0.06
  -5  -4   2   -0.02    0.06
   4   4  -2   36.37    0.94
   4   4  -2   37.17    0.92
   4   4  -2   36.92    0.95
   4   4  -2   37.09    0.91
  -4  -4   2   36.31    0.93
  -4  -4   2   36.89    0.93
  -4  -4   2   35.91    0.93
   3   4  -2   18.94    0.51
   3   4  -2   17.78    0.48
   3   4  -2   17.62    0.49
   3   4  -2   18.66    0.48
   3   4  -2   18.85    0.47
  -3  -4   2   17.60    0.48
  -3  -4   2   17.86    0.48
  -3  -4   2   18.38    0.49
   2   4  -2   34.99    0.90
   2   4  -2   35.03    0.89
   2   4  -2   35.31    0.87
   2   4  -2   35.35    0.89
   2   4  -2   35.32    0.90
  -2  -4   2   35.08    0.89
  -2  -4   2   35.56    0.88
  -2  -4   2   34.24    0.90
   1   4  -2    0.64    0.08
   1   4  -2    0.77    0.08
   1   4  -2    0.84    0.10
   1   4  -2    0.96    0.07
   1   4  -2    0.78    0.06
  -1  -4   2    0.85    0.09
  -1  -4   2    0.82    0.08
  -1  -4   2    0.76    0.09
   0   4  -2  267.82    6.40
   0   4  -2  266.02    6.57
   0   4  -2  277.34    6.55
   0   4  -2  252.79    6.45
   0   4  -2  271.62    6.53
   0  -4   2  278.55    6.57
   0  -4   2  247.59    6.35
   0  -4   2  261.85    6.39
  -1   4  -2    2.80    0.14
  -1   4  -2    2.96    0.14
  -1   4  -2    2.87    0.08
  -1   4  -2    2.65    0.10
  -1   4  -2    2.59    0.11
   1  -4   2    2.80    0.11
   1  -4   2    2.63    0.12
   1  -4   2    2.60    0.11
   1  -4   2    2.75    0.10
  -2   4  -2   90.10    2.17
  -2   4  -2   88.28    2.24
   2  -4   2   89.27    2.16
   2  -4   2   89.47    2.13
   2  -4   2   88.97    2.18
   2  -4   2   89.75    2.17
  -3   4  -2    0.31    0.04
  -3   4  -2    0.19    0.05
   3  -4   2    0.29    0.04
   3  -4   2    0.28    0.04
   3  -4   2    0.29    0.05
   3  -4   2    0.27    0.04
  -4   4  -2   15.83    0.44
   4  -4   2   15.89    0.41
   4  -4   2   15.62    0.39
   4  -4   2   15.99    0.41
   4  -4   2   15.49    0.41
   4  -4   2   15.24    0.41
  -5   4  -2    1.18    0.10
  -5   4  -2    1.07    0.08
  -5   4  -2    1.14    0.06
   5  -4   2    0.99    0.07
   5  -4   2    1.15    0.08
   5  -4   2    1.11    0.05
   5  -4   2    1.12    0.09
  -6   4  -2    3.16    0.15
  -6   4  -2    3.49    0.13
  -6   4  -2    3.45    0.12
   6  -4   2    3.33    0.16
   6  -4   2    3.26    0.13
   6  -4   2    3.35    0.12
   6  -4   2    3.47    0.13
  -7   4  -2    0.56    0.07
  -7   4  -2    0.57    0.06
   7  -4   2    0.48    0.08
   7  -4   2    0.53    0.06
   7  -4   2    0.59    0.06
   7  -4   2    0.48    0.05
  -8   4  -2    0.22    0.07
  -8   4  -2    0.23    0.07
   8  -4   2    0.15    0.05
   8  -4   2    0.02    0.05
   8  -4   2    0.11    0.04
   8  -4   2    0.17    0.07
  -9   4  -2    0.53    0.09
   9  -4   2    0.62    0.06
   9  -4   2    0.51    0.10
   9  -4   2    0.57    0.06
 -10   4  -2    0.77    0.11
  10  -4   2    0.72    0.12
 -11   4  -2    6.23    0.29
  11  -4   2    6.68    0.31
 -12   4  -2    0.04    0.12
 -12   4  -2    0.02    0.13
  12  -4   2   -0.40    0.14
  10   3  -2    0.37    0.13
 -10  -3   2    0.55    0.13
   9   3  -2    0.10    0.10
  -9  -3   2    0.21    0.10
   8   3  -2    0.02    0.08
  -8  -3   2    0.03    0.08
   7   3  -2    0.62    0.08
  -7  -3   2    0.70    0.08
   6   3  -2    2.03    0.09
   6   3  -2    1.97    0.15
   6   3  -2    2.00    0.13
  -6  -3   2    1.76    0.12
  -6  -3   2    2.00    0.13
   5   3  -2   12.25    0.32
   5   3  -2   12.03    0.35
  -5  -3   2   11.92    0.32
  -5  -3   2   12.10    0.34
  -5  -3   2   11.73    0.33
   4   3  -2   18.41    0.51
   4   3  -2   19.13    0.48
   4   3  -2   19.23    0.51
  -4  -3   2   18.60    0.49
  -4  -3   2   18.91    0.49
  -4  -3   2   18.84    0.50
   3   3  -2    0.68    0.06
   3   3  -2    0.82    0.08
   3   3  -2    0.77    0.06
   3   3  -2    0.81    0.06
   3   3  -2    0.82    0.08
  -3  -3   2    0.75    0.08
  -3  -3   2    0.76    0.08
  -3  -3   2    0.71    0.07
   2   3  -2    3.99    0.15
   2   3  -2    3.95    0.12
   2   3  -2    3.72    0.12
   2   3  -2    3.75    0.13
   2   3  -2    3.84    0.12
  -2  -3   2    3.54    0.13
  -2  -3   2    3.65    0.13
  -2  -3   2    3.91    0.13
   1   3  -2  185.20    4.53
   1   3  -2  187.32    4.45
   1   3  -2  186.38    4.46
   1   3  -2  183.88    4.55
   1   3  -2  182.19    4.56
  -1  -3   2  186.57    4.44
  -1  -3   2  178.90    4.41
  -1  -3   2  183.85    4.56
   0   3  -2   95.56    2.31
   0   3  -2   93.95    2.28
   0   3  -2   90.51    2.26
   0   3  -2   94.42    2.27
   0   3  -2   91.46    2.33
   0   3  -2   96.41    2.32
   0  -3   2   94.93    2.28
   0  -3   2   93.84    2.26
   0  -3   2   92.88    2.33
   0  -3   2   92.22    2.26
  -1   3  -2   34.31    0.84
  -1   3  -2   34.90    0.85
  -1   3  -2   32.79    0.86
  -1   3  -2   32.77    0.83
  -1   3  -2   34.15    0.83
   1  -3   2   32.69    0.86
   1  -3   2   33.37    0.83
   1  -3   2   34.77    0.83
   1  -3   2   34.56    0.82
   1  -3   2   33.22    0.84
  -2   3  -2   20.97    0.52
  -2   3  -2   20.95    0.53
  -2   3  -2   20.13    0.54
  -2   3  -2   19.51    0.52
   2  -3   2   21.04    0.51
   2  -3   2   20.82    0.50
   2  -3   2   20.20    0.52
   2  -3   2   19.76    0.52
  -3   3  -2    0.17    0.04
  -3   3  -2    0.20    0.04
  -3   3  -2    0.15    0.03
   3  -3   2    0.16    0.03
   3  -3   2    0.18    0.03
   3  -3   2    0.17    0.03
   3  -3   2    0.21    0.02
   3  -3   2    0.15    0.03
  -4   3  -2    2.29    0.09
  -4   3  -2    2.32    0.07
  -4   3  -2    2.23    0.10
   4  -3   2    2.24    0.09
   4  -3   2    2.20    0.09
   4  -3   2    2.34    0.07
  -5   3  -2    4.95    0.15
  -5   3  -2    4.94    0.14
  -5   3  -2    4.42    0.17
   5  -3   2    4.83    0.15
   5  -3   2    4.84    0.15
   5  -3   2    4.78    0.15
  -6   3  -2    1.19    0.07
  -6   3  -2    1.12    0.08
  -6   3  -2    1.12    0.09
   6  -3   2    0.91    0.07
   6  -3   2    1.02    0.06
   6  -3   2    1.21    0.11
   6  -3   2    1.23    0.08
  -7   3  -2    2.11    0.10
  -7   3  -2    2.04    0.12
   7  -3   2    2.07    0.08
   7  -3   2    2.01    0.13
   7  -3   2    2.12    0.10
  -8   3  -2    0.23    0.06
  -8   3  -2    0.26    0.06
   8  -3   2    0.19    0.07
   8  -3   2    0.14    0.03
   8  -3   2    0.24    0.05
  -9   3  -2    0.10    0.07
   9  -3   2   -0.09    0.07
 -10   3  -2    3.33    0.18
  10  -3   2    2.96    0.20
 -11   3  -2    0.42    0.10
 -11   3  -2    0.07    0.10
  11  -3   2    0.33    0.12
 -12   3  -2    8.37    0.33
 -12   3  -2    7.63    0.33
  12  -3   2    8.73    0.39
  10   2  -2    1.31    0.15
 -10  -2   2    1.38    0.14
   9   2  -2   -0.02    0.08
  -9  -2   2    0.03    0.08
   8   2  -2    1.04    0.11
  -8  -2   2    1.13    0.13
   7   2  -2    3.29    0.16
  -7  -2   2    3.36    0.15
   6   2  -2   14.97    0.43
   6   2  -2   14.77    0.39
   6   2  -2   15.14    0.38
  -6  -2   2   14.45    0.40
  -6  -2   2   15.19    0.41
   5   2  -2    0.87    0.06
   5   2  -2    0.83    0.07
  -5  -2   2    0.78    0.09
  -5  -2   2    0.80    0.08
  -5  -2   2    0.90    0.08
   4   2  -2   20.10    0.54
   4   2  -2   20.42    0.51
  -4  -2   2   20.44    0.53
  -4  -2   2   20.38    0.53
  -4  -2   2   20.44    0.51
   3   2  -2    0.36    0.05
   3   2  -2    0.37    0.04
   3   2  -2    0.38    0.05
  -3  -2   2    0.29    0.04
  -3  -2   2    0.38    0.05
  -3  -2   2    0.36    0.04
   2   2  -2  157.81    3.68
   2   2  -2  139.03    3.70
   2   2  -2  155.54    3.81
   2   2  -2  154.93    3.72
   2   2  -2  157.35    3.80
  -2  -2   2  157.42    3.80
  -2  -2   2  153.94    3.68
  -2  -2   2  153.90    3.70
  -2  -2   2  155.23    3.70
  -2  -2   2  151.41    3.79
   1   2  -2    0.14    0.03
   1   2  -2    0.18    0.03
   1   2  -2    0.16    0.02
   1   2  -2    0.14    0.04
   1   2  -2    0.13    0.03
   1   2  -2    0.21    0.03
  -1  -2   2    0.16    0.03
  -1  -2   2    0.15    0.03
  -1  -2   2    0.13    0.03
  -1  -2   2    0.18    0.02
   0   2  -2  912.39   22.29
   0   2  -2  882.84   22.43
   0   2  -2  920.29   21.82
   0   2  -2  922.25   21.67
   0   2  -2  894.47   21.83
   0  -2   2  916.04   22.42
   0  -2   2  898.08   21.69
   0  -2   2  905.61   21.79
  -1   2  -2   20.79    0.55
  -1   2  -2   21.80    0.54
  -1   2  -2   21.26    0.53
  -1   2  -2   21.59    0.53
   1  -2   2   21.36    0.55
   1  -2   2   20.69    0.53
   1  -2   2   22.05    0.53
   1  -2   2   20.92    0.53
  -2   2  -2    0.16    0.03
  -2   2  -2    0.24    0.03
  -2   2  -2    0.18    0.03
   2  -2   2    0.15    0.02
   2  -2   2    0.21    0.03
   2  -2   2    0.20    0.03
   2  -2   2    0.23    0.03
   2  -2   2    0.20    0.02
  -3   2  -2    1.20    0.06
  -3   2  -2    1.22    0.06
  -3   2  -2    1.11    0.06
  -3   2  -2    1.17    0.06
   3  -2   2    1.09    0.06
   3  -2   2    1.16    0.04
   3  -2   2    1.15    0.05
   3  -2   2    1.13    0.06
   3  -2   2    1.17    0.06
   3  -2   2    1.11    0.06
  -4   2  -2   90.59    2.14
  -4   2  -2   85.60    2.10
  -4   2  -2   84.20    2.09
  -4   2  -2   88.56    2.10
  -4   2  -2   87.28    2.17
  -4   2  -2   86.15    2.10
   4  -2   2   87.31    2.10
   4  -2   2   85.09    2.10
   4  -2   2   83.98    2.16
   4  -2   2   88.36    2.09
  -5   2  -2    9.63    0.28
  -5   2  -2    9.07    0.26
  -5   2  -2    9.55    0.26
  -5   2  -2    9.87    0.25
   5  -2   2    9.34    0.27
   5  -2   2    9.49    0.26
   5  -2   2    9.75    0.25
   5  -2   2    9.68    0.25
  -6   2  -2    0.56    0.06
  -6   2  -2    0.58    0.06
   6  -2   2    0.58    0.05
   6  -2   2    0.60    0.06
   6  -2   2    0.67    0.08
  -7   2  -2    8.03    0.22
  -7   2  -2    7.97    0.25
   7  -2   2    7.68    0.21
   7  -2   2    8.01    0.22
   7  -2   2    7.66    0.25
   7  -2   2    7.62    0.21
  -8   2  -2    3.72    0.15
  -8   2  -2    3.59    0.13
   8  -2   2    3.62    0.17
   8  -2   2    3.57    0.11
   8  -2   2    3.58    0.11
  -9   2  -2    3.75    0.16
   9  -2   2    3.78    0.19
 -10   2  -2   -0.17    0.07
 -10   2  -2    0.08    0.07
  10  -2   2    0.03    0.08
 -11   2  -2    8.93    0.32
 -11   2  -2    9.01    0.31
  11  -2   2    9.25    0.36
 -12   2  -2    0.60    0.12
  12  -2   2    0.67    0.15
  10   1  -2    0.37    0.11
 -10  -1   2    0.45    0.11
   9   1  -2    0.24    0.09
  -9  -1   2    0.36    0.08
   8   1  -2    0.96    0.12
  -8  -1   2    0.84    0.07
  -8  -1   2    0.81    0.09
   7   1  -2    1.51    0.12
  -7  -1   2    1.74    0.11
  -7  -1   2    1.67    0.11
   6   1  -2    1.29    0.10
  -6  -1   2    1.37    0.09
  -6  -1   2    1.42    0.09
  -6  -1   2    1.40    0.12
   5   1  -2   59.46    1.50
  -5  -1   2   58.49    1.49
  -5  -1   2   60.32    1.45
  -5  -1   2   59.61    1.47
   4   1  -2   -0.01    0.03
   4   1  -2    0.01    0.02
   4   1  -2    0.03    0.03
  -4  -1   2   -0.01    0.03
  -4  -1   2    0.07    0.03
  -4  -1   2    0.12    0.04
   3   1  -2    4.42    0.14
   3   1  -2    4.69    0.13
   3   1  -2    4.90    0.14
  -3  -1   2    4.50    0.14
  -3  -1   2    4.68    0.13
  -3  -1   2    4.81    0.13
  -3  -1   2    4.66    0.15
   2   1  -2    3.19    0.10
   2   1  -2    3.21    0.10
   2   1  -2    3.08    0.10
   2   1  -2    3.04    0.09
  -2  -1   2    3.29    0.10
  -2  -1   2    3.21    0.09
  -2  -1   2    2.98    0.10
  -2  -1   2    3.16    0.11
  -2  -1   2    3.07    0.10
  -2  -1   2    2.98    0.11
   1   1  -2   18.28    0.46
   1   1  -2   19.48    0.47
   1   1  -2   17.77    0.48
   1   1  -2   18.68    0.48
   1   1  -2   18.96    0.47
  -1  -1   2   18.93    0.47
  -1  -1   2   19.19    0.48
  -1  -1   2   18.80    0.47
  -1  -1   2   19.12    0.46
   0   1  -2   21.93    0.54
   0   1  -2   22.37    0.55
   0   1  -2   22.33    0.54
   0   1  -2   21.47    0.56
   0   1  -2   21.74    0.55
   0  -1   2   21.52    0.54
   0  -1   2   22.21    0.56
   0  -1   2   21.76    0.54
   0  -1   2   21.66    0.54
  -1   1  -2   57.77    1.40
  -1   1  -2   56.43    1.44
  -1   1  -2   58.38    1.39
  -1   1  -2   56.15    1.40
   1  -1   2   56.41    1.39
   1  -1   2   59.60    1.40
   1  -1   2   58.61    1.44
  -2   1  -2    0.10    0.02
  -2   1  -2    0.10    0.02
  -2   1  -2    0.10    0.02
  -2   1  -2    0.11    0.02
   2  -1   2    0.09    0.02
   2  -1   2    0.09    0.02
   2  -1   2    0.17    0.02
   2  -1   2    0.15    0.02
   2  -1   2    0.14    0.03
  -3   1  -2   60.53    1.41
  -3   1  -2   58.00    1.42
  -3   1  -2   58.81    1.47
  -3   1  -2   58.74    1.42
  -3   1  -2   58.61    1.42
   3  -1   2   59.84    1.42
   3  -1   2   59.32    1.46
   3  -1   2   57.26    1.42
   3  -1   2   56.18    1.42
  -4   1  -2    3.78    0.11
  -4   1  -2    3.78    0.12
  -4   1  -2    4.08    0.13
  -4   1  -2    3.98    0.11
  -4   1  -2    3.82    0.11
   4  -1   2    3.75    0.11
   4  -1   2    3.68    0.11
   4  -1   2    3.80    0.12
   4  -1   2    3.77    0.11
  -5   1  -2    0.00    0.03
  -5   1  -2   -0.01    0.02
  -5   1  -2   -0.01    0.02
  -5   1  -2    0.00    0.03
  -5   1  -2    0.00    0.03
   5  -1   2   -0.01    0.02
   5  -1   2    0.04    0.04
   5  -1   2    0.03    0.02
   5  -1   2    0.02    0.03
  -6   1  -2   83.44    1.97
  -6   1  -2   81.14    2.04
   6  -1   2   82.48    1.98
   6  -1   2   80.19    1.96
   6  -1   2   78.38    1.96
   6  -1   2   82.63    2.02
  -7   1  -2   61.51    1.57
  -7   1  -2   61.68    1.51
   7  -1   2   63.72    1.50
   7  -1   2   61.99    1.56
   7  -1   2   61.77    1.50
  -8   1  -2   86.31    2.17
  -8   1  -2   87.06    2.17
   8  -1   2   86.41    2.17
  -9   1  -2    0.04    0.06
  -9   1  -2   -0.11    0.05
   9  -1   2    0.35    0.08
 -10   1  -2    8.73    0.28
 -10   1  -2    9.01    0.30
  10  -1   2    9.14    0.32
 -11   1  -2    0.03    0.09
 -11   1  -2    0.06    0.08
  11  -1   2    0.08    0.10
 -12   1  -2    7.36    0.31
  12  -1   2    7.99    0.37
 -13   1  -2   -0.17    0.12
 -13   1  -2    0.06    0.15
  13  -1   2   -0.15    0.18
  11   0  -2   -0.06    0.12
 -11   0   2    0.12    0.10
  10   0  -2    6.38    0.28
 -10   0   2    6.38    0.24
 -10   0   2    6.34    0.25
   9   0  -2    1.99    0.17
  -9   0   2    2.24    0.15
  -9   0   2    2.03    0.17
   8   0  -2    8.39    0.28
  -8   0   2    8.27    0.26
  -8   0   2    8.21    0.26
  -8   0   2    8.16    0.26
   7   0  -2    0.26    0.07
   7   0  -2    0.27    0.08
  -7   0   2    0.27    0.05
  -7   0   2    0.26    0.11
  -7   0   2    0.27    0.06
   6   0  -2    8.71    0.29
  -6   0   2    9.01    0.25
  -6   0   2    7.99    0.27
  -6   0   2    8.92    0.25
   5   0  -2    0.62    0.07
   5   0  -2    0.57    0.07
  -5   0   2    0.53    0.06
  -5   0   2    0.62    0.07
  -5   0   2    0.64    0.06
   4   0  -2   10.66    0.31
   4   0  -2   10.49    0.30
  -4   0   2   10.49    0.30
  -4   0   2   10.79    0.28
  -4   0   2   10.66    0.28
   3   0  -2    0.37    0.04
   3   0  -2    0.21    0.03
   3   0  -2    0.20    0.04
   3   0  -2    0.26    0.03
  -3   0   2    0.30    0.03
  -3   0   2    0.27    0.04
  -3   0   2    0.23    0.03
  -3   0   2    0.30    0.04
   2   0  -2    4.12    0.11
   2   0  -2    4.21    0.12
   2   0  -2    3.99    0.12
  -2   0   2    4.07    0.11
  -2   0   2    4.02    0.12
  -2   0   2    3.85    0.13
  -2   0   2    4.05    0.12
  -2   0   2    4.02    0.13
  -2   0   2    4.12    0.11
   1   0  -2    5.72    0.15
   1   0  -2    5.72    0.15
   1   0  -2    5.64    0.16
   1   0  -2    5.97    0.15
  -1   0   2    5.92    0.15
  -1   0   2    5.86    0.15
  -1   0   2    5.83    0.15
  -1   0   2    5.72    0.16
   0   0  -2  174.17    4.55
   0   0  -2  184.71    4.42
   0   0  -2  185.01    4.38
   0   0  -2  178.75    4.49
   0   0  -2  185.91    4.42
   0   0   2  188.44    4.43
   0   0   2  179.02    4.38
   0   0   2  179.87    4.52
   0   0   2  188.79    4.41
  -1   0  -2  255.53    6.09
  -1   0  -2  260.82    6.10
  -1   0  -2  243.84    6.27
  -1   0  -2  258.23    6.05
   1   0   2  250.30    6.26
   1   0   2  251.01    6.09
   1   0   2  243.95    6.11
   1   0   2  244.44    6.05
   1   0   2  264.01    6.11
  -2   0  -2  235.55    6.16
  -2   0  -2  256.23    6.00
  -2   0  -2  248.84    6.00
  -2   0  -2  259.31    5.99
   2   0   2  248.04    5.98
   2   0   2  249.99    6.14
   2   0   2  238.86    6.00
   2   0   2  249.03    5.88
   2   0   2  245.61    6.00
  -3   0  -2    1.93    0.07
  -3   0  -2    1.95    0.07
  -3   0  -2    2.20    0.06
   3   0   2    2.16    0.07
   3   0   2    1.89    0.06
   3   0   2    1.93    0.07
  -4   0  -2    5.87    0.15
  -4   0  -2    5.52    0.16
  -4   0  -2    5.60    0.16
  -4   0  -2    5.56    0.16
  -4   0  -2    5.70    0.15
   4   0   2    5.64    0.15
   4   0   2    5.80    0.16
   4   0   2    5.66    0.16
   4   0   2    5.61    0.16
   4   0   2    5.78    0.15
  -5   0  -2    0.52    0.04
  -5   0  -2    0.59    0.05
  -5   0  -2    0.55    0.04
  -5   0  -2    0.49    0.04
  -5   0  -2    0.39    0.04
  -5   0  -2    0.48    0.05
   5   0   2    0.58    0.03
   5   0   2    0.55    0.05
   5   0   2    0.66    0.05
  -6   0  -2   13.06    0.32
  -6   0  -2   12.56    0.36
  -6   0  -2   12.95    0.33
  -6   0  -2   13.25    0.35
   6   0   2   12.78    0.32
   6   0   2   12.98    0.36
   6   0   2   13.15    0.33
  -7   0  -2   23.58    0.60
  -7   0  -2   22.86    0.61
  -7   0  -2   22.85    0.56
   7   0   2   22.73    0.61
   7   0   2   23.07    0.56
  -8   0  -2   20.85    0.56
  -8   0  -2   20.34    0.51
  -8   0  -2   21.03    0.55
   8   0   2   21.00    0.57
  -9   0  -2   13.65    0.38
  -9   0  -2   13.66    0.35
  -9   0  -2   14.03    0.40
   9   0   2   13.50    0.41
 -10   0  -2    0.87    0.08
 -10   0  -2    0.87    0.09
 -10   0  -2    0.91    0.10
  10   0   2    0.76    0.11
 -11   0  -2    0.91    0.12
  11   0   2    0.81    0.13
 -12   0  -2    0.83    0.11
 -12   0  -2    0.88    0.14
  12   0   2    0.84    0.16
 -13   0  -2    1.35    0.18
 -13   0  -2    1.51    0.15
  13   0   2    1.58    0.22
  11  -1  -2    0.27    0.13
  10  -1  -2    1.77    0.18
 -10   1   2    1.63    0.17
 -10   1   2    1.76    0.14
   9  -1  -2   -0.10    0.07
   9  -1  -2   -0.05    0.11
  -9   1   2   -0.06    0.07
  -9   1   2   -0.03    0.07
  -9   1   2   -0.07    0.07
  -9   1   2    0.01    0.06
   8  -1  -2    1.43    0.14
   8  -1  -2    1.31    0.12
  -8   1   2    1.58    0.12
  -8   1   2    1.21    0.11
  -8   1   2    1.33    0.10
  -8   1   2    1.51    0.10
   7  -1  -2    0.12    0.06
   7  -1  -2    0.12    0.07
  -7   1   2    0.08    0.05
  -7   1   2    0.19    0.05
   6  -1  -2    0.09    0.05
   6  -1  -2    0.02    0.06
  -6   1   2    0.18    0.04
  -6   1   2    0.17    0.04
  -6   1   2    0.12    0.05
   5  -1  -2   67.93    1.71
   5  -1  -2   67.33    1.72
  -5   1   2   69.61    1.65
   4  -1  -2   44.98    1.13
   4  -1  -2   44.05    1.14
  -4   1   2   45.48    1.08
   3  -1  -2   30.16    0.79
   3  -1  -2   32.33    0.79
  -3   1   2   32.10    0.75
  -3   1   2   29.70    0.79
  -3   1   2   30.63    0.78
   2  -1  -2   24.85    0.61
   2  -1  -2   25.29    0.61
   2  -1  -2   24.02    0.64
   2  -1  -2   24.52    0.64
  -2   1   2   25.32    0.61
  -2   1   2   25.59    0.63
  -2   1   2   24.68    0.63
  -2   1   2   25.70    0.61
  -2   1   2   25.18    0.64
  -2   1   2   26.22    0.61
   1  -1  -2  314.07    7.55
   1  -1  -2  303.84    7.72
   1  -1  -2  304.21    7.74
  -1   1   2  323.95    7.54
  -1   1   2  317.68    7.54
  -1   1   2  309.87    7.70
  -1   1   2  319.30    7.70
   0  -1  -2  283.87    6.98
   0  -1  -2  283.76    6.77
   0  -1  -2  274.93    6.84
   0  -1  -2  283.10    6.98
   0  -1  -2  297.67    6.84
   0   1   2  281.87    6.83
   0   1   2  283.27    6.98
   0   1   2  286.71    6.84
   0   1   2  287.36    6.96
   0   1   2  272.68    6.83
  -1  -1  -2  156.12    3.87
  -1  -1  -2  166.78    3.87
  -1  -1  -2  155.88    3.97
  -1  -1  -2  157.84    3.87
  -1  -1  -2  159.21    3.81
  -1  -1  -2  158.71    3.96
   1   1   2  156.69    3.81
   1   1   2  164.61    3.86
   1   1   2  164.53    3.95
   1   1   2  165.82    3.88
   1   1   2  152.63    3.87
   1   1   2  160.68    3.95
  -2  -1  -2  121.24    3.02
  -2  -1  -2  126.45    2.98
  -2  -1  -2  126.45    2.93
  -2  -1  -2  125.18    2.98
  -2  -1  -2  127.54    2.97
  -2  -1  -2  119.86    3.05
   2   1   2  126.02    2.98
   2   1   2  104.52    2.95
   2   1   2  125.67    3.04
   2   1   2  125.56    3.02
   2   1   2  122.73    2.98
   2   1   2  124.27    2.93
  -3  -1  -2    7.62    0.19
  -3  -1  -2    7.75    0.20
  -3  -1  -2    7.50    0.19
  -3  -1  -2    7.27    0.21
  -3  -1  -2    7.43    0.20
  -3  -1  -2    7.29    0.20
   3   1   2    7.55    0.19
   3   1   2    7.62    0.20
   3   1   2    7.51    0.20
   3   1   2    7.64    0.20
   3   1   2    7.25    0.19
   3   1   2    7.64    0.20
  -4  -1  -2    0.10    0.02
  -4  -1  -2    0.09    0.01
  -4  -1  -2    0.07    0.02
  -4  -1  -2    0.04    0.01
  -4  -1  -2    0.07    0.02
  -4  -1  -2    0.07    0.02
   4   1   2    0.07    0.02
   4   1   2    0.11    0.02
   4   1   2    0.07    0.02
  -5  -1  -2    0.34    0.04
  -5  -1  -2    0.33    0.04
  -5  -1  -2    0.29    0.03
  -5  -1  -2    0.50    0.04
  -5  -1  -2    0.44    0.05
  -5  -1  -2    0.32    0.03
   5   1   2    0.31    0.04
   5   1   2    0.39    0.03
   5   1   2    0.32    0.03
  -6  -1  -2   21.73    0.58
  -6  -1  -2   20.66    0.57
  -6  -1  -2   22.37    0.55
  -6  -1  -2   22.12    0.53
  -6  -1  -2   21.76    0.56
   6   1   2   22.44    0.57
   6   1   2   22.12    0.54
   6   1   2   22.10    0.54
  -7  -1  -2   10.97    0.29
  -7  -1  -2   10.87    0.32
  -7  -1  -2   10.74    0.29
  -7  -1  -2   10.60    0.28
   7   1   2   10.93    0.28
   7   1   2   10.83    0.31
   7   1   2   11.23    0.27
  -8  -1  -2   25.10    0.63
  -8  -1  -2   25.65    0.66
  -8  -1  -2   26.39    0.69
   8   1   2   25.93    0.68
  -9  -1  -2    0.07    0.06
  -9  -1  -2    0.04    0.05
   9   1   2    0.09    0.07
 -10  -1  -2    1.19    0.13
  10   1   2    1.25    0.12
 -11  -1  -2    1.13    0.12
 -11  -1  -2    0.92    0.10
  11   1   2    1.01    0.13
 -12  -1  -2    0.10    0.09
 -12  -1  -2    0.16    0.13
  12   1   2    0.31    0.16
  11  -2  -2   -0.07    0.17
  11  -2  -2   -0.22    0.11
  10  -2  -2    2.28    0.26
  10  -2  -2    2.25    0.18
 -10   2   2    1.78    0.14
 -10   2   2    1.94    0.18
 -10   2   2    2.06    0.16
   9  -2  -2    0.00    0.08
   9  -2  -2    0.03    0.10
  -9   2   2    0.08    0.07
  -9   2   2    0.16    0.07
  -9   2   2    0.02    0.06
  -9   2   2    0.06    0.05
   8  -2  -2    0.61    0.10
   8  -2  -2    0.68    0.08
  -8   2   2    0.76    0.08
  -8   2   2    0.70    0.07
  -8   2   2    0.73    0.07
  -8   2   2    0.74    0.08
   7  -2  -2    0.17    0.07
   7  -2  -2    0.06    0.05
  -7   2   2    0.16    0.04
  -7   2   2    0.15    0.07
  -7   2   2    0.11    0.05
  -7   2   2    0.15    0.05
   6  -2  -2    9.18    0.27
   6  -2  -2    9.23    0.29
  -6   2   2    9.09    0.24
  -6   2   2    8.07    0.25
  -6   2   2    9.41    0.24
   5  -2  -2    0.07    0.05
   5  -2  -2    0.07    0.04
  -5   2   2    0.13    0.04
  -5   2   2    0.09    0.03
  -5   2   2    0.07    0.03
   4  -2  -2  213.19    5.29
   4  -2  -2  209.81    5.26
  -4   2   2  212.01    5.10
  -4   2   2  219.27    5.12
  -4   2   2  217.24    5.15
   3  -2  -2    3.93    0.12
   3  -2  -2    3.76    0.13
  -3   2   2    3.62    0.13
  -3   2   2    3.68    0.12
  -3   2   2    3.80    0.10
  -3   2   2    3.77    0.11
   2  -2  -2   26.43    0.69
   2  -2  -2   26.40    0.66
   2  -2  -2   26.56    0.68
  -2   2   2   26.56    0.66
  -2   2   2   26.73    0.66
  -2   2   2   29.99    0.69
  -2   2   2   26.74    0.69
  -2   2   2   27.10    0.66
   1  -2  -2  154.51    3.85
   1  -2  -2  158.95    3.92
   1  -2  -2  166.15    3.86
   1  -2  -2  157.52    3.79
  -1   2   2  161.44    3.84
  -1   2   2  167.53    3.86
  -1   2   2  155.12    3.81
  -1   2   2  156.57    3.91
  -1   2   2  159.82    3.92
   0  -2  -2  888.57   21.89
   0  -2  -2  912.80   22.26
   0  -2  -2  788.02   21.84
   0  -2  -2  940.77   21.58
   0  -2  -2  909.95   22.38
   0   2   2  945.24   21.89
   0   2   2  932.76   22.25
   0   2   2  965.03   22.37
  -1  -2  -2  326.49    7.85
  -1  -2  -2  335.65    7.64
  -1  -2  -2  326.06    7.74
  -1  -2  -2  324.34    7.76
  -1  -2  -2  316.48    7.92
   1   2   2  325.93    7.93
   1   2   2  335.41    7.76
   1   2   2  280.02    7.84
   1   2   2  322.61    7.65
   1   2   2  317.67    7.75
  -2  -2  -2  417.76   10.65
  -2  -2  -2  435.81   10.24
  -2  -2  -2  433.60   10.38
  -2  -2  -2  435.87   10.42
   2   2   2  435.58   10.39
   2   2   2  436.48   10.62
   2   2   2  418.44   10.25
   2   2   2  430.27   10.66
   2   2   2  435.71   10.41
  -3  -2  -2    2.86    0.10
  -3  -2  -2    2.93    0.08
  -3  -2  -2    2.98    0.08
  -3  -2  -2    2.93    0.08
  -3  -2  -2    2.89    0.10
   3   2   2    2.79    0.08
   3   2   2    3.14    0.10
   3   2   2    2.83    0.08
   3   2   2    2.94    0.10
   3   2   2    2.80    0.08
   3   2   2    2.77    0.08
  -4  -2  -2   16.75    0.40
  -4  -2  -2   16.39    0.41
  -4  -2  -2   15.55    0.42
  -4  -2  -2   16.39    0.41
  -4  -2  -2   15.66    0.42
  -4  -2  -2   16.74    0.40
   4   2   2   16.24    0.41
   4   2   2   16.09    0.41
   4   2   2   14.47    0.40
   4   2   2   16.93    0.42
   4   2   2   16.14    0.40
  -5  -2  -2   11.77    0.30
  -5  -2  -2   12.00    0.30
  -5  -2  -2   11.86    0.32
  -5  -2  -2   12.21    0.32
  -5  -2  -2   11.87    0.33
   5   2   2   11.87    0.30
   5   2   2   11.71    0.32
  -6  -2  -2    0.01    0.03
  -6  -2  -2    0.02    0.04
  -6  -2  -2    0.08    0.05
  -6  -2  -2   -0.04    0.04
   6   2   2    0.00    0.03
   6   2   2    0.03    0.03
   6   2   2    0.02    0.02
  -7  -2  -2   27.18    0.67
  -7  -2  -2   25.08    0.65
  -7  -2  -2   26.62    0.70
   7   2   2   26.46    0.65
   7   2   2   26.89    0.65
   7   2   2   26.74    0.69
  -8  -2  -2    0.16    0.05
   8   2   2    0.14    0.06
  -9  -2  -2   11.13    0.35
  -9  -2  -2   11.09    0.33
   9   2   2   11.29    0.35
 -10  -2  -2    1.57    0.15
 -10  -2  -2    1.59    0.13
  10   2   2    1.62    0.18
 -11  -2  -2    0.41    0.11
 -11  -2  -2    0.32    0.09
 -12  -2  -2   -0.05    0.13
 -12  -2  -2    0.17    0.10
  11  -3  -2    0.53    0.17
  11  -3  -2    0.51    0.13
  10  -3  -2    0.10    0.09
  10  -3  -2    0.08    0.12
 -10   3   2    0.20    0.10
 -10   3   2    0.34    0.07
 -10   3   2    0.18    0.10
   9  -3  -2    3.41    0.19
   9  -3  -2    3.69    0.24
  -9   3   2    3.63    0.18
  -9   3   2    3.35    0.16
  -9   3   2    3.57    0.14
  -9   3   2    3.67    0.17
   8  -3  -2    0.04    0.08
   8  -3  -2    0.05    0.06
  -8   3   2   -0.03    0.06
  -8   3   2   -0.10    0.05
  -8   3   2    0.03    0.04
   7  -3  -2    0.15    0.06
   7  -3  -2   -0.01    0.07
  -7   3   2    0.09    0.04
  -7   3   2    0.10    0.06
  -7   3   2    0.08    0.05
  -7   3   2    0.12    0.06
  -7   3   2    0.03    0.03
   6  -3  -2    0.07    0.06
   6  -3  -2    0.04    0.04
  -6   3   2    0.08    0.04
  -6   3   2    0.05    0.04
  -6   3   2    0.09    0.04
   5  -3  -2   42.63    1.11
   5  -3  -2   43.44    1.10
  -5   3   2   42.96    1.05
  -5   3   2   43.22    1.05
  -5   3   2   44.81    1.05
   4  -3  -2   49.05    1.27
   4  -3  -2   49.83    1.21
   4  -3  -2   50.00    1.26
  -4   3   2   50.65    1.21
  -4   3   2   51.07    1.21
  -4   3   2   49.74    1.21
  -4   3   2   50.08    1.21
  -4   3   2   51.23    1.21
   3  -3  -2  205.44    5.02
   3  -3  -2  210.77    5.04
   3  -3  -2  209.93    5.18
   3  -3  -2  203.46    5.13
  -3   3   2  207.83    4.99
  -3   3   2  214.74    5.04
  -3   3   2  212.05    5.15
  -3   3   2  209.31    5.02
   2  -3  -2   20.89    0.54
   2  -3  -2   21.40    0.52
   2  -3  -2   20.58    0.53
   2  -3  -2   21.34    0.52
   2  -3  -2   20.86    0.53
  -2   3   2   20.99    0.54
  -2   3   2   20.95    0.52
  -2   3   2   20.58    0.51
  -2   3   2   21.50    0.55
  -2   3   2   21.29    0.52
   1  -3  -2    7.92    0.20
   1  -3  -2    8.23    0.21
   1  -3  -2    7.89    0.20
   1  -3  -2    8.09    0.22
   1  -3  -2    7.98    0.22
  -1   3   2    7.87    0.21
  -1   3   2    8.03    0.23
  -1   3   2    8.02    0.22
  -1   3   2    7.76    0.22
  -1   3   2    8.37    0.21
  -1   3   2    7.94    0.20
   0  -3  -2  145.05    3.46
   0  -3  -2  141.07    3.54
   0  -3  -2  145.99    3.41
   0  -3  -2  143.95    3.52
   0  -3  -2  142.10    3.46
   0  -3  -2  146.81    3.45
   0   3   2  147.68    3.44
   0   3   2  143.29    3.46
   0   3   2  141.53    3.47
   0   3   2  138.57    3.44
  -1  -3  -2   16.10    0.41
  -1  -3  -2   17.26    0.41
  -1  -3  -2   16.38    0.44
  -1  -3  -2   16.63    0.41
   1   3   2   16.59    0.41
   1   3   2   16.45    0.41
   1   3   2   16.93    0.42
  -2  -3  -2   25.08    0.66
  -2  -3  -2   26.97    0.63
  -2  -3  -2   25.89    0.63
  -2  -3  -2   25.29    0.65
   2   3   2   25.45    0.63
   2   3   2   25.80    0.63
   2   3   2   26.47    0.65
  -3  -3  -2  100.35    2.38
  -3  -3  -2   98.06    2.44
  -3  -3  -2   97.75    2.40
  -3  -3  -2  100.50    2.42
  -3  -3  -2   96.61    2.45
  -3  -3  -2   98.62    2.35
   3   3   2   99.53    2.38
   3   3   2  101.42    2.44
   3   3   2   95.19    2.35
   3   3   2  100.28    2.39
  -4  -3  -2   51.64    1.23
  -4  -3  -2   51.83    1.25
  -4  -3  -2   49.53    1.23
  -4  -3  -2   48.42    1.21
  -4  -3  -2   50.61    1.26
  -4  -3  -2   50.55    1.20
   4   3   2   49.99    1.21
   4   3   2   50.47    1.20
   4   3   2   45.69    1.22
   4   3   2   51.19    1.25
  -5  -3  -2    0.12    0.05
  -5  -3  -2    0.11    0.04
  -5  -3  -2    0.12    0.04
  -5  -3  -2    0.08    0.03
   5   3   2    0.08    0.02
   5   3   2    0.15    0.04
   5   3   2    0.16    0.05
  -6  -3  -2    0.37    0.05
  -6  -3  -2    0.39    0.06
  -6  -3  -2    0.42    0.06
  -6  -3  -2    0.41    0.06
   6   3   2    0.48    0.04
  -7  -3  -2    1.55    0.10
  -7  -3  -2    1.52    0.11
  -7  -3  -2    1.60    0.12
   7   3   2    1.62    0.09
   7   3   2    1.56    0.07
  -8  -3  -2   60.89    1.49
  -8  -3  -2   59.41    1.48
  -8  -3  -2   59.43    1.53
   8   3   2   59.13    1.46
   8   3   2   61.59    1.46
  -9  -3  -2    0.06    0.05
  -9  -3  -2    0.04    0.07
 -10  -3  -2    7.67    0.26
 -10  -3  -2    7.16    0.28
 -11  -3  -2   -0.15    0.11
 -11  -3  -2    0.04    0.08
 -12  -3  -2    0.42    0.12
 -12  -3  -2    0.19    0.15
  11  -4  -2    0.17    0.16
 -11   4   2    0.26    0.13
 -11   4   2    0.16    0.15
  10  -4  -2    1.42    0.17
  10  -4  -2    1.47    0.18
 -10   4   2    1.36    0.14
 -10   4   2    1.31    0.16
   9  -4  -2    2.25    0.22
   9  -4  -2    1.92    0.16
  -9   4   2    1.94    0.12
  -9   4   2    2.20    0.17
   8  -4  -2   22.08    0.60
   8  -4  -2   22.12    0.64
  -8   4   2   21.96    0.61
  -8   4   2   21.65    0.55
  -8   4   2   21.42    0.55
   7  -4  -2    0.34    0.08
   7  -4  -2    0.24    0.06
  -7   4   2    0.34    0.07
  -7   4   2    0.27    0.07
  -7   4   2    0.26    0.04
   6  -4  -2   16.25    0.45
   6  -4  -2   16.29    0.47
  -6   4   2   16.53    0.42
  -6   4   2   16.44    0.46
  -6   4   2   16.51    0.42
   5  -4  -2    0.44    0.07
   5  -4  -2    0.43    0.05
   5  -4  -2    0.37    0.04
  -5   4   2    0.44    0.04
  -5   4   2    0.45    0.04
  -5   4   2    0.41    0.04
   4  -4  -2  111.41    2.75
   4  -4  -2  111.58    2.68
   4  -4  -2  102.79    2.76
  -4   4   2  114.55    2.68
  -4   4   2  116.19    2.66
  -4   4   2  111.20    2.65
   3  -4  -2   55.54    1.32
   3  -4  -2   56.51    1.36
   3  -4  -2   53.58    1.33
   3  -4  -2   55.18    1.31
   3  -4  -2   54.21    1.37
   3  -4  -2   55.46    1.31
  -3   4   2   55.85    1.31
  -3   4   2   55.13    1.31
  -3   4   2   50.82    1.33
  -3   4   2   55.64    1.32
  -3   4   2   52.23    1.38
   2  -4  -2    5.09    0.13
   2  -4  -2    5.36    0.14
   2  -4  -2    5.19    0.16
   2  -4  -2    4.98    0.14
   2  -4  -2    5.22    0.16
   2  -4  -2    5.22    0.14
   2  -4  -2    5.36    0.15
  -2   4   2    5.29    0.14
  -2   4   2    5.08    0.14
  -2   4   2    5.06    0.16
  -2   4   2    5.40    0.14
  -2   4   2    5.04    0.17
   1  -4  -2   10.84    0.28
   1  -4  -2   10.83    0.29
   1  -4  -2   10.59    0.27
   1  -4  -2   10.86    0.28
   1  -4  -2   10.75    0.29
  -1   4   2   10.95    0.28
  -1   4   2   10.76    0.29
  -1   4   2   10.91    0.28
  -1   4   2   10.83    0.31
  -1   4   2   11.14    0.27
   0  -4  -2   17.01    0.42
   0  -4  -2   17.13    0.42
   0  -4  -2   17.31    0.42
   0  -4  -2   16.28    0.45
   0  -4  -2   16.69    0.44
   0   4   2   16.96    0.44
   0   4   2   17.04    0.42
   0   4   2   17.22    0.43
   0   4   2   17.05    0.45
   0   4   2   16.89    0.42
  -1  -4  -2   31.62    0.76
  -1  -4  -2   30.51    0.77
  -1  -4  -2   32.52    0.77
  -1  -4  -2   30.94    0.79
  -1  -4  -2   30.66    0.81
   1   4   2   32.62    0.79
   1   4   2   30.44    0.76
   1   4   2   32.37    0.77
   1   4   2   32.25    0.81
   1   4   2   31.40    0.77
  -2  -4  -2    1.46    0.08
  -2  -4  -2    1.45    0.08
  -2  -4  -2    1.44    0.06
  -2  -4  -2    1.54    0.06
   2   4   2    1.47    0.09
   2   4   2    1.47    0.08
   2   4   2    1.46    0.06
  -3  -4  -2   22.72    0.57
  -3  -4  -2   22.65    0.58
  -3  -4  -2   23.10    0.60
  -3  -4  -2   23.11    0.58
  -3  -4  -2   23.36    0.59
  -3  -4  -2   23.22    0.61
   3   4   2   23.81    0.60
   3   4   2   23.94    0.61
   3   4   2   23.05    0.58
   3   4   2   23.09    0.57
   3   4   2   23.28    0.58
  -4  -4  -2    0.08    0.04
  -4  -4  -2    0.08    0.04
  -4  -4  -2    0.10    0.03
  -4  -4  -2    0.07    0.03
   4   4   2    0.10    0.05
   4   4   2    0.07    0.03
   4   4   2    0.09    0.02
   4   4   2    0.13    0.05
  -5  -4  -2    9.26    0.27
  -5  -4  -2    9.32    0.28
  -5  -4  -2    9.13    0.28
  -5  -4  -2    9.20    0.26
   5   4   2    9.40    0.27
   5   4   2    9.46    0.25
  -6  -4  -2    0.07    0.06
  -6  -4  -2    0.05    0.06
  -6  -4  -2    0.06    0.05
  -6  -4  -2    0.08    0.04
   6   4   2    0.13    0.06
   6   4   2    0.09    0.03
  -7  -4  -2    8.15    0.25
  -7  -4  -2    8.16    0.26
  -7  -4  -2    7.99    0.26
   7   4   2    8.07    0.22
  -8  -4  -2    0.13    0.09
  -8  -4  -2    0.09    0.06
  -8  -4  -2    0.09    0.07
   8   4   2    0.05    0.07
   8   4   2    0.10    0.04
  -9  -4  -2    5.78    0.24
  -9  -4  -2    5.87    0.22
   9   4   2    5.55    0.20
   9   4   2    5.92    0.17
 -10  -4  -2    3.15    0.20
 -10  -4  -2    2.83    0.18
 -11  -4  -2    1.06    0.15
 -11  -4  -2    0.94    0.12
 -12  -4  -2    0.16    0.12
  11  -5  -2    0.32    0.17
 -11   5   2    0.40    0.13
 -11   5   2    0.17    0.14
  10  -5  -2   -0.06    0.10
  10  -5  -2    0.06    0.14
 -10   5   2    0.01    0.11
   9  -5  -2   -0.11    0.08
   9  -5  -2   -0.19    0.10
  -9   5   2    0.02    0.06
  -9   5   2   -0.04    0.09
   8  -5  -2    2.06    0.14
   8  -5  -2    2.27    0.19
  -8   5   2    1.97    0.11
  -8   5   2    2.22    0.16
   7  -5  -2    1.98    0.11
   7  -5  -2    1.78    0.15
  -7   5   2    1.76    0.13
  -7   5   2    1.78    0.09
   6  -5  -2    3.18    0.16
   6  -5  -2    2.84    0.10
   6  -5  -2    2.93    0.12
  -6   5   2    3.07    0.12
  -6   5   2    2.79    0.15
  -6   5   2    3.14    0.13
  -6   5   2    2.97    0.11
   5  -5  -2    0.34    0.04
   5  -5  -2    0.07    0.05
   5  -5  -2    0.19    0.04
   5  -5  -2    0.18    0.04
  -5   5   2    0.17    0.05
  -5   5   2    0.19    0.05
  -5   5   2    0.17    0.04
  -5   5   2    0.23    0.04
   4  -5  -2   11.40    0.34
   4  -5  -2   11.78    0.30
   4  -5  -2   11.65    0.31
   4  -5  -2   11.51    0.29
   4  -5  -2   11.41    0.31
  -4   5   2   11.43    0.30
  -4   5   2   11.63    0.30
  -4   5   2   11.47    0.30
   3  -5  -2   42.12    1.04
   3  -5  -2   43.51    1.06
   3  -5  -2   44.62    1.07
   3  -5  -2   38.82    1.04
   3  -5  -2   43.57    1.04
   3  -5  -2   42.98    1.09
   3  -5  -2   42.42    1.04
  -3   5   2   43.89    1.04
  -3   5   2   43.31    1.05
  -3   5   2   43.26    1.04
   2  -5  -2    3.92    0.11
   2  -5  -2    4.00    0.12
   2  -5  -2    3.83    0.12
   2  -5  -2    4.02    0.12
   2  -5  -2    3.94    0.14
  -2   5   2    4.02    0.12
  -2   5   2    3.88    0.12
  -2   5   2    4.00    0.12
   1  -5  -2    2.22    0.09
   1  -5  -2    2.36    0.10
   1  -5  -2    2.34    0.09
   1  -5  -2    2.25    0.08
   1  -5  -2    2.36    0.09
  -1   5   2    2.30    0.09
  -1   5   2    2.10    0.10
  -1   5   2    2.20    0.08
  -1   5   2    2.38    0.08
   0  -5  -2   59.63    1.40
   0  -5  -2   58.05    1.46
   0  -5  -2   58.14    1.41
   0  -5  -2   56.11    1.39
   0  -5  -2   56.92    1.43
   0   5   2   57.57    1.39
   0   5   2   59.53    1.41
   0   5   2   55.72    1.43
   0   5   2   59.45    1.40
  -1  -5  -2    5.25    0.16
  -1  -5  -2    5.10    0.15
  -1  -5  -2    5.11    0.17
  -1  -5  -2    5.32    0.18
   1   5   2    5.08    0.18
   1   5   2    5.26    0.15
   1   5   2    5.15    0.18
   1   5   2    5.35    0.15
   1   5   2    5.09    0.15
  -2  -5  -2    2.79    0.09
  -2  -5  -2    2.52    0.10
  -2  -5  -2    2.69    0.12
  -2  -5  -2    2.51    0.11
  -2  -5  -2    2.49    0.09
   2   5   2    2.68    0.09
   2   5   2    2.73    0.09
   2   5   2    2.55    0.13
   2   5   2    2.60    0.12
   2   5   2    2.51    0.09
  -3  -5  -2    0.28    0.04
  -3  -5  -2    0.18    0.05
  -3  -5  -2    0.28    0.04
  -3  -5  -2    0.28    0.06
   3   5   2    0.28    0.04
   3   5   2    0.29    0.04
   3   5   2    0.26    0.06
   3   5   2    0.31    0.03
  -4  -5  -2   40.68    1.03
  -4  -5  -2   40.13    1.01
  -4  -5  -2   41.18    1.02
  -4  -5  -2   39.96    1.05
   4   5   2   39.94    1.01
   4   5   2   40.42    1.00
   4   5   2   41.71    1.02
  -5  -5  -2    4.04    0.14
  -5  -5  -2    3.94    0.16
  -5  -5  -2    3.66    0.17
  -5  -5  -2    3.88    0.15
   5   5   2    3.96    0.13
   5   5   2    4.06    0.18
  -6  -5  -2   33.58    0.87
  -6  -5  -2   34.02    0.87
  -6  -5  -2   34.05    0.90
   6   5   2   34.14    0.87
   6   5   2   34.26    0.85
  -7  -5  -2    9.38    0.31
  -7  -5  -2    9.71    0.30
  -7  -5  -2    9.24    0.31
   7   5   2    9.54    0.26
   7   5   2    9.42    0.30
  -8  -5  -2   17.78    0.51
  -8  -5  -2   18.01    0.51
  -8  -5  -2   17.91    0.52
   8   5   2   18.23    0.47
  -9  -5  -2    1.20    0.13
  -9  -5  -2    1.15    0.12
   9   5   2    1.19    0.08
 -10  -5  -2    5.43    0.24
 -10  -5  -2    5.28    0.27
 -11  -5  -2    4.19    0.24
 -11  -5  -2    4.54    0.28
  10  -6  -2    0.06    0.13
 -10   6   2    0.35    0.13
   9  -6  -2    3.86    0.26
   9  -6  -2    3.85    0.20
  -9   6   2    3.86    0.23
  -9   6   2    3.70    0.16
   8  -6  -2   10.92    0.39
   8  -6  -2   10.88    0.33
  -8   6   2   10.77    0.30
  -8   6   2   11.21    0.37
   7  -6  -2    4.76    0.22
   7  -6  -2    4.81    0.15
   7  -6  -2    4.82    0.18
  -7   6   2    4.60    0.16
  -7   6   2    4.79    0.22
   6  -6  -2   10.27    0.28
   6  -6  -2   10.53    0.29
   6  -6  -2   10.76    0.29
   6  -6  -2   10.57    0.34
  -6   6   2    9.86    0.30
  -6   6   2    9.74    0.29
  -6   6   2   10.32    0.28
  -6   6   2   10.55    0.33
   5  -6  -2    7.21    0.21
   5  -6  -2    7.05    0.20
   5  -6  -2    6.91    0.18
   5  -6  -2    7.12    0.25
  -5   6   2    6.89    0.21
  -5   6   2    7.04    0.24
  -5   6   2    7.07    0.20
  -5   6   2    6.03    0.20
   4  -6  -2   -0.04    0.04
   4  -6  -2   -0.03    0.03
   4  -6  -2    0.01    0.05
   4  -6  -2    0.01    0.03
   4  -6  -2    0.03    0.04
  -4   6   2    0.02    0.04
  -4   6   2    0.11    0.05
  -4   6   2    0.05    0.05
  -4   6   2   -0.01    0.03
   3  -6  -2    4.33    0.13
   3  -6  -2    4.42    0.17
   3  -6  -2    4.64    0.13
   3  -6  -2    4.54    0.14
   3  -6  -2    4.48    0.16
   3  -6  -2    4.30    0.14
  -3   6   2    4.45    0.14
  -3   6   2    4.52    0.14
  -3   6   2    4.35    0.17
  -3   6   2    4.42    0.15
   2  -6  -2    0.06    0.04
   2  -6  -2    0.10    0.02
   2  -6  -2    0.11    0.04
   2  -6  -2    0.10    0.03
   2  -6  -2    0.07    0.04
  -2   6   2    0.08    0.03
  -2   6   2    0.14    0.05
  -2   6   2    0.11    0.04
  -2   6   2    0.07    0.03
   1  -6  -2   46.69    1.11
   1  -6  -2   46.31    1.14
   1  -6  -2   47.17    1.12
  -1   6   2   39.34    1.16
  -1   6   2   45.51    1.11
  -1   6   2   47.23    1.11
  -1   6   2   46.27    1.12
   0  -6  -2    0.18    0.04
   0  -6  -2    0.13    0.05
   0  -6  -2    0.21    0.04
   0  -6  -2    0.16    0.05
   0   6   2    0.14    0.03
   0   6   2    0.16    0.04
   0   6   2    0.19    0.04
  -1  -6  -2    8.53    0.30
  -1  -6  -2   10.18    0.29
  -1  -6  -2   10.47    0.31
  -1  -6  -2   10.80    0.27
   1   6   2   10.40    0.28
   1   6   2   10.33    0.32
   1   6   2   10.91    0.28
   1   6   2   10.46    0.29
  -2  -6  -2    0.29    0.07
  -2  -6  -2    0.33    0.05
  -2  -6  -2    0.35    0.06
  -2  -6  -2    0.37    0.04
   2   6   2    0.35    0.04
   2   6   2    0.37    0.05
   2   6   2    0.41    0.09
   2   6   2    0.22    0.04
  -3  -6  -2   95.52    2.41
  -3  -6  -2   93.97    2.36
  -3  -6  -2   98.60    2.34
   3   6   2   98.14    2.34
   3   6   2   94.41    2.36
   3   6   2   96.90    2.31
   3   6   2   95.61    2.39
  -4  -6  -2    2.27    0.14
  -4  -6  -2    2.28    0.12
  -4  -6  -2    2.34    0.12
  -4  -6  -2    2.43    0.13
   4   6   2    2.45    0.18
   4   6   2    2.28    0.09
   4   6   2    2.20    0.10
  -5  -6  -2   66.17    1.67
  -5  -6  -2   64.39    1.63
  -5  -6  -2   67.04    1.62
  -5  -6  -2   63.24    1.63
   5   6   2   66.06    1.60
   5   6   2   65.61    1.63
  -6  -6  -2    0.04    0.08
  -6  -6  -2    0.01    0.04
  -6  -6  -2   -0.05    0.07
   6   6   2    0.01    0.12
   6   6   2   -0.02    0.04
  -7  -6  -2    5.84    0.24
  -7  -6  -2    6.05    0.23
  -7  -6  -2    5.90    0.26
   7   6   2    6.12    0.19
  -8  -6  -2    2.99    0.19
  -8  -6  -2    3.21    0.17
   8   6   2    3.03    0.12
  -9  -6  -2    0.59    0.10
  -9  -6  -2    0.77    0.14
   9   6   2    0.65    0.07
 -10  -6  -2    0.35    0.11
 -10  -6  -2    0.26    0.14
  10   6   2    0.43    0.06
 -11  -6  -2    0.60    0.14
  10  -7  -2    0.12    0.15
 -10   7   2   -0.04    0.12
   9  -7  -2    2.05    0.20
  -9   7   2    2.48    0.22
   8  -7  -2    0.33    0.11
   8  -7  -2    0.41    0.09
  -8   7   2    0.45    0.07
  -8   7   2    0.38    0.10
   7  -7  -2    7.65    0.25
   7  -7  -2    8.03    0.31
   7  -7  -2    8.10    0.23
  -7   7   2    7.96    0.29
  -7   7   2    7.75    0.24
   6  -7  -2    0.74    0.09
   6  -7  -2    0.87    0.09
   6  -7  -2    0.61    0.09
  -6   7   2    0.73    0.10
  -6   7   2    0.69    0.06
  -6   7   2    0.77    0.08
   5  -7  -2    0.03    0.06
   5  -7  -2    0.00    0.06
   5  -7  -2    0.03    0.04
   5  -7  -2    0.03    0.04
   5  -7  -2    0.08    0.05
  -5   7   2    0.07    0.06
  -5   7   2    0.00    0.04
  -5   7   2    0.07    0.06
   4  -7  -2    0.29    0.04
   4  -7  -2    0.27    0.06
   4  -7  -2    0.28    0.05
   4  -7  -2    0.30    0.03
   4  -7  -2    0.21    0.05
   4  -7  -2    0.21    0.06
  -4   7   2    0.29    0.05
  -4   7   2    0.27    0.05
  -4   7   2    0.27    0.06
   3  -7  -2    0.64    0.07
   3  -7  -2    0.55    0.07
   3  -7  -2    0.72    0.07
   3  -7  -2    0.65    0.07
  -3   7   2    0.67    0.07
  -3   7   2    0.64    0.06
  -3   7   2    0.66    0.07
   2  -7  -2   18.94    0.51
   2  -7  -2   18.46    0.51
   2  -7  -2   18.91    0.49
   2  -7  -2   18.08    0.49
  -2   7   2   19.05    0.49
  -2   7   2   18.87    0.48
  -2   7   2   18.99    0.52
   1  -7  -2    3.96    0.15
   1  -7  -2    4.76    0.17
   1  -7  -2    4.79    0.18
  -1   7   2    4.84    0.15
  -1   7   2    4.80    0.16
  -1   7   2    5.01    0.18
   0  -7  -2    4.18    0.12
   0  -7  -2    4.27    0.15
   0   7   2    3.45    0.14
   0   7   2    4.15    0.15
   0   7   2    4.06    0.14
  -1  -7  -2   -0.01    0.04
  -1  -7  -2    0.07    0.06
  -1  -7  -2   -0.01    0.05
  -1  -7  -2    0.10    0.03
   1   7   2    0.07    0.04
   1   7   2    0.08    0.04
   1   7   2    0.08    0.04
  -2  -7  -2   68.02    1.67
  -2  -7  -2   65.18    1.66
  -2  -7  -2   66.64    1.71
  -2  -7  -2   68.12    1.65
   2   7   2   67.01    1.69
   2   7   2   66.21    1.62
   2   7   2   67.94    1.65
  -3  -7  -2   44.59    1.17
  -3  -7  -2   44.72    1.12
  -3  -7  -2   44.59    1.15
   3   7   2   45.31    1.12
   3   7   2   45.35    1.10
   3   7   2   44.51    1.14
  -4  -7  -2   33.25    0.89
  -4  -7  -2   34.07    0.86
  -4  -7  -2   33.14    0.88
   4   7   2   33.82    0.85
   4   7   2   31.83    0.89
   4   7   2   33.86    0.84
  -5  -7  -2   19.60    0.55
  -5  -7  -2   19.23    0.53
  -5  -7  -2   18.75    0.54
   5   7   2   18.83    0.57
   5   7   2   18.98    0.50
  -6  -7  -2    9.88    0.32
  -6  -7  -2   10.10    0.34
  -6  -7  -2   10.21    0.34
   6   7   2    9.82    0.29
  -7  -7  -2    2.22    0.15
  -7  -7  -2    2.28    0.22
  -7  -7  -2    2.49    0.18
   7   7   2    2.37    0.11
  -8  -7  -2    1.09    0.14
  -8  -7  -2    0.74    0.10
   8   7   2    1.07    0.09
  -9  -7  -2    0.13    0.09
  -9  -7  -2    0.21    0.13
   9   7   2    0.04    0.06
 -10  -7  -2    0.52    0.18
 -10  -7  -2    0.44    0.12
  10   7   2    0.71    0.08
  10  -8  -2    0.01    0.16
 -10   8   2   -0.05    0.13
   9  -8  -2    0.19    0.13
  -9   8   2    0.29    0.12
   8  -8  -2    3.99    0.15
   8  -8  -2    4.04    0.26
  -8   8   2    3.93    0.16
  -8   8   2    4.11    0.24
   7  -8  -2    2.63    0.21
   7  -8  -2    2.39    0.13
  -7   8   2    2.09    0.19
  -7   8   2    2.21    0.13
   6  -8  -2    4.02    0.17
   6  -8  -2    3.65    0.13
   6  -8  -2    3.99    0.22
  -6   8   2    3.86    0.15
  -6   8   2    4.02    0.20
   5  -8  -2    0.75    0.06
   5  -8  -2    0.87    0.10
   5  -8  -2    0.65    0.09
  -5   8   2    0.83    0.09
  -5   8   2    1.10    0.13
  -5   8   2    0.78    0.09
   4  -8  -2    0.22    0.08
   4  -8  -2    0.24    0.07
   4  -8  -2    0.22    0.05
   4  -8  -2    0.24    0.05
   4  -8  -2    0.31    0.06
  -4   8   2    0.32    0.05
  -4   8   2    0.25    0.07
  -4   8   2    0.22    0.06
   3  -8  -2    1.79    0.14
   3  -8  -2    1.44    0.12
   3  -8  -2    1.60    0.10
   3  -8  -2    1.38    0.14
  -3   8   2    1.54    0.13
  -3   8   2    1.54    0.11
  -3   8   2    1.63    0.10
   2  -8  -2    1.36    0.12
   2  -8  -2    1.30    0.09
   2  -8  -2    1.22    0.11
  -2   8   2    1.23    0.10
  -2   8   2    1.27    0.09
  -2   8   2    1.38    0.11
   1  -8  -2   19.59    0.51
   1  -8  -2   19.17    0.54
  -1   8   2   19.11    0.51
  -1   8   2   19.51    0.50
  -1   8   2   19.28    0.54
   0  -8  -2    0.05    0.05
   0  -8  -2    0.07    0.06
   0   8   2    0.07    0.04
   0   8   2    0.07    0.04
   0   8   2   -0.02    0.05
  -1  -8  -2   29.86    0.80
  -1  -8  -2   30.12    0.76
  -1  -8  -2   30.37    0.78
   1   8   2   30.58    0.76
   1   8   2   30.28    0.77
   1   8   2   30.38    0.80
  -2  -8  -2    2.51    0.15
  -2  -8  -2    2.54    0.12
  -2  -8  -2    2.60    0.14
  -2  -8  -2    2.59    0.16
   2   8   2    2.73    0.12
   2   8   2    2.74    0.12
   2   8   2    2.61    0.13
  -3  -8  -2  108.80    2.69
  -3  -8  -2  109.59    2.66
  -3  -8  -2  108.08    2.75
   3   8   2  110.54    2.66
   3   8   2  108.42    2.72
  -4  -8  -2    1.22    0.11
  -4  -8  -2    1.32    0.15
  -4  -8  -2    1.36    0.15
   4   8   2    1.15    0.09
   4   8   2    1.29    0.11
  -5  -8  -2   12.45    0.37
  -5  -8  -2   12.58    0.40
  -5  -8  -2   10.89    0.39
   5   8   2   12.59    0.35
  -6  -8  -2    0.37    0.08
  -6  -8  -2    0.44    0.13
  -6  -8  -2    0.45    0.11
   6   8   2    0.37    0.06
  -7  -8  -2    1.40    0.15
  -7  -8  -2    1.24    0.14
   7   8   2    1.29    0.10
  -8  -8  -2    0.17    0.13
  -8  -8  -2    0.04    0.08
   8   8   2    0.00    0.06
  -9  -8  -2    0.03    0.10
  -9  -8  -2    0.00    0.15
   9   8   2    0.05    0.06
   9  -9  -2   -0.02    0.13
  -9   9   2   -0.12    0.13
   8  -9  -2    0.36    0.14
   8  -9  -2    0.36    0.07
  -8   9   2    0.34    0.12
   7  -9  -2    1.50    0.13
   7  -9  -2    1.51    0.15
  -7   9   2    1.56    0.13
  -7   9   2    1.75    0.19
   6  -9  -2    2.88    0.16
   6  -9  -2    3.04    0.14
   6  -9  -2    3.10    0.22
  -6   9   2    3.14    0.20
  -6   9   2    3.07    0.14
   5  -9  -2    2.04    0.18
   5  -9  -2    2.06    0.14
   5  -9  -2    1.72    0.12
  -5   9   2    1.96    0.17
  -5   9   2    2.03    0.16
  -5   9   2    2.16    0.12
   4  -9  -2    0.10    0.06
   4  -9  -2   -0.01    0.06
   4  -9  -2    0.10    0.08
   4  -9  -2    0.14    0.05
  -4   9   2    0.01    0.07
  -4   9   2    0.10    0.08
  -4   9   2    0.12    0.05
   3  -9  -2    1.33    0.11
   3  -9  -2    1.34    0.13
   3  -9  -2    1.51    0.15
  -3   9   2    1.36    0.11
  -3   9   2    1.37    0.10
  -3   9   2    1.21    0.14
   2  -9  -2   14.86    0.41
   2  -9  -2   14.80    0.44
   2  -9  -2   14.75    0.44
  -2   9   2   14.89    0.45
  -2   9   2   14.62    0.41
  -2   9   2   14.64    0.40
   1  -9  -2    0.57    0.09
   1  -9  -2    0.36    0.07
  -1   9   2    0.55    0.08
  -1   9   2    0.44    0.06
  -1   9   2    0.57    0.07
   0  -9  -2   18.03    0.52
   0  -9  -2   17.59    0.49
   0   9   2   17.99    0.48
   0   9   2   17.51    0.47
   0   9   2   17.60    0.50
  -1  -9  -2    0.17    0.08
  -1  -9  -2    0.34    0.05
  -1  -9  -2    0.29    0.07
   1   9   2    0.28    0.07
   1   9   2    0.31    0.06
   1   9   2    0.24    0.06
  -2  -9  -2    3.79    0.18
  -2  -9  -2    3.85    0.20
   2   9   2    3.78    0.16
   2   9   2    3.78    0.16
  -3  -9  -2    0.99    0.12
  -3  -9  -2    1.05    0.12
  -3  -9  -2    0.84    0.11
   3   9   2    1.17    0.10
   3   9   2    1.04    0.11
  -4  -9  -2    2.51    0.18
  -4  -9  -2    2.60    0.19
  -4  -9  -2    2.52    0.15
   4   9   2    2.40    0.13
   4   9   2    2.43    0.15
  -5  -9  -2    1.62    0.14
  -5  -9  -2    1.66    0.18
  -5  -9  -2    1.48    0.14
   5   9   2    1.69    0.13
   5   9   2    1.42    0.11
  -6  -9  -2    0.61    0.13
  -6  -9  -2    0.55    0.13
  -6  -9  -2    0.47    0.09
   6   9   2    0.41    0.07
  -7  -9  -2    0.01    0.13
  -7  -9  -2   -0.13    0.08
   7   9   2   -0.01    0.06
  -8  -9  -2    0.19    0.16
  -8  -9  -2   -0.03    0.10
   8   9   2    0.03    0.07
  -9  -9  -2    0.22    0.12
   9   9   2    0.56    0.09
   8 -10  -2    0.18    0.08
   8 -10  -2    0.36    0.16
  -8  10   2    0.50    0.14
   7 -10  -2    3.79    0.29
   7 -10  -2    4.05    0.20
  -7  10   2    3.86    0.26
  -7  10   2    4.05    0.19
   6 -10  -2    8.16    0.35
   6 -10  -2    8.13    0.29
  -6  10   2    8.18    0.33
  -6  10   2    7.93    0.26
   5 -10  -2   13.66    0.46
   5 -10  -2   13.66    0.42
   5 -10  -2   13.56    0.37
  -5  10   2   13.61    0.44
  -5  10   2   12.55    0.42
  -5  10   2   13.57    0.38
   4 -10  -2    0.29    0.07
   4 -10  -2    0.19    0.07
   4 -10  -2    0.34    0.07
   4 -10  -2    0.48    0.11
  -4  10   2    0.52    0.07
  -4  10   2    0.40    0.09
  -4  10   2    0.31    0.09
   3 -10  -2    0.92    0.10
   3 -10  -2    0.89    0.12
   3 -10  -2    0.93    0.09
  -3  10   2    0.94    0.11
  -3  10   2    0.92    0.10
  -3  10   2    0.86    0.11
   2 -10  -2    0.16    0.07
   2 -10  -2    0.24    0.08
   2 -10  -2    0.21    0.09
  -2  10   2    0.21    0.06
  -2  10   2    0.19    0.08
  -2  10   2    0.19    0.07
   1 -10  -2    9.82    0.31
   1 -10  -2    9.96    0.34
  -1  10   2    9.84    0.31
  -1  10   2    9.84    0.30
  -1  10   2    9.83    0.33
   0 -10  -2    0.39    0.10
   0 -10  -2    0.39    0.08
   0  10   2    0.53    0.08
   0  10   2    0.51    0.07
   0  10   2    0.50    0.07
  -1 -10  -2    5.44    0.22
  -1 -10  -2    5.03    0.24
   1  10   2    5.22    0.22
   1  10   2    5.00    0.20
   1  10   2    5.30    0.20
  -2 -10  -2   -0.05    0.09
  -2 -10  -2    0.11    0.07
   2  10   2    0.03    0.05
   2  10   2   -0.09    0.07
  -3 -10  -2    1.23    0.14
  -3 -10  -2    1.33    0.14
   3  10   2    1.23    0.13
   3  10   2    1.40    0.12
  -4 -10  -2    0.74    0.10
  -4 -10  -2    0.63    0.13
   4  10   2    0.78    0.09
   4  10   2    0.71    0.08
  -5 -10  -2    0.69    0.11
  -5 -10  -2    0.68    0.14
  -5 -10  -2    0.80    0.14
   5  10   2    0.76    0.09
  -6 -10  -2    0.24    0.14
  -6 -10  -2    0.18    0.10
   6  10   2   -0.01    0.06
  -7 -10  -2    0.99    0.18
  -7 -10  -2    0.72    0.13
   7  10   2    0.89    0.10
  -8 -10  -2    0.12    0.12
   8  10   2    0.18    0.08
   7 -11  -2    0.51    0.17
   7 -11  -2    0.57    0.11
  -7  11   2    0.41    0.13
   6 -11  -2    0.05    0.09
   6 -11  -2    0.10    0.13
  -6  11   2    0.19    0.11
  -6  11   2    0.08    0.09
   5 -11  -2    0.87    0.15
   5 -11  -2    0.99    0.12
  -5  11   2    1.10    0.15
  -5  11   2    1.05    0.11
   4 -11  -2    0.44    0.09
   4 -11  -2    0.40    0.12
   4 -11  -2    0.51    0.09
   4 -11  -2    0.68    0.10
  -4  11   2    0.59    0.09
  -4  11   2    0.60    0.11
  -4  11   2    0.73    0.11
   3 -11  -2    0.53    0.10
   3 -11  -2    0.14    0.08
   3 -11  -2    0.34    0.12
  -3  11   2    0.32    0.07
  -3  11   2    0.39    0.10
  -3  11   2    0.30    0.10
   2 -11  -2    0.07    0.09
   2 -11  -2    0.09    0.07
   2 -11  -2    0.05    0.10
  -2  11   2   -0.02    0.07
  -2  11   2    0.04    0.08
  -2  11   2    0.11    0.09
   1 -11  -2    0.31    0.10
   1 -11  -2    0.07    0.07
  -1  11   2    0.08    0.08
  -1  11   2    0.16    0.09
  -1  11   2    0.10    0.07
   0 -11  -2    4.36    0.24
   0 -11  -2    4.24    0.21
   0  11   2    4.20    0.19
   0  11   2    4.26    0.21
  -1 -11  -2    0.27    0.08
  -1 -11  -2    0.26    0.11
   1  11   2    0.33    0.08
   1  11   2    0.36    0.09
  -2 -11  -2    4.88    0.23
  -2 -11  -2    4.78    0.27
   2  11   2    4.77    0.20
   2  11   2    4.86    0.22
  -3 -11  -2    1.97    0.18
  -3 -11  -2    1.72    0.18
   3  11   2    1.97    0.17
   3  11   2    1.86    0.15
  -4 -11  -2    0.45    0.10
  -4 -11  -2    0.61    0.15
   4  11   2    0.42    0.09
  -5 -11  -2    1.87    0.21
  -5 -11  -2    2.43    0.20
   5  11   2    2.23    0.16
  -6 -11  -2    0.21    0.12
   6  11   2   -0.03    0.07
   6 -12  -2    0.09    0.16
   6 -12  -2    0.13    0.10
  -6  12   2   -0.28    0.12
   5 -12  -2    1.22    0.14
   5 -12  -2    0.88    0.18
  -5  12   2    1.04    0.15
  -5  12   2    1.03    0.12
   4 -12  -2   -0.11    0.10
   4 -12  -2   -0.04    0.10
   4 -12  -2    0.07    0.14
   4 -12  -2    0.11    0.10
  -4  12   2    0.04    0.09
  -4  12   2    0.01    0.11
   3 -12  -2    0.82    0.12
   3 -12  -2    0.82    0.16
   3 -12  -2    0.89    0.11
  -3  12   2    0.68    0.11
  -3  12   2    0.68    0.13
  -3  12   2    0.75    0.13
   2 -12  -2    0.52    0.14
   2 -12  -2    0.42    0.11
   2 -12  -2    0.44    0.10
  -2  12   2    0.39    0.11
  -2  12   2    0.43    0.11
   1 -12  -2    0.87    0.12
   1 -12  -2    0.95    0.14
   1 -12  -2    0.86    0.14
  -1  12   2    0.74    0.12
  -1  12   2    0.71    0.12
   0 -12  -2    0.30    0.10
   0 -12  -2   -0.08    0.12
   0  12   2    0.05    0.10
   0  12   2    0.23    0.10
  -1 -12  -2    0.61    0.15
  -1 -12  -2    0.59    0.11
   1  12   2    0.81    0.11
   1  12   2    0.87    0.13
  -2 -12  -2    0.08    0.10
  -2 -12  -2   -0.16    0.13
   2  12   2   -0.19    0.11
   2  12   2   -0.05    0.09
  -3 -12  -2    2.69    0.29
  -3 -12  -2    2.57    0.22
   3  12   2    2.69    0.19
   3  12   2    2.11    0.22
  -4 -12  -2    1.18    0.19
  -4 -12  -2    1.91    0.21
   4  12   2    1.08    0.12
  -5 -12  -2    1.53    0.16
   5  12   2    1.46    0.16
   3 -13  -2    0.67    0.14
   3 -13  -2    0.40    0.13
   3 -13  -2    0.68    0.18
   3 -13  -2    0.95    0.14
  -3  13   2    0.61    0.15
  -3  13   2    0.49    0.15
   2 -13  -2    0.39    0.13
   2 -13  -2    0.26    0.16
   2 -13  -2    0.21    0.12
  -2  13   2    0.28    0.13
  -2  13   2    0.12    0.14
   1 -13  -2    1.30    0.18
   1 -13  -2    1.39    0.15
   1 -13  -2    1.28    0.18
  -1  13   2    1.15    0.15
  -1  13   2    1.48    0.17
   0 -13  -2    2.66    0.29
   0 -13  -2    2.37    0.22
   0  13   2    2.51    0.23
   0  13   2    2.70    0.26
  -1 -13  -2    1.33    0.15
  -1 -13  -2    1.43    0.19
   1  13   2    1.20    0.15
   1  13   2    0.89    0.16
  -2 -13  -2    0.71    0.18
  -2 -13  -2    0.57    0.13
   2  13   2    0.40    0.15
   2  13   2    0.72    0.13
  -2  11  -3    0.83    0.16
  -2  11  -3    0.59    0.12
   2 -11   3    0.74    0.14
   2 -11   3    0.73    0.14
  -3  11  -3    4.43    0.31
  -3  11  -3    4.26    0.26
   3 -11   3    4.12    0.25
   3 -11   3    4.46    0.29
   3 -11   3    3.56    0.26
  -4  11  -3    0.04    0.13
  -4  11  -3    0.26    0.15
   4 -11   3   -0.06    0.11
   4 -11   3    0.19    0.13
   2  10  -3   -0.03    0.08
  -2 -10   3    0.02    0.11
   1  10  -3    0.02    0.14
   1  10  -3   -0.09    0.08
  -1 -10   3    0.08    0.10
  -1 -10   3    0.06    0.13
   0  10  -3    0.20    0.13
   0  10  -3    0.20    0.09
   0 -10   3    0.34    0.13
   0 -10   3    0.13    0.10
  -1  10  -3    4.92    0.29
  -1  10  -3    4.66    0.24
   1 -10   3    4.75    0.25
   1 -10   3    5.23    0.28
  -2  10  -3    0.98    0.13
  -2  10  -3    0.85    0.15
   2 -10   3    1.05    0.13
   2 -10   3    0.78    0.13
  -3  10  -3    0.42    0.13
  -3  10  -3    0.46    0.11
   3 -10   3    0.63    0.12
   3 -10   3    0.57    0.10
  -4  10  -3    0.50    0.14
  -4  10  -3    0.57    0.12
   4 -10   3    0.91    0.13
   4 -10   3    0.51    0.10
   4 -10   3    0.63    0.12
  -5  10  -3    0.18    0.12
  -5  10  -3    0.11    0.12
   5 -10   3    0.20    0.10
   5 -10   3    0.21    0.10
   5 -10   3    0.08    0.10
  -6  10  -3    0.31    0.13
  -6  10  -3    0.07    0.13
   6 -10   3    0.09    0.10
   6 -10   3    0.12    0.10
  -7  10  -3   -0.11    0.12
   7 -10   3   -0.12    0.11
   7 -10   3    0.09    0.10
   7 -10   3   -0.11    0.15
   4   9  -3    0.96    0.11
  -4  -9   3    1.07    0.15
   3   9  -3    0.73    0.09
  -3  -9   3    0.90    0.13
   2   9  -3    2.78    0.17
   2   9  -3    2.59    0.22
  -2  -9   3    2.42    0.20
  -2  -9   3    2.62    0.24
   1   9  -3    3.09    0.22
  -1  -9   3    3.10    0.23
  -1  -9   3    3.06    0.20
   0   9  -3    1.10    0.13
   0  -9   3    1.07    0.11
   0  -9   3    1.22    0.14
  -1   9  -3    2.62    0.17
  -1   9  -3    2.81    0.20
   1  -9   3    2.46    0.17
   1  -9   3    2.83    0.21
  -2   9  -3    0.13    0.10
   2  -9   3    0.15    0.09
   2  -9   3    0.17    0.08
  -3   9  -3   15.29    0.47
  -3   9  -3   16.32    0.51
   3  -9   3   16.15    0.48
   3  -9   3   16.46    0.49
  -4   9  -3    0.61    0.12
  -4   9  -3    0.50    0.09
   4  -9   3    0.66    0.10
   4  -9   3    0.62    0.09
   4  -9   3    0.76    0.10
  -5   9  -3    3.64    0.23
  -5   9  -3    3.45    0.21
   5  -9   3    3.22    0.19
   5  -9   3    3.41    0.20
   5  -9   3    3.56    0.20
  -6   9  -3    0.18    0.10
  -6   9  -3   -0.04    0.10
   6  -9   3   -0.02    0.08
   6  -9   3   -0.09    0.08
  -7   9  -3    0.43    0.12
   7  -9   3    0.43    0.09
   7  -9   3    0.44    0.10
  -8   9  -3    0.22    0.12
   8  -9   3    0.21    0.08
   8  -9   3   -0.04    0.13
   8  -9   3    0.14    0.10
  -9   9  -3    0.79    0.16
   9  -9   3    0.55    0.10
   9  -9   3    0.56    0.17
   9  -9   3    0.67    0.13
   5   8  -3    0.37    0.09
  -5  -8   3    0.41    0.12
   4   8  -3    0.15    0.07
  -4  -8   3    0.07    0.10
   3   8  -3    0.24    0.11
  -3  -8   3    0.21    0.11
  -3  -8   3   -0.03    0.09
   2   8  -3    3.51    0.20
  -2  -8   3    3.03    0.21
  -2  -8   3    3.26    0.19
   1   8  -3    2.73    0.16
   1   8  -3    2.76    0.18
  -1  -8   3    2.98    0.20
  -1  -8   3    2.71    0.17
   0   8  -3    4.89    0.23
   0   8  -3    4.95    0.20
   0  -8   3    4.69    0.21
   0  -8   3    4.88    0.23
  -1   8  -3    3.93    0.18
  -1   8  -3    4.15    0.21
   1  -8   3    4.10    0.19
   1  -8   3    3.95    0.21
  -2   8  -3    3.90    0.21
  -2   8  -3    3.91    0.18
   2  -8   3    3.85    0.18
   2  -8   3    3.47    0.19
  -3   8  -3    0.36    0.09
   3  -8   3    0.49    0.09
   3  -8   3    0.35    0.07
  -4   8  -3    6.40    0.24
  -4   8  -3    6.87    0.27
   4  -8   3    6.73    0.25
   4  -8   3    7.01    0.25
   4  -8   3    6.84    0.26
  -5   8  -3    0.11    0.08
  -5   8  -3    0.10    0.08
   5  -8   3    0.14    0.07
   5  -8   3    0.04    0.07
   5  -8   3    0.12    0.07
  -6   8  -3    0.38    0.10
  -6   8  -3    0.39    0.09
   6  -8   3    0.49    0.08
   6  -8   3    0.37    0.08
  -7   8  -3    0.25    0.10
  -7   8  -3    0.34    0.11
   7  -8   3    0.43    0.09
   7  -8   3    0.49    0.08
  -8   8  -3   -0.03    0.11
   8  -8   3    0.04    0.08
   8  -8   3   -0.01    0.12
   8  -8   3    0.13    0.07
  -9   8  -3    0.69    0.14
   9  -8   3    0.40    0.15
   9  -8   3    0.60    0.09
   9  -8   3    0.41    0.11
 -10   8  -3    0.43    0.14
  10  -8   3    0.22    0.11
  10  -8   3    0.05    0.15
  10  -8   3    0.31    0.09
   6   7  -3    0.63    0.09
  -6  -7   3    0.63    0.13
   5   7  -3    6.62    0.27
   5   7  -3    6.34    0.23
  -5  -7   3    6.61    0.29
   4   7  -3    1.88    0.16
   4   7  -3    1.79    0.13
  -4  -7   3    1.95    0.17
   3   7  -3    5.72    0.23
   3   7  -3    5.39    0.21
   3   7  -3    5.13    0.20
  -3  -7   3    5.46    0.23
  -3  -7   3    5.33    0.23
   2   7  -3    0.16    0.08
   2   7  -3    0.04    0.07
   2   7  -3    0.06    0.06
  -2  -7   3    0.02    0.07
  -2  -7   3    0.10    0.08
   1   7  -3    2.86    0.16
   1   7  -3    2.81    0.14
   1   7  -3    2.29    0.12
  -1  -7   3    2.76    0.16
  -1  -7   3    2.70    0.17
   0   7  -3    1.24    0.09
   0   7  -3    1.24    0.11
   0   7  -3    1.23    0.13
   0  -7   3    1.21    0.13
   0  -7   3    1.14    0.11
  -1   7  -3    0.70    0.09
  -1   7  -3    0.80    0.08
   1  -7   3    0.63    0.08
   1  -7   3    0.56    0.07
  -2   7  -3    0.06    0.05
  -2   7  -3    0.06    0.07
   2  -7   3    0.04    0.05
   2  -7   3    0.04    0.06
  -3   7  -3    6.18    0.25
   3  -7   3    6.27    0.23
   3  -7   3    6.42    0.23
  -4   7  -3    2.22    0.13
  -4   7  -3    2.18    0.16
   4  -7   3    2.07    0.13
   4  -7   3    2.42    0.14
   4  -7   3    2.39    0.13
  -5   7  -3    2.12    0.13
  -5   7  -3    1.95    0.16
   5  -7   3    2.12    0.13
   5  -7   3    2.22    0.13
   5  -7   3    2.07    0.14
  -6   7  -3    0.04    0.07
  -6   7  -3    0.01    0.08
   6  -7   3   -0.05    0.05
   6  -7   3    0.07    0.06
  -7   7  -3    3.28    0.21
  -7   7  -3    3.04    0.18
   7  -7   3    3.51    0.17
   7  -7   3    3.44    0.16
  -8   7  -3    0.22    0.10
   8  -7   3    0.18    0.07
   8  -7   3    0.26    0.07
   8  -7   3    0.35    0.12
  -9   7  -3    0.77    0.13
   9  -7   3    0.91    0.14
   9  -7   3    1.08    0.11
   9  -7   3    1.13    0.12
 -10   7  -3    1.18    0.16
  10  -7   3    1.23    0.13
  10  -7   3    1.20    0.11
  10  -7   3    0.96    0.16
 -11   7  -3    1.63    0.18
  11  -7   3    1.45    0.13
  11  -7   3    1.00    0.18
   7   6  -3    3.39    0.17
   7   6  -3    3.24    0.23
  -7  -6   3    2.96    0.24
   6   6  -3    1.06    0.13
   6   6  -3    0.86    0.09
  -6  -6   3    1.01    0.13
   5   6  -3    3.30    0.18
   5   6  -3    3.26    0.15
  -5  -6   3    3.41    0.20
   4   6  -3    4.94    0.18
   4   6  -3    4.83    0.20
  -4  -6   3    4.58    0.25
  -4  -6   3    5.01    0.22
   3   6  -3    0.04    0.06
   3   6  -3    0.07    0.07
  -3  -6   3    0.00    0.06
  -3  -6   3   -0.08    0.09
   2   6  -3    2.82    0.13
   2   6  -3    2.70    0.13
   2   6  -3    2.86    0.15
  -2  -6   3    2.63    0.15
  -2  -6   3    2.90    0.16
   1   6  -3    0.18    0.05
   1   6  -3    0.15    0.06
   1   6  -3    0.12    0.05
  -1  -6   3    0.16    0.06
  -1  -6   3    0.10    0.05
   0   6  -3    0.02    0.05
   0   6  -3    0.08    0.05
   0   6  -3    0.16    0.04
   0  -6   3    0.03    0.04
   0  -6   3    0.05    0.05
  -1   6  -3    0.23    0.05
  -1   6  -3    0.20    0.06
  -1   6  -3    0.22    0.04
   1  -6   3    0.14    0.05
   1  -6   3    0.21    0.06
  -2   6  -3    3.24    0.14
  -2   6  -3    3.13    0.16
   2  -6   3    3.09    0.15
   2  -6   3    3.06    0.14
  -3   6  -3    0.02    0.05
   3  -6   3    0.14    0.05
   3  -6   3    0.08    0.05
  -4   6  -3   21.09    0.59
  -4   6  -3   20.76    0.55
   4  -6   3   20.43    0.56
   4  -6   3   20.82    0.56
   4  -6   3   20.87    0.56
  -5   6  -3   10.61    0.35
  -5   6  -3   10.73    0.31
   5  -6   3   10.65    0.32
   5  -6   3   10.49    0.31
   5  -6   3   10.65    0.32
  -6   6  -3    0.27    0.07
  -6   6  -3    0.44    0.08
   6  -6   3    0.48    0.07
   6  -6   3    0.39    0.06
  -7   6  -3    0.72    0.10
  -7   6  -3    0.77    0.11
   7  -6   3    0.64    0.07
   7  -6   3    0.73    0.07
  -8   6  -3   -0.01    0.08
  -8   6  -3    0.08    0.10
   8  -6   3    0.17    0.06
   8  -6   3    0.05    0.09
   8  -6   3    0.10    0.05
  -9   6  -3    4.01    0.23
   9  -6   3    4.54    0.25
   9  -6   3    4.48    0.17
   9  -6   3    3.93    0.18
 -10   6  -3    0.41    0.12
  10  -6   3    0.73    0.15
  10  -6   3    0.72    0.07
  10  -6   3    0.44    0.08
 -11   6  -3    1.30    0.16
  11  -6   3    1.06    0.11
  11  -6   3    1.19    0.17
   8   5  -3    0.11    0.12
  -8  -5   3    0.23    0.12
   7   5  -3    0.96    0.13
   7   5  -3    0.98    0.11
  -7  -5   3    1.12    0.13
   6   5  -3    1.08    0.10
   6   5  -3    0.83    0.11
  -6  -5   3    1.09    0.12
   5   5  -3    0.17    0.07
   5   5  -3    0.09    0.05
  -5  -5   3    0.09    0.07
   4   5  -3    0.96    0.11
   4   5  -3    0.88    0.08
  -4  -5   3    0.79    0.11
  -4  -5   3    0.92    0.10
   3   5  -3    0.05    0.05
   3   5  -3    0.00    0.06
   3   5  -3    0.04    0.04
  -3  -5   3    0.04    0.06
  -3  -5   3   -0.02    0.07
   2   5  -3    0.12    0.09
   2   5  -3    0.09    0.14
   2   5  -3    0.12    0.05
   2   5  -3    0.15    0.05
   2   5  -3    0.18    0.06
  -2  -5   3    0.21    0.07
  -2  -5   3    0.17    0.06
   1   5  -3   17.73    0.52
   1   5  -3   18.23    0.49
   1   5  -3   18.60    0.49
   1   5  -3   18.75    0.51
   1   5  -3   19.09    0.55
  -1  -5   3   18.44    0.50
  -1  -5   3   18.80    0.51
   0   5  -3    3.49    0.15
   0   5  -3    3.72    0.14
   0   5  -3    3.71    0.12
   0  -5   3    3.57    0.15
   0  -5   3    3.67    0.15
  -1   5  -3   16.57    0.47
  -1   5  -3   16.86    0.45
  -1   5  -3   17.12    0.43
   1  -5   3   16.47    0.46
   1  -5   3   17.45    0.46
  -2   5  -3    1.54    0.11
  -2   5  -3    1.74    0.10
  -2   5  -3    1.76    0.06
   2  -5   3    1.68    0.11
   2  -5   3    1.78    0.10
  -3   5  -3   59.15    1.53
   3  -5   3   59.55    1.47
   3  -5   3   60.52    1.49
  -4   5  -3   44.86    1.18
  -4   5  -3   44.97    1.13
   4  -5   3   46.31    1.14
   4  -5   3   44.04    1.10
   4  -5   3   45.91    1.13
   4  -5   3   46.08    1.14
  -5   5  -3   60.36    1.50
  -5   5  -3   62.04    1.57
   5  -5   3   61.35    1.51
   5  -5   3   60.66    1.50
   5  -5   3   59.77    1.46
   5  -5   3   59.79    1.50
   5  -5   3   61.29    1.50
  -6   5  -3   18.25    0.52
  -6   5  -3   17.86    0.48
   6  -5   3   18.00    0.44
   6  -5   3   17.68    0.49
   6  -5   3   17.68    0.48
   6  -5   3   18.03    0.48
  -7   5  -3    5.59    0.22
  -7   5  -3    5.34    0.20
   7  -5   3    5.23    0.19
   7  -5   3    5.23    0.18
   7  -5   3    5.61    0.23
  -8   5  -3    0.04    0.08
  -8   5  -3    0.14    0.07
   8  -5   3    0.06    0.05
   8  -5   3    0.07    0.05
   8  -5   3    0.20    0.08
  -9   5  -3    3.46    0.20
   9  -5   3    3.62    0.14
   9  -5   3    3.81    0.22
   9  -5   3    3.61    0.16
 -10   5  -3    4.20    0.24
  10  -5   3    4.44    0.19
  10  -5   3    4.37    0.26
  10  -5   3    4.66    0.16
 -11   5  -3    0.75    0.13
  11  -5   3    0.54    0.06
  11  -5   3    0.47    0.14
 -12   5  -3    2.59    0.21
 -12   5  -3    2.97    0.25
  12  -5   3    2.89    0.30
   8   4  -3    0.63    0.12
  -8  -4   3    0.52    0.12
   7   4  -3    0.49    0.06
   7   4  -3    0.58    0.10
  -7  -4   3    0.47    0.10
   6   4  -3    0.47    0.06
   6   4  -3    0.50    0.09
  -6  -4   3    0.53    0.09
   5   4  -3    0.16    0.05
   5   4  -3    0.15    0.06
  -5  -4   3    0.29    0.09
  -5  -4   3    0.10    0.07
   4   4  -3    0.07    0.04
   4   4  -3    0.15    0.05
   4   4  -3    0.10    0.12
  -4  -4   3    0.12    0.07
  -4  -4   3    0.04    0.06
   3   4  -3    2.47    0.13
   3   4  -3    2.62    0.21
   3   4  -3    2.66    0.11
   3   4  -3    2.48    0.12
  -3  -4   3    2.51    0.13
  -3  -4   3    2.45    0.13
   2   4  -3   -0.01    0.04
   2   4  -3    0.06    0.06
   2   4  -3   -0.09    0.05
   2   4  -3   -0.10    0.09
  -2  -4   3   -0.05    0.04
  -2  -4   3    0.00    0.05
   1   4  -3    0.46    0.07
   1   4  -3    0.58    0.07
   1   4  -3    0.49    0.06
   1   4  -3    0.65    0.10
   1   4  -3    0.43    0.06
  -1  -4   3    0.43    0.06
  -1  -4   3    0.48    0.07
   0   4  -3  101.92    2.54
   0   4  -3  109.56    2.56
   0   4  -3   91.27    2.59
   0   4  -3  107.49    2.52
   0   4  -3  105.18    2.58
   0  -4   3  105.23    2.51
   0  -4   3  104.80    2.53
  -1   4  -3    7.86    0.21
  -1   4  -3    7.78    0.23
  -1   4  -3    7.81    0.26
  -1   4  -3    8.31    0.25
   1  -4   3    7.87    0.24
   1  -4   3    7.69    0.24
  -2   4  -3   72.19    1.81
  -2   4  -3   72.63    1.77
   2  -4   3   70.17    1.75
   2  -4   3   71.75    1.76
  -3   4  -3   19.32    0.50
   3  -4   3   18.66    0.51
   3  -4   3   19.45    0.48
   3  -4   3   19.84    0.51
   3  -4   3   19.63    0.50
  -4   4  -3   65.99    1.69
  -4   4  -3   65.76    1.62
   4  -4   3   67.04    1.62
   4  -4   3   66.45    1.58
   4  -4   3   67.33    1.62
   4  -4   3   65.67    1.63
   4  -4   3   65.48    1.63
  -5   4  -3    2.09    0.08
  -5   4  -3    2.18    0.11
   5  -4   3    2.17    0.08
   5  -4   3    2.04    0.10
   5  -4   3    2.10    0.12
   5  -4   3    2.04    0.10
  -6   4  -3    2.93    0.12
  -6   4  -3    2.86    0.11
   6  -4   3    2.84    0.12
   6  -4   3    2.92    0.12
   6  -4   3    3.03    0.14
  -7   4  -3    0.07    0.07
  -7   4  -3    0.04    0.06
  -7   4  -3    0.07    0.06
   7  -4   3    0.01    0.04
   7  -4   3    0.01    0.04
   7  -4   3    0.13    0.07
   7  -4   3    0.00    0.07
  -8   4  -3    0.08    0.07
  -8   4  -3    0.00    0.06
   8  -4   3    0.10    0.07
   8  -4   3    0.06    0.08
   8  -4   3    0.02    0.04
   8  -4   3    0.00    0.04
  -9   4  -3   -0.04    0.07
   9  -4   3    0.01    0.04
   9  -4   3    0.05    0.08
   9  -4   3   -0.01    0.05
 -10   4  -3    1.04    0.12
  10  -4   3    1.13    0.08
  10  -4   3    0.93    0.13
 -11   4  -3    7.27    0.30
  11  -4   3    6.81    0.32
 -12   4  -3   -0.08    0.12
 -12   4  -3    0.32    0.12
  12  -4   3    0.03    0.14
   9   3  -3    1.39    0.15
  -9  -3   3    1.35    0.15
   8   3  -3    0.35    0.11
  -8  -3   3    0.48    0.10
   7   3  -3    0.14    0.08
  -7  -3   3    0.22    0.08
   6   3  -3   -0.03    0.06
   6   3  -3    0.07    0.10
   6   3  -3   -0.03    0.04
  -6  -3   3    0.01    0.06
   5   3  -3    6.28    0.18
   5   3  -3    5.90    0.21
  -5  -3   3    5.92    0.20
  -5  -3   3    6.16    0.21
   4   3  -3    0.06    0.09
   4   3  -3    0.14    0.04
   4   3  -3    0.13    0.05
  -4  -3   3    0.10    0.05
  -4  -3   3    0.08    0.08
  -4  -3   3    0.09    0.06
   3   3  -3   45.90    1.18
   3   3  -3   47.01    1.14
   3   3  -3   48.11    1.17
  -3  -3   3   45.89    1.15
  -3  -3   3   44.64    1.18
  -3  -3   3   46.68    1.15
   2   3  -3    0.67    0.08
   2   3  -3    0.59    0.06
   2   3  -3    0.56    0.06
   2   3  -3    0.68    0.06
  -2  -3   3    0.54    0.06
  -2  -3   3    0.62    0.07
  -2  -3   3    0.58    0.07
   1   3  -3  188.67    4.70
   1   3  -3  193.62    4.65
   1   3  -3  184.79    4.56
   1   3  -3  193.07    4.67
   1   3  -3  197.93    4.58
  -1  -3   3  184.63    4.57
  -1  -3   3  185.51    4.69
  -1  -3   3  186.22    4.54
   0   3  -3    7.42    0.21
   0   3  -3    7.02    0.23
   0   3  -3    7.42    0.23
   0   3  -3    7.34    0.20
   0   3  -3    7.54    0.22
   0  -3   3    7.34    0.22
   0  -3   3    7.25    0.22
  -1   3  -3  192.94    4.61
  -1   3  -3  194.55    4.68
  -1   3  -3  188.74    4.71
  -1   3  -3  187.90    4.59
   1  -3   3  183.89    4.58
   1  -3   3  191.04    4.55
  -2   3  -3   62.05    1.59
  -2   3  -3   63.62    1.63
  -2   3  -3   65.16    1.58
   2  -3   3   64.02    1.57
   2  -3   3   65.74    1.55
   2  -3   3   66.01    1.58
   2  -3   3   65.58    1.58
  -3   3  -3    0.01    0.03
  -3   3  -3    0.05    0.03
   3  -3   3    0.04    0.03
   3  -3   3    0.02    0.03
   3  -3   3    0.00    0.02
   3  -3   3    0.02    0.04
   3  -3   3    0.05    0.03
  -4   3  -3    0.97    0.07
  -4   3  -3    0.82    0.08
   4  -3   3    0.93    0.05
   4  -3   3    0.92    0.08
   4  -3   3    0.91    0.06
   4  -3   3    0.87    0.07
   4  -3   3    0.92    0.07
  -5   3  -3    1.04    0.07
  -5   3  -3    1.17    0.06
   5  -3   3    1.15    0.09
   5  -3   3    1.11    0.08
   5  -3   3    1.20    0.07
  -6   3  -3    6.19    0.21
  -6   3  -3    6.04    0.19
  -6   3  -3    6.22    0.19
   6  -3   3    6.50    0.19
   6  -3   3    6.28    0.19
   6  -3   3    6.13    0.19
  -7   3  -3    0.12    0.05
  -7   3  -3    0.09    0.05
   7  -3   3    0.06    0.04
   7  -3   3    0.13    0.06
   7  -3   3    0.10    0.03
   7  -3   3    0.13    0.05
  -8   3  -3    0.01    0.06
  -8   3  -3   -0.08    0.06
   8  -3   3    0.00    0.03
   8  -3   3    0.02    0.06
   8  -3   3    0.02    0.04
   8  -3   3    0.02    0.06
  -9   3  -3    0.25    0.09
  -9   3  -3    0.23    0.08
   9  -3   3    0.31    0.06
   9  -3   3    0.19    0.08
   9  -3   3    0.30    0.04
 -10   3  -3    1.06    0.11
  10  -3   3    1.01    0.12
  10  -3   3    1.09    0.07
 -11   3  -3    2.33    0.18
 -11   3  -3    1.58    0.18
  11  -3   3    1.78    0.21
 -12   3  -3    6.65    0.30
 -12   3  -3    6.38    0.29
  12  -3   3    6.73    0.34
   9   2  -3    1.65    0.19
  -9  -2   3    1.53    0.15
   8   2  -3    1.57    0.15
  -8  -2   3    1.29    0.15
   7   2  -3    1.75    0.14
  -7  -2   3    1.57    0.13
   6   2  -3    0.98    0.11
   6   2  -3    0.91    0.09
  -6  -2   3    0.93    0.10
   5   2  -3   29.96    0.72
   5   2  -3   29.16    0.74
   5   2  -3   28.95    0.77
  -5  -2   3   28.33    0.75
  -5  -2   3   29.66    0.74
  -5  -2   3   27.51    0.72
   4   2  -3   37.75    0.97
   4   2  -3   38.29    0.93
  -4  -2   3   36.39    0.97
  -4  -2   3   38.71    0.95
  -4  -2   3   37.90    0.93
   3   2  -3    0.64    0.06
   3   2  -3    0.79    0.07
   3   2  -3    0.75    0.08
  -3  -2   3    0.68    0.08
  -3  -2   3    0.65    0.07
  -3  -2   3    0.76    0.07
   2   2  -3   64.95    1.59
   2   2  -3   61.88    1.60
   2   2  -3   64.64    1.55
   2   2  -3   64.76    1.56
  -2  -2   3   62.90    1.60
  -2  -2   3   62.94    1.55
  -2  -2   3   63.73    1.55
   1   2  -3   15.62    0.39
   1   2  -3   15.68    0.41
   1   2  -3   15.37    0.40
   1   2  -3   15.60    0.40
   1   2  -3   14.89    0.42
   1   2  -3   14.82    0.40
  -1  -2   3   15.91    0.42
  -1  -2   3   15.44    0.40
  -1  -2   3   15.49    0.40
   0   2  -3  291.79    7.05
   0   2  -3  282.05    7.04
   0   2  -3  280.26    6.80
   0   2  -3  291.68    6.85
   0   2  -3  290.02    6.92
   0  -2   3  281.95    7.04
   0  -2   3  273.22    6.84
   0  -2   3  287.10    6.87
   0  -2   3  286.42    6.87
  -1   2  -3    1.97    0.08
  -1   2  -3    2.06    0.09
  -1   2  -3    2.11    0.08
  -1   2  -3    2.12    0.09
   1  -2   3    2.00    0.09
   1  -2   3    2.04    0.08
   1  -2   3    2.11    0.09
   1  -2   3    1.93    0.08
  -2   2  -3   28.16    0.73
  -2   2  -3   28.47    0.71
  -2   2  -3   29.55    0.71
  -2   2  -3   28.68    0.72
   2  -2   3   28.78    0.71
   2  -2   3   28.11    0.71
   2  -2   3   27.44    0.73
   2  -2   3   28.24    0.71
  -3   2  -3   68.79    1.65
  -3   2  -3   68.26    1.64
  -3   2  -3   68.40    1.66
  -3   2  -3   68.98    1.71
   3  -2   3   66.75    1.64
   3  -2   3   69.97    1.65
   3  -2   3   67.34    1.66
   3  -2   3   65.56    1.70
   3  -2   3   66.63    1.65
  -4   2  -3    2.58    0.09
  -4   2  -3    2.46    0.11
   4  -2   3    2.52    0.10
   4  -2   3    2.67    0.07
   4  -2   3    2.51    0.09
   4  -2   3    2.69    0.10
  -5   2  -3    0.51    0.05
  -5   2  -3    0.44    0.04
  -5   2  -3    0.49    0.05
   5  -2   3    0.49    0.05
   5  -2   3    0.50    0.05
   5  -2   3    0.54    0.05
  -6   2  -3    1.67    0.08
  -6   2  -3    1.53    0.10
  -6   2  -3    1.66    0.08
   6  -2   3    1.52    0.07
   6  -2   3    1.45    0.10
   6  -2   3    1.62    0.09
   6  -2   3    1.58    0.08
  -7   2  -3    9.97    0.30
  -7   2  -3    9.95    0.28
   7  -2   3   10.24    0.31
   7  -2   3   10.07    0.27
   7  -2   3   10.25    0.28
   7  -2   3   10.01    0.27
  -8   2  -3    0.17    0.06
  -8   2  -3    0.18    0.06
   8  -2   3    0.16    0.07
   8  -2   3    0.12    0.03
   8  -2   3    0.02    0.04
   8  -2   3    0.17    0.05
  -9   2  -3    6.22    0.22
  -9   2  -3    5.87    0.21
   9  -2   3    6.06    0.24
   9  -2   3    6.22    0.17
   9  -2   3    5.87    0.18
 -10   2  -3    0.64    0.09
 -10   2  -3    0.60    0.09
  10  -2   3    0.43    0.10
 -11   2  -3    4.25    0.21
 -11   2  -3    4.39    0.21
  11  -2   3    4.08    0.24
 -12   2  -3    0.10    0.10
 -12   2  -3    0.09    0.11
  12  -2   3   -0.03    0.13
 -13   2  -3    1.54    0.18
  13  -2   3    1.37    0.20
  10   1  -3    0.02    0.11
   9   1  -3   -0.05    0.09
  -9  -1   3   -0.03    0.09
   8   1  -3    0.07    0.08
  -8  -1   3   -0.11    0.07
   7   1  -3    0.01    0.06
  -7  -1   3    0.02    0.06
  -6  -1   3    5.02    0.18
   5   1  -3    6.29    0.21
   5   1  -3    6.34    0.19
  -5  -1   3    6.08    0.17
  -5  -1   3    6.11    0.22
  -5  -1   3    5.62    0.19
   4   1  -3    0.03    0.03
   4   1  -3    0.03    0.04
   4   1  -3    0.09    0.05
  -4  -1   3   -0.01    0.06
  -4  -1   3    0.01    0.04
  -4  -1   3   -0.02    0.03
   3   1  -3   86.14    2.02
   3   1  -3   85.55    2.02
   3   1  -3   72.33    2.08
  -3  -1   3   85.74    2.02
  -3  -1   3   84.21    2.09
  -3  -1   3   87.39    2.02
   2   1  -3    4.59    0.14
   2   1  -3    4.31    0.13
   2   1  -3    4.33    0.14
   2   1  -3    4.23    0.14
  -2  -1   3    4.44    0.14
  -2  -1   3    4.45    0.15
  -2  -1   3    4.52    0.13
   1   1  -3    8.10    0.22
   1   1  -3    8.60    0.23
   1   1  -3    8.19    0.24
   1   1  -3    8.51    0.23
   1   1  -3    8.18    0.23
  -1  -1   3    8.32    0.22
  -1  -1   3    8.17    0.22
  -1  -1   3    7.99    0.22
  -1  -1   3    8.41    0.24
   0   1  -3    8.86    0.23
   0   1  -3    8.69    0.23
   0   1  -3    8.66    0.23
   0   1  -3    8.66    0.24
   0   1  -3    8.74    0.25
   0  -1   3    8.83    0.23
   0  -1   3    8.72    0.23
   0  -1   3    8.71    0.24
   0  -1   3    8.71    0.23
  -1   1  -3    1.95    0.08
  -1   1  -3    1.92    0.07
  -1   1  -3    2.04    0.08
  -1   1  -3    2.00    0.08
   1  -1   3    1.95    0.07
   1  -1   3    2.01    0.07
   1  -1   3    1.92    0.08
   1  -1   3    1.90    0.07
  -2   1  -3    0.74    0.05
  -2   1  -3    0.66    0.04
  -2   1  -3    0.74    0.05
   2  -1   3    0.68    0.04
   2  -1   3    0.67    0.05
  -3   1  -3   20.96    0.52
  -3   1  -3   20.84    0.53
  -3   1  -3   21.10    0.52
  -3   1  -3   20.35    0.54
   3  -1   3   21.37    0.52
   3  -1   3   20.79    0.52
   3  -1   3   21.04    0.54
   3  -1   3   20.53    0.52
  -4   1  -3  112.30    2.75
  -4   1  -3  112.57    2.74
  -4   1  -3  113.47    2.84
  -4   1  -3  115.48    2.75
  -4   1  -3  112.36    2.76
   4  -1   3  113.39    2.76
   4  -1   3  113.92    2.75
   4  -1   3  113.29    2.84
   4  -1   3  119.28    2.75
  -5   1  -3    0.03    0.03
  -5   1  -3    0.07    0.03
  -5   1  -3    0.01    0.03
   5  -1   3    0.07    0.04
   5  -1   3    0.04    0.02
   5  -1   3    0.03    0.02
  -6   1  -3   31.50    0.83
  -6   1  -3   32.50    0.80
   6  -1   3   32.19    0.79
   6  -1   3   31.70    0.82
   6  -1   3   32.69    0.79
  -7   1  -3    2.00    0.10
  -7   1  -3    2.19    0.11
   7  -1   3    2.22    0.10
   7  -1   3    1.97    0.08
   7  -1   3    1.53    0.12
  -8   1  -3   17.80    0.46
  -8   1  -3   18.38    0.49
  -8   1  -3   17.30    0.50
   8  -1   3   18.24    0.45
   8  -1   3   17.89    0.50
   8  -1   3   17.61    0.45
  -9   1  -3   10.40    0.31
  -9   1  -3   10.48    0.32
  -9   1  -3    9.68    0.30
   9  -1   3   10.56    0.27
   9  -1   3   10.31    0.27
   9  -1   3   10.34    0.33
 -10   1  -3    4.98    0.21
 -10   1  -3    5.41    0.20
  10  -1   3    5.48    0.23
 -11   1  -3    0.07    0.08
 -11   1  -3    0.10    0.08
  11  -1   3    0.10    0.10
 -12   1  -3    1.80    0.19
  12  -1   3    2.07    0.24
 -13   1  -3    0.41    0.15
  13  -1   3    0.45    0.17
  10   0  -3    1.20    0.15
 -10   0   3    1.03    0.12
   9   0  -3    0.17    0.09
  -9   0   3    0.12    0.09
   8   0  -3    0.78    0.09
  -8   0   3    0.89    0.09
  -8   0   3    0.70    0.10
   7   0  -3    3.81    0.17
  -7   0   3    3.59    0.15
   6   0  -3   17.69    0.50
  -6   0   3   18.35    0.47
   5   0  -3    0.01    0.04
  -5   0   3   -0.01    0.08
  -5   0   3    0.00    0.04
   4   0  -3   71.61    2.03
   4   0  -3   87.22    2.11
  -4   0   3   84.86    2.12
  -4   0   3   89.23    2.04
  -4   0   3   89.65    2.03
   3   0  -3   14.83    0.37
   3   0  -3   15.03    0.38
   3   0  -3   14.96    0.40
  -3   0   3   14.90    0.37
  -3   0   3   14.41    0.40
  -3   0   3   14.91    0.38
  -3   0   3   14.61    0.37
   2   0  -3   22.38    0.56
   2   0  -3   22.28    0.58
   2   0  -3   22.79    0.55
  -2   0   3   22.48    0.55
  -2   0   3   22.92    0.55
  -2   0   3   22.04    0.55
  -2   0   3   22.52    0.59
   1   0  -3   13.81    0.36
   1   0  -3   13.54    0.35
   1   0  -3   13.97    0.35
   1   0  -3   13.93    0.35
  -1   0   3   14.25    0.35
  -1   0   3   13.56    0.37
  -1   0   3   13.70    0.37
  -1   0   3   13.89    0.35
   0   0  -3   11.10    0.28
   0   0  -3   11.07    0.28
   0   0  -3   10.98    0.28
   0   0  -3   11.39    0.28
   0   0  -3   10.64    0.30
   0   0   3   10.81    0.30
   0   0   3   10.73    0.28
   0   0   3   10.73    0.28
   0   0   3   10.98    0.28
  -1   0  -3    0.38    0.03
  -1   0  -3    0.34    0.03
  -1   0  -3    0.37    0.03
  -1   0  -3    0.39    0.03
  -1   0  -3    0.37    0.04
   1   0   3    0.39    0.04
   1   0   3    0.29    0.03
   1   0   3    0.32    0.03
   1   0   3    0.29    0.03
   1   0   3    0.34    0.03
  -2   0  -3   55.20    1.36
  -2   0  -3   54.51    1.38
  -2   0  -3   55.54    1.32
  -2   0  -3   55.46    1.34
  -2   0  -3   53.98    1.33
  -2   0  -3   54.57    1.33
   2   0   3   55.89    1.33
   2   0   3   56.22    1.38
   2   0   3   53.92    1.33
   2   0   3   54.11    1.33
  -3   0  -3  175.36    4.21
  -3   0  -3  178.93    4.20
  -3   0  -3  169.79    4.33
  -3   0  -3  177.45    4.24
   3   0   3  175.85    4.15
   3   0   3  168.71    4.24
   3   0   3  173.71    4.24
   3   0   3  175.32    4.33
   3   0   3  179.04    4.21
  -4   0  -3    0.26    0.03
  -4   0  -3    0.13    0.02
  -4   0  -3    0.18    0.03
  -4   0  -3    0.14    0.03
  -4   0  -3    0.18    0.02
   4   0   3    0.15    0.03
   4   0   3    0.15    0.02
   4   0   3    0.17    0.03
  -5   0  -3   14.36    0.38
  -5   0  -3   15.14    0.40
  -5   0  -3   15.06    0.41
  -5   0  -3   14.00    0.40
  -5   0  -3   15.65    0.39
   5   0   3   15.15    0.39
   5   0   3   15.83    0.38
   5   0   3   15.47    0.38
   5   0   3   15.25    0.40
   5   0   3   15.43    0.40
  -6   0  -3    0.88    0.07
  -6   0  -3    0.94    0.07
  -6   0  -3    0.87    0.07
   6   0   3    0.93    0.07
   6   0   3    1.09    0.07
   6   0   3    0.78    0.05
   6   0   3    0.85    0.08
   6   0   3    0.78    0.06
  -7   0  -3   47.77    1.24
  -7   0  -3   49.16    1.25
  -7   0  -3   49.57    1.20
   7   0   3   49.05    1.23
   7   0   3   48.90    1.19
  -8   0  -3    7.73    0.26
  -8   0  -3    7.85    0.25
  -8   0  -3    7.58    0.24
   8   0   3    8.37    0.26
   8   0   3    8.05    0.22
   8   0   3    8.08    0.21
  -9   0  -3    3.31    0.15
  -9   0  -3    3.60    0.17
  -9   0  -3    3.85    0.16
   9   0   3    3.59    0.17
   9   0   3    3.65    0.11
 -10   0  -3    0.65    0.08
 -10   0  -3    0.59    0.09
  10   0   3    0.92    0.11
 -11   0  -3    2.15    0.17
 -11   0  -3    1.91    0.17
  11   0   3    2.15    0.20
 -12   0  -3    1.68    0.20
  12   0   3    1.80    0.17
 -13   0  -3    0.46    0.15
 -13   0  -3    0.37    0.12
  13   0   3    0.29    0.17
  10  -1  -3    0.01    0.11
 -10   1   3   -0.13    0.08
   9  -1  -3    0.15    0.09
  -9   1   3    0.07    0.07
  -9   1   3    0.17    0.09
   8  -1  -3    0.58    0.09
  -8   1   3    0.75    0.08
  -8   1   3    0.64    0.07
  -8   1   3    0.54    0.08
   7  -1  -3    0.11    0.09
   7  -1  -3    0.06    0.06
  -7   1   3    0.15    0.06
  -7   1   3    0.14    0.06
   6  -1  -3    0.19    0.05
   6  -1  -3    0.32    0.08
  -6   1   3    0.32    0.05
  -6   1   3    0.33    0.05
  -6   1   3    0.34    0.08
   5  -1  -3   26.95    0.73
   5  -1  -3   27.39    0.75
  -5   1   3   27.88    0.71
  -5   1   3   27.98    0.69
  -5   1   3   28.49    0.70
   4  -1  -3    3.03    0.14
   4  -1  -3    2.88    0.12
  -4   1   3    2.97    0.10
   3  -1  -3   57.45    1.36
   3  -1  -3   56.77    1.41
   3  -1  -3   55.71    1.36
  -3   1   3   56.54    1.36
  -3   1   3   57.22    1.36
  -3   1   3   54.54    1.36
   2  -1  -3    1.17    0.05
   2  -1  -3    1.13    0.07
   2  -1  -3    1.27    0.05
   2  -1  -3    1.14    0.06
  -2   1   3    1.25    0.05
  -2   1   3    0.98    0.06
  -2   1   3    1.15    0.05
  -2   1   3    1.20    0.05
   1  -1  -3   10.99    0.29
   1  -1  -3   10.99    0.30
   1  -1  -3   11.52    0.28
   1  -1  -3   10.97    0.29
   1  -1  -3   11.53    0.28
  -1   1   3   11.21    0.30
  -1   1   3   11.30    0.28
  -1   1   3   11.35    0.28
  -1   1   3   11.20    0.31
  -1   1   3   11.23    0.28
   0  -1  -3   53.46    1.26
   0  -1  -3   52.10    1.28
   0  -1  -3   51.23    1.30
   0  -1  -3   53.07    1.27
   0   1   3   53.03    1.27
   0   1   3   54.34    1.30
   0   1   3   53.23    1.30
   0   1   3   53.04    1.32
   0   1   3   52.16    1.27
   0   1   3   50.95    1.27
   0   1   3   51.85    1.26
  -1  -1  -3   82.54    1.95
  -1  -1  -3   78.30    2.01
  -1  -1  -3   79.31    1.99
  -1  -1  -3   83.74    1.93
  -1  -1  -3   78.86    1.95
  -1  -1  -3   81.54    1.95
   1   1   3   80.94    2.01
   1   1   3   80.71    1.95
   1   1   3   78.64    1.95
   1   1   3   81.81    1.92
   1   1   3   83.73    1.99
   1   1   3   79.55    1.96
  -2  -1  -3   43.69    1.06
  -2  -1  -3   43.31    1.04
  -2  -1  -3   42.55    1.06
  -2  -1  -3   43.47    1.06
  -2  -1  -3   43.03    1.08
   2   1   3   42.79    1.06
   2   1   3   44.09    1.04
   2   1   3   43.93    1.09
   2   1   3   42.47    1.05
   2   1   3   44.46    1.08
   2   1   3   43.57    1.06
  -3  -1  -3   13.22    0.36
  -3  -1  -3   13.12    0.35
  -3  -1  -3   13.50    0.34
  -3  -1  -3   13.49    0.34
  -3  -1  -3   14.01    0.33
  -3  -1  -3   13.59    0.35
   3   1   3   13.33    0.35
   3   1   3   13.34    0.34
   3   1   3   13.66    0.34
   3   1   3   13.79    0.34
   3   1   3   13.68    0.33
  -4  -1  -3   15.20    0.36
  -4  -1  -3   14.76    0.39
  -4  -1  -3   14.59    0.38
  -4  -1  -3   14.39    0.39
  -4  -1  -3   14.51    0.37
  -4  -1  -3   15.06    0.38
   4   1   3   15.00    0.39
   4   1   3   14.83    0.36
   4   1   3   14.64    0.37
   4   1   3   14.75    0.38
   4   1   3   14.73    0.37
   4   1   3   14.51    0.37
  -5  -1  -3    3.70    0.10
  -5  -1  -3    3.53    0.13
  -5  -1  -3    3.75    0.12
  -5  -1  -3    3.56    0.11
  -5  -1  -3    3.65    0.12
   5   1   3    3.73    0.11
   5   1   3    3.75    0.12
   5   1   3    3.67    0.12
   5   1   3    3.91    0.11
  -6  -1  -3  224.19    5.52
  -6  -1  -3  226.82    5.67
  -6  -1  -3  230.41    5.44
   6   1   3  234.59    5.55
   6   1   3  235.08    5.52
   6   1   3  227.61    5.67
   6   1   3  228.82    5.62
  -7  -1  -3   16.55    0.43
  -7  -1  -3   16.51    0.44
  -7  -1  -3   16.73    0.46
  -7  -1  -3   17.00    0.41
   7   1   3   16.15    0.42
   7   1   3   16.57    0.45
  -8  -1  -3   89.18    2.22
  -8  -1  -3   87.66    2.17
  -8  -1  -3   88.65    2.12
  -8  -1  -3   88.96    2.24
   8   1   3   89.24    2.15
   8   1   3   92.26    2.22
   8   1   3   89.01    2.16
  -9  -1  -3    3.30    0.13
  -9  -1  -3    3.52    0.14
  -9  -1  -3    3.83    0.17
   9   1   3    3.36    0.17
 -10  -1  -3    2.67    0.16
 -10  -1  -3    2.64    0.14
  10   1   3    2.82    0.17
 -11  -1  -3   -0.02    0.08
  11   1   3    0.18    0.10
 -12  -1  -3    1.65    0.16
 -12  -1  -3    1.91    0.17
  12   1   3    1.76    0.18
 -13  -1  -3    0.98    0.17
 -13  -1  -3    0.80    0.13
  13   1   3    1.11    0.20
  10  -2  -3    4.71    0.26
 -10   2   3    4.67    0.21
   9  -2  -3    1.14    0.12
   9  -2  -3    0.95    0.16
  -9   2   3    1.07    0.12
  -9   2   3    1.14    0.11
   8  -2  -3    3.00    0.22
   8  -2  -3    3.14    0.17
  -8   2   3    3.37    0.16
  -8   2   3    3.05    0.14
  -8   2   3    3.19    0.15
  -8   2   3    3.06    0.15
   7  -2  -3   -0.04    0.05
   7  -2  -3    0.05    0.08
  -7   2   3    0.05    0.06
  -7   2   3    0.06    0.05
  -7   2   3    0.10    0.05
   6  -2  -3    0.39    0.06
   6  -2  -3    0.22    0.07
  -6   2   3    0.48    0.11
  -6   2   3    0.50    0.05
  -6   2   3    0.40    0.05
  -6   2   3    0.48    0.06
   5  -2  -3    0.76    0.08
   5  -2  -3    0.66    0.08
  -5   2   3    0.84    0.06
  -5   2   3    0.72    0.08
  -5   2   3    0.80    0.07
  -5   2   3    0.86    0.06
   4  -2  -3   42.26    1.23
   4  -2  -3   49.97    1.25
  -4   2   3   51.22    1.23
  -4   2   3   51.72    1.19
   3  -2  -3    3.91    0.14
   3  -2  -3    3.98    0.11
   3  -2  -3    4.09    0.12
   3  -2  -3    3.95    0.13
  -3   2   3    4.00    0.13
  -3   2   3    3.74    0.12
  -3   2   3    3.68    0.11
  -3   2   3    4.01    0.11
   2  -2  -3    0.82    0.06
   2  -2  -3    0.80    0.05
   2  -2  -3    0.76    0.05
  -2   2   3    0.86    0.06
  -2   2   3    0.78    0.04
  -2   2   3    0.78    0.04
  -2   2   3    0.71    0.05
  -2   2   3    0.97    0.05
   1  -2  -3   16.00    0.42
   1  -2  -3   15.56    0.42
   1  -2  -3   16.26    0.40
   1  -2  -3   15.82    0.41
  -1   2   3   16.27    0.40
  -1   2   3   16.80    0.42
  -1   2   3   16.29    0.40
  -1   2   3   16.27    0.40
  -1   2   3   16.63    0.40
  -1   2   3   16.46    0.42
   0  -2  -3  418.58   10.47
   0  -2  -3  414.50   10.10
   0  -2  -3  421.39   10.44
   0  -2  -3  429.42   10.26
   0  -2  -3  421.64   10.23
   0  -2  -3  425.09   10.22
   0   2   3  430.96   10.44
   0   2   3  410.55   10.23
   0   2   3  439.58   10.42
   0   2   3  427.06   10.21
   0   2   3  422.92   10.12
   0   2   3  433.34   10.23
  -1  -2  -3    0.78    0.05
  -1  -2  -3    0.72    0.03
  -1  -2  -3    0.72    0.05
  -1  -2  -3    0.73    0.03
   1   2   3    0.73    0.04
   1   2   3    0.71    0.03
   1   2   3    0.75    0.04
   1   2   3    0.72    0.04
   1   2   3    0.80    0.04
   1   2   3    0.76    0.04
  -2  -2  -3   20.07    0.49
  -2  -2  -3   19.43    0.52
  -2  -2  -3   19.30    0.51
  -2  -2  -3   20.77    0.50
  -2  -2  -3   20.55    0.50
   2   2   3   20.04    0.50
   2   2   3   19.33    0.50
   2   2   3   20.55    0.52
   2   2   3   19.81    0.49
   2   2   3   20.45    0.50
  -3  -2  -3  255.62    6.20
  -3  -2  -3  257.72    6.19
  -3  -2  -3  247.46    6.36
  -3  -2  -3  267.15    6.19
  -3  -2  -3  261.76    6.10
   3   2   3  248.94    6.20
   3   2   3  265.37    6.19
   3   2   3  249.33    6.11
   3   2   3  254.90    6.26
   3   2   3  253.54    6.29
   3   2   3  256.49    6.34
  -4  -2  -3   10.35    0.28
  -4  -2  -3   10.72    0.27
  -4  -2  -3   10.36    0.29
  -4  -2  -3   10.51    0.28
  -4  -2  -3   10.55    0.26
  -4  -2  -3   10.57    0.28
   4   2   3   10.19    0.26
   4   2   3   10.72    0.29
   4   2   3   10.60    0.28
   4   2   3   10.95    0.27
   4   2   3   10.51    0.27
   4   2   3   10.38    0.28
  -5  -2  -3    1.26    0.08
  -5  -2  -3    1.21    0.05
  -5  -2  -3    1.29    0.07
  -5  -2  -3    1.27    0.06
  -5  -2  -3    1.22    0.05
   5   2   3    1.20    0.06
   5   2   3    1.23    0.05
   5   2   3    1.18    0.05
  -6  -2  -3    9.95    0.25
  -6  -2  -3    9.94    0.28
  -6  -2  -3    9.71    0.26
   6   2   3   10.05    0.26
   6   2   3    9.63    0.26
   6   2   3    9.93    0.27
   6   2   3    9.68    0.26
  -7  -2  -3   73.40    1.79
  -7  -2  -3   72.68    1.82
  -7  -2  -3   73.96    1.85
  -7  -2  -3   73.17    1.75
   7   2   3   73.14    1.77
   7   2   3   73.57    1.82
  -8  -2  -3    2.62    0.12
  -8  -2  -3    2.47    0.14
  -8  -2  -3    2.77    0.15
   8   2   3    2.57    0.13
   8   2   3    2.81    0.09
   8   2   3    2.79    0.11
  -9  -2  -3   14.82    0.42
  -9  -2  -3   15.53    0.45
   9   2   3   15.37    0.39
   9   2   3   15.78    0.44
   9   2   3   15.12    0.39
 -10  -2  -3   -0.06    0.07
  10   2   3   -0.03    0.08
 -11  -2  -3    0.68    0.12
 -11  -2  -3    0.68    0.10
  11   2   3    0.56    0.12
 -12  -2  -3    0.03    0.12
 -12  -2  -3    0.07    0.09
 -13  -2  -3    1.16    0.18
 -13  -2  -3    0.81    0.14
  10  -3  -3    0.45    0.12
  10  -3  -3    0.61    0.16
 -10   3   3    0.36    0.09
 -10   3   3    0.19    0.12
   9  -3  -3    4.57    0.21
   9  -3  -3    4.83    0.29
  -9   3   3    4.18    0.21
  -9   3   3    4.50    0.18
  -9   3   3    4.24    0.19
   8  -3  -3    0.36    0.11
   8  -3  -3    0.58    0.09
  -8   3   3    0.46    0.08
  -8   3   3    0.38    0.06
  -8   3   3    0.42    0.07
   7  -3  -3    0.55    0.10
   7  -3  -3    0.58    0.07
  -7   3   3    0.55    0.06
   6  -3  -3    5.19    0.21
   6  -3  -3    5.16    0.18
  -6   3   3    5.35    0.17
  -6   3   3    5.12    0.15
   5  -3  -3    0.22    0.05
   5  -3  -3    0.20    0.06
  -5   3   3    0.21    0.03
  -5   3   3    0.19    0.09
  -5   3   3    0.26    0.04
   4  -3  -3   39.83    1.04
   4  -3  -3   41.56    1.03
  -4   3   3   40.90    0.99
  -4   3   3   39.84    1.03
   3  -3  -3   42.12    1.06
   3  -3  -3   42.93    1.02
   3  -3  -3   42.87    1.07
   3  -3  -3   42.38    1.03
  -3   3   3   41.84    1.02
  -3   3   3   41.24    1.03
  -3   3   3   42.93    1.02
  -3   3   3   41.44    1.07
   2  -3  -3  277.17    6.73
   2  -3  -3  271.63    6.57
   2  -3  -3  267.73    6.72
  -2   3   3  275.07    6.54
  -2   3   3  278.25    6.57
  -2   3   3  271.57    6.67
  -2   3   3  266.71    6.52
  -2   3   3  272.36    6.69
   1  -3  -3    7.47    0.21
   1  -3  -3    7.56    0.20
   1  -3  -3    7.86    0.20
   1  -3  -3    7.22    0.21
   1  -3  -3    7.34    0.21
  -1   3   3    7.15    0.20
  -1   3   3    7.56    0.22
  -1   3   3    7.48    0.21
  -1   3   3    7.71    0.20
  -1   3   3    7.64    0.20
   0  -3  -3   17.05    0.42
   0  -3  -3   16.59    0.41
   0  -3  -3   16.18    0.44
   0  -3  -3   17.08    0.41
   0  -3  -3   16.50    0.41
   0  -3  -3   16.69    0.43
   0  -3  -3   16.46    0.43
   0   3   3   17.24    0.42
   0   3   3   16.99    0.44
   0   3   3   16.23    0.41
   0   3   3   16.76    0.43
   0   3   3   16.76    0.42
  -1  -3  -3    2.73    0.09
  -1  -3  -3    2.68    0.10
  -1  -3  -3    2.82    0.08
  -1  -3  -3    2.78    0.09
  -1  -3  -3    2.78    0.08
  -1  -3  -3    2.77    0.10
   1   3   3    2.76    0.10
   1   3   3    2.84    0.09
   1   3   3    2.88    0.10
   1   3   3    2.82    0.08
   1   3   3    2.71    0.09
  -2  -3  -3  123.42    3.20
  -2  -3  -3  127.47    3.13
  -2  -3  -3  132.72    3.12
  -2  -3  -3  129.76    3.08
   2   3   3  132.91    3.13
   2   3   3  127.89    3.09
   2   3   3  132.04    3.16
   2   3   3  129.98    3.20
  -3  -3  -3    4.31    0.12
  -3  -3  -3    4.30    0.12
  -3  -3  -3    4.30    0.14
  -3  -3  -3    4.16    0.14
   3   3   3    4.43    0.13
   3   3   3    4.33    0.14
   3   3   3    4.27    0.12
   3   3   3    4.30    0.12
  -4  -3  -3  272.16    6.43
  -4  -3  -3  261.22    6.58
  -4  -3  -3  274.35    6.34
  -4  -3  -3  265.23    6.45
   4   3   3  266.43    6.43
   4   3   3  266.54    6.48
   4   3   3  265.31    6.37
   4   3   3  272.08    6.60
   4   3   3  264.95    6.57
  -5  -3  -3   10.63    0.31
  -5  -3  -3   10.73    0.30
  -5  -3  -3   10.85    0.28
  -5  -3  -3   10.57    0.28
   5   3   3   10.84    0.28
   5   3   3   10.57    0.28
   5   3   3   11.01    0.28
   5   3   3   10.75    0.29
  -6  -3  -3   23.34    0.59
  -6  -3  -3   23.88    0.63
  -6  -3  -3   23.76    0.61
  -6  -3  -3   23.21    0.60
   6   3   3   23.77    0.59
   6   3   3   24.12    0.60
   6   3   3   24.05    0.61
  -7  -3  -3    2.97    0.14
  -7  -3  -3    3.14    0.14
  -7  -3  -3    3.02    0.14
   7   3   3    3.14    0.13
   7   3   3    3.24    0.10
  -8  -3  -3   13.89    0.40
  -8  -3  -3   14.11    0.41
   8   3   3   14.19    0.40
   8   3   3   14.03    0.37
   8   3   3   14.14    0.36
  -9  -3  -3    1.51    0.11
  -9  -3  -3    1.46    0.13
   9   3   3    1.38    0.10
   9   3   3    1.37    0.07
 -10  -3  -3    0.64    0.09
 -10  -3  -3    0.74    0.11
 -11  -3  -3   -0.09    0.10
 -11  -3  -3    0.07    0.08
 -12  -3  -3    0.12    0.09
 -12  -3  -3   -0.17    0.12
  10  -4  -3    0.32    0.11
  10  -4  -3    0.34    0.15
 -10   4   3    0.01    0.13
 -10   4   3    0.18    0.08
   9  -4  -3    0.86    0.11
   9  -4  -3    0.90    0.15
  -9   4   3    1.02    0.12
  -9   4   3    0.93    0.09
   8  -4  -3    2.43    0.21
   8  -4  -3    2.34    0.16
  -8   4   3    2.27    0.17
  -8   4   3    2.41    0.12
   7  -4  -3    0.75    0.08
   7  -4  -3    0.83    0.11
  -7   4   3    1.03    0.09
   6  -4  -3    9.38    0.31
   6  -4  -3    9.31    0.28
  -6   4   3    9.48    0.26
   5  -4  -3    5.67    0.19
   5  -4  -3    5.83    0.21
  -5   4   3    5.78    0.17
   4  -4  -3   47.32    1.14
   4  -4  -3   46.10    1.19
   4  -4  -3   47.19    1.13
   4  -4  -3   48.17    1.18
  -4   4   3   46.61    1.13
  -4   4   3   44.79    1.13
   3  -4  -3   24.36    0.62
   3  -4  -3   24.04    0.61
   3  -4  -3   22.58    0.60
  -3   4   3   24.27    0.58
  -3   4   3   23.44    0.58
  -3   4   3   22.95    0.63
   2  -4  -3  140.08    3.49
   2  -4  -3  146.14    3.43
   2  -4  -3  143.53    3.41
   2  -4  -3  143.66    3.49
   2  -4  -3  140.98    3.37
  -2   4   3  141.93    3.37
  -2   4   3  144.29    3.41
  -2   4   3  134.43    3.42
  -2   4   3  141.43    3.51
   1  -4  -3   81.46    1.92
   1  -4  -3   78.32    1.90
   1  -4  -3   81.12    1.97
   1  -4  -3   79.27    1.90
   1  -4  -3   78.26    1.94
   1  -4  -3   78.77    1.98
  -1   4   3   78.69    1.96
  -1   4   3   80.25    1.92
  -1   4   3   78.13    1.93
  -1   4   3   79.08    1.98
  -1   4   3   80.70    1.90
   0  -4  -3    6.30    0.17
   0  -4  -3    6.28    0.16
   0  -4  -3    6.12    0.17
   0  -4  -3    6.13    0.19
   0  -4  -3    6.06    0.19
   0  -4  -3    6.40    0.17
   0   4   3    6.11    0.17
   0   4   3    6.23    0.18
   0   4   3    6.06    0.17
  -1  -4  -3    0.15    0.04
  -1  -4  -3    0.16    0.02
  -1  -4  -3    0.12    0.04
  -1  -4  -3    0.20    0.03
  -1  -4  -3    0.15    0.02
  -1  -4  -3    0.12    0.02
   1   4   3    0.15    0.02
   1   4   3    0.17    0.04
   1   4   3    0.18    0.03
   1   4   3    0.14    0.02
  -2  -4  -3   24.78    0.62
  -2  -4  -3   24.97    0.65
  -2  -4  -3   24.18    0.66
  -2  -4  -3   25.42    0.62
  -2  -4  -3   25.73    0.62
  -2  -4  -3   26.25    0.63
   2   4   3   24.76    0.62
   2   4   3   25.40    0.64
   2   4   3   25.51    0.63
   2   4   3   25.80    0.66
  -3  -4  -3  103.81    2.52
  -3  -4  -3  101.07    2.46
  -3  -4  -3  103.41    2.57
  -3  -4  -3  103.40    2.50
   3   4   3  102.95    2.57
   3   4   3  102.67    2.50
   3   4   3  101.41    2.47
   3   4   3  108.92    2.51
  -4  -4  -3   12.76    0.34
  -4  -4  -3   12.74    0.36
  -4  -4  -3   12.42    0.33
  -4  -4  -3   12.90    0.36
   4   4   3   12.88    0.33
   4   4   3   12.60    0.33
   4   4   3   13.19    0.35
   4   4   3   13.08    0.33
  -5  -4  -3   14.59    0.37
  -5  -4  -3   14.03    0.38
  -5  -4  -3   14.31    0.41
  -5  -4  -3   14.71    0.40
   5   4   3   14.19    0.37
   5   4   3   13.96    0.39
   5   4   3   14.44    0.37
  -6  -4  -3    0.00    0.05
  -6  -4  -3   -0.02    0.03
  -6  -4  -3    0.06    0.04
  -6  -4  -3    0.03    0.06
   6   4   3    0.03    0.06
   6   4   3    0.07    0.03
  -7  -4  -3    3.35    0.16
  -7  -4  -3    3.50    0.16
  -7  -4  -3    3.24    0.14
  -7  -4  -3    3.37    0.15
   7   4   3    3.52    0.11
   7   4   3    3.39    0.15
  -8  -4  -3    4.12    0.17
  -8  -4  -3    4.07    0.20
  -8  -4  -3    4.07    0.19
   8   4   3    4.17    0.13
  -9  -4  -3    1.24    0.14
  -9  -4  -3    1.20    0.11
   9   4   3    1.23    0.12
   9   4   3    1.29    0.07
 -10  -4  -3    1.82    0.15
 -10  -4  -3    1.46    0.17
  10   4   3    1.70    0.08
 -11  -4  -3    1.06    0.11
 -11  -4  -3    1.25    0.15
 -12  -4  -3    3.12    0.22
 -12  -4  -3    3.52    0.27
  10  -5  -3    0.92    0.17
  10  -5  -3    0.79    0.13
 -10   5   3    0.76    0.13
 -10   5   3    0.45    0.14
   9  -5  -3    4.42    0.23
   9  -5  -3    4.57    0.30
  -9   5   3    4.41    0.19
  -9   5   3    4.64    0.24
   8  -5  -3    7.94    0.27
   8  -5  -3    8.32    0.33
  -8   5   3    7.82    0.24
  -8   5   3    7.84    0.29
   7  -5  -3    1.40    0.12
   7  -5  -3    1.50    0.16
  -7   5   3    1.47    0.10
  -7   5   3    1.66    0.14
   6  -5  -3    3.40    0.18
   6  -5  -3    3.50    0.14
  -6   5   3    3.30    0.13
   5  -5  -3    0.31    0.05
   5  -5  -3    0.28    0.04
   5  -5  -3    0.29    0.07
   5  -5  -3    0.29    0.04
  -5   5   3    0.31    0.04
  -5   5   3    0.32    0.04
   4  -5  -3   33.29    0.90
   4  -5  -3   34.25    0.86
   4  -5  -3   35.98    0.88
  -4   5   3   34.63    0.85
   3  -5  -3    6.48    0.23
   3  -5  -3    7.62    0.22
   3  -5  -3    7.68    0.20
   3  -5  -3    7.66    0.21
  -3   5   3    7.68    0.20
  -3   5   3    7.49    0.21
   2  -5  -3   18.67    0.50
   2  -5  -3   19.01    0.48
   2  -5  -3   18.89    0.50
   2  -5  -3   19.18    0.48
   2  -5  -3   18.86    0.46
  -2   5   3   19.25    0.48
  -2   5   3   18.61    0.46
  -2   5   3   18.63    0.47
   1  -5  -3   12.28    0.31
   1  -5  -3   12.40    0.32
   1  -5  -3   12.28    0.33
   1  -5  -3   12.13    0.34
  -1   5   3   12.50    0.32
  -1   5   3   12.51    0.31
  -1   5   3   12.13    0.32
   0  -5  -3   34.99    0.87
   0  -5  -3   34.51    0.85
   0  -5  -3   34.16    0.88
   0  -5  -3   35.41    0.86
   0  -5  -3   36.81    0.85
   0  -5  -3   33.69    0.90
   0   5   3   35.26    0.86
   0   5   3   36.33    0.91
   0   5   3   32.63    0.87
   0   5   3   34.40    0.85
  -1  -5  -3    1.50    0.09
  -1  -5  -3    1.55    0.07
  -1  -5  -3    1.53    0.07
  -1  -5  -3    1.64    0.06
  -1  -5  -3    1.52    0.09
   1   5   3    1.53    0.07
   1   5   3    1.53    0.07
   1   5   3    1.60    0.10
  -2  -5  -3    6.99    0.22
  -2  -5  -3    6.75    0.19
  -2  -5  -3    6.53    0.22
   2   5   3    7.07    0.22
   2   5   3    6.72    0.19
   2   5   3    6.56    0.19
  -3  -5  -3    5.01    0.18
  -3  -5  -3    4.71    0.15
  -3  -5  -3    4.68    0.17
   3   5   3    4.97    0.18
   3   5   3    4.97    0.15
   3   5   3    4.77    0.15
  -4  -5  -3   73.49    1.79
  -4  -5  -3   76.67    1.81
  -4  -5  -3   74.00    1.82
  -4  -5  -3   69.63    1.85
   4   5   3   70.47    1.77
   4   5   3   74.33    1.79
   4   5   3   76.50    1.81
  -5  -5  -3    0.61    0.07
  -5  -5  -3    0.68    0.07
  -5  -5  -3    0.62    0.08
  -5  -5  -3    0.62    0.06
   5   5   3    0.48    0.06
   5   5   3    0.49    0.05
   5   5   3    0.55    0.08
  -6  -5  -3   25.85    0.70
  -6  -5  -3   25.94    0.66
  -6  -5  -3   26.11    0.68
  -6  -5  -3   25.49    0.67
   6   5   3   26.44    0.65
   6   5   3   25.64    0.68
  -7  -5  -3   13.59    0.39
  -7  -5  -3   13.29    0.41
  -7  -5  -3   13.34    0.40
  -7  -5  -3   13.12    0.37
   7   5   3   13.76    0.36
   7   5   3   13.72    0.39
  -8  -5  -3   16.80    0.46
  -8  -5  -3   15.71    0.47
  -8  -5  -3   16.61    0.49
   8   5   3   16.44    0.43
   8   5   3   16.34    0.46
  -9  -5  -3    6.92    0.27
  -9  -5  -3    7.06    0.25
   9   5   3    6.79    0.20
 -10  -5  -3    5.10    0.25
 -10  -5  -3    5.03    0.22
  10   5   3    4.79    0.16
 -11  -5  -3    0.12    0.10
 -11  -5  -3   -0.05    0.12
 -12  -5  -3    2.88    0.29
 -12  -5  -3    2.77    0.22
  10  -6  -3    3.40    0.24
  10  -6  -3    3.85    0.34
 -10   6   3    3.24    0.27
   9  -6  -3    3.04    0.29
   9  -6  -3    3.12    0.20
  -9   6   3    2.88    0.16
  -9   6   3    3.40    0.23
   8  -6  -3   14.80    0.48
   8  -6  -3   13.73    0.41
  -8   6   3   14.00    0.45
  -8   6   3   13.66    0.38
   7  -6  -3    9.00    0.33
   7  -6  -3    8.71    0.28
  -7   6   3    9.17    0.31
  -7   6   3    8.67    0.26
   6  -6  -3   15.29    0.45
   6  -6  -3   14.87    0.41
   6  -6  -3   14.98    0.39
   6  -6  -3   14.41    0.38
  -6   6   3   14.96    0.39
  -6   6   3   15.28    0.44
  -6   6   3   14.34    0.39
   5  -6  -3    0.13    0.04
   5  -6  -3    0.16    0.04
   5  -6  -3    0.10    0.06
   5  -6  -3    0.07    0.04
  -5   6   3    0.08    0.05
  -5   6   3    0.10    0.04
   4  -6  -3   13.07    0.34
   4  -6  -3   12.51    0.38
   4  -6  -3   13.01    0.35
   4  -6  -3   12.62    0.33
  -4   6   3   12.54    0.33
  -4   6   3   12.57    0.32
  -4   6   3   12.48    0.34
   3  -6  -3    4.19    0.12
   3  -6  -3    4.34    0.15
   3  -6  -3    4.02    0.14
   3  -6  -3    4.17    0.13
   3  -6  -3    4.08    0.17
  -3   6   3    4.15    0.14
  -3   6   3    4.25    0.14
  -3   6   3    4.23    0.13
   2  -6  -3    4.12    0.12
   2  -6  -3    4.17    0.13
   2  -6  -3    4.02    0.15
   2  -6  -3    4.19    0.15
   2  -6  -3    4.07    0.14
  -2   6   3    3.94    0.13
  -2   6   3    4.15    0.13
   1  -6  -3    4.88    0.15
   1  -6  -3    4.58    0.14
   1  -6  -3    4.68    0.17
   1  -6  -3    4.68    0.16
  -1   6   3    4.71    0.15
  -1   6   3    4.68    0.14
  -1   6   3    4.80    0.15
   0  -6  -3    3.72    0.13
   0  -6  -3    3.66    0.15
   0  -6  -3    3.70    0.13
   0  -6  -3    3.84    0.13
   0  -6  -3    3.61    0.15
   0   6   3    3.69    0.12
   0   6   3    3.58    0.12
   0   6   3    3.82    0.13
  -1  -6  -3   15.78    0.43
  -1  -6  -3   15.26    0.39
  -1  -6  -3   15.78    0.42
  -1  -6  -3   14.79    0.39
   1   6   3   15.35    0.39
   1   6   3   12.77    0.38
  -2  -6  -3    4.85    0.15
  -2  -6  -3    4.82    0.18
  -2  -6  -3    4.78    0.18
   2   6   3    4.15    0.15
   2   6   3    4.78    0.19
   2   6   3    4.95    0.15
  -3  -6  -3   42.48    1.12
  -3  -6  -3   42.62    1.07
  -3  -6  -3   43.02    1.10
   3   6   3   42.82    1.10
   3   6   3   44.20    1.07
   3   6   3   43.23    1.09
   3   6   3   44.42    1.06
  -4  -6  -3   15.02    0.44
  -4  -6  -3   15.32    0.39
  -4  -6  -3   14.79    0.43
   4   6   3   15.03    0.40
   4   6   3   14.83    0.39
   4   6   3   14.87    0.43
   4   6   3   15.13    0.40
  -5  -6  -3   40.52    1.07
  -5  -6  -3   39.90    1.01
  -5  -6  -3   41.07    1.04
   5   6   3   39.99    1.04
   5   6   3   41.62    1.01
  -6  -6  -3    0.17    0.05
  -6  -6  -3    0.18    0.06
  -6  -6  -3    0.26    0.07
  -6  -6  -3    0.32    0.09
   6   6   3    0.22    0.04
   6   6   3    0.34    0.11
  -7  -6  -3    4.04    0.19
  -7  -6  -3    3.78    0.21
  -7  -6  -3    4.04    0.17
   7   6   3    4.12    0.14
   7   6   3    3.84    0.22
  -8  -6  -3    0.01    0.05
  -8  -6  -3    0.04    0.08
  -8  -6  -3   -0.05    0.11
   8   6   3    0.05    0.04
  -9  -6  -3    0.03    0.07
  -9  -6  -3   -0.15    0.09
   9   6   3   -0.01    0.04
 -10  -6  -3    0.00    0.07
 -10  -6  -3   -0.01    0.11
  10   6   3    0.08    0.05
 -11  -6  -3    0.05    0.15
 -11  -6  -3    0.19    0.11
  10  -7  -3    0.67    0.18
 -10   7   3    0.91    0.16
   9  -7  -3    3.64    0.22
   9  -7  -3    3.53    0.30
  -9   7   3    3.71    0.26
   8  -7  -3    1.02    0.11
   8  -7  -3    1.18    0.15
  -8   7   3    1.60    0.18
  -8   7   3    1.20    0.13
   7  -7  -3    1.89    0.09
   7  -7  -3    1.83    0.19
   7  -7  -3    2.07    0.13
  -7   7   3    1.94    0.13
  -7   7   3    1.86    0.17
   6  -7  -3    0.06    0.05
   6  -7  -3    0.11    0.06
   6  -7  -3   -0.06    0.07
   6  -7  -3    0.11    0.05
  -6   7   3    0.13    0.07
  -6   7   3    0.12    0.05
   5  -7  -3    0.08    0.05
   5  -7  -3    0.01    0.07
   5  -7  -3    0.03    0.05
   5  -7  -3    0.06    0.05
  -5   7   3    0.02    0.04
  -5   7   3    0.08    0.06
  -5   7   3    0.07    0.06
  -5   7   3    0.07    0.06
   4  -7  -3    1.31    0.12
   4  -7  -3    1.47    0.08
   4  -7  -3    1.44    0.10
   4  -7  -3    1.40    0.10
  -4   7   3    1.55    0.12
  -4   7   3    1.50    0.09
  -4   7   3    1.38    0.11
  -4   7   3    1.44    0.10
   3  -7  -3   -0.01    0.05
   3  -7  -3   -0.01    0.05
   3  -7  -3    0.02    0.03
   3  -7  -3    0.02    0.03
   3  -7  -3   -0.05    0.04
   3  -7  -3    0.03    0.04
  -3   7   3    0.05    0.04
  -3   7   3    0.00    0.04
  -3   7   3   -0.10    0.05
   2  -7  -3    8.58    0.27
   2  -7  -3    8.78    0.23
   2  -7  -3    8.71    0.25
   2  -7  -3    8.82    0.27
   2  -7  -3    8.76    0.24
  -2   7   3    8.02    0.24
  -2   7   3    8.93    0.25
  -2   7   3    8.77    0.25
   1  -7  -3    0.03    0.04
   1  -7  -3    0.01    0.05
   1  -7  -3   -0.01    0.05
   1  -7  -3    0.04    0.04
  -1   7   3    0.02    0.03
  -1   7   3    0.00    0.04
   0  -7  -3   20.00    0.52
   0  -7  -3   20.63    0.53
   0  -7  -3   19.53    0.52
   0  -7  -3   20.45    0.57
   0  -7  -3   19.77    0.55
   0   7   3   20.70    0.52
   0   7   3   20.15    0.52
  -1  -7  -3    0.20    0.06
  -1  -7  -3    0.24    0.06
  -1  -7  -3    0.18    0.04
   1   7   3    0.16    0.04
   1   7   3    0.20    0.04
   1   7   3    0.21    0.05
  -2  -7  -3   17.16    0.48
  -2  -7  -3   16.82    0.45
  -2  -7  -3   16.73    0.45
  -2  -7  -3   17.26    0.49
   2   7   3   16.90    0.45
   2   7   3   17.33    0.46
   2   7   3   16.92    0.44
  -3  -7  -3    0.38    0.06
  -3  -7  -3    0.40    0.08
  -3  -7  -3    0.46    0.08
   3   7   3    0.26    0.05
   3   7   3    0.31    0.04
   3   7   3    0.40    0.05
  -4  -7  -3   93.33    2.37
  -4  -7  -3   91.33    2.32
  -4  -7  -3   94.70    2.29
   4   7   3   96.04    2.29
   4   7   3   94.44    2.26
   4   7   3   91.49    2.32
   4   7   3   94.48    2.33
  -5  -7  -3   27.35    0.71
  -5  -7  -3   27.98    0.73
  -5  -7  -3   28.24    0.76
  -5  -7  -3   27.50    0.75
   5   7   3   28.23    0.71
   5   7   3   27.61    0.70
   5   7   3   27.61    0.76
  -6  -7  -3    9.24    0.32
  -6  -7  -3    8.87    0.32
  -6  -7  -3    9.07    0.29
   6   7   3    9.38    0.27
  -7  -7  -3    5.62    0.24
  -7  -7  -3    5.53    0.22
  -7  -7  -3    5.22    0.26
   7   7   3    5.51    0.18
  -8  -7  -3    2.45    0.19
  -8  -7  -3    2.38    0.16
   8   7   3    2.13    0.11
  -9  -7  -3    4.29    0.22
  -9  -7  -3    4.41    0.26
   9   7   3    4.19    0.16
 -10  -7  -3    0.37    0.11
 -10  -7  -3    0.38    0.15
  10   7   3    0.26    0.07
 -11  -7  -3    0.13    0.11
 -11  -7  -3    0.02    0.18
  11   7   3    0.30    0.07
   9  -8  -3    0.65    0.16
  -9   8   3    0.53    0.14
   8  -8  -3    0.93    0.16
   8  -8  -3    1.32    0.16
  -8   8   3    1.29    0.14
  -8   8   3    1.43    0.14
   7  -8  -3    6.47    0.30
   7  -8  -3    6.53    0.21
   7  -8  -3    6.36    0.23
  -7   8   3    7.01    0.28
  -7   8   3    6.57    0.22
   6  -8  -3    0.46    0.07
   6  -8  -3    0.25    0.10
   6  -8  -3    0.41    0.07
  -6   8   3    0.40    0.07
  -6   8   3    0.51    0.10
   5  -8  -3    0.11    0.05
   5  -8  -3    0.01    0.07
   5  -8  -3    0.09    0.06
  -5   8   3    0.08    0.07
  -5   8   3    0.11    0.05
  -5   8   3    0.10    0.08
   4  -8  -3    0.04    0.04
   4  -8  -3    0.13    0.08
   4  -8  -3    0.10    0.06
   4  -8  -3    0.13    0.04
   4  -8  -3   -0.02    0.07
  -4   8   3    0.10    0.05
  -4   8   3    0.10    0.06
  -4   8   3    0.08    0.06
   3  -8  -3    1.83    0.12
   3  -8  -3    1.85    0.14
   3  -8  -3    1.84    0.09
   3  -8  -3    1.73    0.10
   3  -8  -3    1.79    0.13
   3  -8  -3    1.95    0.08
  -3   8   3    1.84    0.12
  -3   8   3    1.82    0.13
  -3   8   3    1.90    0.10
   2  -8  -3    7.83    0.26
   2  -8  -3    8.25    0.27
   2  -8  -3    8.37    0.27
   2  -8  -3    7.02    0.23
  -2   8   3    8.36    0.24
  -2   8   3    8.40    0.24
  -2   8   3    8.51    0.27
   1  -8  -3   15.47    0.43
   1  -8  -3   15.97    0.42
   1  -8  -3   15.28    0.45
  -1   8   3   15.32    0.41
  -1   8   3   15.43    0.44
  -1   8   3   15.31    0.42
   0  -8  -3    0.20    0.06
   0  -8  -3    0.24    0.07
   0  -8  -3    0.12    0.05
   0   8   3    0.23    0.06
   0   8   3    0.26    0.05
   0   8   3    0.24    0.05
  -1  -8  -3   11.70    0.34
  -1  -8  -3   11.90    0.37
  -1  -8  -3   11.87    0.32
   1   8   3   11.65    0.33
   1   8   3   11.67    0.33
   1   8   3   11.82    0.34
  -2  -8  -3    4.05    0.16
  -2  -8  -3    3.96    0.18
  -2  -8  -3    4.13    0.19
   2   8   3    3.93    0.15
   2   8   3    3.98    0.16
   2   8   3    3.95    0.15
  -3  -8  -3   19.04    0.52
  -3  -8  -3   18.61    0.54
  -3  -8  -3   18.99    0.56
   3   8   3   19.66    0.52
   3   8   3   19.29    0.50
   3   8   3   19.07    0.51
  -4  -8  -3    0.41    0.09
  -4  -8  -3    0.36    0.08
  -4  -8  -3    0.40    0.07
   4   8   3    0.45    0.06
   4   8   3    0.37    0.06
   4   8   3    0.32    0.05
  -5  -8  -3   20.34    0.59
  -5  -8  -3   20.67    0.58
  -5  -8  -3   20.08    0.56
   5   8   3   20.45    0.53
   5   8   3   20.33    0.54
  -6  -8  -3    0.35    0.12
  -6  -8  -3    0.20    0.09
  -6  -8  -3    0.32    0.08
   6   8   3    0.17    0.05
  -7  -8  -3    1.16    0.17
  -7  -8  -3    1.29    0.14
  -7  -8  -3    1.21    0.14
   7   8   3    1.22    0.10
  -8  -8  -3    1.36    0.16
  -8  -8  -3    1.52    0.16
   8   8   3    1.25    0.11
  -9  -8  -3    0.00    0.14
  -9  -8  -3    0.03    0.09
   9   8   3   -0.01    0.06
 -10  -8  -3    0.59    0.18
 -10  -8  -3    0.46    0.12
  10   8   3    0.43    0.08
   9  -9  -3    0.36    0.16
  -9   9   3    0.42    0.14
   8  -9  -3    1.10    0.12
   8  -9  -3    1.08    0.16
  -8   9   3    1.11    0.15
   7  -9  -3    0.76    0.09
   7  -9  -3    0.51    0.13
  -7   9   3    0.83    0.13
  -7   9   3    0.81    0.09
   6  -9  -3    2.08    0.20
   6  -9  -3    1.81    0.14
  -6   9   3    1.84    0.18
  -6   9   3    1.87    0.13
   5  -9  -3    0.05    0.09
   5  -9  -3   -0.06    0.06
  -5   9   3    0.13    0.06
  -5   9   3    0.21    0.09
  -5   9   3    0.04    0.08
   4  -9  -3    0.04    0.06
   4  -9  -3    0.10    0.08
   4  -9  -3    0.04    0.05
   4  -9  -3   -0.02    0.05
  -4   9   3    0.01    0.07
  -4   9   3   -0.12    0.07
  -4   9   3   -0.03    0.05
   3  -9  -3    6.35    0.24
   3  -9  -3    6.50    0.25
   3  -9  -3    6.28    0.20
   3  -9  -3    6.54    0.21
  -3   9   3    6.12    0.22
  -3   9   3    6.41    0.25
  -3   9   3    6.42    0.21
   2  -9  -3    2.69    0.16
   2  -9  -3    2.81    0.16
   2  -9  -3    2.53    0.13
  -2   9   3    2.58    0.16
  -2   9   3    2.75    0.13
  -2   9   3    2.65    0.13
   1  -9  -3    3.09    0.15
   1  -9  -3    3.32    0.17
   1  -9  -3    3.31    0.18
  -1   9   3    3.43    0.17
  -1   9   3    3.18    0.14
  -1   9   3    3.40    0.14
   0  -9  -3   43.11    1.08
   0  -9  -3   42.56    1.11
   0   9   3   43.40    1.06
   0   9   3   43.16    1.12
   0   9   3   41.98    1.08
  -1  -9  -3   10.84    0.30
  -1  -9  -3   10.77    0.36
  -1  -9  -3   11.26    0.33
   1   9   3   11.01    0.32
   1   9   3   10.90    0.32
   1   9   3   11.13    0.33
  -2  -9  -3    0.78    0.08
  -2  -9  -3    0.85    0.11
  -2  -9  -3    0.96    0.12
   2   9   3    0.77    0.08
   2   9   3    0.74    0.08
   2   9   3    0.76    0.09
  -3  -9  -3    3.28    0.19
  -3  -9  -3    3.07    0.16
  -3  -9  -3    3.37    0.19
   3   9   3    3.20    0.14
   3   9   3    3.36    0.14
   3   9   3    3.04    0.15
  -4  -9  -3    0.26    0.09
  -4  -9  -3    0.05    0.06
  -4  -9  -3    0.05    0.08
   4   9   3    0.11    0.05
   4   9   3    0.09    0.07
  -5  -9  -3    4.51    0.23
  -5  -9  -3    4.09    0.23
  -5  -9  -3    4.62    0.20
   5   9   3    4.31    0.17
   5   9   3    4.18    0.17
  -6  -9  -3    0.41    0.09
  -6  -9  -3    0.50    0.12
  -6  -9  -3    0.36    0.11
   6   9   3    0.52    0.07
  -7  -9  -3    2.54    0.17
  -7  -9  -3    2.62    0.23
  -7  -9  -3    2.54    0.23
   7   9   3    2.19    0.13
  -8  -9  -3    0.24    0.14
  -8  -9  -3    0.16    0.10
   8   9   3    0.29    0.07
  -9  -9  -3    1.02    0.14
  -9  -9  -3    1.07    0.20
   9   9   3    0.92    0.09
   8 -10  -3    0.13    0.08
   8 -10  -3   -0.18    0.15
  -8  10   3    0.12    0.13
   7 -10  -3    0.96    0.10
   7 -10  -3    0.84    0.15
  -7  10   3    1.05    0.15
  -7  10   3    0.92    0.10
   6 -10  -3    0.20    0.11
   6 -10  -3    0.05    0.08
  -6  10   3    0.15    0.07
  -6  10   3   -0.05    0.10
   5 -10  -3    0.69    0.13
   5 -10  -3    0.43    0.09
  -5  10   3    0.58    0.11
  -5  10   3    0.57    0.08
   4 -10  -3    3.67    0.22
   4 -10  -3    3.26    0.18
   4 -10  -3    2.85    0.15
   4 -10  -3    3.08    0.15
  -4  10   3    3.23    0.15
  -4  10   3    3.23    0.20
  -4  10   3    3.14    0.20
   3 -10  -3    2.04    0.13
   3 -10  -3    2.30    0.16
   3 -10  -3    2.19    0.18
  -3  10   3    1.89    0.14
  -3  10   3    2.10    0.16
  -3  10   3    2.04    0.13
   2 -10  -3    0.03    0.08
   2 -10  -3   -0.03    0.07
   2 -10  -3    0.01    0.06
  -2  10   3    0.01    0.07
  -2  10   3    0.05    0.05
  -2  10   3    0.04    0.06
   1 -10  -3    7.04    0.24
   1 -10  -3    6.97    0.26
   1 -10  -3    7.07    0.27
  -1  10   3    6.93    0.24
  -1  10   3    7.27    0.27
  -1  10   3    6.73    0.23
   0 -10  -3    1.27    0.15
   0 -10  -3    0.94    0.09
   0 -10  -3    0.97    0.10
   0  10   3    1.00    0.10
   0  10   3    1.12    0.12
   0  10   3    0.97    0.10
  -1 -10  -3   25.60    0.71
  -1 -10  -3   25.04    0.67
   1  10   3   25.16    0.66
   1  10   3   24.89    0.67
   1  10   3   24.68    0.69
  -2 -10  -3    9.72    0.32
  -2 -10  -3    9.58    0.35
   2  10   3    9.48    0.30
   2  10   3    9.49    0.30
   2  10   3    9.53    0.31
  -3 -10  -3    1.63    0.17
  -3 -10  -3    1.24    0.13
  -3 -10  -3    1.53    0.18
   3  10   3    1.67    0.13
   3  10   3    1.52    0.12
  -4 -10  -3    0.59    0.10
  -4 -10  -3    0.66    0.13
  -4 -10  -3    0.58    0.12
   4  10   3    0.62    0.08
   4  10   3    0.54    0.07
  -5 -10  -3    0.54    0.09
  -5 -10  -3    0.42    0.13
  -5 -10  -3    0.76    0.14
   5  10   3    0.65    0.08
  -6 -10  -3    0.50    0.14
  -6 -10  -3    0.57    0.10
  -6 -10  -3    0.75    0.15
   6  10   3    0.49    0.08
  -7 -10  -3   -0.18    0.08
  -7 -10  -3    0.06    0.15
   7  10   3   -0.07    0.06
  -8 -10  -3   -0.02    0.10
  -8 -10  -3    0.32    0.18
   8  10   3    0.05    0.07
   7 -11  -3    0.23    0.09
   7 -11  -3    0.38    0.17
  -7  11   3    0.47    0.13
   6 -11  -3    0.13    0.13
   6 -11  -3   -0.02    0.09
  -6  11   3    0.02    0.09
  -6  11   3   -0.13    0.10
   5 -11  -3    1.05    0.12
   5 -11  -3    0.98    0.16
  -5  11   3    1.01    0.10
  -5  11   3    0.61    0.12
   4 -11  -3    0.09    0.07
   4 -11  -3   -0.12    0.08
   4 -11  -3    0.03    0.11
   4 -11  -3   -0.07    0.08
  -4  11   3   -0.04    0.10
  -4  11   3    0.00    0.07
  -4  11   3   -0.10    0.08
   3 -11  -3    1.44    0.15
   3 -11  -3    1.69    0.14
   3 -11  -3    1.49    0.14
   3 -11  -3    1.51    0.16
  -3  11   3    1.74    0.14
  -3  11   3    1.56    0.17
  -3  11   3    1.43    0.16
   2 -11  -3    3.51    0.22
   2 -11  -3    3.51    0.18
   2 -11  -3    3.57    0.21
  -2  11   3    3.25    0.18
  -2  11   3    3.44    0.17
  -2  11   3    3.15    0.20
   1 -11  -3    4.63    0.21
   1 -11  -3    4.71    0.24
   1 -11  -3    4.50    0.24
  -1  11   3    4.57    0.20
  -1  11   3    4.47    0.22
  -1  11   3    4.76    0.21
   0 -11  -3    3.86    0.22
   0 -11  -3    3.94    0.22
   0 -11  -3    3.80    0.19
   0  11   3    3.89    0.18
   0  11   3    3.62    0.21
   0  11   3    4.06    0.19
  -1 -11  -3    0.91    0.11
  -1 -11  -3    1.18    0.14
   1  11   3    0.93    0.10
   1  11   3    1.07    0.11
   1  11   3    1.14    0.13
  -2 -11  -3    0.74    0.13
  -2 -11  -3    0.62    0.10
   2  11   3    0.62    0.10
   2  11   3    0.55    0.09
  -3 -11  -3    0.04    0.10
  -3 -11  -3   -0.05    0.08
   3  11   3    0.04    0.08
   3  11   3   -0.05    0.07
  -4 -11  -3    0.00    0.12
  -4 -11  -3    0.02    0.08
   4  11   3    0.11    0.07
   4  11   3   -0.09    0.08
  -5 -11  -3   -0.12    0.14
  -5 -11  -3   -0.26    0.12
  -5 -11  -3   -0.26    0.08
   5  11   3   -0.03    0.07
  -6 -11  -3    0.40    0.16
  -6 -11  -3    0.28    0.11
   6  11   3    0.20    0.07
  -7 -11  -3    1.02    0.14
  -7 -11  -3    1.57    0.22
   7  11   3    1.28    0.12
   6 -12  -3    0.99    0.13
   6 -12  -3    0.81    0.18
  -6  12   3    0.86    0.15
  -6  12   3    1.00    0.13
   5 -12  -3    3.04    0.31
   5 -12  -3    2.75    0.22
  -5  12   3    3.11    0.21
  -5  12   3    2.89    0.25
   4 -12  -3    0.26    0.10
   4 -12  -3   -0.13    0.10
   4 -12  -3   -0.06    0.13
  -4  12   3   -0.06    0.11
  -4  12   3    0.05    0.09
   3 -12  -3    2.50    0.21
   3 -12  -3    2.19    0.25
   3 -12  -3    2.68    0.18
   3 -12  -3    2.82    0.18
  -3  12   3    2.19    0.22
  -3  12   3    2.28    0.21
  -3  12   3    2.42    0.18
   2 -12  -3   -0.03    0.12
   2 -12  -3    0.00    0.10
   2 -12  -3    0.01    0.09
  -2  12   3   -0.08    0.09
  -2  12   3   -0.01    0.08
  -2  12   3   -0.02    0.10
   1 -12  -3    2.86    0.19
   1 -12  -3    2.52    0.23
   1 -12  -3    2.70    0.22
  -1  12   3    2.67    0.19
  -1  12   3    2.96    0.21
  -1  12   3    2.96    0.18
   0 -12  -3    0.78    0.11
   0 -12  -3    0.81    0.13
   0 -12  -3    0.82    0.14
   0  12   3    0.80    0.11
   0  12   3    0.89    0.12
   0  12   3    0.96    0.11
  -1 -12  -3    1.06    0.12
  -1 -12  -3    1.25    0.16
   1  12   3    1.01    0.12
   1  12   3    1.12    0.12
  -2 -12  -3    0.41    0.11
  -2 -12  -3    0.43    0.14
   2  12   3    0.53    0.11
   2  12   3    0.27    0.09
  -3 -12  -3    0.20    0.14
  -3 -12  -3    0.45    0.11
   3  12   3    0.27    0.09
   3  12   3    0.29    0.11
  -4 -12  -3    0.24    0.15
  -4 -12  -3    0.13    0.10
   4  12   3    0.15    0.09
  -5 -12  -3    0.25    0.11
  -5 -12  -3   -0.04    0.17
   5  12   3    0.07    0.08
   4 -13  -3    0.29    0.18
   4 -13  -3    0.40    0.12
   4 -13  -3    0.39    0.13
  -4  13   3    0.45    0.12
  -4  13   3    0.44    0.14
   3 -13  -3   -0.02    0.11
   3 -13  -3   -0.16    0.15
   3 -13  -3    0.37    0.12
  -3  13   3    0.23    0.13
  -3  13   3   -0.16    0.10
   2 -13  -3    0.82    0.14
   2 -13  -3    0.72    0.17
   2 -13  -3    0.75    0.13
  -2  13   3    0.66    0.11
  -2  13   3    0.45    0.14
  -2  13   3    0.53    0.14
   1 -13  -3    1.18    0.14
   1 -13  -3    1.29    0.17
   1 -13  -3    1.09    0.16
  -1  13   3    1.22    0.15
  -1  13   3    1.19    0.16
   0 -13  -3    0.80    0.16
   0 -13  -3    0.95    0.17
   0 -13  -3    0.73    0.13
   0  13   3    0.80    0.14
   0  13   3    0.70    0.13
  -1 -13  -3    3.99    0.30
  -1 -13  -3    4.24    0.25
  -1 -13  -3    3.84    0.31
   1  13   3    3.57    0.23
   1  13   3    3.73    0.27
  -2 -13  -3    0.42    0.17
  -2 -13  -3    0.44    0.12
   2  13   3    0.65    0.14
   2  13   3    0.20    0.11
  -3 -13  -3    1.08    0.20
  -3 -13  -3    1.05    0.15
   3  13   3    1.03    0.13
   0  10  -4    1.50    0.19
   0  10  -4    1.21    0.14
   0 -10   4    1.67    0.19
  -1  10  -4    1.53    0.19
  -1  10  -4    1.48    0.15
   1 -10   4    1.24    0.17
   1 -10   4    1.30    0.15
  -2  10  -4    0.25    0.12
  -2  10  -4    0.59    0.15
   2 -10   4    0.52    0.11
   2 -10   4    0.24    0.13
  -3  10  -4    0.14    0.14
   3 -10   4    0.02    0.10
   3 -10   4   -0.17    0.11
   3 -10   4    0.14    0.11
  -4  10  -4    1.36    0.16
  -4  10  -4    1.47    0.18
   4 -10   4    1.44    0.16
   4 -10   4    1.77    0.16
   4 -10   4    1.27    0.14
  -5  10  -4    0.28    0.14
  -5  10  -4    0.43    0.14
   5 -10   4    0.45    0.13
   5 -10   4    0.45    0.11
   5 -10   4    0.35    0.10
  -6  10  -4    0.46    0.16
  -6  10  -4    0.45    0.15
   6 -10   4    0.51    0.12
   6 -10   4    0.48    0.12
   2   9  -4    0.74    0.11
  -2  -9   4    0.99    0.13
   1   9  -4    0.84    0.12
   1   9  -4    0.98    0.16
  -1  -9   4    0.86    0.16
  -1  -9   4    0.96    0.13
   0   9  -4    2.44    0.24
   0   9  -4    2.38    0.18
   0  -9   4    2.35    0.19
   0  -9   4    2.32    0.24
  -1   9  -4    7.81    0.30
  -1   9  -4    8.52    0.35
   1  -9   4    8.25    0.34
   1  -9   4    8.27    0.31
  -2   9  -4    0.88    0.12
  -2   9  -4    1.05    0.15
   2  -9   4    0.79    0.11
   2  -9   4    1.02    0.13
  -3   9  -4   10.23    0.39
  -3   9  -4   10.12    0.35
   3  -9   4   10.24    0.37
   3  -9   4    9.71    0.35
  -4   9  -4   -0.06    0.10
  -4   9  -4    0.03    0.11
   4  -9   4   -0.14    0.09
   4  -9   4   -0.07    0.08
   4  -9   4    0.07    0.09
  -5   9  -4   12.86    0.42
  -5   9  -4   13.38    0.47
   5  -9   4   13.48    0.43
   5  -9   4   12.29    0.41
   5  -9   4   13.33    0.42
  -6   9  -4    0.14    0.12
  -6   9  -4    0.08    0.11
   6  -9   4    0.24    0.10
   6  -9   4    0.09    0.09
  -7   9  -4    2.58    0.24
   7  -9   4    2.30    0.21
   7  -9   4    2.72    0.19
  -8   9  -4    0.30    0.14
   8  -9   4    0.25    0.09
   8  -9   4    0.47    0.11
   8  -9   4    0.26    0.15
   4   8  -4    0.01    0.08
  -4  -8   4   -0.09    0.11
   3   8  -4    0.06    0.07
  -3  -8   4   -0.08    0.10
   2   8  -4    0.46    0.08
   2   8  -4    0.52    0.13
  -2  -8   4    0.46    0.13
  -2  -8   4    0.48    0.11
   1   8  -4    0.25    0.08
   1   8  -4    0.54    0.12
  -1  -8   4    0.46    0.13
  -1  -8   4    0.42    0.10
   0   8  -4   12.80    0.42
   0   8  -4   12.17    0.39
   0  -8   4   12.39    0.40
   0  -8   4   12.45    0.42
  -1   8  -4    0.28    0.08
  -1   8  -4    0.44    0.11
   1  -8   4    0.27    0.10
   1  -8   4    0.33    0.08
  -2   8  -4    6.94    0.26
  -2   8  -4    6.89    0.29
   2  -8   4    6.96    0.27
   2  -8   4    6.74    0.28
  -3   8  -4    0.11    0.09
  -3   8  -4   -0.03    0.07
   3  -8   4    0.02    0.07
   3  -8   4    0.10    0.09
  -4   8  -4    0.58    0.10
  -4   8  -4    0.65    0.11
   4  -8   4    0.53    0.10
   4  -8   4    0.73    0.10
   4  -8   4    0.64    0.09
  -5   8  -4    0.12    0.08
  -5   8  -4    0.22    0.10
   5  -8   4    0.13    0.08
   5  -8   4    0.26    0.09
   5  -8   4    0.09    0.07
  -6   8  -4    0.65    0.11
  -6   8  -4    0.78    0.13
   6  -8   4    0.71    0.09
   6  -8   4    0.77    0.10
  -7   8  -4    0.12    0.10
  -7   8  -4   -0.11    0.10
   7  -8   4    0.11    0.07
   7  -8   4    0.08    0.08
  -8   8  -4    0.98    0.15
   8  -8   4    1.08    0.12
   8  -8   4    1.00    0.10
   8  -8   4    1.04    0.17
  -9   8  -4    1.54    0.18
   9  -8   4    2.13    0.19
   9  -8   4    1.73    0.19
   9  -8   4    1.92    0.16
   5   7  -4    2.48    0.16
   5   7  -4    2.57    0.21
  -5  -7   4    2.45    0.22
   4   7  -4    1.39    0.13
   4   7  -4    1.34    0.13
  -4  -7   4    1.04    0.13
   3   7  -4   10.03    0.35
   3   7  -4    8.43    0.30
   3   7  -4    9.57    0.32
  -3  -7   4    9.81    0.34
   2   7  -4    0.76    0.10
   2   7  -4    0.66    0.08
   2   7  -4    0.84    0.12
  -2  -7   4    0.76    0.12
  -2  -7   4    0.69    0.10
   1   7  -4    5.98    0.23
   1   7  -4    6.10    0.21
   1   7  -4    6.43    0.26
  -1  -7   4    6.14    0.25
  -1  -7   4    6.42    0.26
   0   7  -4    0.04    0.08
   0   7  -4    0.03    0.06
   0   7  -4   -0.01    0.06
   0  -7   4    0.15    0.08
   0  -7   4    0.05    0.07
  -1   7  -4    8.96    0.29
  -1   7  -4    8.74    0.31
  -1   7  -4    8.52    0.25
   1  -7   4    8.77    0.30
   1  -7   4    9.18    0.31
  -2   7  -4    3.35    0.16
  -2   7  -4    3.62    0.19
   2  -7   4    3.27    0.17
   2  -7   4    3.44    0.18
  -3   7  -4    5.23    0.21
  -3   7  -4    5.45    0.24
   3  -7   4    5.44    0.21
   3  -7   4    5.65    0.22
  -4   7  -4    0.60    0.08
  -4   7  -4    0.61    0.09
   4  -7   4    0.57    0.08
   4  -7   4    0.53    0.08
   4  -7   4    0.49    0.08
  -5   7  -4    3.69    0.20
  -5   7  -4    3.68    0.18
   5  -7   4    3.46    0.17
   5  -7   4    3.57    0.17
   5  -7   4    3.56    0.18
  -6   7  -4    0.13    0.08
  -6   7  -4    0.10    0.08
   6  -7   4   -0.02    0.06
   6  -7   4    0.09    0.06
  -7   7  -4    1.12    0.13
  -7   7  -4    1.45    0.15
   7  -7   4    1.22    0.13
   7  -7   4    1.30    0.12
  -8   7  -4   -0.08    0.10
   8  -7   4    0.18    0.07
   8  -7   4    0.20    0.08
   8  -7   4   -0.04    0.11
  -9   7  -4    2.16    0.19
   9  -7   4    2.52    0.15
   9  -7   4    2.59    0.25
   9  -7   4    2.65    0.18
 -10   7  -4    0.43    0.14
  10  -7   4    0.74    0.17
  10  -7   4    0.77    0.11
  10  -7   4    0.71    0.09
   6   6  -4    0.18    0.12
   6   6  -4    0.11    0.07
  -6  -6   4    0.16    0.12
   5   6  -4    1.26    0.12
   5   6  -4    1.25    0.13
  -5  -6   4    1.27    0.14
   4   6  -4    0.15    0.06
   4   6  -4    0.23    0.09
  -4  -6   4    0.29    0.09
   3   6  -4    2.56    0.15
   3   6  -4    2.57    0.18
   3   6  -4    2.42    0.14
  -3  -6   4    1.77    0.19
  -3  -6   4    2.66    0.17
   2   6  -4   11.10    0.33
   2   6  -4   10.95    0.33
   2   6  -4   10.92    0.36
  -2  -6   4   11.13    0.35
  -2  -6   4   10.65    0.35
   1   6  -4    0.11    0.06
   1   6  -4    0.10    0.07
   1   6  -4    0.03    0.05
  -1  -6   4    0.03    0.06
  -1  -6   4    0.04    0.07
   0   6  -4   21.89    0.62
   0   6  -4   21.95    0.59
   0   6  -4   22.32    0.58
   0  -6   4   22.05    0.60
   0  -6   4   21.88    0.60
  -1   6  -4    0.82    0.09
  -1   6  -4    0.90    0.07
  -1   6  -4    0.92    0.10
   1  -6   4    0.76    0.09
   1  -6   4    0.77    0.08
  -2   6  -4    1.74    0.14
  -2   6  -4    1.55    0.08
  -2   6  -4    1.67    0.11
   2  -6   4    1.60    0.11
   2  -6   4    1.82    0.13
  -3   6  -4    0.04    0.05
  -3   6  -4    0.00    0.06
   3  -6   4    0.03    0.06
   3  -6   4    0.19    0.06
  -4   6  -4    3.28    0.17
  -4   6  -4    2.64    0.14
   4  -6   4    3.04    0.15
   4  -6   4    2.97    0.15
   4  -6   4    2.84    0.15
  -5   6  -4    0.06    0.06
  -5   6  -4   -0.12    0.06
   5  -6   4   -0.02    0.05
   5  -6   4    0.04    0.05
   5  -6   4    0.02    0.05
  -6   6  -4    0.54    0.08
  -6   6  -4    0.57    0.09
   6  -6   4    0.56    0.08
   6  -6   4    0.56    0.07
  -7   6  -4   -0.02    0.07
  -7   6  -4    0.00    0.08
   7  -6   4    0.02    0.05
   7  -6   4    0.10    0.06
  -8   6  -4    0.24    0.09
  -8   6  -4    0.28    0.11
   8  -6   4    0.14    0.10
   8  -6   4    0.14    0.07
   8  -6   4    0.19    0.06
  -9   6  -4    0.94    0.13
   9  -6   4    1.10    0.11
   9  -6   4    0.89    0.14
   9  -6   4    1.00    0.10
 -10   6  -4   -0.19    0.11
  10  -6   4   -0.17    0.12
  10  -6   4    0.11    0.06
  10  -6   4    0.02    0.08
 -11   6  -4    3.65    0.28
  11  -6   4    3.80    0.17
  11  -6   4    3.66    0.22
  11  -6   4    4.01    0.31
   7   5  -4    2.50    0.16
   7   5  -4    2.33    0.22
  -7  -5   4    2.30    0.23
   6   5  -4    0.24    0.10
   6   5  -4    0.22    0.07
  -6  -5   4    0.39    0.10
   5   5  -4    6.97    0.23
   5   5  -4    6.96    0.26
  -5  -5   4    6.94    0.27
   4   5  -4    0.22    0.07
   4   5  -4    0.20    0.06
  -4  -5   4    0.25    0.08
   3   5  -4    1.25    0.11
   3   5  -4    1.37    0.10
   3   5  -4    1.53    0.14
  -3  -5   4    1.29    0.12
  -3  -5   4    1.51    0.13
   2   5  -4   -0.03    0.04
   2   5  -4    0.22    0.07
   2   5  -4   -0.04    0.05
  -2  -5   4    0.13    0.08
  -2  -5   4    0.11    0.06
   1   5  -4    3.03    0.13
   1   5  -4    3.04    0.16
   1   5  -4    3.01    0.13
  -1  -5   4    3.00    0.15
  -1  -5   4    3.19    0.15
   0   5  -4    0.03    0.04
   0   5  -4    0.02    0.06
   0   5  -4    0.03    0.04
   0  -5   4   -0.04    0.05
   0  -5   4    0.12    0.06
  -1   5  -4    9.98    0.29
  -1   5  -4    9.77    0.27
  -1   5  -4    9.73    0.31
   1  -5   4    9.57    0.30
   1  -5   4    9.32    0.29
  -2   5  -4    0.10    0.03
  -2   5  -4    0.10    0.06
  -2   5  -4    0.09    0.05
   2  -5   4    0.05    0.05
   2  -5   4    0.09    0.05
  -3   5  -4    0.09    0.03
  -3   5  -4    0.03    0.06
  -3   5  -4    0.06    0.05
   3  -5   4    0.00    0.05
   3  -5   4    0.13    0.04
  -4   5  -4    4.22    0.19
  -4   5  -4    4.40    0.17
   4  -5   4    4.31    0.17
   4  -5   4    4.08    0.17
   4  -5   4    4.23    0.17
  -5   5  -4   16.38    0.49
  -5   5  -4   16.51    0.45
   5  -5   4   16.81    0.46
   5  -5   4   16.64    0.45
   5  -5   4   15.77    0.43
   5  -5   4   16.57    0.45
  -6   5  -4    7.60    0.28
  -6   5  -4    7.43    0.25
   6  -5   4    7.80    0.25
   6  -5   4    7.47    0.24
  -7   5  -4    4.20    0.20
  -7   5  -4    3.85    0.18
   7  -5   4    4.27    0.17
   7  -5   4    3.98    0.16
  -8   5  -4    0.81    0.10
  -8   5  -4    0.75    0.11
   8  -5   4    1.02    0.11
   8  -5   4    0.69    0.11
   8  -5   4    0.77    0.09
  -9   5  -4    0.43    0.10
   9  -5   4    0.44    0.11
   9  -5   4    0.55    0.07
   9  -5   4    0.52    0.08
 -10   5  -4    2.92    0.22
  10  -5   4    3.31    0.14
  10  -5   4    3.31    0.24
  10  -5   4    3.07    0.17
 -11   5  -4    0.12    0.12
  11  -5   4    0.09    0.13
  11  -5   4    0.12    0.06
 -12   5  -4    3.23    0.25
 -12   5  -4    3.38    0.29
  12  -5   4    3.37    0.30
  12  -5   4    3.16    0.14
   8   4  -4    1.44    0.16
  -8  -4   4    1.37    0.16
   7   4  -4    1.44    0.15
   7   4  -4    1.46    0.12
  -7  -4   4    1.17    0.14
   6   4  -4    2.58    0.17
   6   4  -4    2.48    0.13
  -6  -4   4    2.09    0.18
   5   4  -4   -0.03    0.07
   5   4  -4    0.12    0.05
  -5  -4   4   -0.03    0.07
   4   4  -4    0.10    0.06
   4   4  -4    0.11    0.05
  -4  -4   4    0.09    0.07
  -4  -4   4    0.08    0.09
   3   4  -4    1.24    0.10
   3   4  -4    1.22    0.09
  -3  -4   4    1.36    0.11
  -3  -4   4    1.20    0.13
   2   4  -4    0.28    0.07
   2   4  -4    0.16    0.04
   2   4  -4    0.08    0.13
   2   4  -4    0.17    0.05
  -2  -4   4    0.17    0.05
  -2  -4   4    0.13    0.07
   1   4  -4    0.29    0.05
   1   4  -4    0.34    0.13
   1   4  -4    0.21    0.05
   1   4  -4    0.20    0.06
   1   4  -4    0.31    0.08
  -1  -4   4    0.28    0.06
  -1  -4   4    0.25    0.05
   0   4  -4    7.61    0.26
   0   4  -4    7.59    0.23
   0   4  -4    7.83    0.22
   0   4  -4    7.89    0.25
   0  -4   4    7.65    0.24
   0  -4   4    7.70    0.25
  -1   4  -4    6.99    0.23
  -1   4  -4    6.84    0.21
  -1   4  -4    6.76    0.20
   1  -4   4    6.78    0.22
   1  -4   4    6.71    0.22
  -2   4  -4    5.83    0.17
  -2   4  -4    6.22    0.21
  -2   4  -4    5.89    0.19
   2  -4   4    5.92    0.20
   2  -4   4    5.90    0.20
  -3   4  -4    8.36    0.27
  -3   4  -4    8.51    0.25
   3  -4   4    8.20    0.26
   3  -4   4    8.60    0.26
   3  -4   4    8.38    0.26
  -4   4  -4    4.28    0.17
   4  -4   4    5.22    0.18
   4  -4   4    5.10    0.17
   4  -4   4    5.19    0.18
   4  -4   4    4.80    0.16
  -5   4  -4    0.86    0.09
  -5   4  -4    1.33    0.10
   5  -4   4    1.18    0.09
   5  -4   4    1.22    0.13
   5  -4   4    1.41    0.09
   5  -4   4    1.18    0.09
  -6   4  -4    0.01    0.05
  -6   4  -4   -0.09    0.05
  -6   4  -4   -0.03    0.04
   6  -4   4    0.00    0.04
   6  -4   4    0.02    0.08
   6  -4   4    0.02    0.04
  -7   4  -4    7.11    0.24
  -7   4  -4    8.03    0.24
  -7   4  -4    7.25    0.26
   7  -4   4    7.08    0.25
   7  -4   4    7.20    0.23
   7  -4   4    6.85    0.22
  -8   4  -4    4.19    0.19
  -8   4  -4    4.57    0.21
   8  -4   4    4.68    0.22
   8  -4   4    4.13    0.16
   8  -4   4    4.22    0.17
  -9   4  -4    1.53    0.17
  -9   4  -4    1.27    0.15
   9  -4   4    1.51    0.11
   9  -4   4    1.60    0.09
   9  -4   4    1.67    0.17
 -10   4  -4   -0.13    0.09
  10  -4   4    0.13    0.07
  10  -4   4    0.19    0.05
  10  -4   4    0.00    0.10
 -11   4  -4    5.10    0.26
  11  -4   4    5.02    0.28
  11  -4   4    4.78    0.16
 -12   4  -4    0.10    0.11
 -12   4  -4   -0.09    0.13
  12  -4   4   -0.15    0.14
   8   3  -4    1.07    0.14
  -8  -3   4    0.86    0.14
   7   3  -4    1.34    0.16
  -7  -3   4    1.26    0.13
   6   3  -4    0.16    0.05
   6   3  -4    0.15    0.08
  -6  -3   4    0.22    0.08
   5   3  -4    1.00    0.11
   5   3  -4    0.92    0.08
  -5  -3   4    1.08    0.10
   4   3  -4    0.02    0.04
   4   3  -4    0.02    0.11
   4   3  -4   -0.02    0.05
  -4  -3   4    0.00    0.07
  -4  -3   4   -0.03    0.06
   3   3  -4    2.65    0.13
   3   3  -4    2.60    0.20
   3   3  -4    2.72    0.11
  -3  -3   4    2.82    0.13
  -3  -3   4    2.68    0.13
   2   3  -4    3.25    0.12
   2   3  -4    3.20    0.19
   2   3  -4    3.09    0.13
   2   3  -4    3.40    0.15
  -2  -3   4    3.24    0.14
  -2  -3   4    3.10    0.13
   1   3  -4   30.11    0.79
   1   3  -4   30.52    0.77
   1   3  -4   30.41    0.80
   1   3  -4   30.33    0.77
   1   3  -4   31.41    0.78
  -1  -3   4   30.57    0.77
  -1  -3   4   29.09    0.77
   0   3  -4   15.68    0.42
   0   3  -4   15.86    0.45
   0   3  -4   16.35    0.45
   0   3  -4   16.20    0.42
   0   3  -4   15.89    0.43
   0  -3   4   16.20    0.43
   0  -3   4   15.56    0.43
  -1   3  -4   52.10    1.28
  -1   3  -4   51.66    1.31
  -1   3  -4   51.97    1.27
  -1   3  -4   50.17    1.28
   1  -3   4   51.32    1.26
   1  -3   4   50.58    1.27
  -2   3  -4   37.06    0.90
  -2   3  -4   35.67    0.94
   2  -3   4   35.19    0.91
   2  -3   4   36.36    0.90
  -3   3  -4    0.37    0.06
  -3   3  -4    0.35    0.05
   3  -3   4    0.27    0.04
   3  -3   4    0.34    0.04
   3  -3   4    0.31    0.05
   3  -3   4    0.36    0.05
  -4   3  -4   31.18    0.80
  -4   3  -4   31.33    0.83
   4  -3   4   31.71    0.80
   4  -3   4   31.78    0.80
   4  -3   4   31.93    0.77
   4  -3   4   31.94    0.80
  -5   3  -4    0.78    0.09
  -5   3  -4    0.82    0.08
   5  -3   4    0.85    0.10
   5  -3   4    0.85    0.08
   5  -3   4    0.98    0.07
   5  -3   4    0.84    0.06
  -6   3  -4   32.40    0.86
  -6   3  -4   34.39    0.85
  -6   3  -4   34.63    0.90
   6  -3   4   33.99    0.85
   6  -3   4   34.04    0.85
   6  -3   4   33.62    0.85
  -7   3  -4    6.34    0.23
  -7   3  -4    6.37    0.21
   7  -3   4    6.37    0.20
   7  -3   4    6.15    0.20
   7  -3   4    6.24    0.21
  -8   3  -4   22.19    0.61
  -8   3  -4   21.37    0.57
   8  -3   4   21.37    0.57
   8  -3   4   21.26    0.56
   8  -3   4   21.34    0.60
   8  -3   4   22.05    0.56
  -9   3  -4    0.13    0.09
  -9   3  -4   -0.07    0.07
   9  -3   4    0.11    0.04
   9  -3   4    0.05    0.05
   9  -3   4    0.05    0.08
 -10   3  -4    4.02    0.20
  10  -3   4    4.03    0.14
  10  -3   4    3.79    0.22
 -11   3  -4    0.66    0.11
 -11   3  -4    0.63    0.11
  11  -3   4    0.53    0.05
  11  -3   4    0.47    0.12
 -12   3  -4    1.14    0.14
 -12   3  -4    1.21    0.15
  12  -3   4    1.17    0.16
 -13   3  -4    0.27    0.15
 -13   3  -4    0.17    0.13
  13  -3   4   -0.04    0.17
   9   2  -4   -0.13    0.12
   8   2  -4    0.28    0.10
  -8  -2   4    0.19    0.10
   7   2  -4    0.44    0.10
  -7  -2   4    0.35    0.08
   6   2  -4    0.52    0.05
   6   2  -4    0.40    0.08
  -6  -2   4    0.54    0.08
   5   2  -4    3.06    0.11
   5   2  -4    3.12    0.18
   5   2  -4    2.96    0.15
  -5  -2   4    2.75    0.15
  -5  -2   4    2.96    0.14
   4   2  -4    2.01    0.10
   4   2  -4    1.88    0.12
  -4  -2   4    2.13    0.12
  -4  -2   4    1.93    0.11
   3   2  -4    1.75    0.15
   3   2  -4    1.96    0.09
   3   2  -4    1.92    0.11
  -3  -2   4    1.78    0.10
  -3  -2   4    2.04    0.10
   2   2  -4    4.30    0.15
   2   2  -4    4.15    0.18
   2   2  -4    4.27    0.14
   2   2  -4    4.11    0.17
  -2  -2   4    4.31    0.15
  -2  -2   4    4.35    0.15
   1   2  -4   22.40    0.59
   1   2  -4   22.47    0.61
   1   2  -4   23.12    0.58
   1   2  -4   22.68    0.60
  -1  -2   4   23.11    0.58
  -1  -2   4   22.94    0.58
   0   2  -4   54.62    1.31
   0   2  -4   52.17    1.29
   0   2  -4   52.10    1.34
   0   2  -4   51.28    1.30
   0   2  -4   52.05    1.32
   0  -2   4   53.17    1.29
   0  -2   4   52.75    1.29
  -1   2  -4  103.10    2.45
  -1   2  -4   90.78    2.44
  -1   2  -4  102.15    2.52
  -1   2  -4  104.24    2.49
   1  -2   4  102.29    2.43
   1  -2   4  101.45    2.44
  -2   2  -4   73.30    1.82
  -2   2  -4   71.28    1.75
  -2   2  -4   71.53    1.76
   2  -2   4   72.62    1.75
   2  -2   4   70.70    1.75
   2  -2   4   72.53    1.76
  -3   2  -4    3.12    0.12
  -3   2  -4    2.96    0.11
   3  -2   4    2.99    0.12
   3  -2   4    2.84    0.11
   3  -2   4    2.69    0.11
   3  -2   4    2.93    0.11
  -4   2  -4    0.55    0.06
  -4   2  -4    0.52    0.06
   4  -2   4    0.61    0.06
   4  -2   4    0.54    0.06
   4  -2   4    0.45    0.05
  -5   2  -4    5.67    0.19
  -5   2  -4    5.61    0.17
   5  -2   4    5.70    0.18
   5  -2   4    5.40    0.17
   5  -2   4    5.62    0.18
  -6   2  -4    0.67    0.08
  -6   2  -4    0.57    0.06
   6  -2   4    0.61    0.06
   6  -2   4    0.62    0.06
   6  -2   4    0.57    0.06
  -7   2  -4   13.63    0.39
  -7   2  -4   12.93    0.36
   7  -2   4   13.00    0.35
   7  -2   4   13.37    0.36
   7  -2   4   13.01    0.38
   7  -2   4   13.05    0.36
  -8   2  -4    0.04    0.06
  -8   2  -4   -0.04    0.05
   8  -2   4    0.00    0.04
   8  -2   4   -0.06    0.06
   8  -2   4    0.03    0.07
   8  -2   4    0.01    0.03
  -9   2  -4    4.06    0.18
  -9   2  -4    4.23    0.18
  -9   2  -4    4.19    0.18
   9  -2   4    4.16    0.14
   9  -2   4    4.16    0.20
   9  -2   4    4.09    0.16
 -10   2  -4    0.45    0.08
 -10   2  -4    0.55    0.09
  10  -2   4    0.38    0.04
  10  -2   4    0.28    0.09
 -11   2  -4    5.95    0.25
 -11   2  -4    6.07    0.25
  11  -2   4    5.70    0.27
 -12   2  -4    2.86    0.21
 -12   2  -4    3.28    0.22
  12  -2   4    2.89    0.26
 -13   2  -4    1.78    0.18
  13  -2   4    1.71    0.20
   9   1  -4   -0.09    0.10
   8   1  -4    0.17    0.09
  -8  -1   4    0.30    0.09
   7   1  -4    0.22    0.08
  -7  -1   4    0.14    0.07
   6   1  -4    2.60    0.15
  -6  -1   4    2.56    0.13
   5   1  -4   27.61    0.67
   5   1  -4   26.98    0.72
   5   1  -4   26.54    0.69
  -5  -1   4   26.96    0.69
  -5  -1   4   26.68    0.67
   4   1  -4   80.91    1.99
   4   1  -4   83.97    1.98
   4   1  -4   82.17    2.05
  -4  -1   4   79.33    1.98
  -4  -1   4   82.18    1.98
   3   1  -4   49.31    1.20
   3   1  -4   48.80    1.19
   3   1  -4   48.04    1.23
  -3  -1   4   48.58    1.19
  -3  -1   4   48.11    1.19
   2   1  -4   44.38    1.11
   2   1  -4   44.79    1.10
   2   1  -4   44.23    1.13
   2   1  -4   44.07    1.09
  -2  -1   4   44.99    1.10
  -2  -1   4   45.19    1.09
   1   1  -4  141.23    3.39
   1   1  -4  136.75    3.50
   1   1  -4  141.45    3.40
   1   1  -4  139.50    3.37
   1   1  -4  141.11    3.48
  -1  -1   4  143.63    3.50
  -1  -1   4  140.91    3.39
  -1  -1   4  140.84    3.37
   0   1  -4   95.61    2.44
   0   1  -4   96.28    2.36
   0   1  -4   98.79    2.41
   0   1  -4   99.62    2.39
   0   1  -4   98.24    2.35
   0   1  -4   95.16    2.36
   0  -1   4   99.03    2.34
   0  -1   4   93.95    2.43
   0  -1   4  100.02    2.36
  -1   1  -4    7.31    0.20
  -1   1  -4    7.21    0.22
  -1   1  -4    7.42    0.21
  -1   1  -4    7.72    0.21
   1  -1   4    7.03    0.22
   1  -1   4    7.34    0.21
   1  -1   4    7.26    0.20
  -2   1  -4   18.14    0.46
  -2   1  -4   18.29    0.47
  -2   1  -4   18.18    0.46
  -2   1  -4   17.60    0.48
   2  -1   4   18.42    0.46
   2  -1   4   17.85    0.48
   2  -1   4   18.35    0.46
   2  -1   4   18.12    0.46
   2  -1   4   18.10    0.47
  -3   1  -4   17.84    0.49
  -3   1  -4   18.25    0.47
  -3   1  -4   20.04    0.48
  -3   1  -4   17.87    0.47
   3  -1   4   17.99    0.47
   3  -1   4   18.27    0.47
   3  -1   4   18.08    0.47
  -4   1  -4   58.27    1.43
  -4   1  -4   58.21    1.48
   4  -1   4   60.06    1.43
   4  -1   4   59.43    1.43
   4  -1   4   56.80    1.43
  -5   1  -4    1.84    0.09
  -5   1  -4    1.82    0.09
   5  -1   4    1.76    0.08
   5  -1   4    1.68    0.08
  -6   1  -4    1.28    0.08
  -6   1  -4    1.32    0.10
   6  -1   4    1.45    0.09
   6  -1   4    1.44    0.08
   6  -1   4    1.44    0.07
  -7   1  -4    0.25    0.06
  -7   1  -4    0.33    0.06
   7  -1   4    0.33    0.06
   7  -1   4    0.30    0.05
   7  -1   4    0.18    0.04
   7  -1   4    0.34    0.06
  -8   1  -4   59.14    1.51
  -8   1  -4   59.41    1.46
  -8   1  -4   58.22    1.51
   8  -1   4   59.79    1.45
   8  -1   4   58.75    1.50
   8  -1   4   60.73    1.47
   8  -1   4   59.54    1.45
  -9   1  -4    0.49    0.09
  -9   1  -4    0.38    0.07
  -9   1  -4    0.46    0.07
   9  -1   4    0.37    0.04
   9  -1   4    0.27    0.08
 -10   1  -4    6.56    0.24
 -10   1  -4    6.80    0.25
  10  -1   4    6.40    0.26
  10  -1   4    6.35    0.20
  10  -1   4    6.80    0.19
 -11   1  -4    0.10    0.08
 -11   1  -4    0.02    0.08
  11  -1   4    0.01    0.09
 -12   1  -4    4.29    0.22
 -12   1  -4    3.96    0.24
  12  -1   4    4.18    0.26
 -13   1  -4    0.73    0.14
  13  -1   4    0.50    0.17
   9   0  -4    0.50    0.11
  -9   0   4    0.48    0.09
   8   0  -4    1.10    0.12
  -8   0   4    1.31    0.14
   7   0  -4    0.04    0.07
  -7   0   4    0.14    0.06
   6   0  -4   22.17    0.61
  -6   0   4   22.32    0.57
  -5   0   4    1.26    0.10
   4   0  -4   70.79    1.70
   4   0  -4   70.86    1.71
   4   0  -4   69.52    1.77
  -4   0   4   70.43    1.70
  -4   0   4   69.03    1.70
   3   0  -4   15.05    0.42
   3   0  -4   15.24    0.39
   3   0  -4   15.70    0.40
  -3   0   4   15.63    0.39
  -3   0   4   15.35    0.40
   2   0  -4   19.81    0.48
   2   0  -4   19.09    0.49
   2   0  -4   19.31    0.49
   2   0  -4   19.09    0.51
  -2   0   4   19.01    0.48
  -2   0   4   19.43    0.48
  -2   0   4   18.81    0.52
   1   0  -4    5.02    0.15
   1   0  -4    4.88    0.15
   1   0  -4    4.98    0.15
   1   0  -4    4.84    0.15
  -1   0   4    4.69    0.17
  -1   0   4    4.99    0.14
  -1   0   4    5.06    0.14
   0   0  -4   46.47    1.12
   0   0  -4   44.93    1.17
   0   0  -4   46.84    1.13
   0   0  -4   45.44    1.13
   0   0  -4   46.36    1.14
   0   0   4   46.58    1.12
   0   0   4   46.66    1.13
   0   0   4   47.15    1.13
   0   0   4   45.43    1.17
  -1   0  -4    0.01    0.03
  -1   0  -4    0.05    0.03
  -1   0  -4    0.02    0.03
  -1   0  -4    0.01    0.02
  -1   0  -4    0.06    0.02
   1   0   4    0.03    0.02
   1   0   4    0.07    0.03
   1   0   4    0.01    0.02
   1   0   4    0.02    0.02
   1   0   4    0.03    0.02
  -2   0  -4    4.81    0.15
  -2   0  -4    4.87    0.15
  -2   0  -4    5.00    0.15
  -2   0  -4    4.91    0.15
  -2   0  -4    4.65    0.16
   2   0   4    4.86    0.14
   2   0   4    4.75    0.16
   2   0   4    5.07    0.15
   2   0   4    4.69    0.14
  -3   0  -4    0.53    0.06
  -3   0  -4    0.58    0.05
  -3   0  -4    0.60    0.05
  -3   0  -4    0.60    0.05
  -3   0  -4    0.57    0.05
   3   0   4    0.62    0.05
   3   0   4    0.58    0.04
   3   0   4    0.54    0.04
   3   0   4    0.60    0.05
   3   0   4    0.64    0.05
  -4   0  -4   45.31    1.12
  -4   0  -4   48.29    1.13
  -4   0  -4   44.36    1.15
  -4   0  -4   43.75    1.12
  -4   0  -4   46.64    1.12
  -4   0  -4   45.54    1.16
   4   0   4   45.67    1.12
   4   0   4   45.88    1.09
   4   0   4   46.40    1.12
   4   0   4   45.78    1.12
   4   0   4   44.65    1.16
  -5   0  -4    3.11    0.12
  -5   0  -4    3.18    0.11
  -5   0  -4    2.94    0.11
   5   0   4    2.50    0.10
   5   0   4    3.13    0.11
   5   0   4    2.99    0.10
   5   0   4    3.07    0.12
  -6   0  -4   -0.05    0.04
  -6   0  -4   -0.06    0.04
  -6   0  -4    0.03    0.04
   6   0   4    0.02    0.03
   6   0   4    0.01    0.04
   6   0   4    0.03    0.03
   6   0   4   -0.01    0.04
  -7   0  -4   92.96    2.30
  -7   0  -4   95.00    2.37
  -7   0  -4   91.67    2.37
   7   0   4   96.78    2.31
   7   0   4   97.12    2.30
   7   0   4   96.35    2.29
   7   0   4   93.61    2.35
  -8   0  -4   11.36    0.32
  -8   0  -4   11.40    0.33
  -8   0  -4   11.64    0.35
   8   0   4   11.64    0.34
   8   0   4   11.20    0.30
  -9   0  -4   23.77    0.62
  -9   0  -4   23.06    0.61
  -9   0  -4   23.19    0.64
   9   0   4   22.88    0.59
   9   0   4   23.35    0.58
   9   0   4   23.96    0.63
 -10   0  -4    4.05    0.17
 -10   0  -4    4.21    0.19
  10   0   4    4.15    0.13
  10   0   4    3.91    0.14
  10   0   4    4.05    0.20
 -11   0  -4    1.38    0.15
 -11   0  -4    1.23    0.14
  11   0   4    1.13    0.13
 -12   0  -4    0.23    0.11
  12   0   4   -0.01    0.12
 -13   0  -4    1.41    0.17
  13   0   4    1.51    0.19
  10  -1  -4   -0.24    0.12
   9  -1  -4    3.15    0.21
  -9   1   4    3.30    0.19
   8  -1  -4    0.61    0.10
  -8   1   4    0.56    0.08
   7  -1  -4    0.23    0.07
  -7   1   4    0.36    0.06
  -7   1   4    0.24    0.07
   6  -1  -4    0.46    0.07
  -6   1   4    0.42    0.06
   5  -1  -4   27.51    0.73
  -5   1   4   27.72    0.68
   4  -1  -4   38.34    1.01
   4  -1  -4   39.18    0.96
  -4   1   4   40.22    0.95
  -4   1   4   38.72    0.95
   3  -1  -4   37.96    0.92
   3  -1  -4   36.17    0.92
   3  -1  -4   35.84    0.95
  -3   1   4   38.71    0.91
  -3   1   4   38.18    0.91
   2  -1  -4    3.34    0.12
   2  -1  -4    3.59    0.11
   2  -1  -4    3.76    0.11
  -2   1   4    3.54    0.11
  -2   1   4    3.81    0.11
  -2   1   4    3.64    0.15
   1  -1  -4    4.19    0.11
   1  -1  -4    3.89    0.12
   1  -1  -4    3.89    0.12
   1  -1  -4    3.91    0.12
  -1   1   4    4.00    0.12
  -1   1   4    3.87    0.11
  -1   1   4    3.81    0.14
  -1   1   4    3.80    0.11
   0  -1  -4   60.06    1.38
   0  -1  -4   59.59    1.40
   0  -1  -4   57.17    1.42
   0  -1  -4   57.58    1.40
   0   1   4   57.12    1.40
   0   1   4   57.48    1.45
   0   1   4   56.49    1.38
   0   1   4   54.81    1.40
   0   1   4   59.07    1.42
   0   1   4   57.16    1.43
   0   1   4   56.30    1.40
  -1  -1  -4    0.03    0.02
  -1  -1  -4    0.06    0.02
  -1  -1  -4    0.09    0.03
  -1  -1  -4    0.07    0.02
  -1  -1  -4    0.04    0.02
   1   1   4    0.03    0.02
   1   1   4    0.04    0.02
   1   1   4    0.05    0.03
   1   1   4    0.06    0.02
   1   1   4    0.02    0.02
   1   1   4    0.07    0.02
  -2  -1  -4    0.39    0.04
  -2  -1  -4    0.43    0.04
  -2  -1  -4    0.45    0.04
  -2  -1  -4    0.43    0.04
  -2  -1  -4    0.48    0.04
   2   1   4    0.43    0.04
   2   1   4    0.39    0.04
   2   1   4    0.42    0.05
   2   1   4    0.50    0.04
  -3  -1  -4   14.57    0.40
  -3  -1  -4   15.48    0.38
  -3  -1  -4   14.73    0.39
  -3  -1  -4   15.02    0.39
  -3  -1  -4   15.34    0.38
   3   1   4   14.94    0.38
   3   1   4   14.85    0.40
   3   1   4   14.83    0.38
   3   1   4   15.21    0.38
   3   1   4   15.00    0.37
  -4  -1  -4   22.34    0.56
  -4  -1  -4   22.54    0.58
  -4  -1  -4   21.80    0.58
  -4  -1  -4   21.30    0.56
  -4  -1  -4   21.97    0.56
  -4  -1  -4   22.94    0.54
   4   1   4   22.90    0.56
   4   1   4   22.59    0.54
   4   1   4   22.19    0.56
   4   1   4   22.63    0.58
   4   1   4   21.79    0.55
  -5  -1  -4    0.59    0.03
  -5  -1  -4    0.52    0.06
  -5  -1  -4    0.50    0.05
  -5  -1  -4    0.58    0.06
   5   1   4    0.51    0.06
   5   1   4    0.49    0.03
   5   1   4    0.50    0.05
   5   1   4    0.60    0.05
   5   1   4    0.47    0.04
  -6  -1  -4   47.44    1.17
  -6  -1  -4   48.96    1.13
  -6  -1  -4   47.16    1.21
  -6  -1  -4   47.35    1.20
   6   1   4   47.07    1.19
   6   1   4   45.88    1.20
   6   1   4   48.49    1.16
   6   1   4   48.01    1.17
  -7  -1  -4    8.74    0.25
  -7  -1  -4    8.39    0.27
  -7  -1  -4    8.52    0.25
   7   1   4    8.51    0.23
   7   1   4    8.77    0.25
   7   1   4    8.20    0.25
   7   1   4    8.79    0.24
  -8  -1  -4  217.60    5.21
  -8  -1  -4  215.14    5.35
  -8  -1  -4  218.62    5.34
   8   1   4  204.91    5.34
   8   1   4  222.43    5.31
   8   1   4  217.58    5.19
  -9  -1  -4    1.20    0.11
  -9  -1  -4    0.99    0.11
  -9  -1  -4    1.04    0.11
   9   1   4    0.95    0.11
   9   1   4    1.11    0.09
   9   1   4    1.09    0.06
 -10  -1  -4    9.94    0.30
 -10  -1  -4   10.14    0.33
  10   1   4    9.55    0.27
  10   1   4   10.07    0.32
  10   1   4    9.92    0.26
 -11  -1  -4    0.78    0.11
 -11  -1  -4    0.73    0.10
  11   1   4    0.68    0.11
 -12  -1  -4    0.07    0.11
  12   1   4    0.32    0.12
 -13  -1  -4   -0.05    0.13
  13   1   4   -0.16    0.15
  10  -2  -4    0.85    0.15
 -10   2   4    0.64    0.12
   9  -2  -4    0.21    0.10
  -9   2   4    0.08    0.10
  -9   2   4    0.01    0.08
   8  -2  -4   13.13    0.41
  -8   2   4   12.52    0.37
   7  -2  -4    0.93    0.13
   7  -2  -4    1.06    0.12
  -7   2   4    0.93    0.10
   6  -2  -4   10.71    0.33
   6  -2  -4   10.77    0.37
  -6   2   4   10.91    0.31
   5  -2  -4    5.61    0.23
   5  -2  -4    5.75    0.20
  -5   2   4    5.56    0.18
   4  -2  -4   13.88    0.42
   4  -2  -4   14.00    0.39
  -4   2   4   14.50    0.38
  -4   2   4   14.17    0.38
   3  -2  -4   19.99    0.56
   3  -2  -4   20.25    0.54
   3  -2  -4   20.38    0.51
  -3   2   4   20.95    0.53
  -3   2   4   20.30    0.52
  -3   2   4   20.99    0.51
   2  -2  -4    0.27    0.03
   2  -2  -4    0.23    0.03
   2  -2  -4    0.14    0.03
  -2   2   4    0.29    0.03
  -2   2   4    0.30    0.04
  -2   2   4    0.15    0.03
  -2   2   4    0.21    0.03
   1  -2  -4   95.99    2.35
   1  -2  -4   97.32    2.41
   1  -2  -4   95.19    2.40
   1  -2  -4   99.58    2.34
  -1   2   4   98.55    2.32
  -1   2   4   94.90    2.40
  -1   2   4   96.37    2.34
  -1   2   4   96.40    2.34
  -1   2   4   99.72    2.40
  -1   2   4   97.91    2.34
   0  -2  -4   31.52    0.80
   0  -2  -4   33.55    0.80
   0  -2  -4   33.33    0.78
   0  -2  -4   32.05    0.82
   0   2   4   31.43    0.83
   0   2   4   32.39    0.79
   0   2   4   32.43    0.79
   0   2   4   32.42    0.79
   0   2   4   33.09    0.81
   0   2   4   32.49    0.82
   0   2   4   31.63    0.80
  -1  -2  -4   67.73    1.62
  -1  -2  -4   65.65    1.67
  -1  -2  -4   65.42    1.63
  -1  -2  -4   67.11    1.63
   1   2   4   70.64    1.66
   1   2   4   66.44    1.62
   1   2   4   66.38    1.60
   1   2   4   67.87    1.68
   1   2   4   67.61    1.62
   1   2   4   68.64    1.66
   1   2   4   64.89    1.63
  -2  -2  -4    2.37    0.08
  -2  -2  -4    2.51    0.08
  -2  -2  -4    2.48    0.09
  -2  -2  -4    2.41    0.09
  -2  -2  -4    2.62    0.08
   2   2   4    2.46    0.08
   2   2   4    2.39    0.09
   2   2   4    2.50    0.09
   2   2   4    2.33    0.08
   2   2   4    2.54    0.09
   2   2   4    2.40    0.08
  -3  -2  -4  253.53    6.09
  -3  -2  -4  248.22    6.28
  -3  -2  -4  257.12    6.02
  -3  -2  -4  245.08    6.28
  -3  -2  -4  253.55    6.10
  -3  -2  -4  254.68    6.12
   3   2   4  253.21    6.16
   3   2   4  250.00    6.13
   3   2   4  253.91    6.26
   3   2   4  255.66    6.04
   3   2   4  261.01    6.22
   3   2   4  253.39    6.08
  -4  -2  -4    4.49    0.14
  -4  -2  -4    4.66    0.15
  -4  -2  -4    4.63    0.14
  -4  -2  -4    4.60    0.15
  -4  -2  -4    5.18    0.13
  -4  -2  -4    4.86    0.15
   4   2   4    4.90    0.15
   4   2   4    4.59    0.15
   4   2   4    4.73    0.15
   4   2   4    4.53    0.14
   4   2   4    4.88    0.14
   4   2   4    4.87    0.13
  -5  -2  -4   87.01    2.04
  -5  -2  -4   85.31    2.14
  -5  -2  -4   83.34    2.14
  -5  -2  -4   84.90    2.09
   5   2   4   87.79    2.11
   5   2   4   86.04    2.08
   5   2   4   85.63    2.14
   5   2   4   86.47    2.04
   5   2   4   85.78    2.08
  -6  -2  -4    0.34    0.06
  -6  -2  -4    0.25    0.05
  -6  -2  -4    0.29    0.03
  -6  -2  -4    0.24    0.05
   6   2   4    0.42    0.04
   6   2   4    0.32    0.05
   6   2   4    0.27    0.03
   6   2   4    0.29    0.04
   6   2   4    0.15    0.04
  -7  -2  -4    4.83    0.16
  -7  -2  -4    4.78    0.17
  -7  -2  -4    4.90    0.14
  -7  -2  -4    4.98    0.18
   7   2   4    4.93    0.16
   7   2   4    4.79    0.14
   7   2   4    4.85    0.16
   7   2   4    4.67    0.16
  -8  -2  -4    0.05    0.05
  -8  -2  -4    0.08    0.04
  -8  -2  -4    0.13    0.07
  -8  -2  -4   -0.10    0.06
   8   2   4    0.24    0.05
   8   2   4    0.20    0.03
  -9  -2  -4    5.87    0.18
  -9  -2  -4    6.00    0.23
  -9  -2  -4    5.96    0.19
  -9  -2  -4    5.98    0.22
   9   2   4    6.00    0.17
   9   2   4    6.03    0.19
   9   2   4    4.81    0.20
 -10  -2  -4    1.89    0.15
  10   2   4    1.82    0.11
  10   2   4    2.07    0.15
  10   2   4    2.01    0.08
 -11  -2  -4    2.70    0.18
  11   2   4    2.61    0.20
 -12  -2  -4    0.30    0.12
  12   2   4    0.19    0.13
 -13  -2  -4   -0.25    0.14
 -13  -2  -4   -0.05    0.10
  10  -3  -4    0.00    0.12
 -10   3   4   -0.05    0.10
   9  -3  -4    0.83    0.12
   9  -3  -4    0.77    0.16
  -9   3   4    0.77    0.09
  -9   3   4    0.82    0.12
   8  -3  -4    0.13    0.08
   8  -3  -4    0.14    0.11
  -8   3   4    0.08    0.08
  -8   3   4   -0.05    0.06
   7  -3  -4    3.68    0.17
   7  -3  -4    3.49    0.22
  -7   3   4    3.57    0.15
   6  -3  -4    0.25    0.06
   6  -3  -4    0.09    0.07
  -6   3   4    0.14    0.05
   5  -3  -4   11.66    0.33
   5  -3  -4   11.41    0.36
  -5   3   4   11.15    0.35
  -5   3   4   11.18    0.31
   4  -3  -4   19.41    0.52
   4  -3  -4   19.45    0.55
  -4   3   4   19.33    0.53
  -4   3   4   19.83    0.48
  -4   3   4   19.98    0.50
   3  -3  -4    5.19    0.19
   3  -3  -4    5.11    0.17
   3  -3  -4    5.54    0.16
   3  -3  -4    5.28    0.15
  -3   3   4    5.21    0.18
  -3   3   4    5.42    0.14
  -3   3   4    5.09    0.16
   2  -3  -4   11.35    0.31
   2  -3  -4   11.23    0.32
   2  -3  -4   11.32    0.31
  -2   3   4   11.50    0.30
  -2   3   4   11.57    0.32
  -2   3   4   11.92    0.29
   1  -3  -4   37.02    0.94
   1  -3  -4   36.03    0.94
   1  -3  -4   37.30    0.91
   1  -3  -4   37.55    0.92
  -1   3   4   37.33    0.90
  -1   3   4   38.68    0.91
  -1   3   4   37.50    0.94
  -1   3   4   35.46    0.91
  -1   3   4   37.88    0.94
   0  -3  -4    2.53    0.08
   0  -3  -4    2.54    0.09
   0  -3  -4    2.44    0.10
   0  -3  -4    2.47    0.07
   0  -3  -4    2.41    0.10
   0   3   4    2.42    0.09
   0   3   4    2.43    0.07
   0   3   4    2.54    0.09
   0   3   4    2.43    0.08
   0   3   4    2.49    0.10
   0   3   4    2.46    0.08
  -1  -3  -4   22.29    0.56
  -1  -3  -4   23.06    0.55
  -1  -3  -4   21.51    0.58
  -1  -3  -4   21.85    0.54
  -1  -3  -4   21.79    0.54
   1   3   4   21.81    0.54
   1   3   4   22.30    0.57
   1   3   4   22.03    0.55
   1   3   4   22.36    0.56
   1   3   4   22.65    0.56
  -2  -3  -4  100.30    2.38
  -2  -3  -4   97.39    2.45
  -2  -3  -4   97.01    2.35
  -2  -3  -4  100.08    2.38
  -2  -3  -4   96.66    2.39
   2   3   4  100.68    2.39
   2   3   4   94.67    2.35
   2   3   4   96.48    2.38
   2   3   4  101.56    2.44
   2   3   4  100.86    2.41
   2   3   4   99.28    2.46
  -3  -3  -4    2.42    0.08
  -3  -3  -4    2.35    0.08
  -3  -3  -4    2.36    0.10
  -3  -3  -4    2.40    0.08
   3   3   4    2.21    0.08
   3   3   4    2.28    0.09
   3   3   4    2.41    0.10
   3   3   4    2.28    0.10
   3   3   4    2.32    0.08
  -4  -3  -4  265.93    6.50
  -4  -3  -4  264.15    6.65
  -4  -3  -4  279.84    6.42
  -4  -3  -4  265.77    6.50
  -4  -3  -4  261.58    6.49
   4   3   4  268.74    6.45
   4   3   4  270.65    6.49
   4   3   4  287.58    6.65
   4   3   4  269.60    6.67
   4   3   4  268.33    6.55
  -5  -3  -4   45.67    1.08
  -5  -3  -4   44.68    1.12
  -5  -3  -4   44.56    1.15
   5   3   4   44.75    1.08
   5   3   4   44.42    1.11
   5   3   4   45.38    1.13
   5   3   4   45.09    1.11
   5   3   4   45.75    1.10
  -6  -3  -4   22.76    0.61
  -6  -3  -4   22.82    0.59
  -6  -3  -4   22.33    0.56
   6   3   4   22.68    0.57
   6   3   4   22.90    0.58
   6   3   4   22.55    0.57
   6   3   4   23.07    0.58
   6   3   4   22.63    0.56
  -7  -3  -4    5.01    0.16
  -7  -3  -4    5.25    0.19
  -7  -3  -4    4.78    0.19
   7   3   4    4.75    0.17
   7   3   4    4.99    0.15
   7   3   4    5.07    0.16
   7   3   4    5.19    0.15
  -8  -3  -4    9.84    0.32
  -8  -3  -4   10.11    0.31
   8   3   4   10.04    0.27
   8   3   4   10.56    0.29
   8   3   4    9.99    0.29
  -9  -3  -4    2.67    0.16
  -9  -3  -4    2.54    0.18
   9   3   4    2.81    0.14
   9   3   4    2.55    0.13
   9   3   4    2.65    0.10
 -10  -3  -4    2.15    0.16
  10   3   4    2.08    0.13
  10   3   4    2.12    0.16
  10   3   4    2.18    0.09
 -11  -3  -4    0.75    0.10
 -11  -3  -4    0.86    0.12
 -12  -3  -4    0.34    0.13
 -12  -3  -4    0.02    0.09
 -13  -3  -4    0.34    0.11
 -13  -3  -4    0.02    0.16
  10  -4  -4    0.26    0.19
  10  -4  -4    0.10    0.12
 -10   4   4    0.33    0.15
 -10   4   4    0.08    0.10
   9  -4  -4    0.63    0.11
   9  -4  -4    0.68    0.16
  -9   4   4    0.55    0.09
  -9   4   4    0.65    0.12
   8  -4  -4    5.30    0.29
   8  -4  -4    5.53    0.23
  -8   4   4    5.39    0.20
  -8   4   4    5.58    0.24
   7  -4  -4    1.38    0.12
   7  -4  -4    1.64    0.18
  -7   4   4    1.48    0.11
   6  -4  -4    3.52    0.19
   6  -4  -4    3.39    0.15
  -6   4   4    3.45    0.13
   5  -4  -4    0.27    0.07
   5  -4  -4    0.22    0.05
  -5   4   4    0.20    0.04
   4  -4  -4    9.60    0.25
   4  -4  -4    9.27    0.30
   4  -4  -4    8.96    0.27
   4  -4  -4    9.19    0.24
  -4   4   4    9.32    0.24
  -4   4   4    9.02    0.26
   3  -4  -4    1.70    0.11
   3  -4  -4    1.62    0.09
   3  -4  -4    1.66    0.08
  -3   4   4    1.68    0.13
  -3   4   4    1.66    0.07
  -3   4   4    1.69    0.08
   2  -4  -4    0.63    0.07
   2  -4  -4    0.57    0.06
   2  -4  -4    0.55    0.05
   2  -4  -4    0.39    0.04
  -2   4   4    0.52    0.05
  -2   4   4    0.50    0.07
  -2   4   4    0.54    0.05
   1  -4  -4  130.55    3.22
   1  -4  -4  131.72    3.17
   1  -4  -4  128.51    3.24
   1  -4  -4  135.24    3.15
  -1   4   4  128.86    3.11
  -1   4   4  131.81    3.24
  -1   4   4  127.14    3.22
  -1   4   4  132.07    3.15
   0  -4  -4   13.08    0.34
   0  -4  -4   13.14    0.32
   0  -4  -4   12.53    0.33
   0  -4  -4   12.55    0.36
   0  -4  -4   12.89    0.32
   0  -4  -4   13.09    0.35
   0  -4  -4   13.40    0.33
   0   4   4   12.44    0.34
   0   4   4   13.00    0.34
   0   4   4   13.04    0.33
   0   4   4   13.19    0.33
   0   4   4   13.04    0.36
  -1  -4  -4    0.04    0.04
  -1  -4  -4    0.16    0.04
  -1  -4  -4   -0.01    0.02
  -1  -4  -4   -0.05    0.02
  -1  -4  -4   -0.02    0.02
  -1  -4  -4   -0.01    0.02
   1   4   4    0.02    0.02
   1   4   4    0.07    0.02
   1   4   4    0.01    0.03
   1   4   4    0.03    0.04
   1   4   4    0.01    0.02
  -2  -4  -4    4.01    0.12
  -2  -4  -4    4.05    0.12
  -2  -4  -4    4.12    0.11
  -2  -4  -4    3.97    0.15
  -2  -4  -4    3.97    0.12
  -2  -4  -4    4.01    0.14
   2   4   4    3.89    0.14
   2   4   4    4.01    0.12
   2   4   4    4.05    0.12
  -3  -4  -4  217.28    5.33
  -3  -4  -4  225.60    5.41
  -3  -4  -4  229.04    5.41
  -3  -4  -4  220.46    5.54
  -3  -4  -4  225.29    5.43
   3   4   4  235.69    5.54
   3   4   4  227.74    5.42
   3   4   4  219.63    5.44
   3   4   4  225.67    5.38
   3   4   4  223.33    5.56
  -4  -4  -4   -0.02    0.03
  -4  -4  -4    0.06    0.04
   4   4   4    0.05    0.05
   4   4   4    0.00    0.03
   4   4   4    0.17    0.04
   4   4   4    0.07    0.03
  -5  -4  -4   72.68    1.67
  -5  -4  -4   68.97    1.76
  -5  -4  -4   68.03    1.71
   5   4   4   69.73    1.73
   5   4   4   69.74    1.67
   5   4   4   68.68    1.70
   5   4   4   68.77    1.69
  -6  -4  -4    0.43    0.07
  -6  -4  -4    0.54    0.08
   6   4   4    0.43    0.05
   6   4   4    0.55    0.05
   6   4   4    0.57    0.07
   6   4   4    0.46    0.05
  -7  -4  -4    0.04    0.07
  -7  -4  -4   -0.07    0.06
   7   4   4   -0.01    0.06
   7   4   4   -0.01    0.03
  -8  -4  -4    0.75    0.09
  -8  -4  -4    0.88    0.11
   8   4   4    0.85    0.09
   8   4   4    0.87    0.06
  -9  -4  -4    0.70    0.12
  -9  -4  -4    0.94    0.11
   9   4   4    0.76    0.06
 -10  -4  -4    2.38    0.15
 -10  -4  -4    2.21    0.18
  10   4   4    2.54    0.10
 -11  -4  -4   -0.05    0.11
 -11  -4  -4    0.05    0.07
 -12  -4  -4    0.21    0.14
 -12  -4  -4    0.25    0.10
  10  -5  -4   -0.03    0.13
  10  -5  -4    0.18    0.18
 -10   5   4    0.15    0.14
   9  -5  -4    3.00    0.20
   9  -5  -4    3.12    0.30
  -9   5   4    2.40    0.16
  -9   5   4    2.75    0.23
   8  -5  -4    2.41    0.17
   8  -5  -4    2.53    0.23
  -8   5   4    2.37    0.19
  -8   5   4    2.07    0.14
   7  -5  -4    2.63    0.15
   7  -5  -4    2.91    0.21
  -7   5   4    2.66    0.13
   6  -5  -4    0.21    0.06
   6  -5  -4    0.35    0.09
  -6   5   4    0.25    0.05
   5  -5  -4    1.01    0.06
   5  -5  -4    0.88    0.09
   5  -5  -4    1.10    0.07
   5  -5  -4    1.06    0.09
  -5   5   4    1.05    0.08
   4  -5  -4    2.15    0.13
   4  -5  -4    2.11    0.10
   4  -5  -4    2.27    0.09
   4  -5  -4    2.17    0.10
  -4   5   4    2.21    0.09
  -4   5   4    2.20    0.10
   3  -5  -4    7.82    0.22
   3  -5  -4    6.34    0.23
   3  -5  -4    6.60    0.19
   3  -5  -4    6.61    0.21
  -3   5   4    6.69    0.20
  -3   5   4    7.24    0.19
   2  -5  -4   74.83    1.78
   2  -5  -4   72.18    1.83
   2  -5  -4   73.46    1.83
   2  -5  -4   73.84    1.80
  -2   5   4   74.18    1.78
  -2   5   4   72.58    1.77
   1  -5  -4   12.46    0.31
   1  -5  -4   12.64    0.35
   1  -5  -4   12.68    0.35
   1  -5  -4   12.10    0.36
   1  -5  -4   12.76    0.33
  -1   5   4   12.71    0.33
  -1   5   4   12.98    0.35
  -1   5   4   12.55    0.33
   0  -5  -4    2.65    0.10
   0  -5  -4    2.82    0.12
   0  -5  -4    2.61    0.09
   0  -5  -4    2.58    0.12
   0  -5  -4    2.71    0.09
   0   5   4    2.61    0.09
   0   5   4    2.60    0.09
  -1  -5  -4    0.21    0.03
  -1  -5  -4    0.18    0.05
  -1  -5  -4    0.23    0.03
  -1  -5  -4    0.39    0.05
  -1  -5  -4    0.25    0.03
   1   5   4    0.30    0.03
   1   5   4    0.26    0.03
   1   5   4    0.19    0.05
  -2  -5  -4   52.57    1.28
  -2  -5  -4   54.10    1.30
  -2  -5  -4   52.96    1.29
  -2  -5  -4   51.64    1.31
  -2  -5  -4   52.15    1.34
   2   5   4   52.62    1.31
   2   5   4   53.72    1.29
   2   5   4   51.87    1.27
  -3  -5  -4   88.60    2.17
  -3  -5  -4   87.81    2.22
  -3  -5  -4   88.87    2.14
   3   5   4   87.38    2.15
   3   5   4   88.90    2.12
   3   5   4   90.25    2.17
  -4  -5  -4   46.29    1.15
  -4  -5  -4   45.35    1.13
  -4  -5  -4   45.69    1.18
   4   5   4   45.42    1.11
   4   5   4   46.17    1.13
   4   5   4   45.95    1.16
   4   5   4   45.77    1.14
  -5  -5  -4   21.84    0.58
  -5  -5  -4   21.79    0.60
  -5  -5  -4   21.50    0.56
   5   5   4   21.13    0.57
   5   5   4   21.69    0.55
   5   5   4   21.89    0.56
   5   5   4   21.99    0.55
  -6  -5  -4    0.01    0.04
  -6  -5  -4    0.08    0.06
  -6  -5  -4    0.16    0.07
   6   5   4    0.08    0.03
   6   5   4    0.07    0.08
   6   5   4    0.02    0.04
  -7  -5  -4    1.55    0.12
  -7  -5  -4    1.66    0.15
  -7  -5  -4    1.68    0.10
   7   5   4    1.64    0.08
   7   5   4    1.65    0.15
  -8  -5  -4    0.11    0.07
  -8  -5  -4    0.17    0.10
  -8  -5  -4    0.20    0.05
   8   5   4    0.19    0.09
   8   5   4    0.20    0.04
  -9  -5  -4    0.54    0.08
  -9  -5  -4    0.69    0.10
   9   5   4    0.56    0.05
 -10  -5  -4    3.06    0.20
 -10  -5  -4    2.99    0.17
  10   5   4    3.16    0.12
 -11  -5  -4    1.14    0.13
 -11  -5  -4    1.17    0.15
  11   5   4    0.87    0.09
 -12  -5  -4    0.59    0.12
 -12  -5  -4    0.60    0.16
   9  -6  -4    0.73    0.12
   9  -6  -4    0.64    0.16
  -9   6   4    0.61    0.10
  -9   6   4    0.63    0.14
   8  -6  -4    3.81    0.21
   8  -6  -4    4.26    0.28
  -8   6   4    3.72    0.17
  -8   6   4    3.68    0.23
   7  -6  -4    6.96    0.30
   7  -6  -4    6.85    0.25
  -7   6   4    7.05    0.23
  -7   6   4    6.76    0.28
   6  -6  -4    1.62    0.12
   6  -6  -4    1.36    0.16
  -6   6   4    1.68    0.11
   5  -6  -4    0.44    0.06
   5  -6  -4    0.42    0.05
   5  -6  -4    0.41    0.08
   5  -6  -4    0.38    0.06
  -5   6   4    0.39    0.05
  -5   6   4    0.48    0.06
   4  -6  -4    3.00    0.15
   4  -6  -4    2.28    0.11
   4  -6  -4    2.53    0.12
  -4   6   4    2.58    0.11
  -4   6   4    2.56    0.11
   3  -6  -4    3.84    0.14
   3  -6  -4    4.19    0.17
   3  -6  -4    4.50    0.14
   3  -6  -4    4.29    0.16
  -3   6   4    4.31    0.14
  -3   6   4    4.33    0.14
   2  -6  -4    0.32    0.03
   2  -6  -4    0.39    0.06
   2  -6  -4    0.38    0.06
   2  -6  -4    0.36    0.04
   2  -6  -4    0.30    0.05
  -2   6   4    0.33    0.04
  -2   6   4    0.44    0.05
   1  -6  -4   20.82    0.54
   1  -6  -4   20.03    0.52
   1  -6  -4   20.22    0.54
   1  -6  -4   20.32    0.51
  -1   6   4   20.84    0.52
  -1   6   4   20.14    0.52
   0  -6  -4    0.33    0.05
   0  -6  -4    0.28    0.06
   0  -6  -4    0.24    0.05
   0  -6  -4    0.23    0.04
   0  -6  -4    0.19    0.04
   0   6   4    0.20    0.04
   0   6   4    0.21    0.04
  -1  -6  -4    3.20    0.12
  -1  -6  -4    3.16    0.11
  -1  -6  -4    2.93    0.14
  -1  -6  -4    3.28    0.11
  -1  -6  -4    3.26    0.14
   1   6   4    3.20    0.11
   1   6   4    3.17    0.12
  -2  -6  -4    0.16    0.05
  -2  -6  -4    0.21    0.03
  -2  -6  -4    0.19    0.06
  -2  -6  -4    0.13    0.03
   2   6   4    0.17    0.04
   2   6   4    0.15    0.04
  -3  -6  -4   36.81    0.90
  -3  -6  -4   36.95    0.96
  -3  -6  -4   36.24    0.93
   3   6   4   36.58    0.89
   3   6   4   34.93    0.93
   3   6   4   36.16    0.90
  -4  -6  -4   14.73    0.43
  -4  -6  -4   14.49    0.42
  -4  -6  -4   14.29    0.39
   4   6   4   14.49    0.38
   4   6   4   14.57    0.42
   4   6   4   14.44    0.38
  -5  -6  -4   22.03    0.62
  -5  -6  -4   21.88    0.58
  -5  -6  -4   22.62    0.61
   5   6   4   22.40    0.57
   5   6   4   21.82    0.60
   5   6   4   21.96    0.57
   5   6   4   22.14    0.56
  -6  -6  -4    6.26    0.24
  -6  -6  -4    6.00    0.21
  -6  -6  -4    6.16    0.23
   6   6   4    6.07    0.19
   6   6   4    5.86    0.25
   6   6   4    6.17    0.19
  -7  -6  -4    1.16    0.13
  -7  -6  -4    1.09    0.12
  -7  -6  -4    1.03    0.10
  -7  -6  -4    1.09    0.10
   7   6   4    1.04    0.13
   7   6   4    0.87    0.07
  -8  -6  -4    0.16    0.06
  -8  -6  -4    0.01    0.12
  -8  -6  -4    0.08    0.08
   8   6   4    0.02    0.04
  -9  -6  -4   -0.03    0.09
  -9  -6  -4    0.10    0.06
   9   6   4   -0.03    0.04
 -10  -6  -4    8.87    0.35
 -10  -6  -4    9.23    0.32
  10   6   4    8.60    0.26
 -11  -6  -4    2.37    0.25
 -11  -6  -4    2.42    0.20
  11   6   4    2.43    0.12
 -12  -6  -4    1.88    0.22
 -12  -6  -4    1.96    0.21
   9  -7  -4    0.55    0.13
   9  -7  -4    0.70    0.17
  -9   7   4    0.86    0.15
   8  -7  -4    0.78    0.15
   8  -7  -4    0.76    0.11
  -8   7   4    0.85    0.13
  -8   7   4    0.70    0.09
   7  -7  -4    0.88    0.10
   7  -7  -4    0.93    0.14
  -7   7   4    0.96    0.09
  -7   7   4    0.93    0.12
   6  -7  -4    6.53    0.22
   6  -7  -4    6.07    0.19
   6  -7  -4    6.54    0.20
   6  -7  -4    6.43    0.27
  -6   7   4    6.08    0.21
  -6   7   4    6.34    0.26
   5  -7  -4    3.82    0.15
   5  -7  -4    3.96    0.20
   5  -7  -4    3.84    0.15
  -5   7   4    3.91    0.16
  -5   7   4    3.83    0.15
   4  -7  -4    0.39    0.06
   4  -7  -4    0.39    0.06
   4  -7  -4    0.49    0.06
   4  -7  -4    0.40    0.07
  -4   7   4    0.45    0.06
  -4   7   4    0.43    0.05
   3  -7  -4    0.49    0.07
   3  -7  -4    0.67    0.07
   3  -7  -4    0.57    0.06
   3  -7  -4    0.64    0.07
  -3   7   4    0.66    0.07
  -3   7   4    0.76    0.08
   2  -7  -4    7.51    0.21
   2  -7  -4    7.77    0.25
   2  -7  -4    7.82    0.22
   2  -7  -4    7.48    0.23
   2  -7  -4    7.55    0.25
  -2   7   4    7.96    0.23
  -2   7   4    7.60    0.22
   1  -7  -4   -0.03    0.05
   1  -7  -4    0.00    0.04
   1  -7  -4    0.01    0.04
   1  -7  -4    0.03    0.05
  -1   7   4    0.01    0.04
  -1   7   4    0.07    0.04
   0  -7  -4   20.01    0.51
   0  -7  -4   20.37    0.53
   0  -7  -4   19.82    0.56
   0  -7  -4   19.54    0.52
   0  -7  -4   19.69    0.55
   0   7   4   20.22    0.51
   0   7   4   20.30    0.52
  -1  -7  -4   -0.03    0.03
  -1  -7  -4   -0.03    0.04
  -1  -7  -4    0.02    0.05
  -1  -7  -4   -0.02    0.05
   1   7   4   -0.02    0.04
   1   7   4   -0.02    0.04
  -2  -7  -4   14.59    0.42
  -2  -7  -4   13.71    0.42
  -2  -7  -4   14.76    0.38
  -2  -7  -4   14.30    0.39
   2   7   4   14.70    0.38
   2   7   4   14.10    0.38
  -3  -7  -4    7.79    0.26
  -3  -7  -4    7.55    0.23
  -3  -7  -4    7.56    0.27
   3   7   4    7.98    0.23
   3   7   4    7.56    0.23
  -4  -7  -4   14.87    0.42
  -4  -7  -4   15.40    0.39
  -4  -7  -4   15.14    0.45
  -4  -7  -4   14.85    0.45
   4   7   4   15.62    0.41
   4   7   4   15.04    0.40
  -5  -7  -4   14.56    0.44
  -5  -7  -4   14.71    0.44
  -5  -7  -4   14.32    0.41
   5   7   4   14.63    0.39
   5   7   4   13.96    0.45
   5   7   4   14.56    0.38
   5   7   4   14.29    0.39
  -6  -7  -4    1.73    0.12
  -6  -7  -4    1.81    0.15
  -6  -7  -4    1.61    0.18
   6   7   4    1.79    0.10
   6   7   4    1.88    0.17
  -7  -7  -4   10.45    0.37
  -7  -7  -4   10.53    0.33
  -7  -7  -4   10.57    0.36
   7   7   4   10.63    0.30
  -8  -7  -4    0.12    0.06
  -8  -7  -4    0.10    0.09
  -8  -7  -4    0.00    0.13
   8   7   4    0.09    0.05
  -9  -7  -4    3.27    0.22
  -9  -7  -4    2.94    0.18
   9   7   4    3.20    0.14
 -10  -7  -4    8.00    0.35
 -10  -7  -4    8.07    0.31
  10   7   4    8.07    0.25
 -11  -7  -4    9.73    0.42
 -11  -7  -4   10.13    0.37
  11   7   4    9.72    0.29
   9  -8  -4    0.68    0.19
   9  -8  -4    0.96    0.15
  -9   8   4    1.08    0.16
   8  -8  -4    0.23    0.13
   8  -8  -4    0.27    0.11
  -8   8   4    0.32    0.12
  -8   8   4    0.35    0.09
   7  -8  -4    5.92    0.23
   7  -8  -4    6.09    0.30
  -7   8   4    6.14    0.22
  -7   8   4    5.89    0.28
   6  -8  -4    4.01    0.16
   6  -8  -4    3.97    0.23
   6  -8  -4    3.91    0.17
  -6   8   4    3.97    0.17
  -6   8   4    4.15    0.22
   5  -8  -4    6.01    0.25
   5  -8  -4    5.83    0.20
   5  -8  -4    6.04    0.21
  -5   8   4    6.06    0.24
  -5   8   4    5.92    0.20
   4  -8  -4   -0.04    0.05
   4  -8  -4   -0.03    0.07
   4  -8  -4    0.02    0.05
  -4   8   4    0.01    0.05
  -4   8   4   -0.01    0.07
   3  -8  -4    0.06    0.05
   3  -8  -4    0.07    0.07
   3  -8  -4    0.04    0.06
   3  -8  -4    0.07    0.04
   3  -8  -4    0.01    0.04
  -3   8   4    0.18    0.06
  -3   8   4    0.04    0.05
  -3   8   4    0.01    0.06
   2  -8  -4    3.08    0.12
   2  -8  -4    3.14    0.16
   2  -8  -4    3.38    0.11
   2  -8  -4    3.32    0.16
   2  -8  -4    3.16    0.16
  -2   8   4    3.25    0.14
  -2   8   4    3.17    0.13
  -2   8   4    2.97    0.14
   1  -8  -4    2.57    0.13
   1  -8  -4    2.64    0.15
   1  -8  -4    2.62    0.15
   1  -8  -4    2.61    0.12
  -1   8   4    2.73    0.13
  -1   8   4    2.61    0.12
   0  -8  -4    0.81    0.08
   0  -8  -4    0.71    0.08
   0  -8  -4    0.83    0.09
   0  -8  -4    0.65    0.08
   0   8   4    0.80    0.08
   0   8   4    0.73    0.08
  -1  -8  -4    6.18    0.20
  -1  -8  -4    6.15    0.20
  -1  -8  -4    6.10    0.24
  -1  -8  -4    6.36    0.24
   1   8   4    6.23    0.20
   1   8   4    6.16    0.20
  -2  -8  -4   10.70    0.29
  -2  -8  -4   10.16    0.34
  -2  -8  -4   10.41    0.35
  -2  -8  -4   10.43    0.30
   2   8   4   10.19    0.30
   2   8   4   10.57    0.30
  -3  -8  -4    0.94    0.09
  -3  -8  -4    0.80    0.10
  -3  -8  -4    0.77    0.10
   3   8   4    0.70    0.07
   3   8   4    0.68    0.06
   3   8   4    0.85    0.09
  -4  -8  -4   15.91    0.49
  -4  -8  -4   16.60    0.49
  -4  -8  -4   16.78    0.46
   4   8   4   16.44    0.45
   4   8   4   16.64    0.45
   4   8   4   16.28    0.44
  -5  -8  -4   11.03    0.34
  -5  -8  -4   10.67    0.30
  -5  -8  -4   11.23    0.37
  -5  -8  -4   11.39    0.37
   5   8   4   10.98    0.31
   5   8   4   11.04    0.32
   5   8   4   11.47    0.32
  -6  -8  -4    3.51    0.20
  -6  -8  -4    3.31    0.21
   6   8   4    3.30    0.14
  -7  -8  -4    2.68    0.19
  -7  -8  -4    2.79    0.24
  -7  -8  -4    2.56    0.16
   7   8   4    2.60    0.12
  -8  -8  -4   -0.03    0.07
  -8  -8  -4    0.06    0.16
  -8  -8  -4   -0.01    0.10
   8   8   4    0.07    0.05
  -9  -8  -4    0.03    0.13
  -9  -8  -4    0.00    0.08
   9   8   4    0.07    0.06
 -10  -8  -4    0.55    0.11
 -10  -8  -4    0.29    0.16
  10   8   4    0.42    0.07
   8  -9  -4    0.06    0.15
  -8   9   4    0.07    0.12
  -8   9   4   -0.11    0.10
   7  -9  -4    0.42    0.08
   7  -9  -4    0.26    0.14
  -7   9   4    0.50    0.09
  -7   9   4    0.53    0.12
   6  -9  -4    1.54    0.16
   6  -9  -4    1.62    0.13
   6  -9  -4    1.74    0.13
  -6   9   4    1.75    0.18
  -6   9   4    1.52    0.14
   5  -9  -4    0.14    0.06
   5  -9  -4    0.11    0.09
   5  -9  -4    0.07    0.07
  -5   9   4    0.10    0.07
  -5   9   4    0.16    0.08
   4  -9  -4    0.10    0.08
   4  -9  -4    0.08    0.05
   4  -9  -4    0.11    0.06
  -4   9   4   -0.05    0.07
  -4   9   4    0.13    0.09
  -4   9   4    0.03    0.05
   3  -9  -4    1.00    0.08
   3  -9  -4    1.13    0.10
   3  -9  -4    1.04    0.12
   3  -9  -4    0.92    0.10
   3  -9  -4    1.20    0.08
  -3   9   4    1.09    0.10
  -3   9   4    1.03    0.12
  -3   9   4    0.93    0.10
   2  -9  -4    5.32    0.22
   2  -9  -4    5.35    0.18
   2  -9  -4    5.50    0.16
   2  -9  -4    5.85    0.22
  -2   9   4    5.43    0.22
  -2   9   4    5.15    0.20
  -2   9   4    5.74    0.19
   1  -9  -4   19.82    0.57
   1  -9  -4   19.91    0.55
   1  -9  -4   19.61    0.52
  -1   9   4   20.06    0.53
  -1   9   4   20.08    0.57
  -1   9   4   20.25    0.53
   0  -9  -4   37.24    1.01
   0  -9  -4   38.66    0.97
   0  -9  -4   37.99    0.99
   0   9   4   38.70    0.97
   0   9   4   38.16    0.96
   0   9   4   39.49    1.01
  -1  -9  -4    7.72    0.24
  -1  -9  -4    7.93    0.25
  -1  -9  -4    7.93    0.25
  -1  -9  -4    7.64    0.29
  -1  -9  -4    8.01    0.30
   1   9   4    7.98    0.25
   1   9   4    7.84    0.25
   1   9   4    8.13    0.27
  -2  -9  -4   59.71    1.54
  -2  -9  -4   60.28    1.51
  -2  -9  -4   60.25    1.58
  -2  -9  -4   59.93    1.50
   2   9   4   61.27    1.50
   2   9   4   61.62    1.54
   2   9   4   60.76    1.48
  -3  -9  -4   22.94    0.67
  -3  -9  -4   22.51    0.65
  -3  -9  -4   23.25    0.62
   3   9   4   22.70    0.60
   3   9   4   23.50    0.62
   3   9   4   23.54    0.61
  -4  -9  -4    1.39    0.15
  -4  -9  -4    1.12    0.11
  -4  -9  -4    1.11    0.12
   4   9   4    1.05    0.10
   4   9   4    1.17    0.10
   4   9   4    1.06    0.10
  -5  -9  -4    8.54    0.29
  -5  -9  -4    8.56    0.33
  -5  -9  -4    8.62    0.32
   5   9   4    8.39    0.27
   5   9   4    8.49    0.26
   5   9   4    8.69    0.27
  -6  -9  -4    0.22    0.08
  -6  -9  -4    0.35    0.10
  -6  -9  -4    0.37    0.11
   6   9   4    0.27    0.06
  -7  -9  -4    3.05    0.23
  -7  -9  -4    3.31    0.23
  -7  -9  -4    3.10    0.18
   7   9   4    2.81    0.14
  -8  -9  -4   -0.10    0.08
  -8  -9  -4    0.19    0.13
   8   9   4    0.07    0.06
  -9  -9  -4    0.68    0.17
   9   9   4    0.49    0.08
 -10  -9  -4    0.02    0.11
 -10  -9  -4    0.56    0.18
  10   9   4    0.08    0.07
  -8  10   4   -0.34    0.13
   7 -10  -4    0.21    0.08
   7 -10  -4    0.16    0.14
  -7  10   4    0.29    0.10
  -7  10   4    0.24    0.12
   6 -10  -4    0.01    0.07
   6 -10  -4   -0.03    0.11
  -6  10   4    0.04    0.10
  -6  10   4    0.14    0.08
   5 -10  -4    2.67    0.18
   5 -10  -4    2.98    0.23
  -5  10   4    2.85    0.21
  -5  10   4    2.95    0.16
   4 -10  -4    0.08    0.10
   4 -10  -4   -0.10    0.07
  -4  10   4    0.02    0.06
  -4  10   4   -0.05    0.08
  -4  10   4   -0.05    0.10
   3 -10  -4    3.13    0.20
   3 -10  -4    3.24    0.18
   3 -10  -4    3.12    0.14
   3 -10  -4    2.96    0.14
  -3  10   4    2.39    0.17
  -3  10   4    3.30    0.15
  -3  10   4    3.02    0.19
   2 -10  -4    0.05    0.07
   2 -10  -4    0.04    0.06
   2 -10  -4    0.05    0.08
  -2  10   4    0.07    0.07
  -2  10   4    0.04    0.06
  -2  10   4    0.11    0.06
   1 -10  -4    9.48    0.31
   1 -10  -4    9.04    0.28
   1 -10  -4    8.97    0.32
  -1  10   4    9.33    0.28
  -1  10   4    9.20    0.29
  -1  10   4    9.58    0.32
   0 -10  -4    2.48    0.17
   0 -10  -4    2.50    0.16
   0 -10  -4    2.25    0.14
   0  10   4    2.56    0.16
   0  10   4    2.37    0.13
   0  10   4    2.15    0.13
  -1 -10  -4    5.06    0.20
  -1 -10  -4    5.08    0.20
   1  10   4    5.14    0.20
   1  10   4    5.15    0.19
   1  10   4    5.12    0.21
  -2 -10  -4   -0.08    0.06
  -2 -10  -4    0.06    0.09
  -2 -10  -4   -0.02    0.08
  -2 -10  -4    0.02    0.07
   2  10   4    0.06    0.06
   2  10   4    0.03    0.05
   2  10   4    0.04    0.06
  -3 -10  -4    8.45    0.33
  -3 -10  -4    8.33    0.32
  -3 -10  -4    8.40    0.29
   3  10   4    8.43    0.27
   3  10   4    8.44    0.27
   3  10   4    8.45    0.27
  -4 -10  -4    0.82    0.12
  -4 -10  -4    0.76    0.10
  -4 -10  -4    0.88    0.14
   4  10   4    0.67    0.08
   4  10   4    0.80    0.08
   4  10   4    0.83    0.08
  -5 -10  -4    0.23    0.08
  -5 -10  -4    0.43    0.11
  -5 -10  -4    0.42    0.12
   5  10   4    0.23    0.06
   5  10   4    0.30    0.09
  -6 -10  -4    0.39    0.14
  -6 -10  -4    0.45    0.14
  -6 -10  -4    0.42    0.09
   6  10   4    0.31    0.07
  -7 -10  -4    1.12    0.17
  -7 -10  -4    1.04    0.12
  -7 -10  -4    0.69    0.16
   7  10   4    0.91    0.09
  -8 -10  -4    0.09    0.09
  -8 -10  -4    0.32    0.17
   8  10   4    0.13    0.07
  -9 -10  -4    0.07    0.11
  -9 -10  -4   -0.14    0.18
   9  10   4   -0.05    0.07
   7 -11  -4   -0.07    0.09
   7 -11  -4   -0.06    0.16
  -7  11   4   -0.21    0.12
  -7  11   4    0.04    0.10
   6 -11  -4    2.90    0.20
   6 -11  -4    3.54    0.30
  -6  11   4    2.34    0.24
  -6  11   4    2.83    0.19
   5 -11  -4    0.71    0.11
   5 -11  -4    0.84    0.15
  -5  11   4    0.92    0.13
  -5  11   4    0.80    0.10
   4 -11  -4    1.09    0.13
   4 -11  -4    1.20    0.15
  -4  11   4    1.24    0.14
  -4  11   4    1.32    0.15
   3 -11  -4    1.72    0.17
   3 -11  -4    1.77    0.14
   3 -11  -4    1.62    0.13
   3 -11  -4    1.67    0.16
  -3  11   4    1.91    0.16
  -3  11   4    1.76    0.15
  -3  11   4    2.08    0.18
   2 -11  -4    1.83    0.19
   2 -11  -4    2.09    0.17
   2 -11  -4    1.83    0.14
  -2  11   4    2.16    0.18
  -2  11   4    1.64    0.16
  -2  11   4    1.72    0.14
   1 -11  -4    7.06    0.29
   1 -11  -4    6.39    0.27
   1 -11  -4    6.49    0.24
  -1  11   4    6.74    0.24
  -1  11   4    6.57    0.25
  -1  11   4    6.85    0.28
   0 -11  -4    5.79    0.27
   0 -11  -4    5.90    0.24
   0 -11  -4    5.44    0.23
   0  11   4    5.77    0.22
   0  11   4    5.72    0.22
   0  11   4    5.81    0.25
  -1 -11  -4    2.31    0.18
  -1 -11  -4    2.61    0.21
  -1 -11  -4    2.87    0.17
   1  11   4    2.20    0.18
   1  11   4    2.70    0.15
   1  11   4    2.50    0.15
  -2 -11  -4    1.28    0.12
  -2 -11  -4    1.48    0.15
  -2 -11  -4    1.12    0.11
   2  11   4    1.11    0.12
   2  11   4    1.24    0.14
   2  11   4    1.49    0.13
  -3 -11  -4   -0.02    0.10
  -3 -11  -4    0.13    0.11
  -3 -11  -4    0.06    0.08
   3  11   4    0.00    0.06
   3  11   4    0.02    0.07
   3  11   4    0.06    0.08
  -4 -11  -4    0.07    0.11
  -4 -11  -4   -0.07    0.09
  -4 -11  -4    0.11    0.11
   4  11   4    0.14    0.08
   4  11   4    0.05    0.06
  -5 -11  -4    0.54    0.14
  -5 -11  -4    0.62    0.11
  -5 -11  -4    0.53    0.14
   5  11   4    0.65    0.09
  -6 -11  -4    0.48    0.11
  -6 -11  -4    0.99    0.17
  -6 -11  -4    0.56    0.16
   6  11   4    0.59    0.09
  -7 -11  -4    0.38    0.17
  -7 -11  -4    0.19    0.11
   7  11   4    0.28    0.08
  -8 -11  -4    0.10    0.19
  -8 -11  -4    0.11    0.11
   8  11   4    0.08    0.08
   5 -12  -4    6.21    0.36
   5 -12  -4    6.34    0.28
  -5  12   4    6.14    0.27
  -5  12   4    6.16    0.31
   4 -12  -4    0.07    0.10
   4 -12  -4    0.01    0.14
  -4  12   4    0.05    0.09
  -4  12   4   -0.02    0.11
   3 -12  -4    2.89    0.27
   3 -12  -4    3.14    0.19
   3 -12  -4    3.46    0.22
  -3  12   4    3.19    0.22
  -3  12   4    3.02    0.19
  -3  12   4    2.58    0.23
   2 -12  -4    0.05    0.10
   2 -12  -4    0.24    0.09
   2 -12  -4    0.18    0.12
  -2  12   4    0.01    0.10
  -2  12   4    0.25    0.08
  -2  12   4    0.19    0.10
   1 -12  -4    1.47    0.16
   1 -12  -4    1.79    0.20
   1 -12  -4    1.47    0.15
  -1  12   4    1.50    0.15
  -1  12   4    1.37    0.14
  -1  12   4    1.43    0.17
   0 -12  -4    1.08    0.13
   0 -12  -4    1.02    0.14
   0 -12  -4    1.00    0.11
   0  12   4    1.01    0.12
   0  12   4    1.00    0.12
   0  12   4    0.99    0.10
  -1 -12  -4    0.20    0.11
  -1 -12  -4    0.11    0.09
  -1 -12  -4    0.10    0.11
   1  12   4    0.23    0.10
   1  12   4    0.14    0.08
   1  12   4    0.16    0.07
  -2 -12  -4    0.33    0.11
  -2 -12  -4    0.27    0.10
  -2 -12  -4    0.23    0.13
   2  12   4    0.33    0.08
   2  12   4    0.31    0.10
   2  12   4    0.18    0.08
  -3 -12  -4   -0.18    0.12
  -3 -12  -4   -0.08    0.09
  -3 -12  -4   -0.07    0.11
   3  12   4    0.24    0.09
   3  12   4   -0.07    0.07
  -4 -12  -4   -0.07    0.10
  -4 -12  -4    0.03    0.14
   4  12   4    0.26    0.10
   4  12   4    0.10    0.08
  -5 -12  -4    0.44    0.17
  -5 -12  -4    0.21    0.11
   5  12   4    0.24    0.09
  -6 -12  -4    0.80    0.14
  -6 -12  -4    0.54    0.18
   6  12   4    0.76    0.10
   4 -13  -4    0.55    0.13
   4 -13  -4    0.30    0.18
  -4  13   4    0.53    0.15
  -4  13   4    0.60    0.12
   3 -13  -4    1.09    0.18
   3 -13  -4    1.31    0.14
   3 -13  -4    1.41    0.16
  -3  13   4    1.53    0.17
  -3  13   4    1.41    0.14
   2 -13  -4    0.03    0.15
   2 -13  -4    0.05    0.11
   2 -13  -4    0.04    0.11
  -2  13   4    0.13    0.09
  -2  13   4   -0.10    0.11
  -2  13   4   -0.10    0.11
   1 -13  -4    0.10    0.14
   1 -13  -4    0.39    0.11
   1 -13  -4    0.26    0.12
  -1  13   4    0.15    0.09
  -1  13   4    0.31    0.11
  -1  13   4    0.18    0.12
   0 -13  -4    0.09    0.10
   0 -13  -4    0.29    0.14
   0 -13  -4   -0.02    0.13
   0  13   4    0.29    0.12
   0  13   4    0.10    0.09
   0  13   4    0.20    0.10
  -1 -13  -4    0.68    0.15
  -1 -13  -4    0.39    0.12
  -1 -13  -4    0.75    0.15
   1  13   4    0.58    0.10
   1  13   4    0.54    0.13
   1  13   4    0.48    0.11
  -2 -13  -4    0.56    0.12
  -2 -13  -4    0.49    0.16
   2  13   4    0.73    0.12
   2  13   4    0.89    0.14
  -3 -13  -4    1.37    0.21
  -3 -13  -4    1.56    0.16
   3  13   4    1.45    0.15
   3  13   4    1.28    0.13
  -4 -13  -4    0.25    0.12
  -4 -13  -4    0.41    0.18
   4  13   4    0.40    0.10
   0   9  -5    1.03    0.18
   0   9  -5    1.06    0.13
   0  -9   5    1.24    0.18
   0  -9   5    1.28    0.14
  -1   9  -5    0.12    0.10
  -1   9  -5    0.04    0.14
   1  -9   5    0.02    0.13
   1  -9   5    0.09    0.09
  -2   9  -5    0.49    0.14
  -2   9  -5    0.43    0.11
   2  -9   5    0.40    0.10
   2  -9   5    0.47    0.14
  -3   9  -5    2.12    0.25
  -3   9  -5    1.65    0.20
   3  -9   5    1.98    0.23
   3  -9   5    2.51    0.20
   3  -9   5    2.12    0.19
  -4   9  -5    1.19    0.17
  -4   9  -5    1.19    0.15
   4  -9   5    1.29    0.15
   4  -9   5    1.19    0.14
   4  -9   5    1.22    0.13
  -5   9  -5    1.92    0.22
  -5   9  -5    2.53    0.26
   5  -9   5    1.80    0.18
   5  -9   5    2.34    0.20
   5  -9   5    2.68    0.22
  -6   9  -5    0.18    0.13
  -6   9  -5    0.10    0.13
   6  -9   5    0.23    0.10
   6  -9   5    0.20    0.10
  -7   9  -5    1.75    0.19
   7  -9   5    1.94    0.21
   7  -9   5    1.76    0.19
   2   8  -5   -0.12    0.16
  -2  -8   5   -0.01    0.10
   1   8  -5    3.68    0.27
   1   8  -5    3.15    0.20
  -1  -8   5    3.48    0.27
  -1  -8   5    3.44    0.22
   0   8  -5    0.24    0.12
   0   8  -5    0.08    0.08
   0  -8   5    0.18    0.09
   0  -8   5    0.16    0.12
  -1   8  -5    0.37    0.12
  -1   8  -5    0.23    0.09
   1  -8   5    0.37    0.12
   1  -8   5    0.36    0.09
  -2   8  -5    5.83    0.25
  -2   8  -5    5.66    0.29
   2  -8   5    5.96    0.28
   2  -8   5    6.31    0.26
  -3   8  -5    0.95    0.14
  -3   8  -5    0.91    0.12
   3  -8   5    0.95    0.12
   3  -8   5    0.98    0.13
   3  -8   5    0.70    0.10
  -4   8  -5    2.58    0.22
  -4   8  -5    2.59    0.20
   4  -8   5    2.82    0.20
   4  -8   5    2.58    0.19
   4  -8   5    2.80    0.20
  -5   8  -5    2.27    0.20
  -5   8  -5    2.78    0.23
   5  -8   5    2.39    0.18
   5  -8   5    2.50    0.17
   5  -8   5    2.90    0.20
  -6   8  -5    0.23    0.12
  -6   8  -5    0.15    0.10
   6  -8   5    0.16    0.08
   6  -8   5    0.01    0.08
  -7   8  -5    0.57    0.13
  -7   8  -5    0.53    0.12
   7  -8   5    0.36    0.10
   7  -8   5    0.41    0.09
  -8   8  -5    0.17    0.13
   8  -8   5   -0.03    0.08
   8  -8   5    0.19    0.10
  -9   8  -5    0.19    0.14
   9  -8   5   -0.11    0.16
   9  -8   5    0.21    0.08
   9  -8   5    0.00    0.10
   4   7  -5   -0.05    0.12
   4   7  -5    0.12    0.08
  -4  -7   5   -0.14    0.11
   3   7  -5    2.18    0.15
   3   7  -5    1.69    0.19
  -3  -7   5    2.04    0.20
   2   7  -5    0.56    0.10
   2   7  -5    0.44    0.09
   2   7  -5    0.43    0.14
  -2  -7   5    0.53    0.10
   1   7  -5   18.73    0.57
   1   7  -5   17.99    0.51
   1   7  -5   18.66    0.53
  -1  -7   5   18.36    0.55
  -1  -7   5   18.67    0.55
   0   7  -5    2.52    0.14
   0   7  -5    2.52    0.16
   0   7  -5    2.64    0.20
   0  -7   5    2.47    0.20
   0  -7   5    2.41    0.17
  -1   7  -5    6.03    0.23
  -1   7  -5    5.69    0.27
  -1   7  -5    5.68    0.20
   1  -7   5    5.44    0.25
   1  -7   5    5.71    0.24
  -2   7  -5    2.86    0.17
  -2   7  -5    3.08    0.20
   2  -7   5    2.99    0.17
   2  -7   5    2.82    0.19
  -3   7  -5   11.08    0.35
  -3   7  -5   11.05    0.39
   3  -7   5   11.14    0.37
   3  -7   5   10.94    0.36
   3  -7   5   11.24    0.36
  -4   7  -5    7.38    0.28
  -4   7  -5    8.11    0.31
   4  -7   5    8.08    0.29
   4  -7   5    7.53    0.28
   4  -7   5    7.83    0.28
  -5   7  -5    3.27    0.19
  -5   7  -5    3.90    0.22
   5  -7   5    3.62    0.19
   5  -7   5    3.76    0.19
   5  -7   5    3.38    0.18
  -6   7  -5    1.68    0.16
  -6   7  -5    1.51    0.15
   6  -7   5    1.44    0.15
   6  -7   5    1.84    0.14
  -7   7  -5   -0.03    0.10
  -7   7  -5    0.18    0.10
   7  -7   5    0.00    0.07
   7  -7   5   -0.05    0.07
  -8   7  -5    0.01    0.11
  -8   7  -5    0.05    0.11
   8  -7   5    0.12    0.08
   8  -7   5    0.13    0.07
  -9   7  -5   -0.01    0.12
   9  -7   5   -0.10    0.14
   9  -7   5    0.19    0.09
   9  -7   5    0.06    0.07
 -10   7  -5    0.33    0.14
  10  -7   5    0.46    0.09
  10  -7   5    0.26    0.11
  10  -7   5    0.31    0.17
   5   6  -5   -0.03    0.07
   5   6  -5   -0.01    0.12
  -5  -6   5   -0.04    0.12
   4   6  -5    0.35    0.08
   4   6  -5    0.37    0.10
  -4  -6   5    0.13    0.11
   3   6  -5    0.76    0.09
   3   6  -5    0.73    0.11
  -3  -6   5    0.60    0.11
   2   6  -5    1.80    0.20
   2   6  -5    2.09    0.14
   2   6  -5    2.33    0.15
  -2  -6   5    1.84    0.16
  -2  -6   5    2.00    0.18
   1   6  -5    4.71    0.19
   1   6  -5    4.53    0.19
   1   6  -5    4.65    0.24
  -1  -6   5    4.70    0.22
  -1  -6   5    4.63    0.21
   0   6  -5   11.68    0.38
   0   6  -5   11.37    0.33
   0   6  -5   11.89    0.36
   0  -6   5   11.73    0.37
   0  -6   5   11.78    0.37
  -1   6  -5    1.42    0.10
  -1   6  -5    1.60    0.12
  -1   6  -5    1.58    0.16
   1  -6   5    1.35    0.14
   1  -6   5    1.35    0.12
  -2   6  -5    4.28    0.15
  -2   6  -5    4.43    0.21
  -2   6  -5    4.36    0.18
   2  -6   5    4.50    0.20
   2  -6   5    4.47    0.19
  -3   6  -5    0.59    0.08
  -3   6  -5    0.54    0.09
  -3   6  -5    0.63    0.07
   3  -6   5    0.46    0.07
   3  -6   5    0.51    0.08
   3  -6   5    0.48    0.08
  -4   6  -5    1.97    0.16
  -4   6  -5    1.72    0.13
   4  -6   5    1.92    0.14
   4  -6   5    2.02    0.14
   4  -6   5    1.86    0.13
  -5   6  -5    0.27    0.08
  -5   6  -5    0.28    0.07
   5  -6   5    0.22    0.07
   5  -6   5    0.32    0.07
   5  -6   5    0.33    0.07
  -6   6  -5    0.53    0.09
  -6   6  -5    0.45    0.09
   6  -6   5    0.55    0.08
   6  -6   5    0.50    0.08
  -7   6  -5    1.91    0.16
  -7   6  -5    2.49    0.19
   7  -6   5    2.27    0.15
   7  -6   5    2.10    0.14
  -8   6  -5    1.39    0.14
  -8   6  -5    1.44    0.17
   8  -6   5    1.30    0.13
   8  -6   5    1.50    0.14
  -9   6  -5    1.52    0.15
   9  -6   5    1.67    0.13
   9  -6   5    1.67    0.18
   9  -6   5    2.05    0.17
 -10   6  -5    0.05    0.12
  10  -6   5    0.11    0.14
  10  -6   5    0.10    0.07
  10  -6   5    0.06    0.09
 -11   6  -5    9.24    0.40
  11  -6   5    8.80    0.41
  11  -6   5    8.73    0.29
  11  -6   5    8.58    0.32
   6   5  -5    0.32    0.09
   6   5  -5    0.08    0.12
  -6  -5   5    0.26    0.12
   5   5  -5    7.55    0.29
   5   5  -5    7.73    0.26
  -5  -5   5    7.88    0.31
   4   5  -5    0.69    0.10
   4   5  -5    0.63    0.08
  -4  -5   5    0.74    0.11
   3   5  -5   18.88    0.51
   3   5  -5   18.59    0.53
  -3  -5   5   19.18    0.54
  -3  -5   5   17.60    0.54
   2   5  -5    0.61    0.10
   2   5  -5    0.51    0.08
   2   5  -5    0.36    0.07
  -2  -5   5    0.57    0.09
  -2  -5   5    0.51    0.08
   1   5  -5   15.01    0.45
   1   5  -5   14.67    0.41
   1   5  -5   14.51    0.41
  -1  -5   5   14.84    0.43
  -1  -5   5   13.93    0.42
   0   5  -5    5.13    0.19
   0   5  -5    5.15    0.18
   0   5  -5    5.37    0.22
   0  -5   5    5.37    0.20
   0  -5   5    5.09    0.21
  -1   5  -5    1.32    0.11
  -1   5  -5    1.55    0.14
  -1   5  -5    1.42    0.09
   1  -5   5    1.35    0.11
   1  -5   5    1.35    0.12
  -2   5  -5    0.12    0.07
  -2   5  -5    0.09    0.05
  -2   5  -5    0.12    0.04
   2  -5   5    0.13    0.05
   2  -5   5    0.14    0.06
  -3   5  -5    0.27    0.07
  -3   5  -5    0.31    0.07
  -3   5  -5    0.29    0.04
   3  -5   5    0.36    0.06
   3  -5   5    0.30    0.06
   3  -5   5    0.20    0.06
  -4   5  -5    0.17    0.04
  -4   5  -5    0.18    0.06
  -4   5  -5    0.23    0.07
   4  -5   5    0.17    0.06
   4  -5   5    0.13    0.05
   4  -5   5    0.19    0.06
  -5   5  -5    0.68    0.09
  -5   5  -5    0.69    0.08
   5  -5   5    0.79    0.09
   5  -5   5    0.68    0.07
   5  -5   5    0.77    0.08
  -6   5  -5    2.33    0.14
  -6   5  -5    2.53    0.17
   6  -5   5    2.36    0.13
   6  -5   5    2.49    0.14
  -7   5  -5    1.07    0.13
  -7   5  -5    1.25    0.15
   7  -5   5    1.37    0.12
   7  -5   5    1.18    0.10
  -8   5  -5    6.74    0.28
  -8   5  -5    5.47    0.25
   8  -5   5    6.42    0.23
   8  -5   5    6.64    0.22
  -9   5  -5    0.67    0.12
   9  -5   5    0.71    0.09
   9  -5   5    0.76    0.13
   9  -5   5    0.71    0.08
 -10   5  -5    1.22    0.15
  10  -5   5    1.42    0.15
  10  -5   5    1.50    0.17
  10  -5   5    1.59    0.12
 -11   5  -5    2.50    0.25
  11  -5   5    1.81    0.19
  11  -5   5    2.31    0.18
  11  -5   5    2.05    0.13
 -12   5  -5    4.42    0.32
 -12   5  -5    5.12    0.29
  12  -5   5    4.71    0.35
  12  -5   5    4.81    0.19
   6   4  -5    1.62    0.14
   6   4  -5    1.69    0.19
  -6  -4   5    1.55    0.15
   5   4  -5    2.98    0.18
   5   4  -5    2.45    0.14
  -5  -4   5    2.71    0.19
   4   4  -5    7.29    0.26
   4   4  -5    7.35    0.24
  -4  -4   5    7.48    0.27
   3   4  -5    1.03    0.11
   3   4  -5    1.01    0.10
  -3  -4   5    1.11    0.12
  -3  -4   5    0.95    0.11
   2   4  -5    5.97    0.23
   2   4  -5    5.97    0.20
   2   4  -5    5.73    0.20
  -2  -4   5    5.59    0.22
  -2  -4   5    5.71    0.22
   1   4  -5    7.32    0.23
   1   4  -5    7.25    0.23
   1   4  -5    7.64    0.26
  -1  -4   5    7.09    0.25
  -1  -4   5    7.38    0.25
   0   4  -5    0.19    0.07
   0   4  -5    0.24    0.05
   0   4  -5    0.39    0.10
   0   4  -5    0.22    0.05
   0  -4   5    0.26    0.06
   0  -4   5    0.24    0.06
  -1   4  -5    1.97    0.13
  -1   4  -5    1.79    0.09
  -1   4  -5    1.88    0.11
   1  -4   5    1.78    0.11
   1  -4   5    1.79    0.11
  -2   4  -5    0.07    0.03
  -2   4  -5    0.03    0.04
  -2   4  -5    0.00    0.06
   2  -4   5    0.05    0.04
   2  -4   5    0.04    0.05
  -3   4  -5    0.06    0.05
  -3   4  -5    0.07    0.03
  -3   4  -5    0.15    0.06
   3  -4   5    0.05    0.05
   3  -4   5    0.08    0.04
   3  -4   5    0.04    0.04
  -4   4  -5    8.00    0.28
  -4   4  -5    8.24    0.25
   4  -4   5    8.21    0.26
   4  -4   5    8.11    0.26
   4  -4   5    8.40    0.26
  -5   4  -5   16.84    0.49
  -5   4  -5   16.86    0.46
   5  -4   5   16.01    0.43
   5  -4   5   17.13    0.46
   5  -4   5   17.00    0.46
  -6   4  -5    0.21    0.07
  -6   4  -5    0.21    0.06
   6  -4   5    0.19    0.05
   6  -4   5    0.31    0.06
   6  -4   5    0.22    0.06
  -7   4  -5   11.19    0.34
  -7   4  -5   11.34    0.37
   7  -4   5   11.41    0.33
   7  -4   5   11.26    0.33
  -8   4  -5    0.20    0.09
  -8   4  -5    0.10    0.08
   8  -4   5    0.17    0.06
   8  -4   5    0.11    0.05
  -9   4  -5    7.91    0.30
  -9   4  -5    8.34    0.31
   9  -4   5    7.99    0.25
   9  -4   5    8.18    0.27
   9  -4   5    8.04    0.32
 -10   4  -5    0.75    0.12
  10  -4   5    1.00    0.09
  10  -4   5    1.03    0.10
  10  -4   5    0.91    0.13
 -11   4  -5    2.61    0.20
 -11   4  -5    2.65    0.23
  11  -4   5    2.74    0.13
  11  -4   5    3.17    0.25
  11  -4   5    2.52    0.18
 -12   4  -5    0.01    0.14
 -12   4  -5    0.26    0.12
  12  -4   5    0.03    0.06
  12  -4   5    0.02    0.15
   7   3  -5    0.17    0.11
  -7  -3   5    0.04    0.11
   6   3  -5    0.31    0.10
   6   3  -5    0.42    0.07
  -6  -3   5    0.45    0.10
   5   3  -5    2.76    0.17
   5   3  -5    2.56    0.13
  -5  -3   5    2.77    0.17
   4   3  -5    0.53    0.07
   4   3  -5    0.63    0.09
  -4  -3   5    0.58    0.08
   3   3  -5    3.38    0.15
   3   3  -5    3.25    0.13
  -3  -3   5    3.33    0.17
  -3  -3   5    3.23    0.15
   2   3  -5    0.04    0.13
   2   3  -5    0.05    0.04
   2   3  -5   -0.04    0.05
   2   3  -5    0.06    0.07
  -2  -3   5    0.05    0.05
  -2  -3   5    0.06    0.06
   1   3  -5   15.07    0.41
   1   3  -5   15.72    0.45
   1   3  -5   15.37    0.46
   1   3  -5   15.41    0.42
  -1  -3   5   15.35    0.42
  -1  -3   5   14.98    0.42
   0   3  -5    5.69    0.21
   0   3  -5    5.42    0.19
   0   3  -5    5.67    0.18
   0   3  -5    5.59    0.18
   0   3  -5    5.18    0.25
   0  -3   5    5.41    0.19
   0  -3   5    5.61    0.19
  -1   3  -5   17.63    0.48
  -1   3  -5   17.27    0.45
  -1   3  -5   17.07    0.44
   1  -3   5   17.43    0.45
   1  -3   5   14.19    0.45
  -2   3  -5    0.42    0.04
  -2   3  -5    0.36    0.06
  -2   3  -5    0.34    0.05
   2  -3   5    0.34    0.05
   2  -3   5    0.45    0.06
  -3   3  -5   23.25    0.61
  -3   3  -5   23.79    0.65
   3  -3   5   24.55    0.62
   3  -3   5   23.09    0.62
   3  -3   5   23.82    0.62
  -4   3  -5    3.27    0.16
  -4   3  -5    3.25    0.13
   4  -3   5    3.00    0.13
   4  -3   5    3.21    0.13
   4  -3   5    3.24    0.13
  -5   3  -5    7.23    0.25
  -5   3  -5    7.06    0.23
   5  -3   5    7.18    0.20
   5  -3   5    7.46    0.23
   5  -3   5    7.19    0.22
  -6   3  -5   48.80    1.20
  -6   3  -5   48.06    1.25
   6  -3   5   48.33    1.20
   6  -3   5   47.92    1.20
   6  -3   5   46.59    1.20
  -7   3  -5    0.87    0.09
  -7   3  -5    0.78    0.09
   7  -3   5    0.83    0.10
   7  -3   5    0.83    0.08
   7  -3   5    0.97    0.11
  -8   3  -5   12.66    0.38
  -8   3  -5   13.67    0.41
   8  -3   5   13.10    0.37
   8  -3   5   13.21    0.36
  -9   3  -5    2.01    0.16
  -9   3  -5    1.77    0.17
   9  -3   5    2.02    0.10
   9  -3   5    1.82    0.17
   9  -3   5    2.00    0.12
 -10   3  -5    2.03    0.18
 -10   3  -5    1.98    0.15
  10  -3   5    2.09    0.11
  10  -3   5    1.99    0.13
  10  -3   5    2.15    0.19
 -11   3  -5    0.37    0.09
 -11   3  -5    0.13    0.11
  11  -3   5    0.20    0.05
  11  -3   5    0.25    0.12
 -12   3  -5    2.57    0.21
 -12   3  -5    2.86    0.23
  12  -3   5    2.48    0.25
  12  -3   5    2.16    0.12
 -13   3  -5    0.48    0.17
 -13   3  -5    0.42    0.14
   8   2  -5    1.13    0.14
   7   2  -5    0.11    0.10
  -7  -2   5    0.08    0.10
   6   2  -5    1.90    0.16
   6   2  -5    2.02    0.11
  -6  -2   5    2.02    0.16
   5   2  -5    0.11    0.07
   5   2  -5    0.06    0.05
  -5  -2   5   -0.07    0.06
   4   2  -5   15.75    0.45
   4   2  -5   15.38    0.41
  -4  -2   5   15.64    0.43
  -4  -2   5   15.26    0.42
   3   2  -5    4.92    0.18
   3   2  -5    5.07    0.23
   3   2  -5    4.88    0.17
  -3  -2   5    4.78    0.18
  -3  -2   5    5.16    0.18
   2   2  -5    0.15    0.04
   2   2  -5    0.18    0.05
   2   2  -5    0.15    0.09
  -2  -2   5    0.14    0.05
  -2  -2   5    0.19    0.06
   1   2  -5   -0.01    0.08
   1   2  -5    0.00    0.03
   1   2  -5   -0.04    0.04
   1   2  -5    0.04    0.05
  -1  -2   5   -0.01    0.04
  -1  -2   5   -0.03    0.04
   0   2  -5    0.32    0.05
   0   2  -5    0.43    0.07
   0   2  -5    0.40    0.05
   0   2  -5    0.38    0.05
   0   2  -5    0.31    0.04
   0   2  -5    0.46    0.08
   0  -2   5    0.42    0.05
   0  -2   5    0.44    0.06
  -1   2  -5   32.66    0.83
  -1   2  -5   32.72    0.84
  -1   2  -5   32.87    0.86
  -1   2  -5   33.00    0.83
   1  -2   5   32.14    0.83
   1  -2   5   33.50    0.82
  -2   2  -5    0.61    0.07
  -2   2  -5    0.59    0.07
   2  -2   5    0.58    0.07
   2  -2   5    0.48    0.05
   2  -2   5    0.65    0.06
  -3   2  -5    0.27    0.05
  -3   2  -5    0.18    0.05
   3  -2   5    0.18    0.04
   3  -2   5    0.28    0.04
   3  -2   5    0.28    0.05
  -4   2  -5   11.81    0.35
  -4   2  -5   11.18    0.32
   4  -2   5   11.75    0.32
   4  -2   5   11.54    0.32
  -5   2  -5    0.72    0.08
  -5   2  -5    0.62    0.07
   5  -2   5    0.88    0.07
   5  -2   5    0.71    0.06
   5  -2   5    0.70    0.08
  -6   2  -5   -0.06    0.05
  -6   2  -5    0.01    0.05
   6  -2   5    0.05    0.07
   6  -2   5    0.03    0.04
   6  -2   5    0.03    0.03
  -7   2  -5   18.46    0.52
  -7   2  -5   18.03    0.49
   7  -2   5   18.07    0.49
   7  -2   5   18.54    0.49
   7  -2   5   18.46    0.48
  -8   2  -5    3.75    0.17
  -8   2  -5    3.93    0.18
   8  -2   5    3.78    0.14
   8  -2   5    3.85    0.15
   8  -2   5    4.10    0.19
   8  -2   5    3.95    0.18
  -9   2  -5    2.21    0.16
  -9   2  -5    2.24    0.15
  -9   2  -5    2.32    0.14
   9  -2   5    2.54    0.16
   9  -2   5    2.35    0.10
   9  -2   5    2.17    0.13
 -10   2  -5    0.07    0.08
 -10   2  -5    0.09    0.07
  10  -2   5    0.02    0.08
  10  -2   5    0.13    0.04
 -11   2  -5    1.04    0.12
 -11   2  -5    1.26    0.13
  11  -2   5    1.24    0.08
  11  -2   5    0.94    0.13
 -12   2  -5    0.00    0.12
 -12   2  -5    0.19    0.10
  12  -2   5    0.25    0.05
  12  -2   5   -0.04    0.12
 -13   2  -5    2.87    0.25
 -13   2  -5    2.81    0.28
  13  -2   5    2.61    0.30
   8   1  -5    0.27    0.11
   7   1  -5    0.82    0.11
  -7  -1   5    0.58    0.10
   6   1  -5    0.59    0.10
  -6  -1   5    0.70    0.08
   5   1  -5    6.06    0.24
   5   1  -5    6.33    0.23
   5   1  -5    6.40    0.19
  -5  -1   5    6.25    0.21
   4   1  -5    2.85    0.12
   4   1  -5    2.85    0.14
  -4  -1   5    2.65    0.13
  -4  -1   5    2.54    0.13
   3   1  -5   21.57    0.57
   3   1  -5   21.66    0.55
   3   1  -5   21.46    0.58
  -3  -1   5   21.30    0.55
  -3  -1   5   21.97    0.56
   2   1  -5   21.22    0.55
   2   1  -5   21.64    0.57
   2   1  -5   21.24    0.57
  -2  -1   5   21.61    0.55
  -2  -1   5   22.23    0.56
   1   1  -5   25.10    0.68
   1   1  -5   25.68    0.66
   1   1  -5   25.49    0.67
   1   1  -5   25.55    0.65
  -1  -1   5   25.59    0.65
  -1  -1   5   25.73    0.65
   0   1  -5    2.11    0.09
   0   1  -5    2.15    0.12
   0   1  -5    2.24    0.12
   0   1  -5    2.17    0.10
   0  -1   5    2.16    0.09
   0  -1   5    2.23    0.10
  -1   1  -5   51.78    1.25
  -1   1  -5   51.08    1.26
  -1   1  -5   50.74    1.26
  -1   1  -5   50.34    1.30
   1  -1   5   50.20    1.24
   1  -1   5   50.04    1.25
  -2   1  -5   41.20    1.01
  -2   1  -5   41.99    1.04
  -2   1  -5   35.19    1.00
  -2   1  -5   42.47    1.01
   2  -1   5   38.11    1.00
   2  -1   5   42.16    0.99
   2  -1   5   40.97    1.00
  -3   1  -5    2.78    0.11
  -3   1  -5    2.80    0.13
   3  -1   5    2.62    0.11
   3  -1   5    2.73    0.11
  -4   1  -5    5.83    0.20
  -4   1  -5    6.08    0.19
   4  -1   5    6.17    0.18
   4  -1   5    6.06    0.19
  -5   1  -5    1.26    0.09
  -5   1  -5    1.17    0.10
   5  -1   5    1.21    0.07
   5  -1   5    1.29    0.08
   5  -1   5    1.32    0.05
  -6   1  -5   22.86    0.60
  -6   1  -5   23.35    0.63
   6  -1   5   23.95    0.60
   6  -1   5   23.14    0.60
   6  -1   5   23.84    0.60
  -7   1  -5    4.79    0.18
  -7   1  -5    4.87    0.18
  -7   1  -5    4.92    0.17
   7  -1   5    4.65    0.15
   7  -1   5    4.91    0.18
   7  -1   5    4.91    0.17
  -8   1  -5   23.54    0.66
  -8   1  -5   24.46    0.66
  -8   1  -5   24.04    0.63
   8  -1   5   24.56    0.63
   8  -1   5   24.63    0.63
   8  -1   5   24.35    0.65
   8  -1   5   24.34    0.62
  -9   1  -5    2.23    0.14
  -9   1  -5    2.27    0.15
  -9   1  -5    1.79    0.13
   9  -1   5    2.07    0.15
   9  -1   5    2.09    0.09
   9  -1   5    2.07    0.14
   9  -1   5    1.90    0.12
 -10   1  -5    0.01    0.07
 -10   1  -5    0.13    0.07
  10  -1   5    0.02    0.04
  10  -1   5    0.06    0.08
 -11   1  -5    1.95    0.17
 -11   1  -5    1.83    0.16
  11  -1   5    1.93    0.19
  11  -1   5    2.15    0.10
 -12   1  -5    0.10    0.11
 -12   1  -5    0.10    0.10
  12  -1   5    0.11    0.12
 -13   1  -5   -0.04    0.13
  13  -1   5   -0.15    0.14
   8   0  -5    0.60    0.12
  -8   0   5    0.59    0.10
   7   0  -5    0.05    0.08
  -7   0   5    0.01    0.07
   6   0  -5    0.23    0.08
  -6   0   5    0.13    0.06
   5   0  -5    3.61    0.13
   5   0  -5    3.41    0.16
  -5   0   5    3.68    0.15
   4   0  -5   22.71    0.61
   4   0  -5   22.37    0.58
   4   0  -5   22.36    0.56
  -4   0   5   22.22    0.57
  -4   0   5   21.65    0.56
   3   0  -5    5.33    0.19
   3   0  -5    5.56    0.17
   3   0  -5    5.25    0.18
  -3   0   5    5.62    0.17
  -3   0   5    5.56    0.17
   2   0  -5    0.22    0.04
   2   0  -5    0.18    0.05
   2   0  -5    0.35    0.06
   2   0  -5    0.14    0.05
  -2   0   5    0.21    0.04
  -2   0   5    0.22    0.04
   1   0  -5    1.28    0.08
   1   0  -5    1.17    0.09
   1   0  -5    1.13    0.09
   1   0  -5    1.07    0.08
  -1   0   5    1.24    0.07
  -1   0   5    1.09    0.07
   0   0  -5   10.82    0.30
   0   0  -5   10.46    0.32
   0   0  -5   11.12    0.30
   0   0  -5   11.13    0.30
   0   0   5   10.99    0.29
   0   0   5   10.90    0.29
  -1   0  -5    3.70    0.12
  -1   0  -5    3.96    0.14
  -1   0  -5    3.66    0.13
  -1   0  -5    3.75    0.14
  -1   0  -5    3.72    0.13
   1   0   5    3.77    0.12
   1   0   5    3.49    0.12
   1   0   5    3.68    0.12
  -2   0  -5    0.12    0.04
  -2   0  -5    0.04    0.04
  -2   0  -5    0.05    0.03
  -2   0  -5    0.02    0.04
  -2   0  -5    0.04    0.03
   2   0   5    0.04    0.02
   2   0   5    0.07    0.04
   2   0   5    0.06    0.03
  -3   0  -5    1.59    0.08
  -3   0  -5    1.50    0.09
  -3   0  -5    1.52    0.07
  -3   0  -5    1.55    0.09
   3   0   5    1.50    0.07
   3   0   5    1.57    0.09
   3   0   5    1.57    0.07
   3   0   5    1.46    0.06
  -4   0  -5    5.02    0.16
  -4   0  -5    5.09    0.17
  -4   0  -5    4.71    0.16
   4   0   5    5.39    0.16
   4   0   5    5.05    0.16
   4   0   5    4.85    0.15
   4   0   5    5.05    0.14
  -5   0  -5    0.06    0.04
  -5   0  -5    0.06    0.04
  -5   0  -5    0.11    0.04
   5   0   5    0.10    0.03
   5   0   5    0.09    0.05
   5   0   5    0.13    0.02
   5   0   5    0.02    0.03
  -6   0  -5    0.30    0.05
  -6   0  -5    0.34    0.06
  -6   0  -5    0.27    0.05
   6   0   5    0.25    0.04
   6   0   5    0.28    0.06
   6   0   5    0.29    0.04
  -7   0  -5   23.09    0.62
  -7   0  -5   22.84    0.62
  -7   0  -5   23.32    0.60
   7   0   5   23.74    0.59
   7   0   5   23.51    0.60
   7   0   5   23.07    0.61
   7   0   5   22.26    0.58
  -8   0  -5    1.27    0.11
  -8   0  -5    0.92    0.11
  -8   0  -5    1.30    0.11
   8   0   5    1.43    0.10
   8   0   5    1.42    0.11
   8   0   5    1.28    0.11
   8   0   5    1.27    0.07
  -9   0  -5   14.26    0.41
  -9   0  -5   14.15    0.42
  -9   0  -5   14.19    0.41
   9   0   5   14.45    0.38
   9   0   5   14.17    0.39
   9   0   5   14.46    0.42
 -10   0  -5    5.86    0.22
 -10   0  -5    6.22    0.24
  10   0   5    6.02    0.24
  10   0   5    5.99    0.18
 -11   0  -5    0.61    0.09
 -11   0  -5    0.56    0.10
  11   0   5    0.46    0.11
  11   0   5    0.45    0.05
 -12   0  -5    0.61    0.12
 -12   0  -5    0.78    0.11
  12   0   5    0.68    0.13
 -13   0  -5    0.12    0.13
  13   0   5    0.41    0.15
   9  -1  -5    1.19    0.15
  -9   1   5    0.83    0.12
   8  -1  -5    0.38    0.10
  -8   1   5    0.27    0.09
   7  -1  -5    1.03    0.11
  -7   1   5    1.13    0.13
   6  -1  -5    9.55    0.31
  -6   1   5    8.74    0.26
   5  -1  -5    0.80    0.08
  -5   1   5    0.90    0.09
   4  -1  -5   27.60    0.70
   4  -1  -5   27.58    0.74
   4  -1  -5   27.79    0.69
  -4   1   5   27.76    0.69
  -4   1   5   28.04    0.69
   3  -1  -5   13.84    0.40
   3  -1  -5   14.33    0.38
  -3   1   5   14.72    0.37
  -3   1   5   14.41    0.37
   2  -1  -5   73.69    1.89
   2  -1  -5   77.05    1.82
   2  -1  -5   75.37    1.84
   2  -1  -5   75.27    1.84
  -2   1   5   76.15    1.83
  -2   1   5   75.92    1.82
   1  -1  -5    1.12    0.07
   1  -1  -5    1.31    0.08
   1  -1  -5    1.12    0.07
   1  -1  -5    1.25    0.07
  -1   1   5    1.22    0.06
  -1   1   5    1.10    0.07
   0  -1  -5   14.66    0.37
   0  -1  -5   14.16    0.36
   0  -1  -5   12.10    0.36
   0  -1  -5   14.41    0.36
   0   1   5   14.03    0.36
   0   1   5   13.94    0.36
   0   1   5   14.20    0.35
  -1  -1  -5    0.01    0.03
  -1  -1  -5    0.05    0.03
  -1  -1  -5    0.00    0.03
  -1  -1  -5    0.03    0.03
  -1  -1  -5    0.04    0.04
   1   1   5   -0.03    0.02
   1   1   5    0.02    0.02
   1   1   5   -0.02    0.02
   1   1   5   -0.02    0.02
  -2  -1  -5    1.57    0.08
  -2  -1  -5    1.71    0.07
  -2  -1  -5    1.62    0.09
  -2  -1  -5    1.55    0.07
  -2  -1  -5    1.55    0.08
   2   1   5    1.61    0.07
   2   1   5    1.76    0.07
   2   1   5    1.63    0.07
  -3  -1  -5    3.52    0.12
  -3  -1  -5    3.50    0.12
  -3  -1  -5    3.33    0.12
  -3  -1  -5    3.59    0.12
  -3  -1  -5    3.45    0.12
   3   1   5    3.49    0.11
   3   1   5    3.60    0.13
   3   1   5    3.53    0.11
   3   1   5    3.51    0.11
   3   1   5    3.60    0.12
  -4  -1  -5    1.37    0.08
  -4  -1  -5    1.48    0.08
  -4  -1  -5    1.32    0.08
  -4  -1  -5    1.34    0.08
   4   1   5    1.33    0.09
   4   1   5    1.37    0.08
   4   1   5    1.22    0.06
   4   1   5    1.37    0.07
   4   1   5    1.53    0.06
  -5  -1  -5    0.75    0.07
  -5  -1  -5    0.93    0.08
  -5  -1  -5    0.79    0.08
   5   1   5    0.86    0.06
   5   1   5    0.94    0.05
   5   1   5    0.75    0.08
   5   1   5    0.77    0.06
  -6  -1  -5    9.17    0.28
  -6  -1  -5    9.08    0.28
  -6  -1  -5    9.10    0.27
   6   1   5    9.31    0.26
   6   1   5    9.38    0.23
   6   1   5    9.57    0.26
   6   1   5    9.22    0.25
  -7  -1  -5   22.55    0.60
  -7  -1  -5   21.99    0.61
  -7  -1  -5   22.49    0.58
   7   1   5   23.08    0.58
   7   1   5   22.59    0.59
   7   1   5   22.48    0.58
   7   1   5   22.47    0.57
  -8  -1  -5   11.68    0.34
  -8  -1  -5   11.48    0.35
  -8  -1  -5   11.28    0.34
   8   1   5   11.23    0.33
   8   1   5   11.99    0.32
   8   1   5   11.88    0.31
  -9  -1  -5    2.78    0.15
  -9  -1  -5    3.19    0.16
  -9  -1  -5    2.85    0.17
   9   1   5    3.02    0.11
   9   1   5    3.00    0.14
   9   1   5    2.85    0.15
 -10  -1  -5    5.26    0.22
 -10  -1  -5    5.28    0.20
  10   1   5    5.28    0.21
  10   1   5    5.45    0.16
 -11  -1  -5    0.05    0.08
 -11  -1  -5    0.21    0.09
  11   1   5    0.24    0.09
  11   1   5    0.17    0.04
 -12  -1  -5   -0.04    0.10
  12   1   5    0.14    0.12
 -13  -1  -5   -0.01    0.13
  13   1   5    0.18    0.15
   9  -2  -5    0.44    0.13
  -9   2   5    0.35    0.10
   8  -2  -5    0.81    0.12
  -8   2   5    0.85    0.10
   7  -2  -5    2.60    0.17
  -7   2   5    2.63    0.15
   6  -2  -5    6.11    0.23
  -6   2   5    6.38    0.22
   5  -2  -5    1.69    0.12
  -5   2   5    1.73    0.10
   4  -2  -5   16.59    0.42
   4  -2  -5   16.25    0.45
   4  -2  -5   15.85    0.42
  -4   2   5   16.03    0.43
  -4   2   5   16.44    0.41
   3  -2  -5   11.64    0.34
   3  -2  -5   11.66    0.31
   3  -2  -5   12.12    0.32
  -3   2   5   12.32    0.31
  -3   2   5   11.83    0.33
   2  -2  -5   10.21    0.28
   2  -2  -5   10.66    0.26
   2  -2  -5    9.94    0.29
   2  -2  -5   10.19    0.27
  -2   2   5   10.31    0.27
  -2   2   5   10.09    0.28
   1  -2  -5    0.35    0.04
   1  -2  -5    0.44    0.04
   1  -2  -5    0.46    0.04
   1  -2  -5    0.45    0.04
   1  -2  -5    0.40    0.04
  -1   2   5    0.36    0.04
  -1   2   5    0.43    0.04
  -1   2   5    0.49    0.05
  -1   2   5    0.30    0.03
   0  -2  -5    4.85    0.15
   0  -2  -5    4.90    0.14
   0  -2  -5    4.85    0.15
   0  -2  -5    5.03    0.15
   0   2   5    4.79    0.14
   0   2   5    4.95    0.14
   0   2   5    4.88    0.14
   0   2   5    4.91    0.17
   0   2   5    5.08    0.15
  -1  -2  -5   60.64    1.45
  -1  -2  -5   59.54    1.50
  -1  -2  -5   62.11    1.47
  -1  -2  -5   59.94    1.48
   1   2   5   58.35    1.45
   1   2   5   60.47    1.47
   1   2   5   58.20    1.47
   1   2   5   61.86    1.50
   1   2   5   61.40    1.50
   1   2   5   61.43    1.47
  -2  -2  -5   53.03    1.33
  -2  -2  -5   54.11    1.35
  -2  -2  -5   54.83    1.32
  -2  -2  -5   54.10    1.32
  -2  -2  -5   55.59    1.31
   2   2   5   54.17    1.30
   2   2   5   51.20    1.37
   2   2   5   54.35    1.32
   2   2   5   55.97    1.35
   2   2   5   53.40    1.32
   2   2   5   53.98    1.32
  -3  -2  -5   15.57    0.41
  -3  -2  -5   15.43    0.42
  -3  -2  -5   15.65    0.39
  -3  -2  -5   15.64    0.40
  -3  -2  -5   15.48    0.43
  -3  -2  -5   15.75    0.40
   3   2   5   15.92    0.40
   3   2   5   15.82    0.41
   3   2   5   15.80    0.42
   3   2   5   15.80    0.39
   3   2   5   15.38    0.42
   3   2   5   15.77    0.40
  -4  -2  -5   34.48    0.87
  -4  -2  -5   35.45    0.88
  -4  -2  -5   34.29    0.90
  -4  -2  -5   34.89    0.91
  -4  -2  -5   35.92    0.85
   4   2   5   35.19    0.87
   4   2   5   34.92    0.87
   4   2   5   35.76    0.85
   4   2   5   34.74    0.90
   4   2   5   36.50    0.87
  -5  -2  -5   60.12    1.61
  -5  -2  -5   65.03    1.57
  -5  -2  -5   63.80    1.61
  -5  -2  -5   67.48    1.53
   5   2   5   55.54    1.56
   5   2   5   66.23    1.52
   5   2   5   66.26    1.56
   5   2   5   63.64    1.60
   5   2   5   66.47    1.56
  -6  -2  -5   22.89    0.60
  -6  -2  -5   23.77    0.56
  -6  -2  -5   22.46    0.61
  -6  -2  -5   22.65    0.59
   6   2   5   22.75    0.58
   6   2   5   22.18    0.60
   6   2   5   22.36    0.57
   6   2   5   23.23    0.56
   6   2   5   23.00    0.58
  -7  -2  -5   14.83    0.41
  -7  -2  -5   15.05    0.41
  -7  -2  -5   15.07    0.43
  -7  -2  -5   15.25    0.37
   7   2   5   14.53    0.41
   7   2   5   15.01    0.39
   7   2   5   15.20    0.40
   7   2   5   15.30    0.40
  -8  -2  -5   32.77    0.78
  -8  -2  -5   31.90    0.84
  -8  -2  -5   32.38    0.83
  -8  -2  -5   32.89    0.86
   8   2   5   30.37    0.83
   8   2   5   33.13    0.83
   8   2   5   32.52    0.80
   8   2   5   32.79    0.81
  -9  -2  -5    0.58    0.10
  -9  -2  -5    0.50    0.08
  -9  -2  -5    0.62    0.08
   9   2   5    0.66    0.06
   9   2   5    0.38    0.07
   9   2   5    0.64    0.07
 -10  -2  -5    6.71    0.26
 -10  -2  -5    6.56    0.23
  10   2   5    6.81    0.24
  10   2   5    6.93    0.20
 -11  -2  -5    0.32    0.10
  11   2   5    0.43    0.05
  11   2   5    0.53    0.10
 -12  -2  -5    2.31    0.21
  12   2   5    2.59    0.22
 -13  -2  -5   -0.20    0.13
  13   2   5    0.06    0.15
   9  -3  -5    2.02    0.21
  -9   3   5    1.30    0.12
  -9   3   5    1.46    0.16
   8  -3  -5    3.61    0.21
  -8   3   5    3.40    0.18
   7  -3  -5    1.23    0.14
   7  -3  -5    1.11    0.15
  -7   3   5    1.07    0.12
   6  -3  -5    2.97    0.15
   6  -3  -5    2.86    0.21
  -6   3   5    2.89    0.14
   5  -3  -5    0.03    0.07
   5  -3  -5   -0.04    0.05
  -5   3   5   -0.02    0.04
  -5   3   5    0.03    0.09
   4  -3  -5    0.20    0.04
   4  -3  -5    0.30    0.04
   4  -3  -5    0.23    0.07
   4  -3  -5    0.16    0.05
  -4   3   5    0.23    0.04
  -4   3   5    0.32    0.08
  -4   3   5    0.22    0.05
   3  -3  -5    2.39    0.12
   3  -3  -5    2.83    0.11
   3  -3  -5    2.42    0.14
   3  -3  -5    2.52    0.10
  -3   3   5    2.70    0.11
  -3   3   5    2.68    0.09
  -3   3   5    2.46    0.12
   2  -3  -5    3.07    0.14
   2  -3  -5    3.35    0.11
   2  -3  -5    3.23    0.12
   2  -3  -5    3.01    0.12
  -2   3   5    3.22    0.12
  -2   3   5    3.06    0.12
  -2   3   5    3.27    0.09
  -2   3   5    3.26    0.11
   1  -3  -5    7.24    0.22
   1  -3  -5    7.52    0.20
   1  -3  -5    7.41    0.22
   1  -3  -5    7.33    0.23
  -1   3   5    7.16    0.20
  -1   3   5    7.62    0.22
  -1   3   5    7.51    0.21
  -1   3   5    7.40    0.19
   0  -3  -5   31.06    0.77
   0  -3  -5   29.49    0.79
   0  -3  -5   30.74    0.78
   0  -3  -5   31.96    0.75
   0   3   5   30.99    0.79
   0   3   5   31.56    0.76
   0   3   5   31.30    0.76
   0   3   5   30.84    0.76
   0   3   5   31.14    0.79
  -1  -3  -5   12.58    0.32
  -1  -3  -5   12.24    0.35
  -1  -3  -5   12.65    0.34
  -1  -3  -5   12.95    0.33
   1   3   5   12.39    0.34
   1   3   5   12.98    0.33
   1   3   5   12.84    0.33
   1   3   5   12.67    0.32
   1   3   5   12.40    0.32
   1   3   5   12.11    0.33
  -2  -3  -5   84.21    1.98
  -2  -3  -5   83.09    1.98
  -2  -3  -5   80.53    2.03
  -2  -3  -5   78.54    1.95
  -2  -3  -5   79.55    1.99
   2   3   5   83.57    1.95
   2   3   5   82.44    1.98
   2   3   5   84.59    2.01
   2   3   5   79.02    2.05
   2   3   5   82.59    2.03
   2   3   5   80.55    1.98
   2   3   5   81.28    1.99
  -3  -3  -5   10.58    0.30
  -3  -3  -5   10.29    0.29
  -3  -3  -5   10.43    0.28
  -3  -3  -5   10.34    0.28
  -3  -3  -5   10.60    0.27
   3   3   5    9.93    0.29
   3   3   5   10.69    0.27
   3   3   5   10.77    0.28
   3   3   5   10.22    0.28
   3   3   5   10.48    0.30
   3   3   5   10.34    0.29
   3   3   5   11.00    0.27
  -4  -3  -5  276.39    6.84
  -4  -3  -5  284.31    7.00
  -4  -3  -5  286.65    6.73
   4   3   5  286.19    7.03
   4   3   5  285.93    6.77
   4   3   5  282.06    6.91
   4   3   5  288.68    6.84
  -5  -3  -5   29.36    0.75
  -5  -3  -5   29.57    0.78
  -5  -3  -5   30.24    0.72
   5   3   5   29.09    0.74
   5   3   5   29.60    0.72
   5   3   5   30.30    0.73
   5   3   5   28.72    0.76
   5   3   5   30.05    0.75
  -6  -3  -5  136.85    3.31
  -6  -3  -5  135.91    3.24
  -6  -3  -5  134.46    3.39
   6   3   5  138.95    3.34
   6   3   5  136.74    3.30
   6   3   5  136.81    3.24
   6   3   5  135.14    3.38
   6   3   5  135.63    3.29
  -7  -3  -5   44.25    1.09
  -7  -3  -5   44.77    1.17
  -7  -3  -5   45.12    1.14
   7   3   5   46.59    1.13
   7   3   5   45.28    1.12
   7   3   5   45.50    1.12
   7   3   5   44.75    1.14
   7   3   5   46.54    1.09
  -8  -3  -5   20.46    0.56
  -8  -3  -5   20.41    0.52
  -8  -3  -5   20.74    0.58
   8   3   5   21.00    0.54
   8   3   5   20.73    0.53
   8   3   5   20.14    0.54
   8   3   5   21.25    0.54
  -9  -3  -5    8.10    0.29
  -9  -3  -5    8.25    0.29
   9   3   5    8.31    0.23
   9   3   5    8.22    0.25
   9   3   5    8.29    0.26
 -10  -3  -5    4.33    0.21
  10   3   5    4.25    0.14
  10   3   5    4.01    0.19
 -11  -3  -5    0.06    0.09
  11   3   5    0.01    0.04
  11   3   5    0.02    0.09
 -12  -3  -5    0.89    0.14
 -13  -3  -5    0.24    0.11
 -13  -3  -5    0.35    0.15
   9  -4  -5    1.80    0.21
   9  -4  -5    1.37    0.20
  -9   4   5    1.28    0.16
  -9   4   5    1.23    0.12
   8  -4  -5    2.17    0.18
   8  -4  -5    2.43    0.28
  -8   4   5    2.08    0.16
   7  -4  -5    6.66    0.32
   7  -4  -5    6.64    0.25
  -7   4   5    6.56    0.23
   6  -4  -5   -0.02    0.09
   6  -4  -5   -0.04    0.06
  -6   4   5   -0.07    0.05
   5  -4  -5    0.39    0.08
   5  -4  -5    0.53    0.07
  -5   4   5    0.47    0.06
   4  -4  -5    0.13    0.04
   4  -4  -5    0.03    0.06
   4  -4  -5    0.07    0.05
   4  -4  -5    0.02    0.04
  -4   4   5    0.05    0.04
  -4   4   5    0.09    0.10
  -4   4   5    0.08    0.04
   3  -4  -5    0.36    0.07
   3  -4  -5    0.41    0.05
   3  -4  -5    0.29    0.05
  -3   4   5    0.24    0.04
  -3   4   5    0.27    0.08
  -3   4   5    0.34    0.04
   2  -4  -5    0.12    0.05
   2  -4  -5    0.04    0.03
   2  -4  -5    0.06    0.04
   2  -4  -5    0.03    0.03
  -2   4   5    0.12    0.03
  -2   4   5    0.08    0.07
  -2   4   5    0.06    0.03
   1  -4  -5    9.87    0.26
   1  -4  -5    9.50    0.28
   1  -4  -5    9.53    0.28
   1  -4  -5    9.40    0.28
  -1   4   5    9.80    0.26
  -1   4   5    9.84    0.26
  -1   4   5    9.81    0.29
   0  -4  -5   47.81    1.25
   0  -4  -5   50.69    1.20
   0  -4  -5   49.23    1.24
   0  -4  -5   49.58    1.22
   0  -4  -5   50.73    1.21
   0   4   5   49.21    1.25
   0   4   5   50.56    1.21
   0   4   5   49.00    1.23
   0   4   5   47.53    1.19
  -1  -4  -5    2.31    0.09
  -1  -4  -5    2.20    0.08
  -1  -4  -5    2.43    0.09
  -1  -4  -5    2.08    0.11
  -1  -4  -5    2.56    0.11
   1   4   5    2.48    0.09
   1   4   5    2.31    0.09
   1   4   5    2.25    0.11
   1   4   5    2.24    0.09
  -2  -4  -5   40.81    1.02
  -2  -4  -5   41.20    0.99
  -2  -4  -5   41.78    1.00
  -2  -4  -5   39.73    1.04
   2   4   5   40.28    1.01
   2   4   5   39.61    1.04
   2   4   5   41.04    0.98
   2   4   5   41.89    1.00
   2   4   5   38.35    1.03
   2   4   5   40.97    1.00
  -3  -4  -5  283.09    7.04
  -3  -4  -5  283.57    6.88
  -3  -4  -5  287.01    6.87
  -3  -4  -5  292.13    6.78
  -3  -4  -5  282.03    6.87
   3   4   5  288.11    7.07
   3   4   5  292.76    6.88
   3   4   5  277.80    6.91
   3   4   5  286.14    6.82
  -4  -4  -5  108.22    2.64
  -4  -4  -5  103.78    2.58
   4   4   5  108.77    2.69
   4   4   5  107.51    2.58
   4   4   5  112.23    2.63
  -5  -4  -5   88.95    2.26
  -5  -4  -5   91.93    2.20
   5   4   5   91.39    2.18
   5   4   5   89.51    2.15
   5   4   5   88.81    2.24
   5   4   5   88.51    2.19
  -6  -4  -5    0.61    0.07
  -6  -4  -5    0.70    0.08
   6   4   5    0.62    0.07
   6   4   5    0.71    0.06
   6   4   5    0.65    0.08
   6   4   5    0.68    0.06
  -7  -4  -5    0.61    0.08
  -7  -4  -5    0.75    0.09
   7   4   5    0.94    0.09
   7   4   5    0.76    0.08
   7   4   5    0.77    0.06
   7   4   5    0.78    0.07
  -8  -4  -5    1.51    0.15
  -8  -4  -5    1.45    0.13
   8   4   5    1.71    0.14
   8   4   5    1.64    0.08
  -9  -4  -5    0.08    0.11
  -9  -4  -5    0.09    0.07
   9   4   5    0.01    0.09
   9   4   5    0.06    0.04
 -10  -4  -5    0.08    0.08
  10   4   5    0.02    0.04
 -11  -4  -5    0.17    0.10
 -11  -4  -5    0.28    0.08
  11   4   5    0.15    0.05
 -12  -4  -5    0.51    0.10
 -12  -4  -5    0.62    0.16
 -13  -4  -5   -0.12    0.16
 -13  -4  -5    0.07    0.10
   9  -5  -5    1.23    0.15
   9  -5  -5    1.19    0.19
  -9   5   5    1.02    0.12
  -9   5   5    1.40    0.16
   8  -5  -5    2.82    0.19
   8  -5  -5    2.75    0.28
  -8   5   5    2.41    0.16
   7  -5  -5    3.38    0.25
   7  -5  -5    2.82    0.17
  -7   5   5    3.09    0.16
   6  -5  -5    9.50    0.31
   6  -5  -5    9.60    0.35
  -6   5   5    9.69    0.29
   5  -5  -5    1.21    0.11
   5  -5  -5    1.25    0.14
  -5   5   5    1.21    0.09
   4  -5  -5    0.31    0.05
   4  -5  -5    0.30    0.04
   4  -5  -5    0.20    0.07
   4  -5  -5    0.28    0.05
  -4   5   5    0.23    0.05
  -4   5   5    0.26    0.05
   3  -5  -5    0.17    0.05
   3  -5  -5    0.14    0.04
   3  -5  -5    0.08    0.06
  -3   5   5    0.08    0.04
  -3   5   5    0.12    0.04
   2  -5  -5   99.48    2.48
   2  -5  -5   95.03    2.40
   2  -5  -5  101.97    2.43
   2  -5  -5  100.14    2.47
  -2   5   5  102.20    2.39
  -2   5   5   98.07    2.40
   1  -5  -5    6.09    0.20
   1  -5  -5    5.80    0.20
   1  -5  -5    5.93    0.18
   1  -5  -5    6.02    0.20
  -1   5   5    6.09    0.18
  -1   5   5    5.96    0.17
   0  -5  -5  170.61    4.06
   0  -5  -5  167.08    4.03
   0  -5  -5  170.03    4.09
   0  -5  -5  166.72    4.18
   0  -5  -5  167.76    4.15
   0  -5  -5  170.88    4.07
   0   5   5  165.19    4.14
   0   5   5  169.21    4.07
   0   5   5  172.66    4.02
  -1  -5  -5    1.22    0.09
  -1  -5  -5    1.07    0.07
  -1  -5  -5    0.66    0.08
  -1  -5  -5    0.85    0.06
  -1  -5  -5    0.85    0.05
  -1  -5  -5    0.88    0.06
   1   5   5    0.93    0.06
   1   5   5    1.01    0.06
   1   5   5    0.71    0.06
  -2  -5  -5   80.30    1.93
  -2  -5  -5   81.08    1.90
  -2  -5  -5   77.72    1.97
  -2  -5  -5   78.52    1.90
  -2  -5  -5   76.54    1.93
   2   5   5   77.90    1.90
   2   5   5   76.69    1.88
  -3  -5  -5    4.22    0.17
  -3  -5  -5    4.32    0.17
   3   5   5    3.94    0.16
   3   5   5    4.38    0.14
   3   5   5    4.22    0.13
  -4  -5  -5  142.45    3.57
  -4  -5  -5  142.12    3.49
   4   5   5  146.87    3.42
   4   5   5  142.41    3.48
   4   5   5  142.19    3.47
   4   5   5  145.45    3.57
  -5  -5  -5   37.74    0.99
  -5  -5  -5   38.53    0.97
   5   5   5   38.15    0.96
   5   5   5   34.44    0.92
   5   5   5   39.73    0.94
   5   5   5   38.63    0.96
  -6  -5  -5    6.27    0.23
  -6  -5  -5    5.88    0.22
   6   5   5    6.17    0.22
   6   5   5    6.24    0.18
   6   5   5    6.09    0.18
   6   5   5    6.13    0.19
  -7  -5  -5   -0.05    0.05
  -7  -5  -5   -0.01    0.08
   7   5   5    0.03    0.03
   7   5   5   -0.08    0.08
   7   5   5   -0.05    0.04
   7   5   5   -0.03    0.04
  -8  -5  -5    1.37    0.13
  -8  -5  -5    1.42    0.13
   8   5   5    1.48    0.08
   8   5   5    1.42    0.16
  -9  -5  -5    0.29    0.06
  -9  -5  -5    0.35    0.13
  -9  -5  -5    0.27    0.09
   9   5   5    0.32    0.05
 -10  -5  -5    0.00    0.06
 -10  -5  -5    0.00    0.09
  10   5   5    0.00    0.04
 -11  -5  -5    3.04    0.23
 -11  -5  -5    2.97    0.18
  11   5   5    3.05    0.13
 -12  -5  -5   -0.13    0.13
 -12  -5  -5   -0.07    0.09
   9  -6  -5    0.52    0.18
   9  -6  -5    0.51    0.13
  -9   6   5    0.56    0.15
  -9   6   5    0.32    0.10
   8  -6  -5   -0.08    0.14
   8  -6  -5    0.13    0.10
  -8   6   5    0.07    0.11
  -8   6   5   -0.03    0.07
   7  -6  -5    2.93    0.17
   7  -6  -5    2.95    0.24
  -7   6   5    2.58    0.15
   6  -6  -5    0.51    0.08
   6  -6  -5    0.75    0.12
  -6   6   5    0.47    0.07
   5  -6  -5    1.56    0.12
   5  -6  -5    1.67    0.10
   5  -6  -5    1.70    0.09
   5  -6  -5    1.81    0.16
  -5   6   5    1.49    0.10
   4  -6  -5    0.71    0.07
   4  -6  -5    0.77    0.09
   4  -6  -5    0.58    0.09
  -4   6   5    0.80    0.09
  -4   6   5    0.81    0.08
   3  -6  -5    2.86    0.13
   3  -6  -5    2.99    0.12
   3  -6  -5    2.99    0.12
   3  -6  -5    2.94    0.15
  -3   6   5    2.98    0.12
  -3   6   5    2.83    0.11
   2  -6  -5   30.96    0.82
   2  -6  -5   31.69    0.81
   2  -6  -5   31.84    0.81
   2  -6  -5   32.03    0.79
  -2   6   5   31.58    0.79
  -2   6   5   31.63    0.79
   1  -6  -5   71.26    1.81
   1  -6  -5   71.69    1.74
   1  -6  -5   71.70    1.78
   1  -6  -5   70.23    1.77
  -1   6   5   71.26    1.72
  -1   6   5   72.26    1.74
   0  -6  -5    3.35    0.13
   0  -6  -5    3.42    0.11
   0  -6  -5    3.64    0.16
   0  -6  -5    3.53    0.15
   0  -6  -5    3.27    0.11
   0  -6  -5    3.33    0.13
   0   6   5    3.43    0.12
   0   6   5    3.45    0.13
  -1  -6  -5   18.73    0.51
  -1  -6  -5   18.38    0.52
  -1  -6  -5   18.83    0.47
  -1  -6  -5   19.05    0.48
  -1  -6  -5   18.41    0.47
  -1  -6  -5   18.73    0.48
   1   6   5   18.19    0.48
   1   6   5   18.69    0.48
  -2  -6  -5    1.81    0.12
  -2  -6  -5    1.62    0.11
  -2  -6  -5    1.65    0.08
  -2  -6  -5    1.80    0.07
   2   6   5    1.74    0.09
   2   6   5    1.77    0.09
  -3  -6  -5   11.90    0.35
  -3  -6  -5    9.96    0.34
  -3  -6  -5   10.47    0.31
   3   6   5   12.12    0.31
   3   6   5   12.43    0.31
  -4  -6  -5    4.89    0.20
  -4  -6  -5    4.84    0.16
  -4  -6  -5    4.85    0.19
   4   6   5    4.79    0.16
   4   6   5    4.89    0.16
  -5  -6  -5    5.53    0.22
  -5  -6  -5    5.69    0.19
  -5  -6  -5    5.71    0.22
   5   6   5    5.42    0.23
   5   6   5    5.58    0.20
   5   6   5    5.60    0.18
   5   6   5    5.80    0.18
  -6  -6  -5    0.20    0.05
  -6  -6  -5    0.34    0.07
  -6  -6  -5    0.28    0.09
   6   6   5    0.19    0.10
   6   6   5    0.21    0.04
   6   6   5    0.31    0.06
   6   6   5    0.19    0.04
  -7  -6  -5    0.24    0.10
  -7  -6  -5    0.11    0.05
  -7  -6  -5    0.22    0.07
   7   6   5    0.25    0.11
   7   6   5    0.19    0.05
   7   6   5    0.22    0.04
  -8  -6  -5    0.13    0.11
  -8  -6  -5    0.04    0.08
  -8  -6  -5    0.09    0.06
   8   6   5    0.08    0.04
  -9  -6  -5    0.05    0.09
  -9  -6  -5    0.17    0.06
  -9  -6  -5    0.16    0.14
   9   6   5    0.14    0.04
 -10  -6  -5    1.33    0.15
 -10  -6  -5    1.69    0.16
  10   6   5    1.39    0.10
 -11  -6  -5    0.76    0.14
 -11  -6  -5    0.90    0.11
  11   6   5    0.68    0.07
 -12  -6  -5    8.27    0.39
 -12  -6  -5    8.76    0.34
  12   6   5    8.03    0.25
   9  -7  -5    0.45    0.17
   9  -7  -5    0.72    0.14
  -9   7   5    0.49    0.12
  -9   7   5    0.71    0.16
   8  -7  -5    5.02    0.33
   8  -7  -5    4.23    0.23
  -8   7   5    4.26    0.21
  -8   7   5    4.15    0.26
   7  -7  -5    0.69    0.13
   7  -7  -5    0.46    0.10
  -7   7   5    0.46    0.08
  -7   7   5    0.76    0.12
   6  -7  -5    3.76    0.14
   6  -7  -5    4.12    0.24
   6  -7  -5    3.76    0.18
  -6   7   5    3.99    0.17
   5  -7  -5    0.03    0.08
   5  -7  -5    0.08    0.06
   5  -7  -5    0.02    0.05
   5  -7  -5   -0.05    0.06
  -5   7   5    0.01    0.05
   4  -7  -5    0.10    0.06
   4  -7  -5    0.11    0.06
   4  -7  -5    0.14    0.07
   4  -7  -5    0.08    0.05
  -4   7   5    0.10    0.06
  -4   7   5    0.01    0.05
   3  -7  -5    5.11    0.20
   3  -7  -5    4.86    0.19
   3  -7  -5    5.10    0.17
   3  -7  -5    4.85    0.17
  -3   7   5    4.94    0.17
  -3   7   5    5.12    0.17
   2  -7  -5    5.56    0.18
   2  -7  -5    5.52    0.21
   2  -7  -5    5.71    0.21
   2  -7  -5    5.29    0.18
  -2   7   5    5.82    0.18
  -2   7   5    5.74    0.18
   1  -7  -5    4.33    0.14
   1  -7  -5    4.61    0.18
   1  -7  -5    4.67    0.17
   1  -7  -5    4.53    0.13
   1  -7  -5    4.32    0.16
  -1   7   5    4.81    0.16
  -1   7   5    4.75    0.16
   0  -7  -5   49.31    1.24
   0  -7  -5   49.12    1.28
   0  -7  -5   47.62    1.21
   0  -7  -5   49.40    1.20
   0  -7  -5   49.05    1.25
   0   7   5   48.69    1.21
   0   7   5   50.84    1.20
  -1  -7  -5   12.13    0.37
  -1  -7  -5   12.00    0.37
  -1  -7  -5   11.98    0.33
  -1  -7  -5   12.17    0.33
   1   7   5   12.11    0.33
  -2  -7  -5    0.01    0.03
  -2  -7  -5   -0.02    0.05
  -2  -7  -5   -0.02    0.03
  -2  -7  -5    0.15    0.06
   2   7   5   -0.02    0.04
   2   7   5    0.16    0.04
  -3  -7  -5    0.07    0.06
  -3  -7  -5    0.06    0.06
  -3  -7  -5    0.08    0.04
   3   7   5    0.00    0.04
   3   7   5    0.14    0.04
  -4  -7  -5    1.21    0.09
  -4  -7  -5    1.08    0.12
  -4  -7  -5    1.13    0.12
   4   7   5    1.07    0.08
  -5  -7  -5    0.02    0.06
  -5  -7  -5   -0.06    0.07
  -5  -7  -5    0.02    0.04
   5   7   5   -0.11    0.08
   5   7   5    0.03    0.04
   5   7   5   -0.02    0.03
  -6  -7  -5    5.03    0.22
  -6  -7  -5    5.34    0.19
  -6  -7  -5    5.19    0.24
   6   7   5    5.20    0.17
   6   7   5    4.91    0.18
   6   7   5    4.70    0.27
   6   7   5    5.25    0.18
  -7  -7  -5    0.22    0.11
  -7  -7  -5    0.27    0.09
  -7  -7  -5    0.27    0.06
   7   7   5    0.26    0.05
  -8  -7  -5    0.53    0.14
  -8  -7  -5    0.75    0.12
  -8  -7  -5    0.71    0.09
   8   7   5    0.64    0.07
  -9  -7  -5    4.77    0.21
  -9  -7  -5    4.73    0.25
   9   7   5    4.60    0.17
 -10  -7  -5    0.13    0.13
 -10  -7  -5    0.18    0.08
  10   7   5    0.11    0.06
 -11  -7  -5    2.41    0.20
 -11  -7  -5    2.56    0.27
  11   7   5    2.49    0.14
   8  -8  -5    0.43    0.12
   8  -8  -5    0.40    0.16
  -8   8   5    0.21    0.10
  -8   8   5    0.31    0.12
   7  -8  -5    1.09    0.12
   7  -8  -5    1.00    0.15
  -7   8   5    0.96    0.13
  -7   8   5    0.95    0.10
   6  -8  -5    0.06    0.08
   6  -8  -5    0.05    0.10
   6  -8  -5    0.13    0.06
  -6   8   5    0.06    0.09
  -6   8   5    0.23    0.07
   5  -8  -5    1.46    0.17
   5  -8  -5    1.51    0.12
   5  -8  -5    1.36    0.12
  -5   8   5    1.60    0.12
   4  -8  -5    1.57    0.13
   4  -8  -5    1.53    0.16
   4  -8  -5    1.46    0.11
  -4   8   5    1.73    0.12
  -4   8   5    1.60    0.13
   3  -8  -5    0.06    0.07
   3  -8  -5    0.05    0.06
   3  -8  -5   -0.03    0.05
  -3   8   5    0.04    0.06
  -3   8   5   -0.01    0.05
   2  -8  -5   -0.03    0.04
   2  -8  -5    0.10    0.05
   2  -8  -5    0.06    0.06
   2  -8  -5    0.10    0.06
   2  -8  -5   -0.05    0.07
  -2   8   5    0.09    0.06
  -2   8   5    0.09    0.05
   1  -8  -5   21.30    0.54
   1  -8  -5   20.56    0.56
   1  -8  -5   21.46    0.58
   1  -8  -5   21.60    0.59
  -1   8   5   21.26    0.55
  -1   8   5   21.48    0.55
   0  -8  -5   10.63    0.34
   0  -8  -5   11.05    0.36
   0  -8  -5   11.05    0.32
   0  -8  -5   10.91    0.30
   0   8   5   10.76    0.31
   0   8   5   11.08    0.31
  -1  -8  -5   13.65    0.38
  -1  -8  -5   13.95    0.42
  -1  -8  -5   14.36    0.38
  -1  -8  -5   14.29    0.44
   1   8   5   14.54    0.39
   1   8   5   14.16    0.38
  -2  -8  -5    2.75    0.11
  -2  -8  -5    2.76    0.12
  -2  -8  -5    2.73    0.16
  -2  -8  -5    2.90    0.17
   2   8   5    2.74    0.12
   2   8   5    2.67    0.12
  -3  -8  -5    0.23    0.05
  -3  -8  -5    0.24    0.08
  -3  -8  -5    0.32    0.04
  -3  -8  -5    0.37    0.07
   3   8   5    0.31    0.05
   3   8   5    0.18    0.05
  -4  -8  -5    7.92    0.29
  -4  -8  -5    8.07    0.26
  -4  -8  -5    8.01    0.29
   4   8   5    8.15    0.24
   4   8   5    8.12    0.24
  -5  -8  -5    1.34    0.13
  -5  -8  -5    1.40    0.11
  -5  -8  -5    1.33    0.14
   5   8   5    1.56    0.10
   5   8   5    1.33    0.10
   5   8   5    1.37    0.10
  -6  -8  -5    2.71    0.19
  -6  -8  -5    2.67    0.18
   6   8   5    2.80    0.13
   6   8   5    2.66    0.12
   6   8   5    2.74    0.12
  -7  -8  -5    0.51    0.07
  -7  -8  -5    0.51    0.12
  -7  -8  -5    0.51    0.12
   7   8   5    0.46    0.06
  -8  -8  -5    0.69    0.09
  -8  -8  -5    0.97    0.17
  -8  -8  -5    0.63    0.13
   8   8   5    0.70    0.07
  -9  -8  -5    1.53    0.17
  -9  -8  -5    1.51    0.16
   9   8   5    1.49    0.11
 -10  -8  -5    0.36    0.15
 -10  -8  -5    0.18    0.10
  10   8   5    0.20    0.07
 -11  -8  -5    0.85    0.20
 -11  -8  -5    1.17    0.14
  11   8   5    1.32    0.13
   8  -9  -5   -0.05    0.17
  -8   9   5    0.17    0.13
  -8   9   5    0.11    0.11
   7  -9  -5    0.00    0.14
   7  -9  -5    0.35    0.11
  -7   9   5    0.26    0.11
  -7   9   5    0.20    0.09
   6  -9  -5    0.43    0.12
   6  -9  -5    0.54    0.10
   6  -9  -5    0.70    0.09
  -6   9   5    0.54    0.12
  -6   9   5    0.59    0.09
   5  -9  -5    0.17    0.11
   5  -9  -5    0.31    0.08
   5  -9  -5    0.23    0.08
  -5   9   5    0.38    0.10
  -5   9   5    0.32    0.08
   4  -9  -5    0.14    0.07
   4  -9  -5    0.18    0.06
   4  -9  -5    0.25    0.09
  -4   9   5    0.32    0.07
  -4   9   5    0.27    0.09
   3  -9  -5   -0.03    0.07
   3  -9  -5    0.05    0.07
   3  -9  -5   -0.02    0.05
  -3   9   5    0.04    0.07
  -3   9   5    0.01    0.05
   2  -9  -5    1.77    0.11
   2  -9  -5    1.92    0.10
   2  -9  -5    1.77    0.15
   2  -9  -5    1.96    0.15
  -2   9   5    1.75    0.12
  -2   9   5    1.88    0.13
   1  -9  -5    3.54    0.18
   1  -9  -5    3.10    0.14
   1  -9  -5    3.67    0.17
  -1   9   5    3.51    0.14
  -1   9   5    2.88    0.15
   0  -9  -5   19.74    0.54
   0  -9  -5   19.71    0.57
   0  -9  -5   20.20    0.52
   0   9   5   20.18    0.53
   0   9   5   19.66    0.52
  -1  -9  -5   17.56    0.46
  -1  -9  -5   17.00    0.52
  -1  -9  -5   17.48    0.46
  -1  -9  -5   16.68    0.51
   1   9   5   16.73    0.46
   1   9   5   16.72    0.46
  -2  -9  -5    4.13    0.16
  -2  -9  -5    3.91    0.15
  -2  -9  -5    3.69    0.20
  -2  -9  -5    4.22    0.21
   2   9   5    3.99    0.16
   2   9   5    3.91    0.16
  -3  -9  -5    0.79    0.11
  -3  -9  -5    0.74    0.11
  -3  -9  -5    0.76    0.08
  -3  -9  -5    0.69    0.08
   3   9   5    0.63    0.07
   3   9   5    0.81    0.09
  -4  -9  -5    5.53    0.21
  -4  -9  -5    5.69    0.25
  -4  -9  -5    5.34    0.25
   4   9   5    5.50    0.19
   4   9   5    5.58    0.19
   4   9   5    5.60    0.20
  -5  -9  -5    2.08    0.18
  -5  -9  -5    1.96    0.14
  -5  -9  -5    2.16    0.17
   5   9   5    1.96    0.11
   5   9   5    2.26    0.12
   5   9   5    1.88    0.13
  -6  -9  -5   -0.03    0.10
  -6  -9  -5   -0.02    0.09
  -6  -9  -5    0.07    0.07
   6   9   5    0.05    0.06
   6   9   5   -0.10    0.04
   6   9   5   -0.03    0.05
  -7  -9  -5    4.69    0.21
  -7  -9  -5    5.12    0.27
  -7  -9  -5    4.90    0.25
   7   9   5    4.59    0.18
  -8  -9  -5    0.37    0.09
  -8  -9  -5    0.31    0.14
  -8  -9  -5    0.46    0.13
   8   9   5    0.40    0.07
  -9  -9  -5   12.45    0.46
  -9  -9  -5   12.03    0.41
   9   9   5   11.86    0.36
 -10  -9  -5    1.23    0.20
 -10  -9  -5    1.24    0.15
  10   9   5    1.08    0.13
   7 -10  -5    0.58    0.09
   7 -10  -5    0.45    0.16
  -7  10   5    0.33    0.11
  -7  10   5    0.40    0.13
   6 -10  -5    0.56    0.14
   6 -10  -5    0.66    0.10
  -6  10   5    0.52    0.12
  -6  10   5    0.53    0.10
   5 -10  -5    1.86    0.16
   5 -10  -5    1.79    0.16
  -5  10   5    1.71    0.16
  -5  10   5    1.82    0.19
   4 -10  -5    0.58    0.10
   4 -10  -5    0.65    0.12
   4 -10  -5    0.68    0.08
  -4  10   5    0.69    0.11
  -4  10   5    0.69    0.09
   3 -10  -5    0.05    0.06
   3 -10  -5    0.05    0.07
   3 -10  -5    0.04    0.06
   3 -10  -5   -0.07    0.09
  -3  10   5    0.01    0.07
  -3  10   5    0.06    0.09
  -3  10   5   -0.02    0.06
   2 -10  -5    0.13    0.05
   2 -10  -5    0.15    0.08
   2 -10  -5    0.27    0.09
   2 -10  -5    0.20    0.06
  -2  10   5    0.20    0.07
  -2  10   5    0.21    0.08
  -2  10   5    0.05    0.06
   1 -10  -5    2.09    0.16
   1 -10  -5    1.78    0.16
   1 -10  -5    2.24    0.13
   1 -10  -5    2.23    0.11
  -1  10   5    2.35    0.16
  -1  10   5    2.16    0.13
  -1  10   5    2.23    0.14
   0 -10  -5    2.59    0.14
   0 -10  -5    2.85    0.19
   0 -10  -5    2.47    0.16
   0  10   5    2.74    0.17
   0  10   5    2.41    0.14
   0  10   5    2.76    0.14
  -1 -10  -5    0.23    0.07
  -1 -10  -5    0.33    0.07
  -1 -10  -5    0.22    0.09
  -1 -10  -5    0.23    0.09
   1  10   5    0.28    0.06
   1  10   5    0.22    0.07
   1  10   5    0.18    0.06
  -2 -10  -5    3.89    0.22
  -2 -10  -5    3.83    0.16
  -2 -10  -5    3.42    0.21
  -2 -10  -5    3.87    0.17
   2  10   5    3.35    0.17
   2  10   5    3.58    0.17
   2  10   5    3.62    0.16
  -3 -10  -5    4.01    0.23
  -3 -10  -5    3.96    0.18
  -3 -10  -5    4.43    0.23
  -3 -10  -5    3.93    0.16
   3  10   5    4.16    0.18
   3  10   5    3.71    0.17
   3  10   5    4.17    0.17
  -4 -10  -5    0.35    0.11
  -4 -10  -5    0.47    0.11
  -4 -10  -5    0.46    0.06
  -4 -10  -5    0.41    0.08
   4  10   5    0.44    0.07
   4  10   5    0.42    0.07
   4  10   5    0.50    0.07
  -5 -10  -5    0.17    0.10
  -5 -10  -5   -0.02    0.07
  -5 -10  -5    0.03    0.10
   5  10   5   -0.01    0.06
   5  10   5   -0.02    0.06
   5  10   5   -0.01    0.05
  -6 -10  -5    5.53    0.28
  -6 -10  -5    5.21    0.23
  -6 -10  -5    4.99    0.28
   6  10   5    5.24    0.20
  -7 -10  -5    0.41    0.14
  -7 -10  -5    0.49    0.14
  -7 -10  -5    0.47    0.10
   7  10   5    0.38    0.07
  -8 -10  -5    0.71    0.16
  -8 -10  -5    0.35    0.10
   8  10   5    0.40    0.08
  -9 -10  -5    0.08    0.10
  -9 -10  -5    0.25    0.17
   9  10   5    0.08    0.07
   6 -11  -5    0.75    0.11
   6 -11  -5    0.51    0.17
  -6  11   5    0.75    0.12
  -6  11   5    0.65    0.14
   5 -11  -5    0.10    0.13
   5 -11  -5    0.09    0.09
  -5  11   5    0.16    0.09
  -5  11   5    0.31    0.12
   4 -11  -5    3.67    0.25
   4 -11  -5    3.07    0.20
  -4  11   5    3.22    0.23
  -4  11   5    3.61    0.19
   3 -11  -5    2.89    0.23
   3 -11  -5    2.63    0.15
   3 -11  -5    3.10    0.20
  -3  11   5    2.93    0.17
  -3  11   5    3.04    0.21
  -3  11   5    2.86    0.19
   2 -11  -5    0.11    0.10
   2 -11  -5    0.08    0.07
   2 -11  -5   -0.04    0.08
  -2  11   5    0.13    0.09
  -2  11   5    0.02    0.06
  -2  11   5   -0.07    0.07
   1 -11  -5    7.43    0.28
   1 -11  -5    7.35    0.30
   1 -11  -5    7.35    0.25
  -1  11   5    7.97    0.30
  -1  11   5    7.78    0.26
  -1  11   5    6.95    0.26
   0 -11  -5    4.83    0.25
   0 -11  -5    4.75    0.22
   0 -11  -5    4.82    0.20
   0  11   5    5.03    0.23
   0  11   5    4.75    0.20
   0  11   5    4.89    0.20
  -1 -11  -5   28.62    0.76
  -1 -11  -5   27.95    0.76
  -1 -11  -5   28.82    0.81
   1  11   5   28.53    0.76
   1  11   5   28.88    0.79
   1  11   5   29.43    0.75
  -2 -11  -5    0.36    0.11
  -2 -11  -5    0.27    0.09
  -2 -11  -5    0.33    0.09
  -2 -11  -5    0.39    0.11
   2  11   5    0.27    0.07
   2  11   5    0.43    0.09
   2  11   5    0.26    0.08
  -3 -11  -5    2.34    0.15
  -3 -11  -5    2.12    0.17
  -3 -11  -5    2.19    0.21
  -3 -11  -5    2.42    0.21
   3  11   5    2.21    0.14
   3  11   5    2.23    0.15
   3  11   5    2.30    0.16
  -4 -11  -5    0.00    0.11
  -4 -11  -5    0.25    0.11
  -4 -11  -5   -0.10    0.07
   4  11   5    0.07    0.07
   4  11   5   -0.11    0.07
   4  11   5    0.01    0.06
  -5 -11  -5    0.57    0.14
  -5 -11  -5    0.70    0.15
  -5 -11  -5    0.36    0.10
   5  11   5    0.40    0.08
   5  11   5    0.53    0.08
   5  11   5    0.42    0.09
  -6 -11  -5    0.19    0.14
  -6 -11  -5   -0.05    0.09
  -6 -11  -5    0.31    0.13
  -7 -11  -5    3.52    0.23
  -7 -11  -5    3.44    0.30
  -7 -11  -5    3.87    0.31
   7  11   5    3.31    0.17
  -8 -11  -5   -0.13    0.17
  -8 -11  -5    0.15    0.10
   8  11   5    0.04    0.07
   5 -12  -5    0.03    0.10
   5 -12  -5   -0.12    0.16
  -5  12   5    0.11    0.12
  -5  12   5   -0.01    0.10
   4 -12  -5    0.63    0.12
   4 -12  -5    0.67    0.15
  -4  12   5    0.78    0.14
  -4  12   5    0.49    0.10
   3 -12  -5    3.56    0.27
   3 -12  -5    3.43    0.23
  -3  12   5    3.27    0.20
  -3  12   5    3.86    0.24
   2 -12  -5    0.54    0.09
   2 -12  -5    0.35    0.10
   2 -12  -5    0.52    0.13
  -2  12   5    0.46    0.12
  -2  12   5    0.54    0.09
  -2  12   5    0.43    0.11
   1 -12  -5    0.47    0.12
   1 -12  -5    0.40    0.09
   1 -12  -5    0.31    0.11
  -1  12   5    0.46    0.10
  -1  12   5    0.67    0.11
  -1  12   5    0.40    0.08
   0 -12  -5    0.00    0.11
   0 -12  -5   -0.05    0.08
   0 -12  -5   -0.07    0.10
   0  12   5    0.06    0.07
   0  12   5    0.19    0.09
   0  12   5    0.02    0.08
  -1 -12  -5    1.87    0.18
  -1 -12  -5    1.59    0.16
  -1 -12  -5    1.49    0.17
   1  12   5    1.80    0.18
   1  12   5    2.09    0.15
   1  12   5    1.69    0.16
  -2 -12  -5    2.03    0.19
  -2 -12  -5    1.95    0.18
  -2 -12  -5    1.83    0.17
   2  12   5    2.14    0.16
   2  12   5    2.38    0.16
   2  12   5    2.09    0.19
  -3 -12  -5   -0.18    0.11
  -3 -12  -5   -0.04    0.09
   3  12   5    0.00    0.09
   3  12   5   -0.01    0.07
   3  12   5    0.01    0.07
  -4 -12  -5   -0.09    0.09
  -4 -12  -5    0.03    0.13
  -4 -12  -5    0.14    0.14
   4  12   5    0.11    0.08
   4  12   5    0.00    0.08
   4  12   5    0.07    0.10
  -5 -12  -5   -0.11    0.10
  -5 -12  -5    0.06    0.15
  -5 -12  -5    0.07    0.14
   5  12   5    0.03    0.07
  -6 -12  -5    1.27    0.20
  -6 -12  -5    1.06    0.20
  -6 -12  -5    1.02    0.14
   6  12   5    1.10    0.11
  -7 -12  -5    0.48    0.18
  -7 -12  -5    0.31    0.12
   7  12   5    0.17    0.08
  -4  13   5    0.16    0.12
  -4  13   5    0.04    0.13
   3 -13  -5    1.22    0.19
   3 -13  -5    2.00    0.22
  -3  13   5    1.41    0.17
  -3  13   5    1.77    0.20
   2 -13  -5    0.50    0.15
   2 -13  -5    0.41    0.12
   2 -13  -5    0.36    0.12
  -2  13   5    0.56    0.11
  -2  13   5    0.49    0.13
  -2  13   5    0.26    0.13
   1 -13  -5    2.81    0.25
   1 -13  -5    2.26    0.21
   1 -13  -5    2.55    0.26
  -1  13   5    2.28    0.22
  -1  13   5    2.38    0.23
  -1  13   5    2.73    0.19
   0 -13  -5    0.11    0.10
   0 -13  -5    0.07    0.12
   0 -13  -5   -0.09    0.13
   0  13   5    0.04    0.10
   0  13   5   -0.12    0.11
   0  13   5    0.17    0.08
  -1 -13  -5    0.72    0.12
  -1 -13  -5    0.72    0.16
  -1 -13  -5    0.93    0.14
   1  13   5    1.07    0.14
   1  13   5    0.85    0.12
   1  13   5    0.78    0.10
  -2 -13  -5   -0.10    0.10
  -2 -13  -5   -0.12    0.14
   2  13   5   -0.06    0.11
   2  13   5    0.00    0.08
   2  13   5   -0.14    0.09
  -3 -13  -5    0.22    0.11
  -3 -13  -5    0.26    0.17
   3  13   5    0.45    0.09
   3  13   5    0.20    0.12
   3  13   5    0.21    0.10
  -4 -13  -5   -0.33    0.16
  -4 -13  -5   -0.23    0.10
   4  13   5   -0.08    0.08
  -5 -13  -5    0.22    0.13
  -5 -13  -5   -0.02    0.18
   5  13   5    0.25    0.10
   0 -14  -5   -0.09    0.13
   0  14   5    0.01    0.14
   0  14   5    0.06    0.13
   0  14   5    0.27    0.11
  -1 -14  -5   -0.15    0.15
  -1 -14  -5    0.02    0.13
   1  14   5   -0.06    0.12
   1  14   5    0.10    0.09
   1  14   5   -0.02    0.14
   0   8  -6    2.60    0.22
   0   8  -6    2.99    0.20
   0  -8   6    3.18    0.27
   0  -8   6    3.20    0.23
  -1   8  -6    5.60    0.26
  -1   8  -6    4.57    0.32
   1  -8   6    6.05    0.27
   1  -8   6    5.60    0.30
  -2   8  -6    1.29    0.14
  -2   8  -6    1.10    0.16
   2  -8   6    1.11    0.13
   2  -8   6    1.76    0.19
   2  -8   6    1.37    0.16
  -3   8  -6    1.61    0.19
  -3   8  -6    1.40    0.16
   3  -8   6    1.24    0.14
   3  -8   6    1.02    0.13
   3  -8   6    1.95    0.20
  -4   8  -6    3.97    0.28
  -4   8  -6    4.43    0.24
   4  -8   6    4.49    0.25
   4  -8   6    4.21    0.23
   4  -8   6    3.82    0.24
  -5   8  -6    1.28    0.15
  -5   8  -6    1.33    0.16
   5  -8   6    1.28    0.13
   5  -8   6    1.27    0.13
   5  -8   6    1.35    0.14
  -6   8  -6    0.32    0.12
  -6   8  -6    0.01    0.13
   6  -8   6    0.21    0.10
   6  -8   6    0.05    0.09
  -7   8  -6    0.51    0.15
  -7   8  -6    0.24    0.14
   7  -8   6    0.31    0.10
   7  -8   6    0.48    0.10
  -8   8  -6    0.37    0.14
   8  -8   6    0.08    0.10
   8  -8   6   -0.02    0.10
   2   7  -6    0.27    0.17
   2   7  -6    0.12    0.11
   2   7  -6    0.07    0.08
  -2  -7   6    0.20    0.11
   1   7  -6    3.51    0.20
   1   7  -6    3.40    0.29
   1   7  -6    3.61    0.20
  -1  -7   6    3.63    0.22
   0   7  -6    1.53    0.15
   0   7  -6    1.49    0.16
   0   7  -6    1.60    0.17
   0  -7   6    1.47    0.15
   0  -7   6    1.16    0.13
  -1   7  -6    9.22    0.33
  -1   7  -6   10.29    0.39
   1  -7   6   10.12    0.35
   1  -7   6   10.15    0.36
  -2   7  -6    0.30    0.12
  -2   7  -6    0.15    0.08
   2  -7   6    0.29    0.09
   2  -7   6    0.39    0.11
  -3   7  -6    1.00    0.11
  -3   7  -6    1.22    0.15
   3  -7   6    1.13    0.13
   3  -7   6    0.97    0.11
   3  -7   6    1.19    0.12
  -4   7  -6    0.34    0.11
  -4   7  -6    0.37    0.10
   4  -7   6    0.40    0.09
   4  -7   6    0.39    0.10
   4  -7   6    0.17    0.09
  -5   7  -6    4.26    0.23
  -5   7  -6    4.39    0.27
   5  -7   6    4.42    0.22
   5  -7   6    4.85    0.22
   5  -7   6    4.12    0.21
  -6   7  -6    2.03    0.19
  -6   7  -6    2.38    0.23
   6  -7   6    2.02    0.17
   6  -7   6    2.29    0.17
  -7   7  -6    1.92    0.21
  -7   7  -6    1.35    0.15
   7  -7   6    1.25    0.13
   7  -7   6    1.50    0.16
  -8   7  -6    0.92    0.15
  -8   7  -6    1.11    0.15
   8  -7   6    1.04    0.12
   8  -7   6    1.06    0.11
  -9   7  -6    0.12    0.13
   9  -7   6    0.04    0.08
   9  -7   6   -0.05    0.10
   3   6  -6   -0.04    0.07
   3   6  -6    0.12    0.11
  -3  -6   6    0.05    0.10
   2   6  -6    0.10    0.13
   2   6  -6   -0.02    0.07
   2   6  -6    0.05    0.09
  -2  -6   6   -0.01    0.09
   1   6  -6    0.36    0.09
   1   6  -6    0.50    0.09
   1   6  -6    0.45    0.13
  -1  -6   6    0.56    0.11
  -1  -6   6    0.63    0.10
   0   6  -6    4.08    0.25
   0   6  -6    4.30    0.19
   0   6  -6    4.26    0.20
   0  -6   6    4.64    0.22
   0  -6   6    4.54    0.22
  -1   6  -6   10.03    0.30
  -1   6  -6   10.33    0.37
  -1   6  -6   10.21    0.33
   1  -6   6   10.27    0.34
   1  -6   6    9.94    0.34
  -2   6  -6    3.57    0.18
  -2   6  -6    3.70    0.22
  -2   6  -6    3.70    0.15
   2  -6   6    3.89    0.19
   2  -6   6    3.74    0.20
  -3   6  -6    3.81    0.18
  -3   6  -6    3.47    0.15
  -3   6  -6    3.58    0.22
   3  -6   6    3.69    0.18
   3  -6   6    3.79    0.19
   3  -6   6    3.84    0.19
  -4   6  -6    0.16    0.08
  -4   6  -6   -0.02    0.08
   4  -6   6   -0.01    0.07
   4  -6   6    0.18    0.07
   4  -6   6    0.02    0.07
  -5   6  -6   -0.05    0.09
  -5   6  -6    0.07    0.08
   5  -6   6    0.01    0.06
   5  -6   6    0.02    0.07
   5  -6   6   -0.07    0.07
  -6   6  -6   -0.01    0.08
  -6   6  -6    0.09    0.10
   6  -6   6    0.06    0.07
   6  -6   6    0.00    0.06
  -7   6  -6    0.06    0.09
  -7   6  -6    0.16    0.10
   7  -6   6    0.09    0.07
   7  -6   6    0.14    0.07
  -8   6  -6    0.58    0.12
  -8   6  -6    0.45    0.12
   8  -6   6    0.53    0.09
   8  -6   6    0.50    0.08
  -9   6  -6    1.47    0.17
   9  -6   6    1.59    0.17
   9  -6   6    1.70    0.14
 -10   6  -6    0.03    0.12
  10  -6   6    0.11    0.07
  10  -6   6    0.03    0.14
  10  -6   6    0.00    0.09
   4   5  -6    0.18    0.11
   4   5  -6    0.24    0.08
  -4  -5   6    0.16    0.11
   3   5  -6    9.46    0.33
   3   5  -6    9.72    0.31
  -3  -5   6    9.79    0.34
   2   5  -6    3.65    0.24
   2   5  -6    3.59    0.18
   2   5  -6    3.51    0.17
  -2  -5   6    3.62    0.21
  -2  -5   6    3.62    0.19
   1   5  -6   11.24    0.39
   1   5  -6   10.75    0.34
   1   5  -6   11.29    0.35
  -1  -5   6   11.42    0.36
  -1  -5   6   11.15    0.36
   0   5  -6    2.44    0.14
   0   5  -6    2.55    0.19
   0   5  -6    2.45    0.14
   0  -5   6    2.48    0.16
   0  -5   6    2.36    0.15
  -1   5  -6    5.66    0.24
  -1   5  -6    5.19    0.20
  -1   5  -6    5.00    0.19
   1  -5   6    5.47    0.22
   1  -5   6    5.30    0.21
  -2   5  -6    4.11    0.15
  -2   5  -6    4.37    0.22
  -2   5  -6    4.18    0.18
   2  -5   6    4.14    0.18
   2  -5   6    4.25    0.19
  -3   5  -6    0.03    0.06
  -3   5  -6   -0.05    0.05
  -3   5  -6   -0.10    0.07
   3  -5   6    0.05    0.06
   3  -5   6    0.08    0.06
   3  -5   6   -0.04    0.05
  -4   5  -6    0.11    0.06
  -4   5  -6    0.13    0.05
  -4   5  -6    0.10    0.07
   4  -5   6    0.13    0.06
   4  -5   6    0.10    0.06
   4  -5   6   -0.02    0.06
  -5   5  -6    0.39    0.05
  -5   5  -6    0.40    0.08
  -5   5  -6    0.31    0.09
   5  -5   6    0.23    0.06
   5  -5   6    0.33    0.07
  -6   5  -6    0.41    0.09
  -6   5  -6    0.12    0.07
   6  -5   6    0.22    0.06
   6  -5   6    0.30    0.06
  -7   5  -6    0.02    0.08
  -7   5  -6    0.02    0.08
   7  -5   6    0.04    0.05
   7  -5   6    0.05    0.06
  -8   5  -6    0.72    0.12
  -8   5  -6    0.67    0.11
   8  -5   6    0.68    0.09
   8  -5   6    0.62    0.08
  -9   5  -6    0.28    0.11
  -9   5  -6    0.21    0.12
   9  -5   6    0.42    0.09
   9  -5   6    0.22    0.06
 -10   5  -6    1.70    0.17
  10  -5   6    1.63    0.17
  10  -5   6    1.64    0.16
  10  -5   6    1.84    0.13
 -11   5  -6    0.64    0.13
 -11   5  -6    0.72    0.15
  11  -5   6    0.87    0.11
  11  -5   6    0.89    0.18
  11  -5   6    1.01    0.12
   5   4  -6    0.34    0.11
   5   4  -6    0.40    0.09
  -5  -4   6    0.45    0.12
   4   4  -6   -0.06    0.09
   4   4  -6    0.06    0.07
  -4  -4   6    0.11    0.09
   3   4  -6    0.01    0.06
   3   4  -6    0.09    0.08
  -3  -4   6    0.07    0.08
   2   4  -6    1.13    0.11
   2   4  -6    1.18    0.12
  -2  -4   6    1.34    0.13
  -2  -4   6    1.09    0.13
   1   4  -6    1.85    0.12
   1   4  -6    1.76    0.17
   1   4  -6    1.81    0.12
  -1  -4   6    1.70    0.14
  -1  -4   6    1.87    0.13
   0   4  -6    7.65    0.25
   0   4  -6    7.46    0.28
   0   4  -6    7.73    0.24
   0  -4   6    7.57    0.26
   0  -4   6    7.71    0.26
  -1   4  -6    3.89    0.20
  -1   4  -6    3.84    0.15
  -1   4  -6    4.01    0.16
   1  -4   6    3.75    0.17
   1  -4   6    3.86    0.17
  -2   4  -6    0.26    0.05
  -2   4  -6    0.29    0.08
  -2   4  -6    0.35    0.06
   2  -4   6    0.28    0.06
   2  -4   6    0.29    0.07
  -3   4  -6    0.35    0.06
  -3   4  -6    0.39    0.08
  -3   4  -6    0.43    0.05
   3  -4   6    0.35    0.06
   3  -4   6    0.37    0.07
   3  -4   6    0.38    0.06
  -4   4  -6   -0.06    0.05
  -4   4  -6   -0.01    0.06
   4  -4   6   -0.04    0.04
   4  -4   6    0.02    0.05
   4  -4   6   -0.07    0.05
  -5   4  -6    0.07    0.07
  -5   4  -6    0.08    0.06
   5  -4   6    0.17    0.05
   5  -4   6    0.12    0.05
  -6   4  -6    0.01    0.06
  -6   4  -6    0.02    0.07
   6  -4   6    0.03    0.05
   6  -4   6   -0.04    0.05
  -7   4  -6    5.12    0.23
  -7   4  -6    4.92    0.20
   7  -4   6    5.03    0.19
   7  -4   6    4.75    0.19
  -8   4  -6    2.45    0.18
  -8   4  -6    2.32    0.16
   8  -4   6    2.24    0.14
   8  -4   6    2.18    0.13
  -9   4  -6    2.55    0.22
  -9   4  -6    2.74    0.20
   9  -4   6    2.76    0.14
   9  -4   6    2.64    0.16
 -10   4  -6    2.87    0.22
  10  -4   6    2.91    0.24
  10  -4   6    2.89    0.17
  10  -4   6    2.90    0.14
 -11   4  -6    4.44    0.24
 -11   4  -6    4.42    0.28
  11  -4   6    4.60    0.29
  11  -4   6    4.55    0.18
  11  -4   6    4.26    0.21
 -12   4  -6    4.27    0.27
 -12   4  -6    4.26    0.32
  12  -4   6    4.46    0.18
  12  -4   6    4.78    0.33
   6   3  -6    1.33    0.15
   6   3  -6    1.45    0.14
  -6  -3   6    1.21    0.14
   5   3  -6    5.95    0.22
   5   3  -6    5.66    0.25
  -5  -3   6    5.57    0.25
   4   3  -6    8.93    0.28
   4   3  -6    9.51    0.31
  -4  -3   6    8.87    0.31
   3   3  -6    5.56    0.20
   3   3  -6    5.79    0.22
  -3  -3   6    6.07    0.22
   2   3  -6    2.54    0.13
   2   3  -6    2.25    0.13
  -2  -3   6    2.51    0.14
  -2  -3   6    2.37    0.16
   1   3  -6    0.34    0.06
   1   3  -6    0.40    0.08
   1   3  -6    0.34    0.06
  -1  -3   6    0.38    0.08
  -1  -3   6    0.40    0.07
   0   3  -6    0.88    0.10
   0   3  -6    0.83    0.09
   0   3  -6    0.69    0.07
   0  -3   6    0.57    0.07
   0  -3   6    0.88    0.09
  -1   3  -6    1.65    0.17
  -1   3  -6    1.73    0.10
  -1   3  -6    1.84    0.14
  -1   3  -6    1.78    0.10
   1  -3   6    1.65    0.11
   1  -3   6    1.93    0.11
  -2   3  -6   -0.03    0.04
  -2   3  -6    0.17    0.06
  -2   3  -6    0.04    0.04
   2  -3   6   -0.02    0.04
   2  -3   6   -0.01    0.05
   2  -3   6    0.11    0.04
  -3   3  -6    4.10    0.16
  -3   3  -6    4.36    0.19
   3  -3   6    4.35    0.16
   3  -3   6    4.06    0.16
   3  -3   6    4.24    0.17
  -4   3  -6   21.56    0.60
  -4   3  -6   20.44    0.56
   4  -3   6   21.30    0.56
   4  -3   6   21.06    0.56
  -5   3  -6    0.07    0.05
  -5   3  -6    0.01    0.06
   5  -3   6    0.06    0.05
   5  -3   6    0.06    0.05
  -6   3  -6   11.88    0.35
  -6   3  -6   11.72    0.38
   6  -3   6   11.58    0.31
   6  -3   6   11.91    0.34
   6  -3   6   12.22    0.35
  -7   3  -6    3.19    0.15
  -7   3  -6    3.07    0.18
   7  -3   6    3.15    0.15
   7  -3   6    2.97    0.14
  -8   3  -6   26.03    0.71
  -8   3  -6   26.87    0.75
   8  -3   6   27.29    0.70
   8  -3   6   26.55    0.69
  -9   3  -6    0.72    0.10
  -9   3  -6    0.55    0.12
   9  -3   6    0.74    0.11
   9  -3   6    0.61    0.08
   9  -3   6    0.65    0.07
 -10   3  -6    5.63    0.26
 -10   3  -6    5.58    0.24
  10  -3   6    5.66    0.21
  10  -3   6    5.04    0.19
  10  -3   6    5.72    0.28
 -11   3  -6    0.14    0.11
 -11   3  -6    0.14    0.10
  11  -3   6    0.16    0.05
  11  -3   6    0.03    0.08
  11  -3   6    0.21    0.12
 -12   3  -6    1.38    0.15
 -12   3  -6    1.68    0.17
  12  -3   6    1.42    0.11
  12  -3   6    1.31    0.17
   7   2  -6    0.12    0.11
   6   2  -6    3.85    0.23
   6   2  -6    3.98    0.17
  -6  -2   6    3.82    0.21
   5   2  -6    0.94    0.09
   5   2  -6    0.86    0.11
  -5  -2   6    0.80    0.10
   4   2  -6    1.79    0.14
   4   2  -6    1.87    0.12
  -4  -2   6    1.72    0.14
   3   2  -6    1.62    0.11
   3   2  -6    1.80    0.13
  -3  -2   6    1.98    0.12
  -3  -2   6    2.02    0.15
   2   2  -6    0.26    0.06
   2   2  -6    0.19    0.05
  -2  -2   6    0.32    0.06
  -2  -2   6    0.32    0.07
   1   2  -6    2.21    0.11
   1   2  -6    2.05    0.11
   1   2  -6    2.31    0.15
   1   2  -6    2.30    0.22
  -1  -2   6    2.27    0.12
  -1  -2   6    2.04    0.12
   0   2  -6    1.53    0.12
   0   2  -6    1.59    0.10
   0   2  -6    1.59    0.14
   0   2  -6    1.57    0.10
   0  -2   6    1.60    0.10
   0  -2   6    1.56    0.11
  -1   2  -6    0.37    0.05
  -1   2  -6    0.44    0.06
  -1   2  -6    0.44    0.07
  -1   2  -6    0.31    0.05
   1  -2   6    0.32    0.06
   1  -2   6    0.28    0.05
  -2   2  -6    2.24    0.10
  -2   2  -6    2.31    0.14
  -2   2  -6    2.18    0.11
   2  -2   6    2.21    0.12
   2  -2   6    2.16    0.11
   2  -2   6    2.15    0.11
  -3   2  -6   68.01    1.66
  -3   2  -6   67.21    1.73
   3  -2   6   67.72    1.65
   3  -2   6   67.59    1.66
   3  -2   6   66.95    1.67
  -4   2  -6   29.32    0.75
  -4   2  -6   28.84    0.78
   4  -2   6   29.36    0.75
   4  -2   6   28.57    0.74
  -5   2  -6   16.29    0.47
  -5   2  -6   15.85    0.44
   5  -2   6   16.36    0.44
  -6   2  -6    1.88    0.12
  -6   2  -6    2.02    0.14
   6  -2   6    2.12    0.08
   6  -2   6    2.10    0.11
   6  -2   6    2.06    0.09
   6  -2   6    2.02    0.11
  -7   2  -6   46.91    1.19
  -7   2  -6   44.36    1.13
   7  -2   6   44.60    1.13
   7  -2   6   42.82    1.13
   7  -2   6   46.50    1.13
  -8   2  -6   16.95    0.49
  -8   2  -6   16.02    0.46
  -8   2  -6   16.29    0.48
   8  -2   6   16.60    0.45
   8  -2   6   16.41    0.44
  -9   2  -6    6.50    0.26
  -9   2  -6    6.34    0.25
  -9   2  -6    6.59    0.24
   9  -2   6    6.57    0.22
   9  -2   6    6.21    0.20
   9  -2   6    6.23    0.26
 -10   2  -6    2.18    0.16
 -10   2  -6    2.28    0.18
  10  -2   6    2.27    0.14
  10  -2   6    2.33    0.11
  10  -2   6    2.17    0.19
 -11   2  -6    0.35    0.10
 -11   2  -6    0.22    0.10
  11  -2   6    0.21    0.11
  11  -2   6    0.28    0.05
 -12   2  -6    0.06    0.10
 -12   2  -6    0.23    0.12
  12  -2   6    0.06    0.13
  12  -2   6    0.10    0.05
 -13   2  -6    0.43    0.13
 -13   2  -6    0.54    0.16
  13  -2   6    0.38    0.17
   7   1  -6    0.66    0.12
   6   1  -6    0.12    0.09
  -6  -1   6    0.15    0.08
   5   1  -6    0.64    0.07
   5   1  -6    0.79    0.10
  -5  -1   6    0.68    0.08
   4   1  -6    1.34    0.10
   4   1  -6    1.20    0.12
  -4  -1   6    1.31    0.11
   3   1  -6    0.59    0.06
   3   1  -6    0.56    0.08
  -3  -1   6    0.63    0.07
  -3  -1   6    0.64    0.08
   2   1  -6    8.61    0.27
   2   1  -6    8.98    0.30
   2   1  -6    9.00    0.26
  -2  -1   6    8.70    0.26
  -2  -1   6    8.99    0.26
   1   1  -6    0.02    0.05
   1   1  -6    0.08    0.04
   1   1  -6    0.07    0.09
  -1  -1   6    0.07    0.04
  -1  -1   6    0.07    0.05
   0   1  -6    4.70    0.17
   0   1  -6    4.89    0.17
   0   1  -6    4.78    0.20
   0   1  -6    4.82    0.19
   0  -1   6    4.91    0.16
   0  -1   6    4.84    0.17
  -1   1  -6   18.80    0.52
  -1   1  -6   18.98    0.50
  -1   1  -6   18.84    0.53
  -1   1  -6   18.98    0.49
   1  -1   6   18.90    0.50
   1  -1   6   19.22    0.49
   1  -1   6   19.02    0.50
  -2   1  -6   47.48    1.20
  -2   1  -6   48.70    1.25
  -2   1  -6   48.67    1.21
   2  -1   6   49.19    1.20
   2  -1   6   47.32    1.20
   2  -1   6   48.52    1.19
  -3   1  -6    0.82    0.08
  -3   1  -6    1.02    0.10
  -3   1  -6    0.75    0.07
   3  -1   6    0.78    0.08
   3  -1   6    0.84    0.07
  -4   1  -6   59.03    1.51
  -4   1  -6   58.50    1.48
  -4   1  -6   58.93    1.46
   4  -1   6   59.37    1.46
   4  -1   6   59.33    1.46
  -5   1  -6    3.83    0.15
  -5   1  -6    3.73    0.15
  -5   1  -6    3.95    0.17
   5  -1   6    4.03    0.15
   5  -1   6    4.00    0.12
   5  -1   6    3.93    0.14
  -6   1  -6   32.08    0.82
  -6   1  -6   31.69    0.84
  -6   1  -6   32.17    0.86
   6  -1   6   33.09    0.82
   6  -1   6   32.77    0.77
   6  -1   6   32.86    0.81
   6  -1   6   30.02    0.82
  -7   1  -6    0.00    0.05
  -7   1  -6    0.01    0.06
  -7   1  -6    0.03    0.06
   7  -1   6   -0.06    0.03
   7  -1   6    0.00    0.04
   7  -1   6   -0.02    0.08
  -8   1  -6   48.83    1.27
  -8   1  -6   48.28    1.22
  -8   1  -6   48.51    1.26
   8  -1   6   48.22    1.21
   8  -1   6   48.76    1.22
   8  -1   6   48.66    1.20
  -9   1  -6    2.00    0.15
  -9   1  -6    2.08    0.16
  -9   1  -6    1.74    0.14
   9  -1   6    2.09    0.10
   9  -1   6    1.80    0.12
   9  -1   6    1.90    0.16
 -10   1  -6    3.51    0.19
 -10   1  -6    3.74    0.20
  10  -1   6    3.92    0.14
  10  -1   6    3.72    0.20
 -11   1  -6    0.37    0.09
 -11   1  -6    0.31    0.10
  11  -1   6    0.26    0.05
  11  -1   6    0.38    0.11
 -12   1  -6    0.20    0.11
 -12   1  -6   -0.10    0.09
  12  -1   6    0.24    0.05
  12  -1   6   -0.07    0.12
 -13   1  -6    0.32    0.13
  13  -1   6    0.25    0.15
   8   0  -6    0.05    0.11
  -8   0   6    0.03    0.10
   7   0  -6    0.67    0.11
  -7   0   6    0.87    0.11
   6   0  -6    0.76    0.10
  -6   0   6    0.94    0.09
   5   0  -6   15.10    0.40
   5   0  -6   14.99    0.45
  -5   0   6   15.16    0.41
   4   0  -6    0.73    0.08
   4   0  -6    0.77    0.11
   4   0  -6    0.87    0.08
  -4   0   6    0.57    0.07
   3   0  -6    4.80    0.20
   3   0  -6    4.76    0.16
   3   0  -6    4.49    0.18
  -3   0   6    4.69    0.17
  -3   0   6    4.59    0.16
   2   0  -6    0.03    0.04
   2   0  -6    0.02    0.05
   2   0  -6    0.06    0.08
  -2   0   6   -0.03    0.04
  -2   0   6    0.10    0.05
   1   0  -6    0.38    0.08
   1   0  -6    0.33    0.05
   1   0  -6    0.40    0.05
  -1   0   6    0.28    0.04
  -1   0   6    0.35    0.05
   0   0  -6    5.29    0.18
   0   0  -6    5.30    0.19
   0   0  -6    5.48    0.18
   0   0   6    5.35    0.16
   0   0   6    5.40    0.17
  -1   0  -6    8.28    0.26
  -1   0  -6    8.16    0.22
  -1   0  -6    8.04    0.24
  -1   0  -6    7.95    0.25
   1   0   6    8.01    0.23
   1   0   6    7.14    0.23
   1   0   6    7.91    0.22
  -2   0  -6    0.66    0.07
  -2   0  -6    0.68    0.08
  -2   0  -6    0.65    0.06
  -2   0  -6    0.65    0.07
   2   0   6    0.65    0.07
   2   0   6    0.60    0.07
  -3   0  -6  122.51    3.10
  -3   0  -6  125.99    3.06
  -3   0  -6  123.84    3.00
   3   0   6  124.82    3.00
   3   0   6  121.68    2.95
   3   0   6  124.23    3.00
  -4   0  -6    3.93    0.15
  -4   0  -6    4.32    0.17
  -4   0  -6    4.14    0.16
   4   0   6    4.34    0.15
   4   0   6    4.49    0.15
   4   0   6    4.36    0.13
  -5   0  -6   10.82    0.31
  -5   0  -6   11.24    0.33
  -5   0  -6   10.85    0.32
   5   0   6   10.93    0.30
   5   0   6   10.58    0.31
   5   0   6   11.24    0.28
   5   0   6   11.15    0.31
  -6   0  -6    0.76    0.08
  -6   0  -6    0.76    0.08
  -6   0  -6    0.73    0.07
   6   0   6    0.75    0.05
   6   0   6    0.78    0.08
   6   0   6    0.70    0.06
   6   0   6    0.77    0.07
  -7   0  -6    5.91    0.20
  -7   0  -6    5.87    0.21
  -7   0  -6    5.85    0.21
   7   0   6    5.93    0.21
   7   0   6    5.74    0.19
   7   0   6    5.68    0.18
  -8   0  -6    2.67    0.14
  -8   0  -6    2.60    0.14
  -8   0  -6    2.33    0.14
   8   0   6    2.63    0.11
   8   0   6    2.50    0.14
   8   0   6    2.35    0.12
   8   0   6    2.46    0.16
  -9   0  -6    4.05    0.18
  -9   0  -6    4.01    0.18
  -9   0  -6    4.07    0.19
   9   0   6    4.19    0.18
   9   0   6    4.16    0.14
   9   0   6    3.77    0.16
 -10   0  -6    0.80    0.10
 -10   0  -6    0.82    0.10
 -10   0  -6    0.63    0.13
  10   0   6    0.71    0.10
  10   0   6    0.64    0.07
 -11   0  -6    0.30    0.10
 -11   0  -6    0.51    0.10
  11   0   6    0.42    0.10
  11   0   6    0.64    0.07
 -12   0  -6    1.79    0.19
 -12   0  -6    1.53    0.18
  12   0   6    1.63    0.15
  12   0   6    1.70    0.10
 -13   0  -6    0.27    0.14
  13   0   6    0.22    0.15
   8  -1  -6    0.84    0.13
  -8   1   6    0.83    0.12
   7  -1  -6    3.41    0.21
  -7   1   6    3.72    0.20
   6  -1  -6    0.88    0.10
  -6   1   6    1.14    0.12
   5  -1  -6    9.11    0.30
  -5   1   6    8.38    0.25
   4  -1  -6   25.86    0.69
   4  -1  -6   26.15    0.65
   4  -1  -6   25.25    0.66
  -4   1   6   25.72    0.64
  -4   1   6   25.04    0.64
   3  -1  -6    1.13    0.09
   3  -1  -6    1.12    0.10
  -3   1   6    0.89    0.07
  -3   1   6    1.19    0.09
   2  -1  -6   38.09    0.93
   2  -1  -6   34.22    0.94
   2  -1  -6   38.14    0.98
   2  -1  -6   38.85    0.95
  -2   1   6   38.74    0.93
  -2   1   6   39.20    0.94
   1  -1  -6   23.91    0.60
   1  -1  -6   23.15    0.59
   1  -1  -6   23.25    0.60
   1  -1  -6   22.29    0.61
  -1   1   6   23.60    0.59
  -1   1   6   23.62    0.58
   0  -1  -6   23.14    0.60
   0  -1  -6   23.16    0.59
   0  -1  -6   24.01    0.60
   0   1   6   23.86    0.59
   0   1   6   23.13    0.59
  -1  -1  -6    7.69    0.22
  -1  -1  -6    8.11    0.23
  -1  -1  -6    7.97    0.22
  -1  -1  -6    7.70    0.23
   1   1   6    7.45    0.22
   1   1   6    7.28    0.22
   1   1   6    7.83    0.22
  -2  -1  -6   31.79    0.77
  -2  -1  -6   31.29    0.76
  -2  -1  -6   31.12    0.77
  -2  -1  -6   29.79    0.80
  -2  -1  -6   30.07    0.78
   2   1   6   29.79    0.75
   2   1   6   29.50    0.76
   2   1   6   30.06    0.76
  -3  -1  -6   11.12    0.30
  -3  -1  -6   10.59    0.30
  -3  -1  -6   10.33    0.30
  -3  -1  -6   10.56    0.32
   3   1   6   10.74    0.29
   3   1   6   10.55    0.28
   3   1   6   10.92    0.29
  -4  -1  -6   33.23    0.85
  -4  -1  -6   34.39    0.88
  -4  -1  -6   33.72    0.86
   4   1   6   32.23    0.84
   4   1   6   34.26    0.84
   4   1   6   33.32    0.84
   4   1   6   33.81    0.81
  -5  -1  -6   10.23    0.30
  -5  -1  -6    9.95    0.29
  -5  -1  -6   10.09    0.30
   5   1   6   10.06    0.28
   5   1   6    9.90    0.29
   5   1   6   10.23    0.26
   5   1   6   10.11    0.28
  -6  -1  -6    0.11    0.05
  -6  -1  -6    0.12    0.05
  -6  -1  -6    0.13    0.05
   6   1   6    0.08    0.06
   6   1   6    0.13    0.03
   6   1   6    0.11    0.03
   6   1   6    0.07    0.04
  -7  -1  -6   -0.05    0.05
  -7  -1  -6    0.07    0.06
  -7  -1  -6    0.09    0.05
   7   1   6   -0.10    0.06
   7   1   6   -0.01    0.03
   7   1   6    0.02    0.04
  -8  -1  -6    8.56    0.27
  -8  -1  -6    8.70    0.29
  -8  -1  -6    8.37    0.27
   8   1   6    8.76    0.26
   8   1   6    8.32    0.26
   8   1   6    8.58    0.24
   8   1   6    8.98    0.27
  -9  -1  -6    4.70    0.20
  -9  -1  -6    4.75    0.19
  -9  -1  -6    4.97    0.21
   9   1   6    4.99    0.21
   9   1   6    4.63    0.15
   9   1   6    4.62    0.19
 -10  -1  -6    4.92    0.21
 -10  -1  -6    4.54    0.25
 -10  -1  -6    4.66    0.20
  10   1   6    4.75    0.21
  10   1   6    4.70    0.15
 -11  -1  -6    0.02    0.09
 -11  -1  -6   -0.06    0.08
  11   1   6    0.01    0.04
  11   1   6    0.05    0.09
 -12  -1  -6    1.33    0.14
  12   1   6    1.31    0.14
  12   1   6    1.15    0.09
 -13  -1  -6   -0.10    0.12
  13   1   6    0.09    0.14
   8  -2  -6    0.32    0.11
  -8   2   6    0.28    0.09
   7  -2  -6    0.65    0.11
  -7   2   6    0.58    0.09
   6  -2  -6    3.44    0.18
  -6   2   6    3.43    0.17
   5  -2  -6    1.49    0.13
  -5   2   6    1.81    0.12
   4  -2  -6    5.05    0.18
   4  -2  -6    5.67    0.18
   4  -2  -6    5.18    0.20
  -4   2   6    4.97    0.17
  -4   2   6    5.41    0.19
   3  -2  -6    2.32    0.13
   3  -2  -6    2.50    0.11
  -3   2   6    2.54    0.11
  -3   2   6    2.58    0.12
   2  -2  -6   -0.06    0.04
   2  -2  -6    0.02    0.03
   2  -2  -6    0.01    0.04
   2  -2  -6    0.06    0.05
  -2   2   6    0.02    0.04
  -2   2   6    0.02    0.03
  -2   2   6   -0.03    0.03
   1  -2  -6    4.05    0.14
   1  -2  -6    3.63    0.14
   1  -2  -6    3.98    0.13
   1  -2  -6    4.05    0.14
  -1   2   6    4.08    0.13
  -1   2   6    4.03    0.14
  -1   2   6    4.28    0.13
   0  -2  -6    3.08    0.12
   0  -2  -6    3.05    0.12
   0  -2  -6    3.08    0.11
   0  -2  -6    3.19    0.12
   0   2   6    3.17    0.11
   0   2   6    3.22    0.11
   0   2   6    3.19    0.12
   0   2   6    3.23    0.11
  -1  -2  -6    5.21    0.17
  -1  -2  -6    5.14    0.16
  -1  -2  -6    5.06    0.16
  -1  -2  -6    4.96    0.16
   1   2   6    5.14    0.16
   1   2   6    4.97    0.15
   1   2   6    5.10    0.16
   1   2   6    5.00    0.15
  -2  -2  -6    4.73    0.16
  -2  -2  -6    4.55    0.16
  -2  -2  -6    4.82    0.15
  -2  -2  -6    4.73    0.15
   2   2   6    4.78    0.14
   2   2   6    4.58    0.15
   2   2   6    4.58    0.14
   2   2   6    4.80    0.15
  -3  -2  -6  104.94    2.64
  -3  -2  -6  116.00    2.57
  -3  -2  -6  102.25    2.58
  -3  -2  -6  104.44    2.67
  -3  -2  -6  103.70    2.59
   3   2   6  105.68    2.54
   3   2   6  105.94    2.58
   3   2   6  108.98    2.63
   3   2   6  105.40    2.58
  -4  -2  -6   44.14    1.08
  -4  -2  -6   43.55    1.11
  -4  -2  -6   43.27    1.12
   4   2   6   45.16    1.05
   4   2   6   42.36    1.08
   4   2   6   43.13    1.07
   4   2   6   42.39    1.07
  -5  -2  -6   36.07    0.94
  -5  -2  -6   35.92    0.94
  -5  -2  -6   35.83    0.91
   5   2   6   36.16    0.87
   5   2   6   36.39    0.90
   5   2   6   36.69    0.90
   5   2   6   36.14    0.91
  -6  -2  -6    2.07    0.12
  -6  -2  -6    1.97    0.11
  -6  -2  -6    1.92    0.12
   6   2   6    1.96    0.09
   6   2   6    2.00    0.12
   6   2   6    2.10    0.10
   6   2   6    2.03    0.08
  -7  -2  -6   16.52    0.48
  -7  -2  -6   17.00    0.47
  -7  -2  -6   16.41    0.42
  -7  -2  -6   16.87    0.46
   7   2   6   16.73    0.41
   7   2   6   16.87    0.44
   7   2   6   17.01    0.45
   7   2   6   16.79    0.44
  -8  -2  -6    3.63    0.18
  -8  -2  -6    3.24    0.16
  -8  -2  -6    3.46    0.16
   8   2   6    3.51    0.12
   8   2   6    3.61    0.14
   8   2   6    3.60    0.16
  -9  -2  -6    2.81    0.18
  -9  -2  -6    2.45    0.15
  -9  -2  -6    2.85    0.16
   9   2   6    2.79    0.16
   9   2   6    2.95    0.11
   9   2   6    2.99    0.14
 -10  -2  -6    4.05    0.19
 -10  -2  -6    4.61    0.25
 -10  -2  -6    4.56    0.21
  10   2   6    4.18    0.18
  10   2   6    4.42    0.15
 -11  -2  -6    0.15    0.10
 -11  -2  -6    0.06    0.08
  11   2   6    0.08    0.09
  11   2   6    0.13    0.04
 -12  -2  -6    0.47    0.11
  12   2   6    0.51    0.06
  12   2   6    0.63    0.12
 -13  -2  -6    0.05    0.13
   8  -3  -6    2.81    0.22
  -8   3   6    2.54    0.19
   7  -3  -6    0.48    0.10
  -7   3   6    0.43    0.09
   6  -3  -6    0.62    0.09
  -6   3   6    0.71    0.08
   5  -3  -6    0.06    0.06
  -5   3   6    0.06    0.05
   4  -3  -6    3.13    0.13
   4  -3  -6    3.08    0.15
   4  -3  -6    2.99    0.13
  -4   3   6    3.11    0.10
  -4   3   6    3.12    0.12
  -4   3   6    3.06    0.14
   3  -3  -6    0.04    0.05
   3  -3  -6    0.08    0.05
   3  -3  -6    0.12    0.05
  -3   3   6    0.08    0.03
  -3   3   6    0.06    0.05
  -3   3   6    0.06    0.04
   2  -3  -6    7.43    0.22
   2  -3  -6    7.70    0.23
   2  -3  -6    7.06    0.23
  -2   3   6    7.39    0.22
  -2   3   6    7.35    0.19
  -2   3   6    7.31    0.21
  -2   3   6    7.39    0.21
   1  -3  -6    0.09    0.05
   1  -3  -6    0.07    0.04
   1  -3  -6    0.05    0.04
  -1   3   6    0.04    0.03
  -1   3   6    0.02    0.03
  -1   3   6    0.02    0.04
  -1   3   6    0.05    0.02
   0  -3  -6    0.24    0.05
   0  -3  -6    0.25    0.05
   0  -3  -6    0.32    0.05
   0  -3  -6    0.28    0.04
   0   3   6    0.26    0.04
   0   3   6    0.29    0.03
   0   3   6    0.24    0.04
   0   3   6    0.32    0.05
  -1  -3  -6    3.02    0.11
  -1  -3  -6    3.17    0.13
  -1  -3  -6    3.20    0.13
  -1  -3  -6    3.16    0.10
   1   3   6    2.77    0.12
   1   3   6    3.32    0.11
   1   3   6    3.08    0.11
   1   3   6    3.18    0.12
   1   3   6    3.23    0.10
  -2  -3  -6   11.06    0.29
  -2  -3  -6   11.11    0.30
  -2  -3  -6   10.77    0.31
  -2  -3  -6    9.56    0.30
   2   3   6   10.77    0.29
   2   3   6   10.83    0.30
   2   3   6   11.20    0.29
   2   3   6   11.06    0.28
   2   3   6   11.36    0.30
  -3  -3  -6    0.89    0.08
  -3  -3  -6    0.67    0.07
  -3  -3  -6    0.61    0.06
   3   3   6    0.62    0.06
   3   3   6    0.77    0.06
   3   3   6    0.73    0.06
   3   3   6    0.73    0.06
   3   3   6    0.56    0.06
  -4  -3  -6  114.79    2.74
  -4  -3  -6  108.96    2.68
   4   3   6  116.35    2.73
   4   3   6  112.12    2.73
   4   3   6  112.90    2.68
   4   3   6  110.54    2.73
  -5  -3  -6   23.51    0.63
  -5  -3  -6   23.18    0.61
  -5  -3  -6   22.85    0.57
   5   3   6   23.53    0.57
   5   3   6   22.93    0.60
   5   3   6   23.31    0.59
  -6  -3  -6    0.74    0.08
  -6  -3  -6    0.87    0.09
  -6  -3  -6    0.81    0.07
  -6  -3  -6    0.81    0.10
   6   3   6    0.79    0.06
   6   3   6    0.74    0.06
   6   3   6    0.88    0.06
   6   3   6    0.82    0.08
  -7  -3  -6   11.92    0.35
  -7  -3  -6   11.59    0.36
  -7  -3  -6   11.59    0.34
  -7  -3  -6   11.51    0.30
   7   3   6   11.78    0.31
   7   3   6   11.66    0.34
   7   3   6   11.85    0.30
   7   3   6   11.44    0.31
  -8  -3  -6    7.38    0.26
  -8  -3  -6    7.39    0.26
  -8  -3  -6    7.44    0.24
  -8  -3  -6    7.17    0.21
   8   3   6    7.51    0.22
   8   3   6    7.52    0.25
   8   3   6    7.38    0.22
  -9  -3  -6    1.60    0.13
  -9  -3  -6    1.58    0.14
   9   3   6    1.69    0.11
   9   3   6    1.54    0.08
 -10  -3  -6    2.38    0.23
 -10  -3  -6    2.55    0.17
  10   3   6    2.14    0.14
  10   3   6    2.24    0.10
 -11  -3  -6    0.58    0.11
  11   3   6    0.56    0.10
  11   3   6    0.57    0.06
 -12  -3  -6    0.27    0.12
  12   3   6    0.12    0.12
  12   3   6    0.23    0.05
 -13  -3  -6    0.33    0.14
   8  -4  -6    0.92    0.14
  -8   4   6    0.90    0.11
   7  -4  -6    4.74    0.23
  -7   4   6    4.57    0.20
   6  -4  -6    1.20    0.14
   6  -4  -6    1.27    0.16
  -6   4   6    0.96    0.09
   5  -4  -6    2.16    0.14
   5  -4  -6    2.23    0.20
  -5   4   6    2.06    0.12
   4  -4  -6    0.26    0.06
   4  -4  -6    0.19    0.05
   4  -4  -6    0.14    0.08
   4  -4  -6    0.26    0.06
  -4   4   6    0.17    0.05
  -4   4   6    0.19    0.05
   3  -4  -6    0.63    0.09
   3  -4  -6    0.63    0.07
   3  -4  -6    0.56    0.07
  -3   4   6    0.68    0.07
  -3   4   6    0.47    0.06
  -3   4   6    0.51    0.09
   2  -4  -6    0.00    0.04
   2  -4  -6    0.05    0.05
   2  -4  -6   -0.08    0.05
   2  -4  -6    0.04    0.04
  -2   4   6    0.00    0.04
  -2   4   6    0.00    0.07
  -2   4   6    0.00    0.04
   1  -4  -6    5.96    0.20
   1  -4  -6    5.77    0.18
   1  -4  -6    5.92    0.20
  -1   4   6    6.06    0.18
  -1   4   6    6.20    0.21
  -1   4   6    6.00    0.18
   0  -4  -6   -0.03    0.04
   0  -4  -6   -0.04    0.05
   0  -4  -6   -0.01    0.02
   0  -4  -6   -0.07    0.04
   0   4   6    0.03    0.06
   0   4   6    0.04    0.03
   0   4   6    0.00    0.03
  -1  -4  -6    5.67    0.16
  -1  -4  -6    5.61    0.19
  -1  -4  -6    5.56    0.17
  -1  -4  -6    5.70    0.19
   1   4   6    5.49    0.18
   1   4   6    5.61    0.19
   1   4   6    5.70    0.17
   1   4   6    5.58    0.17
  -2  -4  -6    5.09    0.16
  -2  -4  -6    5.04    0.15
  -2  -4  -6    4.79    0.18
  -2  -4  -6    5.02    0.17
   2   4   6    4.46    0.15
   2   4   6    5.09    0.15
   2   4   6    4.71    0.15
  -3  -4  -6   27.31    0.72
  -3  -4  -6   28.38    0.69
  -3  -4  -6   26.89    0.68
  -3  -4  -6   27.16    0.70
   3   4   6   27.90    0.68
   3   4   6   26.70    0.67
   3   4   6   26.34    0.68
  -4  -4  -6  111.48    2.67
  -4  -4  -6  110.11    2.73
   4   4   6  108.35    2.61
   4   4   6  105.13    2.66
   4   4   6  111.33    2.65
  -5  -4  -6   45.97    1.17
  -5  -4  -6   45.21    1.14
   5   4   6   43.85    1.12
   5   4   6   45.01    1.11
   5   4   6   45.30    1.09
  -6  -4  -6   36.55    0.95
  -6  -4  -6   36.54    0.92
   6   4   6   36.78    0.91
   6   4   6   35.68    0.89
   6   4   6   33.50    0.92
   6   4   6   36.53    0.88
  -7  -4  -6    7.05    0.25
  -7  -4  -6    7.14    0.25
   7   4   6    6.67    0.23
   7   4   6    6.87    0.24
   7   4   6    6.90    0.20
   7   4   6    6.93    0.20
  -8  -4  -6    2.54    0.18
  -8  -4  -6    2.41    0.15
   8   4   6    2.49    0.11
   8   4   6    2.34    0.14
   8   4   6    2.45    0.16
   8   4   6    2.45    0.10
  -9  -4  -6    0.86    0.13
  -9  -4  -6    0.74    0.10
   9   4   6    0.91    0.07
 -10  -4  -6    7.97    0.30
  10   4   6    7.56    0.23
 -11  -4  -6    3.20    0.21
  11   4   6    2.80    0.12
 -12  -4  -6    1.93    0.23
  12   4   6    2.02    0.11
 -13  -4  -6    0.47    0.11
 -13  -4  -6    0.47    0.17
   8  -5  -6    0.77    0.18
   8  -5  -6    0.52    0.13
  -8   5   6    0.66    0.10
   7  -5  -6    0.86    0.16
   7  -5  -6    0.68    0.11
  -7   5   6    0.68    0.09
   6  -5  -6    1.00    0.14
   6  -5  -6    0.88    0.11
  -6   5   6    0.64    0.08
   5  -5  -6    2.30    0.19
   5  -5  -6    2.51    0.15
  -5   5   6    2.57    0.13
   4  -5  -6    0.48    0.06
   4  -5  -6    0.46    0.06
   4  -5  -6    0.40    0.09
   4  -5  -6    0.48    0.07
  -4   5   6    0.43    0.06
  -4   5   6    0.57    0.06
   3  -5  -6    0.30    0.05
   3  -5  -6    0.36    0.06
   3  -5  -6    0.24    0.07
  -3   5   6    0.32    0.05
  -3   5   6    0.31    0.05
   2  -5  -6    0.56    0.07
   2  -5  -6    0.62    0.06
   2  -5  -6    0.50    0.06
   2  -5  -6    0.47    0.08
  -2   5   6    0.63    0.07
  -2   5   6    0.50    0.05
   1  -5  -6    0.29    0.06
   1  -5  -6    0.31    0.06
   1  -5  -6    0.27    0.07
   1  -5  -6    0.27    0.05
  -1   5   6    0.39    0.05
  -1   5   6    0.31    0.05
   0  -5  -6   65.48    1.62
   0  -5  -6   65.78    1.70
   0  -5  -6   67.04    1.65
   0  -5  -6   67.16    1.69
   0  -5  -6   68.52    1.67
   0   5   6   68.93    1.63
   0   5   6   69.51    1.65
  -1  -5  -6   11.30    0.31
  -1  -5  -6   10.85    0.33
  -1  -5  -6   11.21    0.33
  -1  -5  -6   11.21    0.29
   1   5   6   11.28    0.30
   1   5   6   11.01    0.31
   1   5   6   11.27    0.30
  -2  -5  -6   44.49    1.13
  -2  -5  -6   46.23    1.16
  -2  -5  -6   43.64    1.10
  -2  -5  -6   44.17    1.11
   2   5   6   45.95    1.09
   2   5   6   44.23    1.10
   2   5   6   44.78    1.11
  -3  -5  -6   20.09    0.52
  -3  -5  -6   18.90    0.53
   3   5   6   19.59    0.48
   3   5   6   17.75    0.49
  -4  -5  -6   43.52    1.11
  -4  -5  -6   43.73    1.13
   4   5   6   43.13    1.08
   4   5   6   44.23    1.06
  -5  -5  -6   70.70    1.73
  -5  -5  -6   68.80    1.77
   5   5   6   70.49    1.70
   5   5   6   70.65    1.67
   5   5   6   70.72    1.76
   5   5   6   65.03    1.71
  -6  -5  -6    0.05    0.07
  -6  -5  -6    0.03    0.05
   6   5   6    0.03    0.04
   6   5   6    0.03    0.03
   6   5   6    0.07    0.08
   6   5   6    0.15    0.07
  -7  -5  -6    1.49    0.15
  -7  -5  -6    1.29    0.12
   7   5   6    1.59    0.13
   7   5   6    1.57    0.09
   7   5   6    1.54    0.08
   7   5   6    1.47    0.16
  -8  -5  -6    0.17    0.07
  -8  -5  -6    0.17    0.10
   8   5   6    0.09    0.07
   8   5   6    0.12    0.04
   8   5   6    0.08    0.05
   8   5   6    0.15    0.10
  -9  -5  -6    0.04    0.12
  -9  -5  -6    0.02    0.07
   9   5   6    0.08    0.04
 -10  -5  -6    1.46    0.17
  10   5   6    1.35    0.09
 -11  -5  -6    8.51    0.35
 -11  -5  -6    8.65    0.31
  11   5   6    8.34    0.25
 -12  -5  -6    0.00    0.08
 -12  -5  -6   -0.03    0.13
  12   5   6   -0.07    0.05
 -13  -5  -6    2.62    0.22
 -13  -5  -6    2.42    0.23
   8  -6  -6    0.09    0.11
   8  -6  -6    0.04    0.16
  -8   6   6   -0.16    0.08
   7  -6  -6    0.46    0.10
   7  -6  -6    0.34    0.15
  -7   6   6    0.32    0.08
   6  -6  -6    0.03    0.08
   6  -6  -6    0.07    0.10
  -6   6   6    0.11    0.07
   5  -6  -6   -0.06    0.07
   5  -6  -6    0.10    0.09
   5  -6  -6   -0.01    0.05
  -5   6   6   -0.05    0.05
   4  -6  -6    0.43    0.06
   4  -6  -6    0.34    0.08
   4  -6  -6    0.45    0.06
   4  -6  -6    0.49    0.07
  -4   6   6    0.43    0.07
  -4   6   6    0.41    0.06
   3  -6  -6    0.05    0.05
   3  -6  -6    0.09    0.06
   3  -6  -6    0.06    0.07
   3  -6  -6   -0.05    0.05
  -3   6   6    0.00    0.04
  -3   6   6   -0.03    0.05
   2  -6  -6   14.30    0.41
   2  -6  -6   14.37    0.40
   2  -6  -6   14.55    0.39
   2  -6  -6   14.33    0.42
  -2   6   6   14.71    0.39
  -2   6   6   14.52    0.38
   1  -6  -6    0.20    0.06
   1  -6  -6    0.06    0.06
   1  -6  -6    0.02    0.05
   1  -6  -6    0.03    0.06
  -1   6   6   -0.02    0.04
  -1   6   6    0.08    0.04
   0  -6  -6   12.81    0.38
   0  -6  -6   12.56    0.32
   0  -6  -6   12.27    0.34
   0  -6  -6   12.95    0.32
   0  -6  -6   12.26    0.37
   0  -6  -6   12.61    0.35
   0   6   6   13.05    0.34
   0   6   6   12.53    0.34
  -1  -6  -6   12.72    0.33
  -1  -6  -6   12.69    0.33
  -1  -6  -6   13.10    0.35
  -1  -6  -6   12.99    0.38
  -1  -6  -6   12.43    0.38
  -1  -6  -6   12.70    0.35
   1   6   6   12.98    0.34
   1   6   6   12.81    0.34
   1   6   6   12.88    0.35
  -2  -6  -6   47.41    1.20
  -2  -6  -6   47.88    1.16
  -2  -6  -6   46.93    1.23
  -2  -6  -6   48.02    1.18
  -2  -6  -6   46.50    1.16
   2   6   6   47.38    1.17
   2   6   6   47.90    1.16
  -3  -6  -6    0.29    0.07
  -3  -6  -6    0.30    0.04
  -3  -6  -6    0.20    0.06
   3   6   6    0.24    0.04
   3   6   6    0.35    0.05
  -4  -6  -6   16.45    0.46
  -4  -6  -6   15.90    0.47
   4   6   6   16.16    0.43
   4   6   6   16.33    0.42
  -5  -6  -6    7.52    0.27
  -5  -6  -6    7.15    0.27
   5   6   6    7.85    0.23
   5   6   6    7.76    0.22
  -6  -6  -6    1.54    0.13
  -6  -6  -6    1.45    0.15
   6   6   6    1.71    0.09
   6   6   6    1.59    0.14
   6   6   6    1.71    0.09
   6   6   6    1.58    0.18
  -7  -6  -6    0.25    0.10
  -7  -6  -6    0.28    0.08
   7   6   6    0.22    0.05
   7   6   6    0.21    0.07
   7   6   6    0.21    0.04
   7   6   6    0.21    0.12
  -8  -6  -6    1.37    0.11
  -8  -6  -6    1.50    0.15
  -8  -6  -6    1.28    0.14
   8   6   6    1.28    0.10
   8   6   6    1.40    0.09
  -9  -6  -6    0.16    0.14
  -9  -6  -6    0.19    0.10
  -9  -6  -6    0.23    0.07
   9   6   6    0.25    0.05
 -10  -6  -6    3.75    0.19
 -10  -6  -6    3.83    0.23
  10   6   6    3.50    0.15
 -11  -6  -6    0.48    0.10
 -11  -6  -6    0.76    0.14
  11   6   6    0.52    0.07
 -12  -6  -6    4.11    0.29
 -12  -6  -6    3.80    0.23
  12   6   6    3.56    0.16
   8  -7  -6    0.50    0.13
   8  -7  -6    0.39    0.17
  -8   7   6    0.42    0.11
  -8   7   6    0.52    0.14
   7  -7  -6   -0.07    0.10
   7  -7  -6    0.15    0.13
  -7   7   6   -0.04    0.08
   6  -7  -6    2.66    0.23
   6  -7  -6    2.38    0.17
  -6   7   6    2.55    0.15
   5  -7  -6    0.04    0.07
   5  -7  -6    0.27    0.10
   5  -7  -6    0.03    0.06
  -5   7   6   -0.02    0.06
   4  -7  -6    0.97    0.11
   4  -7  -6    0.92    0.11
   4  -7  -6    0.96    0.10
  -4   7   6    0.75    0.07
   3  -7  -6    5.90    0.20
   3  -7  -6    5.61    0.21
   3  -7  -6    5.54    0.23
   3  -7  -6    5.59    0.20
  -3   7   6    5.72    0.19
  -3   7   6    5.50    0.19
   2  -7  -6   13.26    0.40
   2  -7  -6   13.38    0.40
   2  -7  -6   13.19    0.37
   2  -7  -6   13.62    0.38
  -2   7   6   13.71    0.37
  -2   7   6   13.70    0.37
   1  -7  -6   49.06    1.25
   1  -7  -6   48.26    1.21
   1  -7  -6   49.34    1.25
  -1   7   6   49.48    1.21
  -1   7   6   49.52    1.21
   0  -7  -6   65.12    1.66
   0  -7  -6   64.67    1.62
   0  -7  -6   65.64    1.63
   0  -7  -6   63.98    1.57
   0  -7  -6   64.28    1.57
   0  -7  -6   62.61    1.59
   0   7   6   65.94    1.59
   0   7   6   66.92    1.58
  -1  -7  -6   25.15    0.65
  -1  -7  -6   25.57    0.63
  -1  -7  -6   24.64    0.63
  -1  -7  -6   24.96    0.68
  -1  -7  -6   25.14    0.69
   1   7   6   24.87    0.64
   1   7   6   25.47    0.64
  -2  -7  -6   39.86    0.98
  -2  -7  -6   39.23    0.97
  -2  -7  -6   38.28    1.04
  -2  -7  -6   39.37    1.02
   2   7   6   39.28    0.97
   2   7   6   39.29    0.98
  -3  -7  -6    9.21    0.31
  -3  -7  -6    9.03    0.26
  -3  -7  -6    9.46    0.31
   3   7   6    9.42    0.27
   3   7   6    9.28    0.27
  -4  -7  -6   -0.05    0.03
  -4  -7  -6    0.05    0.07
  -4  -7  -6   -0.05    0.07
   4   7   6    0.02    0.04
   4   7   6    0.03    0.04
  -5  -7  -6    1.81    0.14
  -5  -7  -6    1.96    0.11
  -5  -7  -6    1.76    0.15
   5   7   6    1.93    0.10
   5   7   6    1.97    0.10
  -6  -7  -6    0.89    0.11
  -6  -7  -6    0.95    0.12
  -6  -7  -6    1.01    0.09
   6   7   6    0.99    0.08
   6   7   6    1.08    0.11
   6   7   6    1.03    0.09
  -7  -7  -6    1.45    0.15
  -7  -7  -6    1.58    0.15
  -7  -7  -6    1.59    0.11
   7   7   6    1.55    0.09
   7   7   6    1.42    0.10
  -8  -7  -6    0.20    0.13
  -8  -7  -6    0.19    0.06
  -8  -7  -6    0.19    0.09
   8   7   6    0.25    0.05
  -9  -7  -6    0.23    0.11
  -9  -7  -6    0.18    0.07
  -9  -7  -6    0.09    0.16
   9   7   6    0.25    0.05
 -10  -7  -6    0.46    0.13
 -10  -7  -6    0.52    0.10
  10   7   6    0.42    0.07
 -11  -7  -6    6.06    0.32
 -11  -7  -6    6.47    0.28
  11   7   6    6.20    0.22
 -12  -7  -6    0.17    0.17
 -12  -7  -6    0.58    0.12
  12   7   6    0.35    0.08
   8  -8  -6    0.02    0.17
   8  -8  -6    0.01    0.13
  -8   8   6    0.03    0.14
  -8   8   6    0.03    0.10
   7  -8  -6   -0.03    0.10
   7  -8  -6    0.13    0.14
  -7   8   6    0.13    0.09
  -7   8   6    0.13    0.12
   6  -8  -6    1.08    0.12
   6  -8  -6    1.12    0.15
  -6   8   6    0.91    0.10
   5  -8  -6    3.14    0.16
   5  -8  -6    2.59    0.16
   5  -8  -6    3.29    0.24
  -5   8   6    2.95    0.16
   4  -8  -6   -0.01    0.08
   4  -8  -6   -0.05    0.06
   4  -8  -6   -0.02    0.06
  -4   8   6    0.04    0.06
   3  -8  -6    6.44    0.21
   3  -8  -6    6.08    0.23
   3  -8  -6    6.41    0.25
  -3   8   6    6.32    0.21
  -3   8   6    6.01    0.22
   2  -8  -6    1.01    0.12
   2  -8  -6    0.82    0.09
   2  -8  -6    0.90    0.10
  -2   8   6    1.03    0.11
  -2   8   6    0.99    0.10
   1  -8  -6    7.90    0.26
   1  -8  -6    8.06    0.27
   1  -8  -6    8.27    0.28
   1  -8  -6    8.10    0.22
  -1   8   6    8.29    0.25
  -1   8   6    8.37    0.25
   0  -8  -6   10.25    0.28
   0  -8  -6   10.40    0.34
   0  -8  -6   10.00    0.28
   0  -8  -6   10.60    0.31
   0  -8  -6   10.21    0.34
   0   8   6   10.29    0.30
   0   8   6   10.33    0.30
  -1  -8  -6   10.07    0.33
  -1  -8  -6    9.95    0.28
  -1  -8  -6   10.10    0.34
  -1  -8  -6    9.69    0.28
   1   8   6   10.23    0.29
   1   8   6    9.58    0.29
  -2  -8  -6    0.24    0.08
  -2  -8  -6    0.19    0.07
  -2  -8  -6    0.18    0.04
  -2  -8  -6    0.16    0.05
   2   8   6    0.28    0.05
   2   8   6    0.19    0.05
  -3  -8  -6    0.01    0.04
  -3  -8  -6    0.00    0.06
  -3  -8  -6    0.00    0.07
   3   8   6    0.04    0.04
   3   8   6   -0.02    0.04
  -4  -8  -6    1.47    0.10
  -4  -8  -6    1.43    0.13
  -4  -8  -6    1.28    0.15
   4   8   6    1.37    0.09
   4   8   6    1.51    0.10
  -5  -8  -6    0.36    0.06
  -5  -8  -6    0.40    0.09
  -5  -8  -6    0.30    0.10
   5   8   6    0.37    0.05
   5   8   6    0.30    0.05
  -6  -8  -6    8.57    0.28
  -6  -8  -6    8.79    0.32
  -6  -8  -6    8.76    0.33
   6   8   6    9.10    0.27
   6   8   6    8.80    0.27
  -7  -8  -6    0.64    0.11
  -7  -8  -6    0.54    0.11
  -7  -8  -6    0.57    0.08
   7   8   6    0.68    0.08
   7   8   6    0.65    0.06
   7   8   6    0.57    0.07
  -8  -8  -6    5.98    0.28
  -8  -8  -6    5.61    0.29
  -8  -8  -6    6.13    0.24
   8   8   6    6.16    0.21
  -9  -8  -6    0.12    0.07
  -9  -8  -6   -0.03    0.11
   9   8   6   -0.06    0.05
 -10  -8  -6   13.26    0.44
 -10  -8  -6   14.44    0.50
  10   8   6   13.62    0.39
 -11  -8  -6    5.01    0.33
 -11  -8  -6    5.29    0.27
  11   8   6    4.92    0.20
   7  -9  -6    0.06    0.12
   7  -9  -6   -0.04    0.15
  -7   9   6   -0.18    0.11
  -7   9   6    0.11    0.10
   6  -9  -6    4.21    0.19
   6  -9  -6    4.74    0.31
   6  -9  -6    4.26    0.21
  -6   9   6    4.53    0.26
  -6   9   6    4.52    0.21
   5  -9  -6    1.51    0.15
   5  -9  -6    1.54    0.16
   5  -9  -6    1.52    0.15
  -5   9   6    1.84    0.15
   4  -9  -6    1.79    0.14
   4  -9  -6    1.84    0.20
   4  -9  -6    2.21    0.16
  -4   9   6    2.14    0.14
   3  -9  -6    1.34    0.11
   3  -9  -6    1.26    0.13
   3  -9  -6    1.64    0.14
  -3   9   6    1.26    0.11
  -3   9   6    1.42    0.12
   2  -9  -6    0.65    0.09
   2  -9  -6    0.93    0.10
   2  -9  -6    0.64    0.10
  -2   9   6    0.80    0.09
  -2   9   6    0.75    0.08
   1  -9  -6    3.07    0.17
   1  -9  -6    3.48    0.18
   1  -9  -6    3.25    0.13
  -1   9   6    3.48    0.15
  -1   9   6    3.48    0.16
   0  -9  -6    3.23    0.15
   0  -9  -6    3.20    0.19
   0  -9  -6    3.25    0.18
   0  -9  -6    2.93    0.14
   0   9   6    2.98    0.14
   0   9   6    3.30    0.15
  -1  -9  -6    5.51    0.24
  -1  -9  -6    6.17    0.25
  -1  -9  -6    5.72    0.20
  -1  -9  -6    5.86    0.19
   1   9   6    5.67    0.20
   1   9   6    5.71    0.20
  -2  -9  -6    3.48    0.13
  -2  -9  -6    3.47    0.15
  -2  -9  -6    3.17    0.19
  -2  -9  -6    3.35    0.20
   2   9   6    3.33    0.14
   2   9   6    3.24    0.14
  -3  -9  -6    0.17    0.08
  -3  -9  -6    0.27    0.06
  -3  -9  -6    0.16    0.08
   3   9   6    0.16    0.06
   3   9   6    0.29    0.06
  -4  -9  -6    0.95    0.12
  -4  -9  -6    0.89    0.12
  -4  -9  -6    0.83    0.09
   4   9   6    0.77    0.09
   4   9   6    1.06    0.10
  -5  -9  -6    0.21    0.10
  -5  -9  -6    0.24    0.07
  -5  -9  -6    0.33    0.10
   5   9   6    0.28    0.05
   5   9   6    0.18    0.06
  -6  -9  -6    0.23    0.11
  -6  -9  -6    0.41    0.10
  -6  -9  -6    0.26    0.07
   6   9   6    0.39    0.06
   6   9   6    0.37    0.07
   6   9   6    0.47    0.07
  -7  -9  -6    9.15    0.36
  -7  -9  -6    9.26    0.36
  -7  -9  -6    8.99    0.31
   7   9   6    8.90    0.28
   7   9   6    9.39    0.29
  -8  -9  -6    0.71    0.14
  -8  -9  -6    0.70    0.11
  -8  -9  -6    0.93    0.16
   8   9   6    0.84    0.10
  -9  -9  -6    3.25    0.21
  -9  -9  -6    3.48    0.27
   9   9   6    3.01    0.16
 -10  -9  -6    0.53    0.12
 -10  -9  -6    0.63    0.18
  10   9   6    0.58    0.08
   6 -10  -6    0.18    0.09
   6 -10  -6   -0.24    0.14
  -6  10   6   -0.27    0.11
  -6  10   6    0.01    0.09
   5 -10  -6    4.20    0.21
   5 -10  -6    4.21    0.20
   5 -10  -6    4.10    0.29
  -5  10   6    4.51    0.22
  -5  10   6    4.05    0.25
   4 -10  -6    1.15    0.15
   4 -10  -6    1.39    0.16
   4 -10  -6    1.11    0.13
  -4  10   6    1.41    0.15
   3 -10  -6    3.11    0.15
   3 -10  -6    2.95    0.21
   3 -10  -6    3.18    0.19
  -3  10   6    2.81    0.20
  -3  10   6    2.93    0.17
   2 -10  -6    3.29    0.14
   2 -10  -6    3.63    0.20
   2 -10  -6    3.73    0.15
   2 -10  -6    4.11    0.21
  -2  10   6    3.53    0.19
  -2  10   6    3.69    0.17
   1 -10  -6    0.12    0.06
   1 -10  -6    0.07    0.06
   1 -10  -6   -0.01    0.08
   1 -10  -6   -0.03    0.07
  -1  10   6    0.02    0.05
  -1  10   6    0.01    0.06
   0 -10  -6    3.48    0.20
   0 -10  -6    3.57    0.17
   0 -10  -6    3.43    0.15
   0  10   6    3.46    0.16
   0  10   6    3.47    0.16
  -1 -10  -6    0.56    0.11
  -1 -10  -6    0.67    0.11
  -1 -10  -6    0.63    0.08
  -1 -10  -6    0.75    0.08
   1  10   6    0.53    0.07
   1  10   6    0.56    0.08
  -2 -10  -6    3.97    0.22
  -2 -10  -6    3.90    0.17
  -2 -10  -6    3.96    0.22
  -2 -10  -6    3.89    0.16
   2  10   6    4.21    0.17
   2  10   6    3.63    0.17
  -3 -10  -6    2.92    0.15
  -3 -10  -6    2.76    0.21
  -3 -10  -6    2.76    0.12
  -3 -10  -6    2.78    0.20
   3  10   6    2.40    0.14
   3  10   6    2.73    0.14
  -4 -10  -6    0.28    0.11
  -4 -10  -6    0.28    0.11
  -4 -10  -6    0.28    0.07
   4  10   6    0.36    0.07
   4  10   6    0.20    0.06
   4  10   6    0.31    0.06
  -5 -10  -6    1.37    0.14
  -5 -10  -6    1.24    0.15
  -5 -10  -6    1.28    0.15
   5  10   6    1.26    0.11
   5  10   6    1.29    0.12
   5  10   6    1.19    0.12
  -6 -10  -6    7.03    0.31
  -6 -10  -6    6.89    0.27
  -6 -10  -6    7.13    0.33
   6  10   6    6.69    0.23
   6  10   6    6.70    0.24
   6  10   6    7.15    0.25
  -7 -10  -6   -0.07    0.13
  -7 -10  -6   -0.04    0.12
  -7 -10  -6   -0.03    0.08
   7  10   6    0.01    0.06
  -8 -10  -6    5.19    0.25
  -8 -10  -6    5.85    0.33
  -8 -10  -6    5.46    0.32
   8  10   6    5.11    0.21
  -9 -10  -6    0.44    0.17
  -9 -10  -6    0.40    0.11
   9  10   6    0.43    0.08
 -10 -10  -6    0.34    0.20
 -10 -10  -6    0.26    0.11
  10  10   6    0.21    0.08
   6 -11  -6    0.34    0.10
   6 -11  -6   -0.18    0.16
  -6  11   6    0.09    0.12
  -6  11   6    0.13    0.11
   5 -11  -6    0.45    0.16
   5 -11  -6    0.32    0.10
  -5  11   6    0.48    0.13
  -5  11   6    0.36    0.11
   4 -11  -6    3.23    0.21
   4 -11  -6    3.36    0.28
  -4  11   6    3.43    0.24
  -4  11   6    3.51    0.20
   3 -11  -6    0.81    0.12
   3 -11  -6    0.78    0.13
  -3  11   6    0.77    0.12
  -3  11   6    0.82    0.10
   2 -11  -6    2.22    0.19
   2 -11  -6    2.02    0.20
   2 -11  -6    2.36    0.13
   2 -11  -6    2.06    0.13
  -2  11   6    1.86    0.15
  -2  11   6    2.39    0.19
  -2  11   6    1.88    0.16
   1 -11  -6    2.81    0.19
   1 -11  -6    2.57    0.15
   1 -11  -6    2.66    0.19
   1 -11  -6    2.73    0.14
  -1  11   6    2.39    0.17
  -1  11   6    2.81    0.16
  -1  11   6    2.88    0.19
   0 -11  -6   -0.03    0.09
   0 -11  -6    0.05    0.09
   0 -11  -6    0.11    0.07
   0  11   6    0.08    0.08
   0  11   6   -0.01    0.07
   0  11   6    0.02    0.06
  -1 -11  -6    2.91    0.22
  -1 -11  -6    2.73    0.16
  -1 -11  -6    2.60    0.17
   1  11   6    2.88    0.18
   1  11   6    2.89    0.16
   1  11   6    2.60    0.16
  -2 -11  -6   11.52    0.36
  -2 -11  -6   11.64    0.42
  -2 -11  -6   11.41    0.42
  -2 -11  -6   11.47    0.34
   2  11   6   11.65    0.36
   2  11   6   11.88    0.35
   2  11   6   11.10    0.37
  -3 -11  -6    9.27    0.37
  -3 -11  -6    9.17    0.28
  -3 -11  -6    9.69    0.32
  -3 -11  -6    8.96    0.37
   3  11   6    9.68    0.30
   3  11   6    9.49    0.32
   3  11   6    9.37    0.31
  -4 -11  -6    1.83    0.22
  -4 -11  -6    1.19    0.12
  -4 -11  -6    1.59    0.16
   4  11   6    1.29    0.13
   4  11   6    1.53    0.15
   4  11   6    1.45    0.13
  -5 -11  -6    1.27    0.17
  -5 -11  -6    1.08    0.16
  -5 -11  -6    1.30    0.13
   5  11   6    1.11    0.11
   5  11   6    1.15    0.13
   5  11   6    1.07    0.13
  -6 -11  -6    0.14    0.14
  -6 -11  -6    0.03    0.13
  -6 -11  -6   -0.02    0.09
   6  11   6   -0.02    0.07
   6  11   6   -0.09    0.06
  -7 -11  -6    4.31    0.30
  -7 -11  -6    4.27    0.31
  -7 -11  -6    3.96    0.24
   7  11   6    4.10    0.19
  -8 -11  -6    1.26    0.14
  -8 -11  -6    1.66    0.21
   8  11   6    1.51    0.13
  -9 -11  -6    0.81    0.20
  -9 -11  -6    0.69    0.13
   9  11   6    0.74    0.10
   5 -12  -6    0.01    0.17
   5 -12  -6   -0.12    0.11
  -5  12   6    0.04    0.13
  -5  12   6    0.11    0.11
   4 -12  -6    1.24    0.19
   4 -12  -6    1.30    0.15
  -4  12   6    1.39    0.16
  -4  12   6    1.28    0.13
   3 -12  -6    1.06    0.14
   3 -12  -6    0.98    0.15
  -3  12   6    1.03    0.12
  -3  12   6    0.94    0.14
   2 -12  -6    0.70    0.13
   2 -12  -6    0.55    0.12
  -2  12   6    0.67    0.10
  -2  12   6    0.56    0.12
  -2  12   6    0.57    0.12
   1 -12  -6    0.14    0.11
   1 -12  -6    0.27    0.11
   1 -12  -6    0.35    0.09
  -1  12   6    0.33    0.08
  -1  12   6    0.43    0.11
  -1  12   6    0.39    0.10
   0 -12  -6   -0.16    0.11
   0 -12  -6   -0.03    0.10
   0 -12  -6    0.00    0.08
   0  12   6    0.07    0.09
   0  12   6   -0.03    0.06
   0  12   6    0.01    0.08
  -1 -12  -6    0.89    0.12
  -1 -12  -6    0.86    0.11
  -1 -12  -6    0.60    0.13
   1  12   6    0.86    0.10
   1  12   6    0.94    0.12
   1  12   6    0.85    0.09
  -2 -12  -6    0.70    0.11
  -2 -12  -6    0.84    0.11
  -2 -12  -6    0.63    0.13
   2  12   6    0.67    0.09
   2  12   6    0.76    0.11
   2  12   6    0.73    0.11
  -3 -12  -6    0.11    0.12
  -3 -12  -6   -0.13    0.08
  -3 -12  -6   -0.01    0.12
   3  12   6    0.02    0.07
   3  12   6    0.00    0.08
   3  12   6    0.21    0.10
  -4 -12  -6    0.77    0.15
  -4 -12  -6    0.75    0.12
  -4 -12  -6    0.74    0.15
   4  12   6    0.59    0.10
   4  12   6    0.63    0.11
   4  12   6    0.64    0.09
  -5 -12  -6    1.05    0.17
  -5 -12  -6    1.47    0.19
  -5 -12  -6    1.03    0.14
   5  12   6    1.18    0.12
   5  12   6    1.22    0.12
   5  12   6    1.27    0.15
  -6 -12  -6    0.17    0.16
  -6 -12  -6    0.01    0.10
  -6 -12  -6    0.24    0.17
   6  12   6    0.07    0.08
  -7 -12  -6   -0.18    0.19
  -7 -12  -6    0.30    0.12
  -7 -12  -6    0.73    0.19
   7  12   6    0.11    0.08
   3 -13  -6    0.92    0.14
   3 -13  -6    0.92    0.18
  -3  13   6    1.10    0.13
  -3  13   6    0.97    0.16
   2 -13  -6    0.11    0.12
   2 -13  -6    0.08    0.14
  -2  13   6    0.17    0.12
  -2  13   6   -0.05    0.09
   1 -13  -6    1.43    0.14
   1 -13  -6    1.42    0.17
   1 -13  -6    1.32    0.16
  -1  13   6    1.36    0.16
  -1  13   6    1.70    0.18
  -1  13   6    1.36    0.15
   0 -13  -6    0.44    0.11
   0 -13  -6    0.35    0.14
   0 -13  -6    0.28    0.13
   0  13   6    0.45    0.12
   0  13   6    0.35    0.12
   0  13   6    0.28    0.09
  -1 -13  -6    1.38    0.18
  -1 -13  -6    1.36    0.14
   1  13   6    1.30    0.13
   1  13   6    1.66    0.16
   1  13   6    1.41    0.15
  -2 -13  -6    0.16    0.11
  -2 -13  -6   -0.26    0.13
   2  13   6    0.02    0.08
   2  13   6   -0.08    0.11
   2  13   6   -0.08    0.09
  -3 -13  -6    1.31    0.14
  -3 -13  -6    1.21    0.20
   3  13   6    1.12    0.13
   3  13   6    1.19    0.14
   3  13   6    1.18    0.12
  -4 -13  -6   -0.04    0.15
  -4 -13  -6   -0.27    0.15
  -4 -13  -6    0.16    0.12
   4  13   6    0.07    0.12
   4  13   6   -0.12    0.08
   4  13   6   -0.19    0.08
  -5 -13  -6    1.66    0.17
  -5 -13  -6    2.18    0.24
  -5 -13  -6    1.84    0.23
   5  13   6    1.47    0.16
   0 -14  -6   -0.05    0.14
   0 -14  -6   -0.19    0.13
   0  14   6    0.11    0.13
   0  14   6    0.12    0.09
   0  14   6   -0.07    0.14
  -1 -14  -6   -0.05    0.15
  -1 -14  -6   -0.04    0.13
   1  14   6   -0.01    0.14
   1  14   6    0.12    0.13
   1  14   6    0.13    0.10
  -2 -14  -6    0.25    0.18
  -2 -14  -6    0.10    0.13
   2  14   6    0.06    0.14
   2  14   6   -0.07    0.12
   2  14   6    0.36    0.10
  -4   8  -7    0.47    0.13
  -4   8  -7    0.43    0.16
   4  -8   7    0.28    0.11
   4  -8   7    0.54    0.12
  -5   8  -7    0.54    0.16
   0   7  -7   -0.46    0.15
   0   7  -7   -0.07    0.09
   0  -7   7    0.03    0.10
  -1   7  -7    0.06    0.15
  -1   7  -7    0.27    0.10
   1  -7   7    0.17    0.10
   1  -7   7   -0.03    0.12
  -2   7  -7    0.35    0.11
  -2   7  -7    0.20    0.14
   2  -7   7    0.11    0.09
   2  -7   7    0.14    0.11
   2  -7   7    0.53    0.11
  -3   7  -7    0.11    0.10
  -3   7  -7    0.16    0.13
   3  -7   7    0.01    0.09
   3  -7   7   -0.09    0.10
   3  -7   7    0.08    0.10
  -4   7  -7    0.89    0.13
  -4   7  -7    0.88    0.15
   4  -7   7    0.82    0.12
   4  -7   7    0.90    0.12
   4  -7   7    0.92    0.13
  -5   7  -7    0.24    0.13
  -5   7  -7    0.14    0.11
   5  -7   7    0.14    0.09
   5  -7   7    0.18    0.10
  -6   7  -7    2.65    0.22
  -6   7  -7    2.83    0.26
   6  -7   7    2.66    0.20
   6  -7   7    2.80    0.21
  -7   7  -7   -0.04    0.13
  -7   7  -7    0.17    0.12
   7  -7   7    0.03    0.09
   7  -7   7    0.10    0.09
  -8   7  -7    1.52    0.18
  -8   7  -7    1.34    0.19
   8  -7   7    1.47    0.15
   8  -7   7    1.52    0.17
   2   6  -7    0.74    0.13
   2   6  -7    0.52    0.10
  -2  -6   7    0.64    0.13
   1   6  -7    5.25    0.23
   1   6  -7    5.23    0.24
   1   6  -7    5.17    0.33
  -1  -6   7    5.14    0.26
   0   6  -7    1.52    0.13
   0   6  -7    1.51    0.18
   0   6  -7    1.51    0.16
   0  -6   7    1.41    0.15
   0  -6   7    2.00    0.18
  -1   6  -7    5.76    0.22
  -1   6  -7    5.57    0.31
  -1   6  -7    5.74    0.24
   1  -6   7    5.50    0.25
   1  -6   7    5.24    0.26
  -2   6  -7    0.49    0.13
  -2   6  -7    0.38    0.09
  -2   6  -7    0.43    0.09
   2  -6   7    0.39    0.10
   2  -6   7    0.44    0.09
   2  -6   7    0.35    0.10
  -3   6  -7    9.55    0.37
  -3   6  -7    8.71    0.32
   3  -6   7    9.70    0.34
   3  -6   7    9.24    0.34
   3  -6   7    9.13    0.33
  -4   6  -7    1.59    0.17
  -4   6  -7    1.88    0.22
   4  -6   7    1.76    0.18
   4  -6   7    1.58    0.16
   4  -6   7    1.71    0.15
  -5   6  -7    6.50    0.31
  -5   6  -7    6.16    0.27
   5  -6   7    6.52    0.26
   5  -6   7    6.68    0.27
  -6   6  -7    0.06    0.10
  -6   6  -7    0.10    0.10
   6  -6   7    0.11    0.08
   6  -6   7    0.02    0.08
  -7   6  -7    2.62    0.23
  -7   6  -7    2.69    0.22
   7  -6   7    2.59    0.19
   7  -6   7    3.01    0.18
  -8   6  -7    0.93    0.15
  -8   6  -7    0.93    0.15
   8  -6   7    0.97    0.11
   8  -6   7    0.83    0.11
  -9   6  -7    0.62    0.14
   9  -6   7    0.35    0.08
   9  -6   7    0.31    0.10
 -10   6  -7    0.03    0.14
  10  -6   7    0.16    0.07
  10  -6   7   -0.04    0.11
  10  -6   7   -0.13    0.16
   3   5  -7    0.38    0.09
   3   5  -7    0.24    0.11
  -3  -5   7    0.42    0.12
   2   5  -7    1.00    0.12
   2   5  -7    0.96    0.11
  -2  -5   7    1.01    0.13
   1   5  -7   13.41    0.47
   1   5  -7   13.14    0.41
   1   5  -7   13.29    0.41
  -1  -5   7   13.63    0.42
  -1  -5   7   13.09    0.43
   0   5  -7    6.27    0.24
   0   5  -7    6.98    0.26
   0   5  -7    6.85    0.31
   0  -5   7    6.49    0.27
   0  -5   7    7.06    0.26
  -1   5  -7    4.71    0.26
  -1   5  -7    4.87    0.21
  -1   5  -7    4.69    0.19
  -1   5  -7    4.92    0.18
   1  -5   7    4.89    0.22
   1  -5   7    4.94    0.23
  -2   5  -7    0.93    0.10
  -2   5  -7    0.87    0.09
  -2   5  -7    0.89    0.13
   2  -5   7    0.74    0.10
   2  -5   7    0.92    0.10
   2  -5   7    1.22    0.13
  -3   5  -7    2.61    0.16
  -3   5  -7    2.53    0.13
  -3   5  -7    2.94    0.21
   3  -5   7    2.34    0.16
   3  -5   7    2.44    0.17
   3  -5   7    2.85    0.18
  -4   5  -7    3.61    0.18
  -4   5  -7    3.78    0.22
  -4   5  -7    3.37    0.15
   4  -5   7    3.34    0.18
   4  -5   7    3.27    0.17
   4  -5   7    3.49    0.19
  -5   5  -7    0.10    0.06
  -5   5  -7    0.11    0.09
  -5   5  -7    0.12    0.08
   5  -5   7    0.05    0.07
   5  -5   7    0.14    0.07
  -6   5  -7    6.06    0.28
  -6   5  -7    5.51    0.19
  -6   5  -7    6.03    0.25
   6  -5   7    5.93    0.23
   6  -5   7    5.82    0.23
  -7   5  -7    1.32    0.15
  -7   5  -7    1.37    0.13
   7  -5   7    1.37    0.14
   7  -5   7    1.50    0.13
  -8   5  -7    1.41    0.15
  -8   5  -7    1.75    0.19
   8  -5   7    1.47    0.15
   8  -5   7    1.79    0.14
  -9   5  -7    0.61    0.15
  -9   5  -7    0.39    0.13
   9  -5   7    0.50    0.08
   9  -5   7    0.58    0.10
 -10   5  -7    0.75    0.13
 -10   5  -7    0.84    0.16
  10  -5   7    0.60    0.16
  10  -5   7    0.81    0.11
  10  -5   7    1.09    0.13
 -11   5  -7   -0.12    0.14
 -11   5  -7    0.04    0.11
  11  -5   7   -0.23    0.17
  11  -5   7   -0.12    0.09
  11  -5   7    0.23    0.08
   4   4  -7    2.24    0.21
   4   4  -7    2.63    0.18
  -4  -4   7    2.25    0.21
   3   4  -7    2.07    0.18
   3   4  -7    1.81    0.16
  -3  -4   7    2.16    0.18
   2   4  -7    0.45    0.09
   2   4  -7    0.60    0.10
  -2  -4   7    0.52    0.10
   1   4  -7    6.00    0.23
   1   4  -7    6.07    0.29
   1   4  -7    5.75    0.22
  -1  -4   7    5.82    0.24
  -1  -4   7    5.35    0.23
   0   4  -7    0.09    0.06
   0   4  -7   -0.02    0.10
   0   4  -7   -0.03    0.06
   0  -4   7   -0.05    0.07
   0  -4   7    0.06    0.07
  -1   4  -7    7.97    0.31
  -1   4  -7    7.67    0.26
  -1   4  -7    7.76    0.25
  -1   4  -7    7.89    0.24
   1  -4   7    7.64    0.27
   1  -4   7    8.10    0.27
  -2   4  -7    0.03    0.06
  -2   4  -7    0.02    0.06
  -2   4  -7   -0.10    0.08
   2  -4   7    0.15    0.07
   2  -4   7   -0.09    0.05
   2  -4   7    0.06    0.07
  -3   4  -7   -0.02    0.05
  -3   4  -7    0.13    0.06
  -3   4  -7    0.11    0.08
   3  -4   7   -0.01    0.06
   3  -4   7    0.01    0.05
   3  -4   7    0.04    0.06
  -4   4  -7    0.26    0.07
  -4   4  -7    0.28    0.09
  -4   4  -7    0.25    0.06
   4  -4   7    0.26    0.07
   4  -4   7    0.18    0.06
   4  -4   7    0.20    0.06
  -5   4  -7    0.37    0.08
  -5   4  -7    0.39    0.09
   5  -4   7    0.46    0.07
   5  -4   7    0.36    0.07
  -6   4  -7    0.67    0.10
  -6   4  -7    0.70    0.09
   6  -4   7    0.56    0.07
   6  -4   7    0.59    0.08
  -7   4  -7   14.28    0.43
  -7   4  -7   15.09    0.48
   7  -4   7   14.42    0.42
   7  -4   7   14.85    0.43
   7  -4   7   14.41    0.38
  -8   4  -7    1.44    0.13
  -8   4  -7    1.37    0.14
   8  -4   7    1.50    0.12
   8  -4   7    1.35    0.14
  -9   4  -7    2.70    0.21
  -9   4  -7    2.83    0.22
   9  -4   7    2.72    0.15
   9  -4   7    3.12    0.18
 -10   4  -7   -0.15    0.10
 -10   4  -7   -0.09    0.09
  10  -4   7   -0.04    0.13
  10  -4   7   -0.18    0.07
  10  -4   7    0.05    0.06
 -11   4  -7    3.86    0.28
 -11   4  -7    4.49    0.25
  11  -4   7    4.31    0.22
  11  -4   7    4.08    0.18
  11  -4   7    4.02    0.32
   5   3  -7    2.22    0.17
   5   3  -7    1.78    0.21
  -5  -3   7    2.08    0.21
   4   3  -7    4.04    0.23
   4   3  -7    4.59    0.20
  -4  -3   7    3.88    0.22
   3   3  -7    4.59    0.20
   3   3  -7    4.84    0.22
  -3  -3   7    4.79    0.21
   2   3  -7    7.20    0.24
   2   3  -7    6.69    0.25
  -2  -3   7    6.98    0.25
   1   3  -7    5.49    0.20
   1   3  -7    5.16    0.21
  -1  -3   7    5.41    0.21
  -1  -3   7    5.24    0.21
   0   3  -7    1.78    0.13
   0   3  -7    1.99    0.12
   0   3  -7    1.86    0.17
   0  -3   7    1.95    0.13
   0  -3   7    2.07    0.13
  -1   3  -7    0.28    0.06
  -1   3  -7    0.22    0.06
  -1   3  -7    0.42    0.09
  -1   3  -7    0.27    0.07
   1  -3   7    0.22    0.06
   1  -3   7    0.32    0.07
  -2   3  -7    0.22    0.07
  -2   3  -7    0.10    0.06
  -2   3  -7    0.02    0.05
  -2   3  -7    0.00    0.05
   2  -3   7    0.12    0.06
   2  -3   7    0.17    0.06
   2  -3   7    0.10    0.06
  -3   3  -7    0.98    0.11
  -3   3  -7    1.03    0.09
  -3   3  -7    1.19    0.09
  -3   3  -7    1.23    0.14
   3  -3   7    1.10    0.10
   3  -3   7    0.94    0.11
   3  -3   7    1.12    0.10
  -4   3  -7    0.91    0.09
  -4   3  -7    1.19    0.14
   4  -3   7    1.04    0.10
   4  -3   7    1.04    0.10
  -5   3  -7    0.35    0.08
  -5   3  -7    0.46    0.09
   5  -3   7    0.28    0.06
   5  -3   7    0.41    0.07
  -6   3  -7    1.65    0.13
  -6   3  -7    1.63    0.15
   6  -3   7    1.56    0.12
   6  -3   7    1.64    0.11
   6  -3   7    1.47    0.09
  -7   3  -7    0.90    0.10
  -7   3  -7    0.98    0.12
   7  -3   7    1.08    0.10
   7  -3   7    1.25    0.11
  -8   3  -7   13.24    0.42
  -8   3  -7   13.92    0.44
  -8   3  -7   13.22    0.41
   8  -3   7   13.39    0.39
   8  -3   7   13.87    0.40
  -9   3  -7    2.46    0.20
  -9   3  -7    2.47    0.19
  -9   3  -7    2.22    0.16
   9  -3   7    2.11    0.13
   9  -3   7    2.34    0.15
 -10   3  -7    0.21    0.09
 -10   3  -7    0.14    0.11
  10  -3   7    0.15    0.07
  10  -3   7   -0.01    0.05
  10  -3   7    0.14    0.11
 -11   3  -7    2.68    0.22
 -11   3  -7    2.97    0.25
  11  -3   7    2.54    0.18
  11  -3   7    2.77    0.14
  11  -3   7    2.92    0.26
 -12   3  -7    0.65    0.13
 -12   3  -7    0.44    0.15
  12  -3   7    0.64    0.08
  12  -3   7    0.73    0.16
   6   2  -7    0.24    0.12
   5   2  -7    0.04    0.09
   5   2  -7   -0.05    0.08
  -5  -2   7    0.08    0.10
   4   2  -7    4.16    0.21
   4   2  -7    3.90    0.18
  -4  -2   7    3.86    0.19
   3   2  -7    2.33    0.16
   3   2  -7    2.27    0.14
  -3  -2   7    2.32    0.15
   2   2  -7    1.69    0.13
   2   2  -7    1.78    0.13
  -2  -2   7    1.77    0.13
  -2  -2   7    1.90    0.16
   1   2  -7    3.58    0.15
   1   2  -7    3.73    0.16
  -1  -2   7    3.38    0.18
  -1  -2   7    3.68    0.16
   0   2  -7   -0.02    0.05
   0   2  -7    0.03    0.05
   0   2  -7   -0.01    0.07
   0  -2   7   -0.04    0.06
   0  -2   7    0.03    0.05
  -1   2  -7    0.01    0.05
  -1   2  -7    0.06    0.05
  -1   2  -7    0.00    0.05
  -1   2  -7    0.08    0.07
   1  -2   7   -0.02    0.05
   1  -2   7    0.05    0.05
   1  -2   7    0.07    0.05
  -2   2  -7    0.02    0.05
  -2   2  -7    0.02    0.05
  -2   2  -7    0.07    0.07
  -2   2  -7    0.14    0.05
   2  -2   7    0.02    0.05
   2  -2   7    0.08    0.05
   2  -2   7    0.06    0.05
  -3   2  -7    1.97    0.11
  -3   2  -7    1.78    0.12
  -3   2  -7    2.03    0.15
   3  -2   7    1.78    0.12
   3  -2   7    2.01    0.12
   3  -2   7    2.26    0.11
  -4   2  -7    0.51    0.07
  -4   2  -7    0.58    0.07
  -4   2  -7    0.49    0.08
   4  -2   7    0.59    0.07
   4  -2   7    0.41    0.06
  -5   2  -7   28.74    0.75
  -5   2  -7   29.30    0.80
  -5   2  -7   28.67    0.77
   5  -2   7   28.50    0.75
   5  -2   7   29.71    0.76
  -6   2  -7    0.53    0.09
  -6   2  -7    0.59    0.08
  -6   2  -7    0.59    0.08
   6  -2   7    0.51    0.05
   6  -2   7    0.47    0.06
   6  -2   7    0.74    0.08
  -7   2  -7   19.17    0.56
  -7   2  -7   18.30    0.52
  -7   2  -7   18.81    0.53
   7  -2   7   19.53    0.52
   7  -2   7   18.46    0.51
  -8   2  -7    2.09    0.16
  -8   2  -7    2.13    0.14
  -8   2  -7    1.88    0.17
   8  -2   7    2.33    0.14
   8  -2   7    2.31    0.12
  -9   2  -7    5.51    0.24
  -9   2  -7    5.70    0.26
  -9   2  -7    5.57    0.25
   9  -2   7    5.61    0.19
   9  -2   7    5.82    0.21
 -10   2  -7    3.98    0.21
 -10   2  -7    3.98    0.23
  10  -2   7    3.91    0.16
  10  -2   7    4.49    0.24
  10  -2   7    4.09    0.19
 -11   2  -7    0.21    0.10
 -11   2  -7    0.21    0.12
  11  -2   7    0.24    0.12
  11  -2   7    0.21    0.08
  11  -2   7    0.17    0.05
 -12   2  -7    0.27    0.13
 -12   2  -7    0.29    0.11
  12  -2   7    0.39    0.14
  12  -2   7    0.23    0.06
   6   1  -7    1.32    0.15
   5   1  -7    0.45    0.10
   5   1  -7    0.44    0.08
  -5  -1   7    0.53    0.09
   4   1  -7    2.89    0.15
   4   1  -7    2.61    0.17
  -4  -1   7    2.52    0.15
   3   1  -7    0.44    0.07
   3   1  -7    0.52    0.09
  -3  -1   7    0.51    0.07
   2   1  -7    0.15    0.06
   2   1  -7    0.11    0.06
  -2  -1   7    0.21    0.05
  -2  -1   7    0.10    0.08
   1   1  -7    2.08    0.12
   1   1  -7    2.04    0.12
  -1  -1   7    1.97    0.11
  -1  -1   7    1.98    0.13
   0   1  -7    0.40    0.06
   0   1  -7    0.32    0.13
   0   1  -7    0.44    0.06
   0   1  -7    0.33    0.08
   0  -1   7    0.41    0.05
   0  -1   7    0.48    0.07
  -1   1  -7    2.58    0.13
  -1   1  -7    2.47    0.11
  -1   1  -7    2.55    0.15
  -1   1  -7    2.50    0.12
   1  -1   7    2.50    0.13
   1  -1   7    2.46    0.13
   1  -1   7    2.56    0.12
  -2   1  -7    0.32    0.06
  -2   1  -7    0.38    0.05
  -2   1  -7    0.40    0.08
   2  -1   7    0.44    0.05
   2  -1   7    0.24    0.05
   2  -1   7    0.30    0.05
  -3   1  -7   13.18    0.37
  -3   1  -7   13.47    0.41
  -3   1  -7   13.19    0.38
   3  -1   7   13.54    0.38
   3  -1   7   13.53    0.37
  -4   1  -7    9.73    0.32
  -4   1  -7    9.88    0.29
  -4   1  -7    9.35    0.29
   4  -1   7    9.54    0.28
   4  -1   7    9.72    0.29
  -5   1  -7    0.76    0.09
  -5   1  -7    0.80    0.09
  -5   1  -7    0.78    0.08
   5  -1   7    0.86    0.08
   5  -1   7    0.90    0.07
   5  -1   7    0.88    0.09
  -6   1  -7   12.16    0.36
  -6   1  -7   12.10    0.38
  -6   1  -7   12.19    0.35
   6  -1   7   12.10    0.31
   6  -1   7   12.08    0.35
   6  -1   7   12.11    0.34
  -7   1  -7   12.24    0.36
  -7   1  -7   11.68    0.38
  -7   1  -7   11.99    0.37
   7  -1   7   12.48    0.35
   7  -1   7   12.47    0.35
  -8   1  -7    6.16    0.25
  -8   1  -7    6.20    0.23
  -8   1  -7    5.95    0.23
   8  -1   7    6.10    0.21
   8  -1   7    5.83    0.20
  -9   1  -7    2.43    0.18
  -9   1  -7    2.30    0.15
  -9   1  -7    2.37    0.17
   9  -1   7    2.43    0.12
   9  -1   7    2.53    0.14
   9  -1   7    2.58    0.18
 -10   1  -7    0.46    0.10
 -10   1  -7    0.28    0.08
 -10   1  -7    0.40    0.13
  10  -1   7    0.34    0.05
  10  -1   7    0.44    0.10
  10  -1   7    0.38    0.07
 -11   1  -7    0.22    0.10
 -11   1  -7    0.46    0.12
  11  -1   7    0.27    0.11
  11  -1   7    0.22    0.05
 -12   1  -7    0.03    0.12
 -12   1  -7    0.14    0.11
  12  -1   7    0.11    0.13
  12  -1   7    0.11    0.06
 -13   1  -7    0.22    0.15
 -13   1  -7    0.10    0.12
  13  -1   7    0.24    0.06
  13  -1   7    0.29    0.16
   7   0  -7    1.14    0.15
  -7   0   7    1.32    0.14
   6   0  -7    0.48    0.11
  -6   0   7    0.67    0.10
   5   0  -7    0.01    0.08
   5   0  -7    0.01    0.07
   4   0  -7    3.33    0.18
   4   0  -7    3.68    0.15
  -4   0   7    3.57    0.15
   3   0  -7    3.81    0.15
   3   0  -7    3.85    0.17
  -3   0   7    3.73    0.15
   2   0  -7    0.05    0.05
   2   0  -7    0.18    0.06
  -2   0   7    0.19    0.07
  -2   0   7    0.11    0.05
   1   0  -7    1.19    0.12
   1   0  -7    1.03    0.09
   1   0  -7    1.09    0.10
  -1   0   7    1.10    0.10
  -1   0   7    1.15    0.08
   0   0  -7    0.38    0.10
   0   0  -7    0.33    0.06
   0   0  -7    0.37    0.06
   0   0   7    0.40    0.05
   0   0   7    0.36    0.06
   0   0   7    0.32    0.06
  -1   0  -7    1.30    0.09
  -1   0  -7    1.10    0.12
  -1   0  -7    1.39    0.12
  -1   0  -7    1.49    0.10
   1   0   7    1.34    0.08
   1   0   7    1.19    0.10
   1   0   7    1.24    0.09
  -2   0  -7   58.43    1.40
  -2   0  -7   57.92    1.42
  -2   0  -7   56.22    1.46
   2   0   7   58.58    1.40
   2   0   7   51.26    1.39
  -3   0  -7   20.98    0.60
  -3   0  -7   21.78    0.57
  -3   0  -7   21.96    0.57
   3   0   7   21.69    0.56
   3   0   7   21.48    0.55
   3   0   7   21.97    0.56
  -4   0  -7   33.02    0.86
  -4   0  -7   32.79    0.84
  -4   0  -7   32.99    0.88
   4   0   7   33.73    0.81
   4   0   7   33.04    0.84
   4   0   7   32.89    0.84
  -5   0  -7   31.89    0.86
  -5   0  -7   32.30    0.82
  -5   0  -7   31.66    0.84
   5   0   7   32.31    0.78
   5   0   7   31.70    0.81
   5   0   7   32.61    0.81
  -6   0  -7   11.90    0.35
  -6   0  -7   11.79    0.37
  -6   0  -7   12.06    0.35
   6   0   7   12.10    0.34
   6   0   7   11.88    0.33
   6   0   7   12.04    0.31
  -7   0  -7    3.08    0.15
  -7   0  -7    2.99    0.16
  -7   0  -7    3.23    0.16
   7   0   7    3.19    0.13
   7   0   7    3.25    0.14
  -8   0  -7    4.92    0.21
  -8   0  -7    5.17    0.21
  -8   0  -7    4.77    0.20
   8   0   7    5.23    0.19
   8   0   7    5.08    0.17
  -9   0  -7    0.31    0.10
  -9   0  -7    0.21    0.07
  -9   0  -7    0.33    0.08
   9   0   7    0.16    0.04
   9   0   7    0.11    0.05
   9   0   7    0.28    0.08
 -10   0  -7    0.43    0.09
 -10   0  -7    0.46    0.13
 -10   0  -7    0.47    0.09
  10   0   7    0.54    0.10
  10   0   7    0.41    0.06
 -11   0  -7    0.04    0.09
 -11   0  -7    0.15    0.08
  11   0   7   -0.03    0.10
  11   0   7    0.01    0.04
 -12   0  -7    0.10    0.09
 -12   0  -7    0.12    0.11
  12   0   7    0.04    0.05
  12   0   7   -0.03    0.12
 -13   0  -7    0.32    0.13
  13   0   7    0.00    0.14
  13   0   7    0.11    0.06
   7  -1  -7    0.47    0.12
  -7   1   7    0.43    0.11
   6  -1  -7    0.25    0.09
  -6   1   7    0.15    0.08
   5  -1  -7    0.57    0.10
  -5   1   7    0.59    0.09
   4  -1  -7    1.18    0.13
   4  -1  -7    1.52    0.12
  -4   1   7    1.51    0.12
  -4   1   7    1.45    0.11
   3  -1  -7    0.10    0.05
   3  -1  -7    0.10    0.06
  -3   1   7    0.09    0.07
  -3   1   7    0.10    0.05
   2  -1  -7    3.65    0.14
   2  -1  -7    3.48    0.18
   2  -1  -7    3.29    0.15
  -2   1   7    3.30    0.14
  -2   1   7    3.40    0.14
  -2   1   7    3.56    0.13
   1  -1  -7    2.94    0.17
   1  -1  -7    3.09    0.17
   1  -1  -7    2.87    0.14
   1  -1  -7    3.11    0.13
  -1   1   7    2.96    0.11
  -1   1   7    2.91    0.13
  -1   1   7    3.07    0.12
   0  -1  -7    5.44    0.21
   0  -1  -7    5.84    0.19
   0  -1  -7    5.60    0.19
   0   1   7    5.47    0.18
   0   1   7    5.70    0.18
   0   1   7    5.69    0.18
  -1  -1  -7    2.90    0.15
  -1  -1  -7    2.47    0.12
  -1  -1  -7    2.48    0.11
   1   1   7    2.54    0.12
   1   1   7    2.50    0.11
   1   1   7    2.53    0.11
  -2  -1  -7   51.54    1.35
  -2  -1  -7   53.57    1.30
  -2  -1  -7   52.25    1.31
  -2  -1  -7   50.16    1.30
   2   1   7   52.18    1.29
   2   1   7   53.92    1.29
   2   1   7   52.02    1.27
  -3  -1  -7   12.35    0.35
  -3  -1  -7   11.90    0.34
  -3  -1  -7   12.01    0.37
   3   1   7   11.82    0.33
   3   1   7   12.36    0.33
   3   1   7   12.14    0.32
  -4  -1  -7   64.59    1.69
  -4  -1  -7   66.83    1.63
  -4  -1  -7   66.59    1.66
   4   1   7   65.25    1.62
   4   1   7   65.88    1.62
   4   1   7   67.06    1.59
  -5  -1  -7   17.67    0.47
  -5  -1  -7   17.08    0.48
  -5  -1  -7   17.20    0.49
   5   1   7   17.00    0.46
   5   1   7   17.36    0.43
   5   1   7   17.27    0.46
  -6  -1  -7   10.80    0.33
  -6  -1  -7   10.70    0.32
  -6  -1  -7   10.64    0.32
   6   1   7   10.37    0.30
   6   1   7   10.62    0.27
   6   1   7   10.38    0.30
  -7  -1  -7    1.45    0.11
  -7  -1  -7    1.54    0.12
  -7  -1  -7    1.38    0.12
   7   1   7    1.37    0.07
   7   1   7    1.41    0.08
   7   1   7    1.34    0.10
   7   1   7    1.49    0.16
  -8  -1  -7    0.43    0.08
  -8  -1  -7    0.30    0.08
  -8  -1  -7    0.34    0.07
   8   1   7    0.30    0.06
   8   1   7    0.42    0.11
   8   1   7    0.31    0.07
   8   1   7    0.37    0.05
  -9  -1  -7    3.69    0.18
  -9  -1  -7    3.72    0.18
  -9  -1  -7    3.78    0.20
   9   1   7    3.74    0.17
   9   1   7    3.75    0.14
 -10  -1  -7    1.17    0.14
 -10  -1  -7    1.15    0.14
 -10  -1  -7    1.11    0.11
  10   1   7    1.04    0.10
  10   1   7    0.97    0.08
 -11  -1  -7    0.08    0.09
 -11  -1  -7    0.10    0.09
  11   1   7    0.01    0.04
  11   1   7   -0.17    0.09
 -12  -1  -7    0.58    0.12
 -12  -1  -7    0.26    0.11
  12   1   7    0.19    0.05
  12   1   7    0.11    0.12
 -13  -1  -7    0.10    0.12
  13   1   7    0.00    0.14
  13   1   7    0.08    0.06
   7  -2  -7    2.51    0.21
  -7   2   7    2.33    0.19
   6  -2  -7    7.38    0.29
  -6   2   7    7.09    0.27
   5  -2  -7    0.17    0.08
  -5   2   7    0.16    0.06
  -5   2   7    0.20    0.08
   4  -2  -7    0.10    0.06
   4  -2  -7    0.09    0.07
  -4   2   7    0.04    0.06
  -4   2   7    0.08    0.05
   3  -2  -7    2.77    0.13
   3  -2  -7    2.75    0.14
  -3   2   7    2.70    0.13
  -3   2   7    2.81    0.13
  -3   2   7    2.92    0.13
   2  -2  -7    0.74    0.08
   2  -2  -7    0.78    0.09
   2  -2  -7    0.84    0.09
   2  -2  -7    0.82    0.09
  -2   2   7    0.91    0.08
  -2   2   7    0.83    0.09
  -2   2   7    0.68    0.07
   1  -2  -7    8.46    0.24
   1  -2  -7    8.34    0.26
   1  -2  -7    8.30    0.26
   1  -2  -7    8.78    0.27
  -1   2   7    8.32    0.25
  -1   2   7    8.52    0.24
  -1   2   7    8.58    0.24
   0  -2  -7   16.23    0.44
   0  -2  -7   16.04    0.43
   0  -2  -7   16.51    0.44
   0  -2  -7   16.19    0.43
   0   2   7   16.29    0.43
   0   2   7   16.55    0.43
   0   2   7   16.89    0.44
  -1  -2  -7    7.44    0.23
  -1  -2  -7    7.32    0.22
  -1  -2  -7    7.22    0.23
  -1  -2  -7    7.47    0.23
   1   2   7    7.43    0.22
   1   2   7    7.51    0.21
   1   2   7    7.53    0.22
  -2  -2  -7   16.46    0.44
  -2  -2  -7   16.20    0.44
  -2  -2  -7   15.64    0.44
   2   2   7   15.80    0.42
   2   2   7   16.44    0.43
   2   2   7   16.38    0.42
  -3  -2  -7   27.01    0.73
  -3  -2  -7   27.35    0.70
  -3  -2  -7   27.44    0.71
   3   2   7   28.66    0.67
   3   2   7   23.84    0.68
   3   2   7   27.67    0.68
  -4  -2  -7   13.62    0.38
  -4  -2  -7   13.64    0.39
  -4  -2  -7   13.51    0.40
   4   2   7   13.72    0.35
   4   2   7   13.85    0.37
  -5  -2  -7   10.06    0.31
  -5  -2  -7   10.02    0.30
  -5  -2  -7    9.16    0.30
   5   2   7   10.25    0.28
   5   2   7   10.07    0.28
   5   2   7   10.36    0.27
  -6  -2  -7    0.45    0.06
  -6  -2  -7    0.48    0.07
  -6  -2  -7    0.52    0.07
   6   2   7    0.43    0.05
   6   2   7    0.41    0.05
   6   2   7    0.52    0.06
  -7  -2  -7    0.73    0.08
  -7  -2  -7    0.67    0.08
  -7  -2  -7    0.80    0.10
   7   2   7    0.56    0.06
   7   2   7    0.69    0.06
   7   2   7    0.66    0.09
   7   2   7    0.60    0.06
  -8  -2  -7    2.68    0.17
  -8  -2  -7    2.53    0.15
  -8  -2  -7    2.76    0.15
   8   2   7    2.44    0.17
   8   2   7    2.55    0.11
   8   2   7    2.74    0.09
   8   2   7    2.66    0.13
  -9  -2  -7    2.21    0.15
  -9  -2  -7    2.32    0.15
  -9  -2  -7    2.40    0.19
   9   2   7    2.19    0.13
   9   2   7    2.22    0.10
 -10  -2  -7    7.20    0.31
 -10  -2  -7    7.53    0.29
 -10  -2  -7    7.65    0.27
  10   2   7    7.50    0.26
  10   2   7    7.57    0.23
 -11  -2  -7    0.64    0.11
 -11  -2  -7    0.71    0.11
  11   2   7    0.56    0.10
  11   2   7    0.69    0.08
 -12  -2  -7    3.56    0.23
  12   2   7    3.46    0.14
  12   2   7    3.14    0.22
 -13  -2  -7   -0.05    0.12
  13   2   7    0.08    0.06
   7  -3  -7    1.19    0.13
  -7   3   7    1.18    0.12
   6  -3  -7    8.80    0.32
  -6   3   7    8.77    0.30
   5  -3  -7    1.26    0.14
  -5   3   7    1.49    0.13
   4  -3  -7    0.55    0.07
   4  -3  -7    0.38    0.07
   4  -3  -7    0.49    0.08
  -4   3   7    0.34    0.06
  -4   3   7    0.46    0.05
   3  -3  -7    0.02    0.05
   3  -3  -7   -0.03    0.05
  -3   3   7   -0.04    0.05
  -3   3   7   -0.04    0.06
  -3   3   7   -0.01    0.04
   2  -3  -7   36.05    0.95
   2  -3  -7   39.20    0.97
   2  -3  -7   37.65    0.99
  -2   3   7   39.23    0.96
  -2   3   7   38.44    0.95
  -2   3   7   38.55    0.94
   1  -3  -7    5.71    0.19
   1  -3  -7    5.55    0.19
   1  -3  -7    5.67    0.19
  -1   3   7    5.40    0.17
  -1   3   7    5.75    0.19
  -1   3   7    5.47    0.16
  -1   3   7    5.52    0.18
   0  -3  -7   21.63    0.54
   0  -3  -7   22.09    0.57
   0  -3  -7   20.96    0.57
   0  -3  -7   21.97    0.57
   0   3   7   21.81    0.56
   0   3   7   21.58    0.56
   0   3   7   21.98    0.55
   0   3   7   22.27    0.56
  -1  -3  -7    3.22    0.14
  -1  -3  -7    3.24    0.12
  -1  -3  -7    3.19    0.14
  -1  -3  -7    3.15    0.14
   1   3   7    3.16    0.12
   1   3   7    3.26    0.12
   1   3   7    3.10    0.13
   1   3   7    3.27    0.11
  -2  -3  -7    0.97    0.09
  -2  -3  -7    1.01    0.09
  -2  -3  -7    1.06    0.09
  -2  -3  -7    0.95    0.10
   2   3   7    1.05    0.07
   2   3   7    1.09    0.08
   2   3   7    1.08    0.07
  -3  -3  -7    2.73    0.13
  -3  -3  -7    2.58    0.13
   3   3   7    2.60    0.10
   3   3   7    2.59    0.12
   3   3   7    2.81    0.11
   3   3   7    2.61    0.10
  -4  -3  -7    8.50    0.27
  -4  -3  -7    8.73    0.27
   4   3   7    8.49    0.25
   4   3   7    8.87    0.24
   4   3   7    8.54    0.24
  -5  -3  -7    3.83    0.17
  -5  -3  -7    4.59    0.17
   5   3   7    4.44    0.15
   5   3   7    4.57    0.15
   5   3   7    4.41    0.14
  -6  -3  -7    0.50    0.07
  -6  -3  -7    0.39    0.08
  -6  -3  -7    0.45    0.07
   6   3   7    0.39    0.05
   6   3   7    0.47    0.05
   6   3   7    0.36    0.09
   6   3   7    0.45    0.05
  -7  -3  -7    1.77    0.12
  -7  -3  -7    1.69    0.14
  -7  -3  -7    1.71    0.12
  -7  -3  -7    1.66    0.10
   7   3   7    1.64    0.08
   7   3   7    1.52    0.15
   7   3   7    1.59    0.09
   7   3   7    1.63    0.09
  -8  -3  -7    8.80    0.30
  -8  -3  -7    8.17    0.24
  -8  -3  -7    8.45    0.29
  -8  -3  -7    8.76    0.28
   8   3   7    8.40    0.25
   8   3   7    8.46    0.23
   8   3   7    8.76    0.29
   8   3   7    8.89    0.25
  -9  -3  -7    2.18    0.14
  -9  -3  -7    2.28    0.19
  -9  -3  -7    2.33    0.15
   9   3   7    2.11    0.10
   9   3   7    2.24    0.12
 -10  -3  -7    0.29    0.09
 -10  -3  -7    0.38    0.14
  10   3   7    0.26    0.07
  10   3   7    0.29    0.05
 -11  -3  -7   12.98    0.43
  11   3   7   12.53    0.34
  11   3   7   11.49    0.37
 -12  -3  -7    0.12    0.11
  12   3   7    0.08    0.05
 -13  -3  -7    0.50    0.14
  13   3   7    0.30    0.06
   7  -4  -7    2.06    0.20
  -7   4   7    1.54    0.16
   6  -4  -7   -0.05    0.08
  -6   4   7    0.03    0.08
   5  -4  -7    1.18    0.14
  -5   4   7    1.14    0.12
   4  -4  -7    0.69    0.08
   4  -4  -7    0.79    0.08
   4  -4  -7    0.72    0.08
  -4   4   7    0.74    0.08
   3  -4  -7    0.02    0.06
   3  -4  -7   -0.01    0.05
  -3   4   7   -0.04    0.04
  -3   4   7   -0.02    0.06
   2  -4  -7    2.59    0.13
   2  -4  -7    2.48    0.13
   2  -4  -7    2.27    0.13
  -2   4   7    2.54    0.11
  -2   4   7    2.26    0.12
  -2   4   7    2.39    0.15
   1  -4  -7   24.52    0.65
   1  -4  -7   25.07    0.65
   1  -4  -7   25.36    0.63
   1  -4  -7   24.51    0.66
  -1   4   7   24.99    0.63
  -1   4   7   23.75    0.65
  -1   4   7   25.10    0.63
  -1   4   7   24.76    0.61
   0  -4  -7    3.82    0.16
   0  -4  -7    3.79    0.15
   0  -4  -7    4.12    0.12
   0  -4  -7    3.98    0.16
   0   4   7    3.69    0.16
   0   4   7    4.01    0.14
   0   4   7    4.06    0.12
   0   4   7    3.88    0.14
  -1  -4  -7   14.60    0.42
  -1  -4  -7   14.64    0.41
  -1  -4  -7   14.42    0.39
  -1  -4  -7   14.55    0.37
   1   4   7   14.84    0.37
   1   4   7   14.68    0.39
   1   4   7   15.19    0.39
  -2  -4  -7   21.75    0.55
  -2  -4  -7   21.77    0.59
  -2  -4  -7   21.11    0.56
  -2  -4  -7   20.97    0.55
  -2  -4  -7   21.37    0.58
   2   4   7   22.29    0.55
   2   4   7   22.38    0.56
   2   4   7   22.15    0.55
   2   4   7   21.81    0.57
  -3  -4  -7    0.05    0.05
  -3  -4  -7    0.08    0.05
   3   4   7    0.07    0.03
   3   4   7    0.09    0.04
   3   4   7    0.03    0.03
   3   4   7    0.05    0.03
  -4  -4  -7   49.41    1.29
  -4  -4  -7   50.68    1.26
   4   4   7   50.93    1.22
   4   4   7   50.47    1.24
   4   4   7   50.19    1.25
  -5  -4  -7   10.95    0.33
  -5  -4  -7   10.82    0.32
   5   4   7   10.87    0.29
   5   4   7    8.78    0.27
  -6  -4  -7   46.05    1.20
  -6  -4  -7   45.59    1.18
   6   4   7   47.76    1.13
   6   4   7   45.97    1.15
  -7  -4  -7    2.71    0.15
  -7  -4  -7    2.89    0.17
   7   4   7    2.79    0.18
   7   4   7    2.60    0.11
   7   4   7    2.78    0.11
  -8  -4  -7    5.73    0.23
  -8  -4  -7    5.74    0.24
   8   4   7    5.70    0.24
   8   4   7    5.62    0.17
   8   4   7    5.60    0.18
  -9  -4  -7    0.01    0.12
  -9  -4  -7   -0.04    0.07
   9   4   7   -0.03    0.04
 -10  -4  -7    5.94    0.30
 -10  -4  -7    5.71    0.25
  10   4   7    5.47    0.18
  10   4   7    5.45    0.19
 -11  -4  -7    0.11    0.10
  11   4   7    0.19    0.05
 -12  -4  -7    9.46    0.38
  12   4   7    9.30    0.28
 -13  -4  -7    0.38    0.16
  13   4   7    0.45    0.07
   7  -5  -7    0.13    0.10
  -7   5   7    0.01    0.09
   6  -5  -7    2.37    0.19
  -6   5   7    2.30    0.16
   5  -5  -7    0.34    0.08
  -5   5   7    0.40    0.07
   4  -5  -7    0.30    0.07
   4  -5  -7    0.25    0.10
   4  -5  -7    0.20    0.07
   4  -5  -7    0.33    0.07
  -4   5   7    0.25    0.06
   3  -5  -7    0.45    0.07
   3  -5  -7    0.41    0.07
   3  -5  -7    0.42    0.09
  -3   5   7    0.37    0.06
  -3   5   7    0.36    0.06
   2  -5  -7    2.28    0.12
   2  -5  -7    2.31    0.13
   2  -5  -7    2.34    0.16
   2  -5  -7    2.25    0.12
  -2   5   7    2.13    0.11
  -2   5   7    2.23    0.11
   1  -5  -7   10.64    0.31
   1  -5  -7   10.93    0.33
   1  -5  -7   10.95    0.33
  -1   5   7   10.90    0.31
  -1   5   7   11.33    0.30
   0  -5  -7    8.24    0.25
   0  -5  -7    8.70    0.27
   0  -5  -7    8.21    0.27
   0   5   7    8.75    0.25
   0   5   7    8.72    0.25
  -1  -5  -7   13.31    0.39
  -1  -5  -7   13.49    0.37
  -1  -5  -7   13.37    0.39
  -1  -5  -7   12.98    0.35
   1   5   7   13.88    0.36
   1   5   7   13.26    0.36
  -2  -5  -7   24.34    0.62
  -2  -5  -7   24.04    0.64
  -2  -5  -7   23.58    0.61
  -2  -5  -7   25.14    0.66
   2   5   7   24.20    0.62
   2   5   7   23.95    0.62
   2   5   7   24.57    0.61
  -3  -5  -7    4.25    0.18
  -3  -5  -7    4.09    0.17
   3   5   7    4.06    0.14
   3   5   7    4.16    0.14
   3   5   7    4.31    0.14
  -4  -5  -7   12.25    0.36
  -4  -5  -7   12.14    0.37
   4   5   7   12.02    0.33
   4   5   7   11.86    0.32
  -5  -5  -7    0.00    0.05
  -5  -5  -7    0.03    0.06
   5   5   7    0.05    0.04
   5   5   7    0.02    0.03
  -6  -5  -7   20.90    0.64
  -6  -5  -7   24.63    0.66
   6   5   7   24.91    0.61
   6   5   7   24.10    0.59
  -7  -5  -7    4.75    0.21
  -7  -5  -7    4.79    0.23
   7   5   7    4.89    0.16
   7   5   7    4.81    0.16
   7   5   7    4.99    0.24
  -8  -5  -7    1.51    0.14
  -8  -5  -7    1.09    0.13
   8   5   7    1.40    0.09
   8   5   7    1.22    0.08
  -9  -5  -7    2.00    0.22
  -9  -5  -7    2.05    0.17
   9   5   7    2.08    0.11
 -10  -5  -7    0.11    0.10
 -10  -5  -7   -0.08    0.16
  10   5   7    0.08    0.04
 -11  -5  -7    4.88    0.27
  11   5   7    4.61    0.17
 -12  -5  -7   -0.02    0.13
  12   5   7    0.04    0.06
 -13  -5  -7    1.32    0.15
 -13  -5  -7    1.23    0.20
  13   5   7    1.01    0.12
   7  -6  -7    1.31    0.20
   7  -6  -7    1.82    0.20
  -7   6   7    1.22    0.12
   6  -6  -7    1.44    0.17
   6  -6  -7    1.40    0.18
  -6   6   7    1.18    0.11
   5  -6  -7    0.91    0.10
   5  -6  -7    0.85    0.14
  -5   6   7    0.87    0.09
   4  -6  -7    1.47    0.13
   4  -6  -7    1.23    0.12
   4  -6  -7    1.14    0.12
  -4   6   7    1.21    0.11
   3  -6  -7    0.47    0.07
   3  -6  -7    0.49    0.08
   3  -6  -7    0.39    0.08
   3  -6  -7    0.54    0.10
  -3   6   7    0.36    0.06
  -3   6   7    0.58    0.07
   2  -6  -7    0.83    0.10
   2  -6  -7    0.86    0.08
   2  -6  -7    0.83    0.09
   2  -6  -7    1.02    0.10
  -2   6   7    0.92    0.09
  -2   6   7    0.81    0.10
   1  -6  -7   38.87    1.00
   1  -6  -7   37.59    0.97
   1  -6  -7   38.41    1.01
  -1   6   7   40.17    0.97
  -1   6   7   39.22    0.97
   0  -6  -7   37.09    0.96
   0  -6  -7   37.70    1.00
   0  -6  -7   37.50    0.99
   0  -6  -7   38.91    0.99
   0   6   7   39.56    0.96
   0   6   7   39.20    0.95
  -1  -6  -7    8.14    0.23
  -1  -6  -7    8.15    0.27
  -1  -6  -7    8.03    0.25
  -1  -6  -7    8.23    0.27
  -1  -6  -7    8.34    0.22
   1   6   7    8.39    0.24
   1   6   7    8.20    0.24
  -2  -6  -7   15.44    0.44
  -2  -6  -7   14.44    0.39
  -2  -6  -7   15.47    0.45
   2   6   7   15.52    0.40
   2   6   7   15.58    0.40
   2   6   7   14.53    0.40
  -3  -6  -7   -0.01    0.06
  -3  -6  -7   -0.01    0.06
   3   6   7    0.07    0.04
  -4  -6  -7   25.72    0.70
  -4  -6  -7   26.16    0.71
   4   6   7   26.01    0.65
   4   6   7   25.38    0.66
  -5  -6  -7    0.99    0.12
  -5  -6  -7    1.25    0.13
   5   6   7    1.17    0.08
   5   6   7    1.25    0.09
  -6  -6  -7    2.81    0.17
  -6  -6  -7    2.78    0.16
   6   6   7    2.73    0.12
   6   6   7    2.87    0.12
  -7  -6  -7    0.47    0.10
  -7  -6  -7    0.47    0.09
   7   6   7    0.43    0.06
   7   6   7    0.41    0.05
  -8  -6  -7   -0.03    0.11
  -8  -6  -7    0.04    0.08
   8   6   7   -0.02    0.05
   8   6   7    0.01    0.04
  -9  -6  -7    0.95    0.16
  -9  -6  -7    1.13    0.13
   9   6   7    0.91    0.08
 -10  -6  -7    0.47    0.12
  10   6   7    0.30    0.06
 -11  -6  -7    0.93    0.12
 -11  -6  -7    0.72    0.14
  11   6   7    0.74    0.08
 -12  -6  -7    2.13    0.21
 -12  -6  -7    2.18    0.19
  12   6   7    2.24    0.13
   7  -7  -7    0.59    0.18
   7  -7  -7    0.58    0.13
  -7   7   7    0.40    0.10
   6  -7  -7    5.88    0.26
   6  -7  -7    6.76    0.35
  -6   7   7    5.65    0.23
   5  -7  -7   -0.08    0.11
   5  -7  -7    0.07    0.08
   5  -7  -7    0.13    0.07
  -5   7   7   -0.06    0.07
   4  -7  -7    0.89    0.13
   4  -7  -7    1.26    0.13
   4  -7  -7    1.05    0.12
  -4   7   7    0.91    0.09
   3  -7  -7    3.75    0.20
   3  -7  -7    3.57    0.16
   3  -7  -7    3.56    0.18
  -3   7   7    3.84    0.16
  -3   7   7    3.45    0.16
   2  -7  -7    9.00    0.31
   2  -7  -7    9.13    0.29
   2  -7  -7    8.81    0.28
  -2   7   7    8.66    0.27
  -2   7   7    8.83    0.27
   1  -7  -7    9.22    0.30
   1  -7  -7    8.69    0.28
   1  -7  -7    9.28    0.30
  -1   7   7    9.07    0.27
  -1   7   7    9.15    0.27
   0  -7  -7   28.18    0.86
   0  -7  -7   34.24    0.90
   0  -7  -7   34.55    0.88
   0  -7  -7   32.33    0.84
   0  -7  -7   34.06    0.81
   0   7   7   34.65    0.84
   0   7   7   34.92    0.84
  -1  -7  -7   36.57    0.93
  -1  -7  -7   35.93    0.90
  -1  -7  -7   36.77    0.96
  -1  -7  -7   36.10    0.90
  -1  -7  -7   36.86    0.98
   1   7   7   36.63    0.92
   1   7   7   37.64    0.91
  -2  -7  -7    9.11    0.30
  -2  -7  -7    8.74    0.30
  -2  -7  -7    8.78    0.25
   2   7   7    9.08    0.26
   2   7   7    9.04    0.26
  -3  -7  -7    1.62    0.14
  -3  -7  -7    1.77    0.13
  -3  -7  -7    1.75    0.09
   3   7   7    1.62    0.10
   3   7   7    1.67    0.09
  -4  -7  -7    2.39    0.16
  -4  -7  -7    2.42    0.15
  -4  -7  -7    2.46    0.11
   4   7   7    2.47    0.11
   4   7   7    2.34    0.11
  -5  -7  -7    0.19    0.05
  -5  -7  -7    0.18    0.08
  -5  -7  -7    0.26    0.08
   5   7   7    0.19    0.04
   5   7   7    0.26    0.05
  -6  -7  -7    0.49    0.09
  -6  -7  -7    0.39    0.07
  -6  -7  -7    0.50    0.10
   6   7   7    0.43    0.06
   6   7   7    0.45    0.06
  -7  -7  -7    3.62    0.20
  -7  -7  -7    3.36    0.20
   7   7   7    3.22    0.14
   7   7   7    3.49    0.14
  -8  -7  -7    0.01    0.06
  -8  -7  -7   -0.04    0.10
  -8  -7  -7    0.05    0.09
   8   7   7    0.02    0.05
   8   7   7    0.04    0.04
  -9  -7  -7    3.09    0.22
  -9  -7  -7    3.09    0.29
  -9  -7  -7    3.21    0.17
   9   7   7    3.21    0.14
 -10  -7  -7    1.78    0.21
 -10  -7  -7    1.83    0.16
  10   7   7    1.91    0.12
 -11  -7  -7    5.21    0.31
 -11  -7  -7    4.95    0.24
  11   7   7    4.98    0.19
 -12  -7  -7    2.89    0.30
 -12  -7  -7    2.99    0.22
  12   7   7    2.80    0.15
   7  -8  -7    0.12    0.18
   7  -8  -7    0.07    0.12
  -7   8   7    0.11    0.10
   6  -8  -7    0.16    0.10
   6  -8  -7   -0.01    0.14
  -6   8   7   -0.09    0.08
   5  -8  -7    1.01    0.14
   5  -8  -7    0.87    0.10
   5  -8  -7    1.02    0.11
  -5   8   7    0.85    0.10
   4  -8  -7    5.05    0.26
   4  -8  -7    4.49    0.20
   4  -8  -7    4.57    0.20
  -4   8   7    4.26    0.19
   3  -8  -7    0.71    0.11
   3  -8  -7    0.66    0.09
   3  -8  -7    0.84    0.09
  -3   8   7    0.68    0.10
  -3   8   7    0.64    0.08
   2  -8  -7    1.37    0.11
   2  -8  -7    1.53    0.15
   2  -8  -7    1.11    0.13
  -2   8   7    1.42    0.13
  -2   8   7    1.29    0.10
   1  -8  -7    4.20    0.20
   1  -8  -7    4.64    0.19
  -1   8   7    4.47    0.17
  -1   8   7    4.13    0.17
   0  -8  -7    9.95    0.33
   0  -8  -7    9.74    0.30
   0  -8  -7    9.72    0.26
   0  -8  -7   10.26    0.34
   0  -8  -7    9.42    0.27
   0   8   7    9.60    0.29
   0   8   7   10.02    0.29
  -1  -8  -7    0.03    0.07
  -1  -8  -7    0.16    0.08
  -1  -8  -7    0.17    0.05
  -1  -8  -7    0.02    0.06
  -1  -8  -7    0.05    0.05
   1   8   7    0.03    0.04
   1   8   7    0.03    0.05
  -2  -8  -7    3.46    0.19
  -2  -8  -7    3.68    0.19
  -2  -8  -7    3.58    0.14
  -2  -8  -7    3.34    0.13
   2   8   7    3.60    0.14
   2   8   7    3.38    0.14
  -3  -8  -7    1.30    0.09
  -3  -8  -7    1.23    0.14
  -3  -8  -7    1.32    0.14
   3   8   7    1.16    0.09
   3   8   7    1.17    0.10
  -4  -8  -7    1.98    0.16
  -4  -8  -7    1.99    0.16
  -4  -8  -7    2.31    0.12
   4   8   7    2.13    0.12
   4   8   7    2.12    0.11
  -5  -8  -7    0.24    0.05
  -5  -8  -7    0.19    0.09
  -5  -8  -7    0.27    0.08
   5   8   7    0.18    0.05
   5   8   7    0.19    0.05
  -6  -8  -7    2.02    0.18
  -6  -8  -7    1.93    0.13
  -6  -8  -7    2.05    0.17
   6   8   7    2.15    0.12
   6   8   7    2.06    0.11
  -7  -8  -7    0.09    0.08
  -7  -8  -7    0.04    0.06
  -7  -8  -7    0.06    0.10
   7   8   7    0.03    0.05
   7   8   7    0.06    0.05
  -8  -8  -7    9.96    0.38
  -8  -8  -7   10.32    0.38
  -8  -8  -7   10.06    0.33
   8   8   7   10.50    0.31
   8   8   7    9.78    0.30
  -9  -8  -7    1.18    0.17
  -9  -8  -7    1.13    0.15
  -9  -8  -7    1.05    0.11
   9   8   7    0.84    0.10
 -10  -8  -7    1.67    0.17
 -10  -8  -7    1.25    0.16
  10   8   7    1.37    0.11
 -11  -8  -7    0.14    0.10
 -11  -8  -7    0.16    0.15
  11   8   7    0.16    0.07
   6  -9  -7    1.19    0.18
   6  -9  -7    1.26    0.14
  -6   9   7    1.19    0.12
   5  -9  -7    0.57    0.14
   5  -9  -7    0.49    0.11
   5  -9  -7    0.34    0.09
  -5   9   7    0.30    0.08
   4  -9  -7    3.45    0.18
   4  -9  -7    3.50    0.19
   4  -9  -7    3.84    0.25
  -4   9   7    3.40    0.18
   3  -9  -7    4.83    0.25
   3  -9  -7    4.88    0.20
   3  -9  -7    4.89    0.22
  -3   9   7    4.99    0.20
   2  -9  -7    0.09    0.07
   2  -9  -7    0.02    0.06
   2  -9  -7   -0.06    0.08
  -2   9   7    0.15    0.08
  -2   9   7   -0.01    0.06
   1  -9  -7    5.82    0.24
   1  -9  -7    5.86    0.23
  -1   9   7    5.59    0.21
  -1   9   7    5.64    0.21
   0  -9  -7    2.69    0.15
   0  -9  -7    2.80    0.18
   0  -9  -7    2.57    0.17
   0  -9  -7    2.64    0.13
   0   9   7    2.79    0.13
   0   9   7    2.77    0.14
  -1  -9  -7   17.83    0.53
  -1  -9  -7   17.60    0.54
  -1  -9  -7   17.64    0.46
  -1  -9  -7   17.35    0.48
   1   9   7   17.96    0.48
   1   9   7   17.35    0.48
  -2  -9  -7   -0.03    0.05
  -2  -9  -7   -0.02    0.08
  -2  -9  -7   -0.03    0.08
  -2  -9  -7    0.04    0.05
   2   9   7    0.05    0.05
   2   9   7    0.07    0.05
  -3  -9  -7    0.11    0.09
  -3  -9  -7    0.18    0.06
  -3  -9  -7    0.14    0.09
   3   9   7    0.06    0.05
   3   9   7    0.11    0.05
  -4  -9  -7   -0.02    0.05
  -4  -9  -7    0.00    0.08
  -4  -9  -7   -0.06    0.09
   4   9   7    0.06    0.05
   4   9   7    0.07    0.05
  -5  -9  -7    3.20    0.16
  -5  -9  -7    3.28    0.22
  -5  -9  -7    3.21    0.20
   5   9   7    3.11    0.14
   5   9   7    3.25    0.15
  -6  -9  -7    1.37    0.15
  -6  -9  -7    1.43    0.17
  -6  -9  -7    1.16    0.13
   6   9   7    1.35    0.10
   6   9   7    1.27    0.12
  -7  -9  -7    2.06    0.21
  -7  -9  -7    1.96    0.22
  -7  -9  -7    2.03    0.16
   7   9   7    2.05    0.14
   7   9   7    2.03    0.12
  -8  -9  -7    0.32    0.14
  -8  -9  -7    0.48    0.13
  -8  -9  -7    0.48    0.10
   8   9   7    0.47    0.07
   8   9   7    0.33    0.08
  -9  -9  -7    3.15    0.20
  -9  -9  -7    2.97    0.26
   9   9   7    2.57    0.14
 -10  -9  -7    3.88    0.23
 -10  -9  -7    4.08    0.31
  10   9   7    3.79    0.17
 -11  -9  -7   -0.09    0.18
 -11  -9  -7    0.20    0.10
  11   9   7   -0.09    0.07
   6 -10  -7    0.53    0.18
   6 -10  -7    0.18    0.13
   6 -10  -7    0.22    0.09
  -6  10   7    0.11    0.13
  -6  10   7    0.43    0.11
   5 -10  -7    0.21    0.11
   5 -10  -7    0.34    0.15
   5 -10  -7    0.23    0.10
  -5  10   7    0.13    0.10
   4 -10  -7    2.43    0.18
   4 -10  -7    3.15    0.27
   4 -10  -7    2.54    0.19
  -4  10   7    2.95    0.19
   3 -10  -7    1.28    0.15
   3 -10  -7    1.55    0.14
   3 -10  -7    1.74    0.17
  -3  10   7    1.62    0.15
   2 -10  -7    0.38    0.10
   2 -10  -7    0.22    0.10
   2 -10  -7    0.36    0.08
  -2  10   7    0.31    0.07
  -2  10   7    0.24    0.10
   1 -10  -7    0.74    0.10
   1 -10  -7    0.84    0.11
   1 -10  -7    1.12    0.11
  -1  10   7    0.67    0.09
  -1  10   7    0.81    0.09
   0 -10  -7    1.02    0.11
   0 -10  -7    0.98    0.12
   0 -10  -7    1.08    0.10
   0  10   7    1.11    0.12
   0  10   7    1.03    0.11
  -1 -10  -7    0.33    0.10
  -1 -10  -7    0.22    0.07
  -1 -10  -7    0.30    0.10
  -1 -10  -7    0.30    0.06
   1  10   7    0.31    0.06
   1  10   7    0.36    0.07
  -2 -10  -7    0.78    0.08
  -2 -10  -7    0.74    0.12
  -2 -10  -7    0.84    0.13
  -2 -10  -7    0.90    0.10
   2  10   7    0.75    0.08
   2  10   7    0.73    0.08
  -3 -10  -7   -0.06    0.06
  -3 -10  -7   -0.03    0.10
  -3 -10  -7   -0.01    0.09
   3  10   7   -0.01    0.05
   3  10   7    0.04    0.05
  -4 -10  -7    0.31    0.10
  -4 -10  -7    0.39    0.08
  -4 -10  -7    0.37    0.11
   4  10   7    0.35    0.07
   4  10   7    0.40    0.07
  -5 -10  -7    6.71    0.31
  -5 -10  -7    7.14    0.31
  -5 -10  -7    6.61    0.25
   5  10   7    6.66    0.23
   5  10   7    6.64    0.23
  -6 -10  -7    3.92    0.20
  -6 -10  -7    4.15    0.26
  -6 -10  -7    4.21    0.26
   6  10   7    3.99    0.18
   6  10   7    4.09    0.18
   6  10   7    4.24    0.18
  -7 -10  -7    5.56    0.25
  -7 -10  -7    5.80    0.30
  -7 -10  -7    5.31    0.31
   7  10   7    5.44    0.21
   7  10   7    5.95    0.23
  -8 -10  -7   13.53    0.51
  -8 -10  -7   13.20    0.43
  -8 -10  -7   13.23    0.49
   8  10   7   12.17    0.38
  -9 -10  -7    7.31    0.31
  -9 -10  -7    6.64    0.37
   9  10   7    7.16    0.25
 -10 -10  -7    0.44    0.11
 -10 -10  -7    0.54    0.19
  10  10   7    0.43    0.09
   5 -11  -7    1.05    0.13
   5 -11  -7    1.06    0.19
  -5  11   7    0.88    0.15
  -5  11   7    0.96    0.13
   4 -11  -7    0.61    0.16
   4 -11  -7    0.55    0.12
  -4  11   7    0.85    0.14
  -4  11   7    0.69    0.11
   3 -11  -7    0.87    0.11
   3 -11  -7    0.57    0.14
   3 -11  -7    0.86    0.13
  -3  11   7    0.91    0.11
   2 -11  -7    0.51    0.09
   2 -11  -7    0.48    0.12
   2 -11  -7    0.56    0.12
  -2  11   7    0.47    0.10
  -2  11   7    0.36    0.08
   1 -11  -7   -0.02    0.07
   1 -11  -7    0.09    0.10
   1 -11  -7    0.16    0.07
   1 -11  -7    0.12    0.10
  -1  11   7    0.10    0.07
  -1  11   7    0.05    0.09
   0 -11  -7   -0.05    0.09
   0 -11  -7   -0.05    0.07
   0 -11  -7    0.04    0.09
   0  11   7   -0.03    0.06
   0  11   7   -0.08    0.07
  -1 -11  -7    1.70    0.19
  -1 -11  -7    1.49    0.15
  -1 -11  -7    1.49    0.14
  -1 -11  -7    1.30    0.15
   1  11   7    1.57    0.14
   1  11   7    1.59    0.13
  -2 -11  -7    1.07    0.13
  -2 -11  -7    1.13    0.11
  -2 -11  -7    0.86    0.14
  -2 -11  -7    1.11    0.15
   2  11   7    1.17    0.12
   2  11   7    1.02    0.11
  -3 -11  -7    0.83    0.14
  -3 -11  -7    0.79    0.10
  -3 -11  -7    0.91    0.15
   3  11   7    0.87    0.09
   3  11   7    0.79    0.10
  -4 -11  -7    0.76    0.10
  -4 -11  -7    0.92    0.15
  -4 -11  -7    0.75    0.14
   4  11   7    0.91    0.10
   4  11   7    0.91    0.09
   4  11   7    0.70    0.09
  -5 -11  -7    3.22    0.27
  -5 -11  -7    2.46    0.18
  -5 -11  -7    3.03    0.26
   5  11   7    2.72    0.17
   5  11   7    2.92    0.16
   5  11   7    2.91    0.16
  -6 -11  -7    0.49    0.15
  -6 -11  -7    0.58    0.16
  -6 -11  -7    0.36    0.10
   6  11   7    0.59    0.09
   6  11   7    0.65    0.09
   6  11   7    0.48    0.08
  -7 -11  -7    1.78    0.20
  -7 -11  -7    1.68    0.21
  -7 -11  -7    2.28    0.26
   7  11   7    1.93    0.14
   7  11   7    1.87    0.17
  -8 -11  -7    0.43    0.12
  -8 -11  -7    0.73    0.17
  -8 -11  -7    0.55    0.21
   8  11   7    0.25    0.08
  -9 -11  -7    4.97    0.28
  -9 -11  -7    5.63    0.37
   9  11   7    5.18    0.22
   4 -12  -7    1.85    0.21
   4 -12  -7    2.27    0.22
  -4  12   7    2.10    0.24
  -4  12   7    2.19    0.21
   3 -12  -7    0.15    0.12
   3 -12  -7    0.16    0.15
  -3  12   7    0.15    0.12
  -3  12   7    0.03    0.10
   2 -12  -7    0.83    0.15
   2 -12  -7    0.78    0.13
  -2  12   7    0.74    0.11
  -2  12   7    0.72    0.13
   1 -12  -7    0.03    0.12
   1 -12  -7    0.11    0.10
  -1  12   7    0.06    0.10
  -1  12   7    0.10    0.10
  -1  12   7   -0.01    0.07
   0 -12  -7    0.32    0.12
   0 -12  -7    0.21    0.11
   0 -12  -7    0.29    0.09
   0  12   7    0.55    0.11
   0  12   7    0.34    0.10
   0  12   7    0.27    0.08
  -1 -12  -7    0.71    0.12
  -1 -12  -7    0.84    0.11
  -1 -12  -7    0.70    0.14
   1  12   7    0.68    0.11
   1  12   7    0.95    0.12
   1  12   7    0.75    0.09
  -2 -12  -7    0.77    0.14
  -2 -12  -7    0.98    0.16
  -2 -12  -7    0.82    0.11
   2  12   7    0.79    0.11
   2  12   7    0.88    0.10
   2  12   7    1.01    0.12
  -3 -12  -7    4.47    0.29
  -3 -12  -7    3.83    0.28
  -3 -12  -7    4.00    0.22
   3  12   7    3.70    0.22
   3  12   7    4.06    0.21
   3  12   7    3.73    0.19
  -4 -12  -7    0.92    0.12
  -4 -12  -7    0.81    0.16
  -4 -12  -7    0.76    0.16
   4  12   7    0.96    0.12
   4  12   7    1.08    0.11
   4  12   7    0.80    0.09
  -5 -12  -7    1.83    0.20
  -5 -12  -7    1.74    0.21
  -5 -12  -7    2.08    0.21
   5  12   7    2.11    0.16
   5  12   7    2.59    0.19
   5  12   7    1.82    0.16
  -6 -12  -7    4.80    0.26
  -6 -12  -7    4.32    0.33
  -6 -12  -7    5.10    0.35
   6  12   7    4.70    0.22
   6  12   7    5.06    0.24
  -7 -12  -7    3.91    0.25
  -7 -12  -7    4.03    0.36
  -7 -12  -7    3.70    0.35
   7  12   7    3.83    0.20
  -8 -12  -7    0.84    0.15
  -8 -12  -7    0.67    0.21
   8  12   7    0.82    0.10
  -3  13   7    2.24    0.25
  -3  13   7    2.21    0.22
   2 -13  -7    0.23    0.13
   2 -13  -7    0.08    0.16
  -2  13   7    0.22    0.10
  -2  13   7    0.08    0.11
   1 -13  -7   -0.08    0.14
   1 -13  -7    0.08    0.12
  -1  13   7    0.34    0.13
  -1  13   7    0.09    0.09
   0 -13  -7    0.18    0.11
   0 -13  -7    0.34    0.14
   0 -13  -7   -0.14    0.13
   0  13   7    0.41    0.10
   0  13   7    0.25    0.11
   0  13   7    0.04    0.11
  -1 -13  -7    5.32    0.25
  -1 -13  -7    4.30    0.29
   1  13   7    5.43    0.24
   1  13   7    5.09    0.28
   1  13   7    5.12    0.25
  -2 -13  -7    0.61    0.12
  -2 -13  -7    0.37    0.14
   2  13   7    0.40    0.13
   2  13   7    0.48    0.11
   2  13   7    0.48    0.09
  -3 -13  -7    5.21    0.28
  -3 -13  -7    5.65    0.33
   3  13   7    5.34    0.27
   3  13   7    5.15    0.25
   3  13   7    5.54    0.23
  -4 -13  -7    0.17    0.16
  -4 -13  -7   -0.10    0.11
  -4 -13  -7    0.01    0.15
   4  13   7    0.04    0.09
   4  13   7   -0.22    0.11
   4  13   7    0.04    0.08
  -5 -13  -7    1.66    0.22
  -5 -13  -7    1.54    0.21
  -5 -13  -7    1.55    0.17
   5  13   7    2.01    0.18
   5  13   7    1.80    0.18
  -6 -13  -7   -0.20    0.17
  -6 -13  -7    0.15    0.20
  -6 -13  -7    0.05    0.12
   6  13   7    0.12    0.09
   6  13   7   -0.04    0.09
   0  14   7    0.14    0.10
  -1 -14  -7    0.14    0.13
  -1 -14  -7    0.03    0.15
   1  14   7    0.27    0.09
   1  14   7    0.52    0.14
   1  14   7    0.15    0.12
  -2 -14  -7   -0.09    0.15
  -2 -14  -7   -0.11    0.13
   2  14   7    0.25    0.09
   2  14   7    0.09    0.12
   2  14   7    0.10    0.14
   3  14   7    0.57    0.11
  -4   7  -8   -0.11    0.12
  -4   7  -8    0.05    0.14
   4  -7   8    0.09    0.10
  -5   7  -8    0.05    0.14
  -5   7  -8   -0.10    0.13
   5  -7   8    0.12    0.10
  -1   6  -8    1.20    0.19
  -1   6  -8    1.31    0.14
   1  -6   8    1.48    0.16
   1  -6   8    0.94    0.13
  -2   6  -8    0.08    0.14
  -2   6  -8   -0.01    0.09
   2  -6   8    0.17    0.12
   2  -6   8   -0.15    0.09
   2  -6   8    0.04    0.10
  -3   6  -8    1.92    0.19
  -3   6  -8    1.84    0.18
   3  -6   8    2.15    0.22
   3  -6   8    1.99    0.17
   3  -6   8    1.68    0.17
  -4   6  -8    0.87    0.15
  -4   6  -8    0.72    0.13
   4  -6   8    0.70    0.11
   4  -6   8    0.68    0.12
   4  -6   8    0.75    0.11
  -5   6  -8    4.94    0.27
  -5   6  -8    5.18    0.31
   5  -6   8    5.45    0.25
   5  -6   8    5.20    0.26
  -6   6  -8    0.21    0.14
  -6   6  -8   -0.04    0.11
   6  -6   8    0.14    0.10
   6  -6   8    0.02    0.08
  -7   6  -8    1.40    0.17
  -7   6  -8    2.09    0.25
   7  -6   8    1.18    0.13
   7  -6   8    1.51    0.18
  -8   6  -8    0.51    0.16
  -8   6  -8    0.65    0.16
   8  -6   8    0.34    0.10
   8  -6   8    0.61    0.11
   1   5  -8   -0.10    0.08
   1   5  -8    0.05    0.11
  -1  -5   8    0.00    0.11
   0   5  -8    0.07    0.09
   0   5  -8    0.15    0.15
   0   5  -8    0.15    0.10
   0  -5   8    0.11    0.10
  -1   5  -8    3.08    0.20
  -1   5  -8    3.12    0.26
  -1   5  -8    3.01    0.18
   1  -5   8    3.51    0.21
   1  -5   8    2.98    0.20
   1  -5   8    3.16    0.23
  -2   5  -8    0.55    0.10
  -2   5  -8    0.35    0.12
  -2   5  -8    0.21    0.09
   2  -5   8    0.43    0.11
   2  -5   8    0.44    0.10
   2  -5   8    0.51    0.11
  -3   5  -8    0.18    0.08
  -3   5  -8    0.17    0.10
  -3   5  -8    0.37    0.09
  -3   5  -8    0.08    0.12
   3  -5   8    0.04    0.09
   3  -5   8    0.22    0.10
   3  -5   8    0.20    0.08
  -4   5  -8    0.13    0.09
  -4   5  -8    0.15    0.11
  -4   5  -8    0.05    0.09
  -4   5  -8    0.18    0.08
   4  -5   8   -0.02    0.08
   4  -5   8    0.02    0.08
  -5   5  -8    0.15    0.08
  -5   5  -8    0.04    0.10
  -5   5  -8    0.15    0.12
   5  -5   8    0.03    0.08
   5  -5   8    0.11    0.07
  -6   5  -8    2.32    0.23
  -6   5  -8    2.26    0.21
   6  -5   8    2.21    0.17
   6  -5   8    2.30    0.17
  -7   5  -8    0.31    0.11
  -7   5  -8    0.32    0.12
   7  -5   8    0.37    0.08
   7  -5   8    0.22    0.09
  -8   5  -8    3.28    0.26
  -8   5  -8    3.68    0.27
  -8   5  -8    3.82    0.22
   8  -5   8    3.99    0.20
   8  -5   8    3.90    0.21
  -9   5  -8   -0.10    0.13
  -9   5  -8    0.24    0.11
   9  -5   8    0.25    0.08
   9  -5   8    0.22    0.09
 -10   5  -8    0.80    0.17
 -10   5  -8    0.97    0.15
  10  -5   8    0.88    0.13
  10  -5   8    0.92    0.11
   2   4  -8    0.07    0.09
   2   4  -8    0.17    0.11
  -2  -4   8    0.24    0.11
   1   4  -8    0.03    0.09
   1   4  -8    0.03    0.08
  -1  -4   8    0.00    0.09
   0   4  -8    0.10    0.08
   0   4  -8    0.01    0.12
   0   4  -8    0.03    0.09
   0  -4   8    0.14    0.08
   0  -4   8    0.22    0.10
  -1   4  -8    7.17    0.32
  -1   4  -8    6.93    0.25
  -1   4  -8    7.10    0.27
   1  -4   8    6.48    0.26
   1  -4   8    6.63    0.27
   1  -4   8    7.19    0.27
  -2   4  -8    1.01    0.12
  -2   4  -8    0.97    0.09
  -2   4  -8    0.88    0.13
  -2   4  -8    0.78    0.11
   2  -4   8    0.80    0.10
   2  -4   8    0.74    0.10
   2  -4   8    0.86    0.11
  -3   4  -8   15.77    0.51
  -3   4  -8   15.44    0.45
  -3   4  -8   15.88    0.47
  -3   4  -8   15.19    0.44
   3  -4   8   15.44    0.46
   3  -4   8   15.91    0.47
   3  -4   8   16.11    0.47
  -4   4  -8    2.54    0.18
  -4   4  -8    2.52    0.14
  -4   4  -8    2.67    0.21
  -4   4  -8    2.89    0.16
   4  -4   8    2.66    0.17
   4  -4   8    2.64    0.17
  -5   4  -8    2.21    0.13
  -5   4  -8    2.09    0.17
  -5   4  -8    2.45    0.20
  -5   4  -8    2.01    0.15
   5  -4   8    2.10    0.15
   5  -4   8    2.07    0.16
  -6   4  -8    0.78    0.13
  -6   4  -8    0.81    0.10
  -6   4  -8    0.94    0.11
   6  -4   8    1.11    0.13
   6  -4   8    0.72    0.09
  -7   4  -8    0.68    0.11
  -7   4  -8    0.92    0.11
  -7   4  -8    0.76    0.13
   7  -4   8    0.62    0.08
   7  -4   8    0.81    0.10
  -8   4  -8    0.04    0.08
  -8   4  -8   -0.12    0.10
  -8   4  -8    0.10    0.11
   8  -4   8    0.13    0.07
   8  -4   8    0.04    0.07
  -9   4  -8    1.23    0.15
  -9   4  -8    1.10    0.15
  -9   4  -8    1.14    0.14
   9  -4   8    1.10    0.12
   9  -4   8    1.07    0.12
 -10   4  -8    0.05    0.13
 -10   4  -8    0.16    0.11
  10  -4   8    0.30    0.08
  10  -4   8    0.10    0.09
 -11   4  -8   -0.02    0.12
 -11   4  -8    0.18    0.15
  11  -4   8   -0.02    0.17
  11  -4   8    0.08    0.07
  11  -4   8    0.11    0.10
   3   3  -8    0.10    0.09
   3   3  -8    0.24    0.11
  -3  -3   8    0.17    0.10
   2   3  -8    7.09    0.28
   2   3  -8    7.56    0.27
  -2  -3   8    6.88    0.28
   1   3  -8    0.48    0.09
   1   3  -8    0.44    0.09
  -1  -3   8    0.43    0.09
   0   3  -8    3.84    0.25
   0   3  -8    3.52    0.18
   0   3  -8    3.94    0.18
   0  -3   8    3.49    0.18
   0  -3   8    3.57    0.19
   0  -3   8    3.52    0.19
  -1   3  -8    2.80    0.16
  -1   3  -8    2.62    0.21
  -1   3  -8    2.58    0.15
   1  -3   8    2.55    0.16
   1  -3   8    3.09    0.17
   1  -3   8    2.87    0.16
  -2   3  -8    4.77    0.19
  -2   3  -8    5.08    0.24
  -2   3  -8    4.68    0.18
  -2   3  -8    4.94    0.20
   2  -3   8    4.53    0.19
   2  -3   8    4.82    0.21
   2  -3   8    4.84    0.20
  -3   3  -8    0.62    0.08
  -3   3  -8    0.75    0.11
  -3   3  -8    0.58    0.08
  -3   3  -8    0.53    0.07
   3  -3   8    0.59    0.08
   3  -3   8    0.46    0.07
   3  -3   8    0.64    0.09
  -4   3  -8    0.49    0.08
  -4   3  -8    0.45    0.08
  -4   3  -8    0.55    0.11
   4  -3   8    0.51    0.08
   4  -3   8    0.51    0.08
  -5   3  -8    0.29    0.09
  -5   3  -8    0.42    0.08
  -5   3  -8    0.43    0.08
   5  -3   8    0.45    0.08
   5  -3   8    0.39    0.07
  -6   3  -8   -0.08    0.08
  -6   3  -8    0.14    0.07
  -6   3  -8    0.08    0.07
   6  -3   8    0.06    0.06
   6  -3   8    0.04    0.05
   6  -3   8    0.12    0.05
  -7   3  -8    1.74    0.17
  -7   3  -8    1.72    0.14
  -7   3  -8    1.48    0.15
   7  -3   8    1.62    0.12
   7  -3   8    1.40    0.11
   7  -3   8    1.77    0.13
  -8   3  -8    0.40    0.10
  -8   3  -8    0.39    0.11
  -8   3  -8    0.26    0.09
   8  -3   8    0.23    0.08
   8  -3   8    0.26    0.06
  -9   3  -8    2.37    0.22
  -9   3  -8    2.00    0.20
  -9   3  -8    1.95    0.18
   9  -3   8    1.99    0.14
   9  -3   8    2.07    0.16
 -10   3  -8    1.18    0.15
 -10   3  -8    0.69    0.12
  10  -3   8    0.76    0.10
  10  -3   8    0.73    0.09
 -11   3  -8    3.16    0.23
 -11   3  -8    3.20    0.28
  11  -3   8    3.63    0.20
  11  -3   8    3.37    0.17
  11  -3   8    3.00    0.30
 -12   3  -8    0.97    0.14
 -12   3  -8    0.78    0.18
  12  -3   8    0.78    0.09
  12  -3   8    0.55    0.18
  12  -3   8    0.79    0.12
   4   2  -8    0.22    0.11
   4   2  -8    0.21    0.09
  -4  -2   8   -0.02    0.10
   3   2  -8    1.95    0.15
   3   2  -8    2.12    0.18
  -3  -2   8    1.83    0.17
   2   2  -8    0.09    0.09
   2   2  -8    0.29    0.08
  -2  -2   8   -0.01    0.07
   1   2  -8   -0.04    0.07
   1   2  -8    0.02    0.06
  -1  -2   8    0.05    0.07
  -1  -2   8    0.02    0.09
   0   2  -8    0.18    0.07
   0   2  -8    0.19    0.07
   0  -2   8    0.32    0.08
   0  -2   8    0.17    0.06
   0  -2   8    0.21    0.07
  -1   2  -8    0.84    0.09
  -1   2  -8    0.78    0.08
  -1   2  -8    1.04    0.12
   1  -2   8    0.61    0.08
   1  -2   8    0.80    0.08
   1  -2   8    0.78    0.09
  -2   2  -8    0.02    0.06
  -2   2  -8   -0.03    0.08
  -2   2  -8    0.05    0.06
  -2   2  -8   -0.03    0.05
   2  -2   8    0.03    0.05
   2  -2   8   -0.12    0.05
   2  -2   8    0.03    0.06
  -3   2  -8    1.55    0.16
  -3   2  -8    1.65    0.11
  -3   2  -8    1.59    0.13
   3  -2   8    1.51    0.12
   3  -2   8    1.50    0.12
  -4   2  -8    2.44    0.17
  -4   2  -8    2.62    0.13
  -4   2  -8    2.55    0.15
   4  -2   8    2.52    0.14
   4  -2   8    2.67    0.14
  -5   2  -8    3.39    0.17
  -5   2  -8    3.27    0.15
  -5   2  -8    3.39    0.19
   5  -2   8    3.47    0.16
   5  -2   8    3.35    0.13
   5  -2   8    3.45    0.15
  -6   2  -8    4.22    0.18
  -6   2  -8    4.41    0.20
  -6   2  -8    4.21    0.22
   6  -2   8    4.25    0.17
   6  -2   8    4.35    0.15
   6  -2   8    4.30    0.18
  -7   2  -8    7.40    0.27
  -7   2  -8    7.71    0.27
  -7   2  -8    7.39    0.30
   7  -2   8    7.75    0.26
   7  -2   8    7.36    0.25
   7  -2   8    7.46    0.21
  -8   2  -8    4.72    0.22
  -8   2  -8    4.62    0.24
  -8   2  -8    4.47    0.21
   8  -2   8    4.75    0.19
   8  -2   8    4.57    0.18
  -9   2  -8    3.31    0.22
  -9   2  -8    3.09    0.18
  -9   2  -8    3.08    0.20
   9  -2   8    3.11    0.15
   9  -2   8    3.27    0.17
 -10   2  -8    3.01    0.20
 -10   2  -8    3.13    0.24
 -10   2  -8    3.42    0.25
  10  -2   8    3.03    0.17
  10  -2   8    2.81    0.15
  10  -2   8    3.19    0.25
 -11   2  -8    0.75    0.15
 -11   2  -8    0.85    0.13
  11  -2   8    0.76    0.10
  11  -2   8    1.10    0.16
  11  -2   8    1.10    0.10
 -12   2  -8    3.10    0.29
 -12   2  -8    3.41    0.25
  12  -2   8    2.99    0.29
  12  -2   8    3.53    0.16
   5   1  -8    0.57    0.10
   5   1  -8    0.77    0.13
   4   1  -8    3.64    0.18
   4   1  -8    3.64    0.22
  -4  -1   8    3.69    0.19
   3   1  -8    0.14    0.09
   3   1  -8    0.06    0.07
  -3  -1   8    0.04    0.08
   2   1  -8    3.08    0.17
   2   1  -8    3.28    0.16
  -2  -1   8    3.21    0.16
   1   1  -8    0.22    0.07
   1   1  -8    0.26    0.07
  -1  -1   8    0.35    0.07
  -1  -1   8    0.22    0.06
  -1  -1   8    0.25    0.09
   0   1  -8    1.17    0.12
   0   1  -8    0.99    0.11
   0  -1   8    1.02    0.10
   0  -1   8    1.04    0.12
   0  -1   8    0.87    0.10
  -1   1  -8    0.11    0.06
  -1   1  -8    0.15    0.06
  -1   1  -8    0.25    0.08
   1  -1   8    0.18    0.06
   1  -1   8    0.12    0.05
   1  -1   8    0.19    0.06
  -2   1  -8    6.64    0.23
  -2   1  -8    6.59    0.26
  -2   1  -8    6.41    0.21
   2  -1   8    6.57    0.22
   2  -1   8    6.69    0.22
  -3   1  -8   15.04    0.43
  -3   1  -8   15.32    0.42
  -3   1  -8   14.76    0.46
   3  -1   8   15.27    0.42
   3  -1   8   14.94    0.42
  -4   1  -8    0.06    0.06
  -4   1  -8    0.09    0.06
  -4   1  -8    0.10    0.07
   4  -1   8    0.04    0.05
   4  -1   8    0.04    0.05
   4  -1   8    0.09    0.04
  -5   1  -8    3.87    0.16
  -5   1  -8    3.85    0.20
  -5   1  -8    3.75    0.17
   5  -1   8    3.89    0.16
   5  -1   8    4.05    0.16
   5  -1   8    4.01    0.14
  -6   1  -8    1.25    0.13
  -6   1  -8    1.27    0.11
  -6   1  -8    1.02    0.11
   6  -1   8    1.35    0.09
   6  -1   8    1.20    0.10
   6  -1   8    1.18    0.11
  -7   1  -8    7.26    0.28
  -7   1  -8    7.16    0.26
  -7   1  -8    7.03    0.26
   7  -1   8    7.21    0.20
   7  -1   8    7.25    0.24
   7  -1   8    7.83    0.25
  -8   1  -8    3.32    0.18
  -8   1  -8    3.30    0.18
  -8   1  -8    3.50    0.20
   8  -1   8    3.51    0.15
   8  -1   8    3.31    0.16
  -9   1  -8    4.75    0.24
  -9   1  -8    4.76    0.21
  -9   1  -8    4.55    0.22
   9  -1   8    4.64    0.19
   9  -1   8    4.73    0.18
 -10   1  -8    2.75    0.19
 -10   1  -8    3.04    0.22
 -10   1  -8    2.76    0.21
  10  -1   8    3.05    0.14
  10  -1   8    2.71    0.16
  10  -1   8    2.97    0.22
 -11   1  -8    0.43    0.12
 -11   1  -8    0.30    0.11
  11  -1   8    0.39    0.12
  11  -1   8    0.28    0.09
  11  -1   8    0.31    0.06
 -12   1  -8    0.26    0.11
 -12   1  -8    0.37    0.13
  12  -1   8    0.21    0.06
  12  -1   8    0.23    0.14
 -13   1  -8    0.02    0.12
 -13   1  -8   -0.12    0.16
   5   0  -8    1.36    0.14
  -5   0   8    1.54    0.17
   4   0  -8    0.08    0.09
   4   0  -8    0.07    0.08
   3   0  -8    2.62    0.15
   3   0  -8    2.37    0.16
  -3   0   8    2.43    0.13
   2   0  -8    0.68    0.09
   2   0  -8    0.69    0.08
  -2   0   8    0.67    0.07
  -2   0   8    0.54    0.10
  -2   0   8    0.66    0.08
   1   0  -8    0.38    0.07
   1   0  -8    0.49    0.07
  -1   0   8    0.50    0.06
  -1   0   8    0.47    0.07
  -1   0   8    0.46    0.08
   0   0  -8   -0.04    0.05
   0   0  -8    0.00    0.05
   0   0   8   -0.11    0.05
   0   0   8   -0.05    0.06
  -1   0  -8    0.20    0.06
  -1   0  -8    0.26    0.06
   1   0   8    0.05    0.06
   1   0   8    0.15    0.05
  -2   0  -8    0.65    0.08
  -2   0  -8    0.73    0.07
  -2   0  -8    0.73    0.09
   2   0   8    0.72    0.08
   2   0   8    0.79    0.09
   2   0   8    0.52    0.07
  -3   0  -8   69.34    1.76
  -3   0  -8   69.42    1.74
  -3   0  -8   69.82    1.81
   3   0   8   70.38    1.73
   3   0   8   71.56    1.73
   3   0   8   69.38    1.70
  -4   0  -8   83.00    2.04
  -4   0  -8   80.14    2.11
  -4   0  -8   82.76    2.07
   4   0   8   83.12    2.03
   4   0   8   83.27    2.03
   4   0   8   83.90    1.99
  -5   0  -8   30.68    0.82
  -5   0  -8   31.35    0.85
  -5   0  -8   31.43    0.81
   5   0   8   30.92    0.80
   5   0   8   30.50    0.80
   5   0   8   31.77    0.77
  -6   0  -8   12.59    0.37
  -6   0  -8   12.77    0.40
  -6   0  -8   12.60    0.38
   6   0   8   12.44    0.36
   6   0   8   12.64    0.33
   6   0   8   12.53    0.36
  -7   0  -8   18.38    0.51
  -7   0  -8   18.41    0.52
  -7   0  -8   18.43    0.54
   7   0   8   18.21    0.46
   7   0   8   18.25    0.49
   7   0   8   18.23    0.50
  -8   0  -8    4.91    0.23
  -8   0  -8    4.84    0.21
  -8   0  -8    5.09    0.21
   8   0   8    5.13    0.18
   8   0   8    5.06    0.19
  -9   0  -8    1.30    0.15
  -9   0  -8    0.85    0.11
  -9   0  -8    1.11    0.12
   9   0   8    1.05    0.09
   9   0   8    1.11    0.12
 -10   0  -8    2.50    0.19
 -10   0  -8    2.31    0.17
 -10   0  -8    2.12    0.23
  10   0   8    2.23    0.19
  10   0   8    2.27    0.12
  10   0   8    2.32    0.15
 -11   0  -8    0.28    0.11
 -11   0  -8    0.26    0.09
  11   0   8    0.16    0.05
  11   0   8    0.09    0.11
 -12   0  -8    0.19    0.10
 -12   0  -8    0.07    0.12
  12   0   8    0.15    0.06
  12   0   8   -0.09    0.12
 -13   0  -8    0.08    0.12
 -13   0  -8    0.11    0.16
  13   0   8    0.24    0.16
  13   0   8    0.31    0.07
   6  -1  -8    0.66    0.12
  -6   1   8    0.80    0.11
   5  -1  -8   -0.01    0.09
  -5   1   8   -0.10    0.07
   4  -1  -8   -0.03    0.07
   4  -1  -8   -0.05    0.08
  -4   1   8   -0.04    0.07
  -4   1   8    0.17    0.07
   3  -1  -8    0.68    0.09
   3  -1  -8    0.59    0.08
  -3   1   8    0.64    0.08
  -3   1   8    0.70    0.09
   2  -1  -8    0.92    0.10
   2  -1  -8    1.09    0.12
  -2   1   8    0.91    0.11
  -2   1   8    0.71    0.08
  -2   1   8    1.00    0.09
   1  -1  -8    1.64    0.12
   1  -1  -8    1.46    0.12
  -1   1   8    1.38    0.13
  -1   1   8    1.60    0.11
  -1   1   8    1.54    0.11
   0  -1  -8    4.12    0.16
   0  -1  -8    3.66    0.23
   0  -1  -8    3.94    0.16
   0   1   8    3.72    0.15
   0   1   8    3.85    0.16
   0   1   8    4.00    0.15
  -1  -1  -8    0.19    0.06
  -1  -1  -8    0.18    0.06
  -1  -1  -8    0.21    0.11
   1   1   8    0.16    0.05
   1   1   8    0.24    0.05
   1   1   8    0.12    0.06
  -2  -1  -8   40.82    1.05
  -2  -1  -8   40.60    1.04
   2   1   8   41.37    1.02
   2   1   8   41.20    1.03
   2   1   8   41.47    1.03
  -3  -1  -8    1.52    0.11
  -3  -1  -8    1.96    0.12
  -3  -1  -8    1.75    0.15
   3   1   8    1.62    0.10
   3   1   8    1.87    0.10
   3   1   8    1.95    0.11
  -4  -1  -8   40.80    1.03
  -4  -1  -8   40.40    1.04
  -4  -1  -8   40.12    1.07
   4   1   8   40.81    0.99
   4   1   8   40.33    1.02
   4   1   8   40.47    1.02
  -5  -1  -8   18.27    0.51
  -5  -1  -8   18.11    0.53
  -5  -1  -8   18.11    0.50
   5   1   8   17.94    0.48
   5   1   8   18.35    0.46
   5   1   8   18.15    0.48
  -6  -1  -8    0.11    0.06
  -6  -1  -8    0.01    0.06
  -6  -1  -8   -0.01    0.05
   6   1   8    0.04    0.04
   6   1   8    0.08    0.04
   6   1   8    0.00    0.04
  -7  -1  -8    1.92    0.15
  -7  -1  -8    1.68    0.13
  -7  -1  -8    1.99    0.13
   7   1   8    1.90    0.11
   7   1   8    1.85    0.09
   7   1   8    1.99    0.10
  -8  -1  -8    1.99    0.16
  -8  -1  -8    1.92    0.14
  -8  -1  -8    1.77    0.14
   8   1   8    1.78    0.12
   8   1   8    1.80    0.10
  -9  -1  -8    0.03    0.07
  -9  -1  -8   -0.02    0.10
  -9  -1  -8    0.00    0.08
   9   1   8    0.02    0.07
   9   1   8    0.02    0.04
   9   1   8    0.01    0.05
 -10  -1  -8    1.50    0.17
 -10  -1  -8    1.30    0.16
 -10  -1  -8    1.40    0.15
  10   1   8    1.40    0.15
  10   1   8    1.14    0.09
 -11  -1  -8    4.63    0.24
 -11  -1  -8    4.55    0.24
  11   1   8    4.25    0.16
  11   1   8    4.31    0.23
 -12  -1  -8    0.12    0.10
 -12  -1  -8    0.39    0.13
  12   1   8    0.15    0.12
  12   1   8    0.22    0.06
 -13  -1  -8    0.90    0.15
  13   1   8    0.94    0.08
   6  -2  -8    0.21    0.11
  -6   2   8    0.04    0.09
   5  -2  -8    7.01    0.29
  -5   2   8    7.13    0.27
   4  -2  -8    2.05    0.14
   4  -2  -8    1.43    0.15
  -4   2   8    1.67    0.13
  -4   2   8    1.80    0.15
   3  -2  -8    2.61    0.15
   3  -2  -8    2.63    0.15
  -3   2   8    2.78    0.13
  -3   2   8    2.89    0.16
   2  -2  -8   -0.01    0.06
   2  -2  -8    0.00    0.06
  -2   2   8    0.02    0.05
  -2   2   8    0.11    0.07
  -2   2   8    0.07    0.05
   1  -2  -8   10.34    0.32
   1  -2  -8   10.71    0.32
  -1   2   8   10.78    0.30
  -1   2   8   10.95    0.32
  -1   2   8   10.51    0.31
   0  -2  -8    7.12    0.23
   0  -2  -8    7.05    0.26
   0  -2  -8    7.03    0.23
   0   2   8    7.04    0.21
   0   2   8    7.04    0.23
   0   2   8    6.79    0.22
  -1  -2  -8    0.20    0.10
  -1  -2  -8    0.32    0.07
  -1  -2  -8    0.22    0.06
   1   2   8    0.30    0.05
   1   2   8    0.26    0.05
   1   2   8    0.25    0.06
  -2  -2  -8    9.27    0.28
  -2  -2  -8    9.26    0.29
   2   2   8    9.39    0.26
   2   2   8    9.20    0.26
   2   2   8    9.14    0.27
  -3  -2  -8   24.58    0.65
  -3  -2  -8   24.70    0.65
   3   2   8   24.27    0.63
   3   2   8   24.96    0.63
   3   2   8   24.16    0.62
  -4  -2  -8   44.96    1.16
  -4  -2  -8   44.06    1.18
  -4  -2  -8   45.42    1.14
   4   2   8   45.48    1.10
   4   2   8   44.91    1.12
   4   2   8   45.06    1.12
  -5  -2  -8    6.29    0.24
  -5  -2  -8    6.35    0.22
  -5  -2  -8    6.15    0.22
   5   2   8    6.24    0.18
   5   2   8    6.08    0.20
  -6  -2  -8    3.22    0.17
  -6  -2  -8    3.31    0.16
  -6  -2  -8    3.17    0.15
   6   2   8    3.13    0.12
   6   2   8    3.27    0.13
   6   2   8    3.08    0.13
  -7  -2  -8    0.10    0.06
  -7  -2  -8    0.03    0.07
  -7  -2  -8    0.19    0.07
   7   2   8    0.07    0.04
   7   2   8    0.13    0.04
   7   2   8    0.11    0.05
  -8  -2  -8    1.96    0.14
  -8  -2  -8    1.99    0.15
  -8  -2  -8    2.11    0.15
   8   2   8    2.07    0.10
   8   2   8    2.11    0.09
   8   2   8    2.05    0.12
  -9  -2  -8    0.38    0.12
  -9  -2  -8    0.31    0.08
  -9  -2  -8    0.35    0.08
   9   2   8    0.35    0.05
   9   2   8    0.41    0.07
 -10  -2  -8    0.76    0.11
 -10  -2  -8    0.81    0.10
 -10  -2  -8    0.77    0.15
  10   2   8    0.62    0.09
  10   2   8    0.89    0.08
 -11  -2  -8    0.42    0.11
 -11  -2  -8    0.39    0.10
  11   2   8    0.33    0.06
  11   2   8    0.44    0.10
 -12  -2  -8    4.22    0.24
 -12  -2  -8    4.15    0.24
  12   2   8    3.57    0.15
 -13  -2  -8    0.54    0.15
  13   2   8    0.34    0.07
   6  -3  -8    0.14    0.11
  -6   3   8    0.29    0.09
   5  -3  -8    5.25    0.25
  -5   3   8    5.45    0.23
   4  -3  -8    0.18    0.08
   4  -3  -8    0.19    0.08
  -4   3   8    0.22    0.06
   3  -3  -8    0.10    0.07
   3  -3  -8    0.20    0.07
  -3   3   8    0.17    0.06
  -3   3   8    0.25    0.06
   2  -3  -8    0.82    0.09
   2  -3  -8    0.69    0.08
  -2   3   8    0.87    0.09
  -2   3   8    0.94    0.10
  -2   3   8    0.80    0.08
   1  -3  -8    0.65    0.08
   1  -3  -8    0.72    0.10
   1  -3  -8    0.56    0.08
   1  -3  -8    0.65    0.06
  -1   3   8    0.75    0.08
  -1   3   8    0.71    0.07
  -1   3   8    0.59    0.07
   0  -3  -8   33.25    0.83
   0  -3  -8   34.20    0.86
   0  -3  -8   33.34    0.86
   0  -3  -8   32.25    0.86
   0   3   8   33.74    0.84
   0   3   8   33.75    0.83
   0   3   8   33.87    0.84
  -1  -3  -8    7.78    0.26
  -1  -3  -8    7.81    0.25
  -1  -3  -8    7.98    0.25
  -1  -3  -8    7.86    0.24
   1   3   8    8.00    0.22
   1   3   8    7.94    0.24
   1   3   8    8.00    0.24
   1   3   8    7.27    0.24
  -2  -3  -8   17.79    0.50
  -2  -3  -8   17.99    0.50
   2   3   8   18.11    0.47
   2   3   8   18.62    0.47
   2   3   8   18.28    0.48
  -3  -3  -8    9.32    0.29
  -3  -3  -8    8.87    0.28
   3   3   8    9.09    0.26
   3   3   8    9.36    0.27
   3   3   8    9.06    0.26
  -4  -3  -8    7.25    0.25
  -4  -3  -8    7.56    0.25
   4   3   8    7.53    0.22
   4   3   8    7.34    0.22
   4   3   8    7.35    0.21
  -5  -3  -8    8.63    0.28
  -5  -3  -8    8.75    0.28
   5   3   8    9.09    0.25
   5   3   8    8.83    0.26
   5   3   8    8.72    0.26
  -6  -3  -8    0.30    0.07
  -6  -3  -8    0.42    0.07
  -6  -3  -8    0.21    0.07
   6   3   8    0.27    0.05
   6   3   8    0.21    0.05
   6   3   8    0.25    0.04
  -7  -3  -8    6.02    0.23
  -7  -3  -8    6.12    0.23
  -7  -3  -8    6.14    0.23
   7   3   8    5.93    0.19
   7   3   8    5.96    0.18
   7   3   8    6.01    0.20
  -8  -3  -8    0.37    0.09
  -8  -3  -8    0.46    0.08
  -8  -3  -8    0.18    0.07
   8   3   8    0.30    0.05
   8   3   8    0.33    0.05
   8   3   8    0.39    0.06
  -9  -3  -8    0.43    0.12
  -9  -3  -8    0.36    0.09
  -9  -3  -8    0.43    0.09
   9   3   8    0.31    0.05
   9   3   8    0.43    0.07
   9   3   8    0.32    0.05
 -10  -3  -8    0.25    0.15
 -10  -3  -8    0.26    0.10
  10   3   8    0.21    0.07
  10   3   8    0.12    0.05
 -11  -3  -8    5.14    0.26
  11   3   8    4.82    0.18
 -12  -3  -8    0.21    0.12
  12   3   8    0.14    0.06
 -13  -3  -8    1.56    0.18
  13   3   8    1.77    0.12
   6  -4  -8    0.31    0.11
  -6   4   8    0.21    0.09
   5  -4  -8    0.20    0.09
  -5   4   8    0.19    0.08
   4  -4  -8    0.75    0.10
   4  -4  -8    0.76    0.09
  -4   4   8    0.70    0.08
   3  -4  -8    0.96    0.11
   3  -4  -8    0.69    0.09
  -3   4   8    0.65    0.08
   2  -4  -8    3.44    0.16
   2  -4  -8    3.42    0.16
  -2   4   8    3.34    0.15
  -2   4   8    3.35    0.15
   1  -4  -8    2.17    0.14
   1  -4  -8    2.04    0.12
   1  -4  -8    2.07    0.16
  -1   4   8    2.02    0.08
  -1   4   8    1.80    0.14
  -1   4   8    2.00    0.12
  -1   4   8    1.86    0.12
   0  -4  -8   12.22    0.36
   0  -4  -8   12.03    0.32
   0  -4  -8   11.18    0.35
   0  -4  -8   12.16    0.36
   0   4   8   12.70    0.36
   0   4   8   12.31    0.33
   0   4   8   12.27    0.32
   0   4   8   11.79    0.34
  -1  -4  -8    3.15    0.15
  -1  -4  -8    3.19    0.14
  -1  -4  -8    3.31    0.16
  -1  -4  -8    2.98    0.16
   1   4   8    3.00    0.13
   1   4   8    3.20    0.13
   1   4   8    3.27    0.11
  -2  -4  -8   -0.02    0.06
  -2  -4  -8    0.02    0.06
  -2  -4  -8   -0.05    0.06
   2   4   8    0.07    0.04
   2   4   8    0.07    0.04
   2   4   8    0.04    0.04
  -3  -4  -8    7.91    0.26
  -3  -4  -8    7.64    0.26
   3   4   8    7.92    0.23
   3   4   8    7.73    0.23
   3   4   8    7.59    0.22
  -4  -4  -8    0.86    0.10
  -4  -4  -8    1.11    0.11
   4   4   8    0.88    0.07
   4   4   8    0.93    0.08
   4   4   8    0.88    0.08
   4   4   8    0.86    0.10
  -5  -4  -8    0.17    0.07
  -5  -4  -8    0.21    0.07
   5   4   8    0.28    0.06
   5   4   8    0.19    0.04
   5   4   8    0.15    0.04
  -6  -4  -8    0.21    0.07
  -6  -4  -8    0.15    0.06
   6   4   8    0.15    0.04
   6   4   8    0.14    0.04
   6   4   8    0.17    0.05
  -7  -4  -8    3.27    0.18
  -7  -4  -8    3.18    0.17
   7   4   8    3.17    0.12
   7   4   8    2.97    0.13
  -8  -4  -8    0.77    0.11
  -8  -4  -8    0.79    0.10
   8   4   8    0.85    0.08
   8   4   8    0.94    0.08
  -9  -4  -8    0.09    0.12
  -9  -4  -8    0.16    0.08
   9   4   8    0.20    0.06
   9   4   8    0.08    0.04
 -10  -4  -8    6.39    0.27
 -10  -4  -8    6.09    0.34
  10   4   8    5.97    0.20
 -11  -4  -8    2.90    0.22
  11   4   8    2.61    0.13
 -12  -4  -8    5.76    0.31
  12   4   8    5.77    0.20
 -13  -4  -8    3.41    0.29
  13   4   8    3.10    0.15
   6  -5  -8    1.01    0.14
  -6   5   8    0.83    0.11
   5  -5  -8   -0.05    0.08
  -5   5   8    0.04    0.07
   4  -5  -8    1.18    0.14
   4  -5  -8    1.50    0.14
  -4   5   8    1.38    0.12
   3  -5  -8    1.17    0.10
   3  -5  -8    1.22    0.13
  -3   5   8    1.30    0.11
   2  -5  -8    2.49    0.14
   2  -5  -8    2.31    0.15
  -2   5   8    2.43    0.13
  -2   5   8    2.42    0.14
   1  -5  -8    4.83    0.18
   1  -5  -8    4.63    0.20
   1  -5  -8    4.95    0.20
  -1   5   8    4.57    0.17
  -1   5   8    4.68    0.17
   0  -5  -8    6.17    0.22
   0  -5  -8    5.76    0.21
   0  -5  -8    5.78    0.22
   0   5   8    5.96    0.20
   0   5   8    6.18    0.20
  -1  -5  -8    7.94    0.26
  -1  -5  -8    7.45    0.25
  -1  -5  -8    7.78    0.22
  -1  -5  -8    7.81    0.26
   1   5   8    7.92    0.24
  -2  -5  -8   -0.02    0.06
  -2  -5  -8   -0.09    0.06
  -2  -5  -8   -0.10    0.06
   2   5   8    0.02    0.04
   2   5   8   -0.01    0.04
  -3  -5  -8    2.97    0.16
  -3  -5  -8    2.99    0.15
   3   5   8    3.10    0.12
   3   5   8    2.79    0.12
   3   5   8    2.79    0.13
  -4  -5  -8    1.59    0.12
  -4  -5  -8    1.51    0.13
   4   5   8    1.51    0.09
   4   5   8    1.52    0.09
   4   5   8    1.43    0.09
  -5  -5  -8    0.98    0.11
  -5  -5  -8    0.85    0.10
   5   5   8    0.92    0.08
   5   5   8    0.91    0.08
  -6  -5  -8   13.34    0.42
  -6  -5  -8   13.80    0.41
   6   5   8   13.65    0.37
   6   5   8   13.73    0.36
  -7  -5  -8    5.58    0.23
  -7  -5  -8    5.74    0.24
   7   5   8    5.54    0.18
   7   5   8    5.60    0.18
  -8  -5  -8    1.68    0.18
  -8  -5  -8    1.52    0.15
   8   5   8    1.62    0.10
   8   5   8    1.69    0.10
  -9  -5  -8    1.75    0.16
  -9  -5  -8    1.47    0.17
   9   5   8    1.48    0.10
   9   5   8    1.65    0.10
 -10  -5  -8    3.67    0.23
 -10  -5  -8    4.07    0.31
  10   5   8    3.79    0.15
 -11  -5  -8    6.49    0.31
  11   5   8    6.31    0.21
 -12  -5  -8    1.37    0.17
  12   5   8    1.28    0.11
 -13  -5  -8    2.14    0.23
  13   5   8    2.36    0.13
   6  -6  -8    0.15    0.11
  -6   6   8   -0.11    0.08
   5  -6  -8    2.60    0.19
  -5   6   8    2.54    0.17
   4  -6  -8    0.60    0.10
   4  -6  -8    0.72    0.10
  -4   6   8    0.41    0.07
   3  -6  -8    1.52    0.14
   3  -6  -8    1.61    0.14
  -3   6   8    1.64    0.12
   2  -6  -8    1.31    0.12
   2  -6  -8    1.15    0.13
  -2   6   8    1.14    0.12
  -2   6   8    1.29    0.10
   1  -6  -8    5.55    0.20
   1  -6  -8    5.75    0.22
  -1   6   8    5.43    0.19
  -1   6   8    5.63    0.20
   0  -6  -8   16.43    0.47
   0  -6  -8   15.89    0.45
   0  -6  -8   16.76    0.48
   0   6   8   16.40    0.44
   0   6   8   16.74    0.44
  -1  -6  -8    0.52    0.09
  -1  -6  -8    0.43    0.09
  -1  -6  -8    0.40    0.08
  -1  -6  -8    0.45    0.05
  -1  -6  -8    0.53    0.06
   1   6   8    0.37    0.06
   1   6   8    0.38    0.06
  -2  -6  -8    1.88    0.14
  -2  -6  -8    2.28    0.14
   2   6   8    2.42    0.11
   2   6   8    2.06    0.11
  -3  -6  -8    5.70    0.22
  -3  -6  -8    5.70    0.22
   3   6   8    5.67    0.18
   3   6   8    5.67    0.18
   3   6   8    5.80    0.19
  -4  -6  -8    2.75    0.16
  -4  -6  -8    2.11    0.14
   4   6   8    1.92    0.10
   4   6   8    2.07    0.10
  -5  -6  -8    2.80    0.16
  -5  -6  -8    2.87    0.17
   5   6   8    2.82    0.12
   5   6   8    2.74    0.12
  -6  -6  -8   49.07    1.26
  -6  -6  -8   48.43    1.29
   6   6   8   49.00    1.19
   6   6   8   48.56    1.22
  -7  -6  -8    6.69    0.27
  -7  -6  -8    6.81    0.27
   7   6   8    6.72    0.21
   7   6   8    6.48    0.21
  -8  -6  -8   12.14    0.40
  -8  -6  -8   11.93    0.40
   8   6   8   11.80    0.33
   8   6   8   11.87    0.34
  -9  -6  -8    0.19    0.12
  -9  -6  -8    0.34    0.10
   9   6   8    0.32    0.06
   9   6   8    0.37    0.07
 -10  -6  -8   11.68    0.47
 -10  -6  -8   12.58    0.44
  10   6   8   12.55    0.35
 -11  -6  -8    5.75    0.30
  11   6   8    4.80    0.19
 -12  -6  -8    2.77    0.21
 -12  -6  -8    2.73    0.27
  12   6   8    2.93    0.15
   6  -7  -8    0.03    0.11
  -6   7   8    0.01    0.09
   5  -7  -8    0.01    0.09
   5  -7  -8    0.13    0.07
   5  -7  -8    0.04    0.14
  -5   7   8   -0.03    0.07
   4  -7  -8    1.08    0.15
   4  -7  -8    1.51    0.15
   4  -7  -8    1.34    0.15
  -4   7   8    1.16    0.10
   3  -7  -8    0.46    0.11
   3  -7  -8    0.54    0.09
   3  -7  -8    0.40    0.08
  -3   7   8    0.44    0.07
   2  -7  -8    2.42    0.14
   2  -7  -8    2.19    0.16
   2  -7  -8    2.29    0.19
  -2   7   8    2.25    0.13
  -2   7   8    2.14    0.15
   1  -7  -8    0.03    0.08
   1  -7  -8    0.05    0.07
  -1   7   8   -0.02    0.06
  -1   7   8   -0.03    0.04
   0  -7  -8    0.71    0.09
   0  -7  -8    0.85    0.10
   0   7   8    0.66    0.07
   0   7   8    0.70    0.08
  -1  -7  -8   24.98    0.67
  -1  -7  -8   24.02    0.61
  -1  -7  -8   24.67    0.61
  -1  -7  -8   25.00    0.68
   1   7   8   21.61    0.62
   1   7   8   25.65    0.63
  -2  -7  -8    0.62    0.09
  -2  -7  -8    0.76    0.10
  -2  -7  -8    0.64    0.06
   2   7   8    0.60    0.06
   2   7   8    0.62    0.06
  -3  -7  -8    1.28    0.14
  -3  -7  -8    1.36    0.14
  -3  -7  -8    1.28    0.09
   3   7   8    1.25    0.09
   3   7   8    1.38    0.10
  -4  -7  -8    5.17    0.22
  -4  -7  -8    5.09    0.22
   4   7   8    5.03    0.18
   4   7   8    4.93    0.17
  -5  -7  -8    2.87    0.19
  -5  -7  -8    2.91    0.18
   5   7   8    2.93    0.13
   5   7   8    3.09    0.13
  -6  -7  -8    0.13    0.08
  -6  -7  -8    0.10    0.09
   6   7   8    0.16    0.05
   6   7   8    0.14    0.05
  -7  -7  -8   11.33    0.39
  -7  -7  -8   11.11    0.39
   7   7   8   11.17    0.32
   7   7   8   11.48    0.33
  -8  -7  -8    1.65    0.17
  -8  -7  -8    1.41    0.15
   8   7   8    1.31    0.10
   8   7   8    1.44    0.11
  -9  -7  -8    2.82    0.24
  -9  -7  -8    2.31    0.21
   9   7   8    2.83    0.13
   9   7   8    2.67    0.15
 -10  -7  -8    0.20    0.09
 -10  -7  -8   -0.02    0.11
  10   7   8    0.13    0.06
 -11  -7  -8    2.07    0.25
 -11  -7  -8    2.13    0.18
  11   7   8    2.28    0.13
 -12  -7  -8    0.82    0.12
 -12  -7  -8    1.08    0.18
  12   7   8    0.61    0.08
   6  -8  -8    0.60    0.18
   6  -8  -8    0.50    0.13
  -6   8   8    0.66    0.11
   5  -8  -8   -0.13    0.13
   5  -8  -8    0.16    0.09
   5  -8  -8    0.20    0.10
  -5   8   8    0.12    0.08
   4  -8  -8    6.70    0.27
   4  -8  -8    6.92    0.27
   4  -8  -8    7.04    0.33
  -4   8   8    6.99    0.25
   3  -8  -8    1.50    0.15
   3  -8  -8    1.23    0.12
   3  -8  -8    1.41    0.15
  -3   8   8    1.44    0.13
   2  -8  -8   22.42    0.63
   2  -8  -8   22.58    0.61
   2  -8  -8   22.55    0.64
  -2   8   8   22.87    0.60
  -2   8   8   21.26    0.59
   1  -8  -8    0.63    0.10
   1  -8  -8    0.75    0.10
  -1   8   8    0.71    0.09
  -1   8   8    0.63    0.07
   0  -8  -8    7.76    0.27
   0  -8  -8    7.81    0.29
   0  -8  -8    8.15    0.30
   0   8   8    7.92    0.25
   0   8   8    7.80    0.26
  -1  -8  -8    0.19    0.07
  -1  -8  -8    0.18    0.09
  -1  -8  -8    0.19    0.05
  -1  -8  -8    0.23    0.08
   1   8   8    0.23    0.06
   1   8   8    0.17    0.05
  -2  -8  -8   13.57    0.37
  -2  -8  -8   13.47    0.43
  -2  -8  -8   13.49    0.43
   2   8   8   13.52    0.38
   2   8   8   13.83    0.38
  -3  -8  -8    4.14    0.21
  -3  -8  -8    4.16    0.15
  -3  -8  -8    4.29    0.21
   3   8   8    4.08    0.16
   3   8   8    3.97    0.16
  -4  -8  -8   -0.11    0.07
  -4  -8  -8    0.03    0.05
  -4  -8  -8    0.05    0.08
   4   8   8   -0.02    0.05
   4   8   8   -0.07    0.04
  -5  -8  -8    0.07    0.09
  -5  -8  -8    0.08    0.08
  -5  -8  -8    0.05    0.05
   5   8   8    0.06    0.05
   5   8   8    0.01    0.05
  -6  -8  -8    4.59    0.24
  -6  -8  -8    4.22    0.23
  -6  -8  -8    4.22    0.18
   6   8   8    4.42    0.17
   6   8   8    4.31    0.17
  -7  -8  -8    0.78    0.11
  -7  -8  -8    0.57    0.13
  -7  -8  -8    0.74    0.09
   7   8   8    0.73    0.08
   7   8   8    0.77    0.09
  -8  -8  -8    6.31    0.29
  -8  -8  -8    6.05    0.24
  -8  -8  -8    5.80    0.30
   8   8   8    6.18    0.21
   8   8   8    6.12    0.22
  -9  -8  -8    0.69    0.16
  -9  -8  -8    0.59    0.09
  -9  -8  -8    0.43    0.13
   9   8   8    0.43    0.08
   9   8   8    0.50    0.07
 -10  -8  -8    2.55    0.25
 -10  -8  -8    2.30    0.19
  10   8   8    2.52    0.14
 -11  -8  -8    0.94    0.18
 -11  -8  -8    0.91    0.13
  11   8   8    1.12    0.11
   6  -9  -8    0.60    0.19
   6  -9  -8    0.72    0.14
  -6   9   8    0.57    0.11
   5  -9  -8    0.32    0.10
   5  -9  -8    0.47    0.12
   5  -9  -8    0.36    0.16
  -5   9   8    0.51    0.10
   4  -9  -8    5.63    0.33
   4  -9  -8    6.20    0.26
   4  -9  -8    6.23    0.26
  -4   9   8    5.85    0.24
   3  -9  -8    2.56    0.23
   3  -9  -8    2.82    0.18
   3  -9  -8    2.85    0.20
  -3   9   8    2.79    0.17
   2  -9  -8    2.41    0.16
   2  -9  -8    2.29    0.20
   2  -9  -8    2.29    0.18
  -2   9   8    2.27    0.15
  -2   9   8    2.12    0.18
   1  -9  -8    4.30    0.22
   1  -9  -8    4.30    0.22
   1  -9  -8    4.10    0.18
  -1   9   8    3.87    0.20
  -1   9   8    4.24    0.18
   0  -9  -8    0.29    0.09
   0  -9  -8    0.16    0.08
   0  -9  -8    0.12    0.08
   0   9   8    0.33    0.06
   0   9   8    0.27    0.07
  -1  -9  -8    3.79    0.21
  -1  -9  -8    3.97    0.22
  -1  -9  -8    3.76    0.15
  -1  -9  -8    3.40    0.17
   1   9   8    3.92    0.16
   1   9   8    3.76    0.16
  -2  -9  -8    6.41    0.28
  -2  -9  -8    6.21    0.21
  -2  -9  -8    6.14    0.27
   2   9   8    6.23    0.22
   2   9   8    6.24    0.22
  -3  -9  -8    3.10    0.14
  -3  -9  -8    2.86    0.20
  -3  -9  -8    3.39    0.21
   3   9   8    2.92    0.14
   3   9   8    3.03    0.15
  -4  -9  -8    0.97    0.12
  -4  -9  -8    1.25    0.11
  -4  -9  -8    0.87    0.12
   4   9   8    0.94    0.10
   4   9   8    1.01    0.10
  -5  -9  -8    1.02    0.13
  -5  -9  -8    0.87    0.09
  -5  -9  -8    0.89    0.14
   5   9   8    0.75    0.08
   5   9   8    0.98    0.10
  -6  -9  -8    1.91    0.14
  -6  -9  -8    1.97    0.19
  -6  -9  -8    1.93    0.20
   6   9   8    1.90    0.12
   6   9   8    2.12    0.13
  -7  -9  -8    2.48    0.16
  -7  -9  -8    2.56    0.24
  -7  -9  -8    2.36    0.21
   7   9   8    2.49    0.14
   7   9   8    2.57    0.15
  -8  -9  -8    4.45    0.22
  -8  -9  -8    4.46    0.27
  -8  -9  -8    3.79    0.29
   8   9   8    4.37    0.18
   8   9   8    4.37    0.20
  -9  -9  -8    0.88    0.11
  -9  -9  -8    0.69    0.17
  -9  -9  -8    0.87    0.16
   9   9   8    0.79    0.09
   9   9   8    0.85    0.10
 -10  -9  -8    3.35    0.22
 -10  -9  -8    3.55    0.29
  10   9   8    3.36    0.16
 -11  -9  -8    0.03    0.11
 -11  -9  -8   -0.20    0.16
  11   9   8   -0.04    0.07
   5 -10  -8    0.08    0.13
   5 -10  -8   -0.11    0.16
   5 -10  -8    0.10    0.10
  -5  10   8    0.02    0.10
   4 -10  -8    2.25    0.20
   4 -10  -8    1.56    0.19
   4 -10  -8    2.34    0.28
  -4  10   8    2.08    0.19
   3 -10  -8    1.30    0.16
   3 -10  -8    1.49    0.17
   3 -10  -8    1.41    0.14
  -3  10   8    1.58    0.16
   2 -10  -8    2.05    0.16
   2 -10  -8    2.17    0.20
   2 -10  -8    2.51    0.22
  -2  10   8    2.26    0.16
   1 -10  -8    0.06    0.09
   1 -10  -8    0.07    0.09
   1 -10  -8    0.08    0.07
  -1  10   8    0.03    0.06
  -1  10   8    0.01    0.07
   0 -10  -8    0.02    0.07
   0 -10  -8    0.14    0.09
   0 -10  -8    0.12    0.09
   0  10   8    0.03    0.07
   0  10   8    0.03    0.06
  -1 -10  -8    0.09    0.09
  -1 -10  -8    0.21    0.10
  -1 -10  -8    0.06    0.08
  -1 -10  -8    0.05    0.06
   1  10   8    0.03    0.06
   1  10   8    0.10    0.06
  -2 -10  -8    0.23    0.11
  -2 -10  -8    0.27    0.07
  -2 -10  -8    0.19    0.10
  -2 -10  -8    0.41    0.07
   2  10   8    0.28    0.07
   2  10   8    0.35    0.07
  -3 -10  -8   -0.04    0.10
  -3 -10  -8   -0.05    0.06
  -3 -10  -8    0.07    0.10
   3  10   8   -0.02    0.05
   3  10   8    0.01    0.06
  -4 -10  -8    0.11    0.07
  -4 -10  -8    0.23    0.11
  -4 -10  -8    0.04    0.10
   4  10   8    0.13    0.06
   4  10   8    0.16    0.06
  -5 -10  -8    0.22    0.08
  -5 -10  -8    0.19    0.11
  -5 -10  -8    0.14    0.11
   5  10   8    0.12    0.06
   5  10   8    0.14    0.07
  -6 -10  -8    4.98    0.23
  -6 -10  -8    5.48    0.30
  -6 -10  -8    5.26    0.28
   6  10   8    5.29    0.21
   6  10   8    5.24    0.20
  -7 -10  -8    8.26    0.37
  -7 -10  -8    8.37    0.31
  -7 -10  -8    8.15    0.37
   7  10   8    8.39    0.28
   7  10   8    7.85    0.27
  -8 -10  -8    5.85    0.35
  -8 -10  -8    5.83    0.33
  -8 -10  -8    6.37    0.27
   8  10   8    6.34    0.25
   8  10   8    5.31    0.22
  -9 -10  -8    1.10    0.14
  -9 -10  -8    1.19    0.19
   9  10   8    0.83    0.09
 -10 -10  -8    6.27    0.30
 -10 -10  -8    6.28    0.38
  10  10   8    5.84    0.23
   4 -11  -8    0.42    0.13
   4 -11  -8    0.50    0.17
   4 -11  -8    0.38    0.12
  -4  11   8    0.52    0.12
   3 -11  -8    2.22    0.21
   3 -11  -8    1.94    0.18
   3 -11  -8    1.98    0.19
  -3  11   8    1.76    0.18
   2 -11  -8    0.16    0.11
   2 -11  -8    0.07    0.09
   2 -11  -8    0.23    0.12
  -2  11   8   -0.01    0.08
   1 -11  -8    0.20    0.11
   1 -11  -8    0.19    0.11
   1 -11  -8    0.14    0.08
  -1  11   8    0.06    0.07
  -1  11   8    0.11    0.09
   0 -11  -8    0.23    0.10
   0 -11  -8    0.20    0.08
   0 -11  -8    0.30    0.11
   0  11   8    0.17    0.09
   0  11   8    0.32    0.08
  -1 -11  -8    0.12    0.11
  -1 -11  -8    0.14    0.09
  -1 -11  -8    0.16    0.10
  -1 -11  -8    0.04    0.07
   1  11   8    0.06    0.06
   1  11   8    0.05    0.08
  -2 -11  -8    0.18    0.11
  -2 -11  -8    0.11    0.08
  -2 -11  -8    0.22    0.12
  -2 -11  -8    0.19    0.08
   2  11   8    0.08    0.07
   2  11   8    0.18    0.07
  -3 -11  -8    1.98    0.16
  -3 -11  -8    2.35    0.24
  -3 -11  -8    2.09    0.22
   3  11   8    2.07    0.15
   3  11   8    2.11    0.14
  -4 -11  -8    0.03    0.12
  -4 -11  -8   -0.02    0.08
  -4 -11  -8   -0.02    0.12
   4  11   8   -0.08    0.06
   4  11   8    0.06    0.07
  -5 -11  -8    2.72    0.19
  -5 -11  -8    2.47    0.25
  -5 -11  -8    2.29    0.26
   5  11   8    2.82    0.16
   5  11   8    2.61    0.16
  -6 -11  -8   -0.01    0.09
  -6 -11  -8    0.01    0.14
  -6 -11  -8    0.18    0.13
   6  11   8   -0.01    0.07
   6  11   8    0.14    0.09
   6  11   8    0.06    0.07
  -7 -11  -8    2.23    0.20
  -7 -11  -8    2.34    0.26
  -7 -11  -8    1.95    0.22
   7  11   8    2.25    0.17
   7  11   8    2.13    0.15
  -8 -11  -8    3.34    0.37
  -8 -11  -8    2.83    0.22
  -8 -11  -8    2.38    0.29
   8  11   8    2.55    0.16
   8  11   8    3.30    0.21
  -9 -11  -8    0.34    0.17
  -9 -11  -8    0.32    0.12
   9  11   8    0.39    0.08
   3 -12  -8   -0.03    0.12
   3 -12  -8    0.26    0.16
  -3  12   8    0.29    0.12
  -3  12   8    0.05    0.10
   2 -12  -8    2.95    0.29
   2 -12  -8    2.98    0.23
  -2  12   8    2.72    0.20
   1 -12  -8    0.00    0.10
   1 -12  -8    0.07    0.13
   1 -12  -8    0.26    0.12
  -1  12   8   -0.01    0.08
   0 -12  -8    0.31    0.12
   0 -12  -8    0.22    0.11
   0  12   8    0.15    0.10
   0  12   8    0.17    0.08
  -1 -12  -8    0.06    0.09
  -1 -12  -8   -0.03    0.11
  -1 -12  -8    0.08    0.11
   1  12   8    0.02    0.07
   1  12   8   -0.11    0.08
  -2 -12  -8    2.18    0.18
  -2 -12  -8    2.40    0.26
  -2 -12  -8    2.71    0.25
   2  12   8    2.59    0.18
   2  12   8    2.48    0.16
  -3 -12  -8    1.56    0.19
  -3 -12  -8    1.51    0.14
  -3 -12  -8    1.79    0.20
   3  12   8    1.54    0.16
   3  12   8    1.59    0.15
  -4 -12  -8    1.34    0.14
  -4 -12  -8    1.22    0.19
  -4 -12  -8    1.52    0.19
   4  12   8    1.51    0.16
   4  12   8    1.08    0.11
   4  12   8    1.32    0.13
  -5 -12  -8    4.13    0.31
  -5 -12  -8    3.84    0.33
  -5 -12  -8    4.38    0.23
   5  12   8    3.94    0.20
   5  12   8    3.84    0.23
   5  12   8    4.05    0.20
  -6 -12  -8    0.53    0.12
  -6 -12  -8    0.65    0.18
  -6 -12  -8    0.82    0.19
   6  12   8    0.70    0.10
   6  12   8    0.90    0.11
  -7 -12  -8    4.85    0.35
  -7 -12  -8    4.60    0.39
  -7 -12  -8    4.67    0.27
   7  12   8    5.00    0.25
   7  12   8    4.87    0.22
  -8 -12  -8    0.63    0.15
  -8 -12  -8    0.19    0.19
   8  12   8    0.46    0.09
   2 -13  -8    0.50    0.14
   2 -13  -8    0.53    0.18
  -2  13   8    0.54    0.11
  -2  13   8    0.29    0.14
   1 -13  -8    0.05    0.15
   1 -13  -8    0.15    0.14
  -1  13   8   -0.07    0.09
  -1  13   8   -0.04    0.12
   0 -13  -8    0.29    0.14
   0  13   8    0.11    0.12
   0  13   8   -0.12    0.12
   0  13   8    0.16    0.08
  -1 -13  -8    0.91    0.15
  -1 -13  -8    0.85    0.13
   1  13   8    0.66    0.10
   1  13   8    0.65    0.13
   1  13   8    0.81    0.13
  -2 -13  -8    0.23    0.15
  -2 -13  -8    0.21    0.11
   2  13   8   -0.02    0.11
   2  13   8    0.21    0.09
   2  13   8   -0.06    0.10
  -3 -13  -8    3.77    0.32
  -3 -13  -8    3.81    0.25
  -3 -13  -8    3.95    0.33
   3  13   8    3.60    0.23
   3  13   8    3.64    0.25
   3  13   8    3.52    0.20
  -4 -13  -8    0.70    0.18
  -4 -13  -8    0.49    0.13
  -4 -13  -8    0.86    0.19
   4  13   8    0.59    0.09
   4  13   8    0.58    0.11
   4  13   8    0.59    0.13
  -5 -13  -8    2.08    0.23
  -5 -13  -8    1.82    0.17
  -5 -13  -8    1.83    0.23
   5  13   8    2.05    0.18
   5  13   8    2.02    0.22
   5  13   8    1.38    0.14
  -6 -13  -8    0.07    0.19
  -6 -13  -8    0.25    0.18
  -6 -13  -8    0.17    0.13
   6  13   8    0.06    0.09
   6  13   8    0.13    0.09
   2  14   8    0.17    0.09
  -1   5  -9   -0.07    0.12
  -1   5  -9    0.27    0.17
  -1   5  -9    0.13    0.10
   1  -5   9    0.18    0.11
   1  -5   9    0.17    0.12
  -2   5  -9    0.41    0.11
  -2   5  -9    0.49    0.11
  -2   5  -9    0.23    0.16
   2  -5   9    0.40    0.13
   2  -5   9    0.44    0.11
   2  -5   9    0.35    0.11
  -3   5  -9    0.35    0.14
  -3   5  -9    0.15    0.11
   3  -5   9    0.09    0.11
   3  -5   9   -0.12    0.09
  -4   5  -9    0.97    0.13
  -4   5  -9    0.98    0.14
  -4   5  -9    1.15    0.16
   4  -5   9    0.99    0.12
   4  -5   9    1.23    0.14
  -5   5  -9    1.19    0.17
  -5   5  -9    1.15    0.14
  -5   5  -9    1.37    0.15
   5  -5   9    1.08    0.13
   5  -5   9    1.37    0.14
  -6   5  -9    1.46    0.15
  -6   5  -9    1.25    0.16
  -6   5  -9    1.61    0.18
   6  -5   9    1.40    0.14
   6  -5   9    1.63    0.17
  -7   5  -9    2.92    0.27
  -7   5  -9    2.57    0.26
  -7   5  -9    2.64    0.23
   7  -5   9    2.92    0.20
   7  -5   9    2.60    0.20
  -8   5  -9    1.72    0.19
  -8   5  -9    1.76    0.18
  -8   5  -9    1.78    0.20
   8  -5   9    2.05    0.17
   8  -5   9    1.96    0.19
   1   4  -9    4.00    0.25
  -1  -4   9    3.83    0.24
   0   4  -9    0.06    0.09
   0   4  -9    0.17    0.11
   0  -4   9    0.20    0.12
   0  -4   9    0.02    0.10
  -1   4  -9    1.08    0.12
  -1   4  -9    1.22    0.18
  -1   4  -9    1.23    0.13
   1  -4   9    1.00    0.12
   1  -4   9    1.32    0.14
   1  -4   9    1.24    0.15
  -2   4  -9    0.66    0.11
  -2   4  -9    0.67    0.10
  -2   4  -9    0.57    0.14
   2  -4   9    0.54    0.11
   2  -4   9    0.67    0.11
   2  -4   9    0.44    0.11
  -3   4  -9    8.39    0.32
  -3   4  -9    8.72    0.37
  -3   4  -9    8.72    0.29
   3  -4   9    8.59    0.32
   3  -4   9    8.79    0.32
  -4   4  -9    0.93    0.15
  -4   4  -9    0.87    0.11
  -4   4  -9    0.93    0.10
  -4   4  -9    0.81    0.12
   4  -4   9    0.76    0.10
   4  -4   9    0.81    0.11
  -5   4  -9   10.29    0.37
  -5   4  -9    9.53    0.39
  -5   4  -9    9.83    0.32
  -5   4  -9    9.86    0.34
   5  -4   9   10.30    0.35
   5  -4   9   10.61    0.35
  -6   4  -9    0.86    0.13
  -6   4  -9    0.82    0.13
  -6   4  -9    0.91    0.10
  -6   4  -9    0.67    0.12
   6  -4   9    0.86    0.09
   6  -4   9    0.71    0.11
   6  -4   9    0.87    0.11
  -7   4  -9    4.54    0.27
  -7   4  -9    4.39    0.27
  -7   4  -9    4.08    0.23
   7  -4   9    4.69    0.21
   7  -4   9    4.30    0.22
  -8   4  -9    2.39    0.24
  -8   4  -9    2.25    0.24
  -8   4  -9    1.95    0.21
   8  -4   9    2.08    0.16
   8  -4   9    2.06    0.18
  -9   4  -9    0.23    0.14
  -9   4  -9    0.29    0.15
  -9   4  -9    0.03    0.12
   9  -4   9    0.16    0.09
   9  -4   9    0.09    0.08
 -10   4  -9    0.09    0.15
 -10   4  -9    0.18    0.13
  10  -4   9   -0.08    0.09
  10  -4   9    0.26    0.08
   2   3  -9   -0.10    0.11
   2   3  -9   -0.11    0.09
  -2  -3   9    0.08    0.11
  -2  -3   9   -0.12    0.11
   1   3  -9    0.73    0.10
   1   3  -9    0.50    0.11
  -1  -3   9    0.48    0.11
  -1  -3   9    0.67    0.12
   0   3  -9    3.63    0.21
   0   3  -9    4.07    0.21
   0  -3   9    4.21    0.24
   0  -3   9    3.84    0.20
  -1   3  -9    0.54    0.14
  -1   3  -9    0.21    0.09
  -1   3  -9    0.17    0.09
   1  -3   9    0.13    0.09
   1  -3   9    0.15    0.08
   1  -3   9    0.21    0.10
  -2   3  -9    1.01    0.14
  -2   3  -9    1.43    0.14
  -2   3  -9    1.03    0.11
   2  -3   9    1.16    0.12
   2  -3   9    1.45    0.16
   2  -3   9    1.17    0.11
  -3   3  -9    0.25    0.09
  -3   3  -9    0.36    0.09
  -3   3  -9    0.06    0.10
  -3   3  -9    0.24    0.08
   3  -3   9    0.28    0.08
   3  -3   9    0.16    0.08
  -4   3  -9    2.31    0.15
  -4   3  -9    2.32    0.21
  -4   3  -9    2.69    0.19
  -4   3  -9    2.37    0.16
   4  -3   9    2.37    0.17
   4  -3   9    2.61    0.17
  -5   3  -9    0.64    0.12
  -5   3  -9    0.64    0.11
  -5   3  -9    0.67    0.09
   5  -3   9    0.48    0.09
   5  -3   9    0.54    0.09
  -6   3  -9    3.55    0.24
  -6   3  -9    3.76    0.22
  -6   3  -9    3.40    0.19
   6  -3   9    3.53    0.16
   6  -3   9    3.56    0.19
   6  -3   9    3.82    0.18
  -7   3  -9    2.82    0.23
  -7   3  -9    2.92    0.21
  -7   3  -9    2.79    0.18
   7  -3   9    3.16    0.17
   7  -3   9    2.90    0.14
   7  -3   9    2.61    0.16
  -8   3  -9    0.90    0.12
  -8   3  -9    0.77    0.14
  -8   3  -9    0.95    0.13
   8  -3   9    0.99    0.10
   8  -3   9    0.73    0.10
  -9   3  -9    1.51    0.16
  -9   3  -9    2.26    0.23
  -9   3  -9    1.58    0.18
   9  -3   9    1.98    0.17
   9  -3   9    1.83    0.14
 -10   3  -9    0.11    0.11
 -10   3  -9    0.10    0.13
  10  -3   9    0.03    0.07
  10  -3   9    0.12    0.09
 -11   3  -9   -0.22    0.14
 -11   3  -9    0.02    0.11
  11  -3   9   -0.13    0.07
  11  -3   9   -0.17    0.16
  11  -3   9    0.07    0.09
   3   2  -9    1.98    0.22
   3   2  -9    1.97    0.19
  -3  -2   9    2.24    0.22
   2   2  -9    0.10    0.10
   2   2  -9    0.18    0.09
  -2  -2   9    0.13    0.10
  -2  -2   9    0.42    0.11
   1   2  -9    1.56    0.17
   1   2  -9    2.07    0.17
  -1  -2   9    1.96    0.19
  -1  -2   9    1.88    0.16
   0   2  -9    1.42    0.15
   0   2  -9    1.16    0.12
   0  -2   9    1.13    0.11
   0  -2   9    1.23    0.12
   0  -2   9    1.26    0.12
  -1   2  -9    3.16    0.18
  -1   2  -9    2.86    0.23
  -1   2  -9    2.70    0.17
   1  -2   9    2.67    0.18
   1  -2   9    2.85    0.18
   1  -2   9    3.01    0.16
  -2   2  -9    5.15    0.21
  -2   2  -9    5.40    0.23
  -2   2  -9    5.56    0.27
  -2   2  -9    5.07    0.21
   2  -2   9    5.51    0.22
   2  -2   9    5.48    0.22
  -3   2  -9    3.11    0.16
  -3   2  -9    2.95    0.18
  -3   2  -9    3.18    0.16
  -3   2  -9    2.93    0.21
   3  -2   9    3.01    0.17
   3  -2   9    3.13    0.17
  -4   2  -9    2.56    0.17
  -4   2  -9    2.82    0.20
  -4   2  -9    2.47    0.15
   4  -2   9    2.62    0.16
   4  -2   9    2.80    0.15
  -5   2  -9    0.66    0.10
  -5   2  -9    0.69    0.09
  -5   2  -9    0.58    0.11
   5  -2   9    0.56    0.08
   5  -2   9    0.64    0.09
   5  -2   9    0.61    0.07
  -6   2  -9    0.30    0.09
  -6   2  -9    0.16    0.09
  -6   2  -9    0.21    0.08
   6  -2   9    0.12    0.06
   6  -2   9    0.21    0.06
   6  -2   9    0.27    0.07
  -7   2  -9    6.75    0.26
  -7   2  -9    7.10    0.28
  -7   2  -9    6.76    0.30
   7  -2   9    6.71    0.20
   7  -2   9    7.19    0.25
   7  -2   9    6.73    0.24
  -8   2  -9    0.34    0.11
  -8   2  -9    0.24    0.09
  -8   2  -9    0.15    0.10
   8  -2   9    0.24    0.06
   8  -2   9    0.32    0.08
  -9   2  -9    0.99    0.14
  -9   2  -9    0.87    0.11
  -9   2  -9    0.96    0.14
   9  -2   9    0.90    0.11
   9  -2   9    0.82    0.09
 -10   2  -9    0.49    0.13
 -10   2  -9    0.52    0.11
  10  -2   9    0.48    0.09
  10  -2   9    0.59    0.08
 -11   2  -9    0.31    0.11
 -11   2  -9    0.40    0.15
  11  -2   9    0.28    0.07
  11  -2   9    0.25    0.09
  11  -2   9    0.25    0.16
 -12   2  -9    0.07    0.13
 -12   2  -9    0.30    0.15
  12  -2   9    0.14    0.07
  12  -2   9    0.03    0.10
   3   1  -9   -0.01    0.10
   3   1  -9    0.09    0.08
  -3  -1   9    0.16    0.11
   2   1  -9    2.75    0.19
   2   1  -9    2.93    0.18
  -2  -1   9    2.84    0.20
  -2  -1   9    2.58    0.17
   1   1  -9    0.04    0.07
   1   1  -9    0.00    0.08
  -1  -1   9    0.07    0.07
  -1  -1   9    0.06    0.08
   0   1  -9    3.50    0.18
   0   1  -9    3.63    0.18
   0  -1   9    3.56    0.19
   0  -1   9    3.62    0.18
  -1   1  -9    0.14    0.07
  -1   1  -9    0.00    0.07
   1  -1   9    0.00    0.07
   1  -1   9    0.09    0.06
  -2   1  -9    1.20    0.13
  -2   1  -9    1.16    0.13
  -2   1  -9    1.11    0.11
  -2   1  -9    1.37    0.14
   2  -1   9    1.05    0.12
   2  -1   9    1.37    0.13
  -3   1  -9    0.00    0.08
  -3   1  -9    0.02    0.07
  -3   1  -9   -0.03    0.06
   3  -1   9   -0.03    0.05
   3  -1   9    0.01    0.06
   3  -1   9    0.10    0.05
  -4   1  -9    7.51    0.27
  -4   1  -9    7.39    0.25
  -4   1  -9    7.80    0.30
   4  -1   9    7.67    0.26
   4  -1   9    7.68    0.24
   4  -1   9    7.42    0.25
  -5   1  -9    1.08    0.13
  -5   1  -9    1.21    0.12
  -5   1  -9    1.32    0.14
   5  -1   9    1.20    0.11
   5  -1   9    1.12    0.11
   5  -1   9    1.17    0.10
  -6   1  -9    0.05    0.09
  -6   1  -9   -0.02    0.07
  -6   1  -9    0.01    0.07
   6  -1   9    0.00    0.05
   6  -1   9    0.06    0.06
   6  -1   9    0.04    0.05
  -7   1  -9    0.22    0.08
  -7   1  -9   -0.05    0.09
  -7   1  -9    0.21    0.08
   7  -1   9    0.13    0.06
   7  -1   9    0.13    0.05
   7  -1   9    0.18    0.06
  -8   1  -9   -0.05    0.08
  -8   1  -9   -0.08    0.09
  -8   1  -9    0.04    0.08
   8  -1   9    0.03    0.05
   8  -1   9    0.06    0.06
  -9   1  -9    5.32    0.25
  -9   1  -9    5.66    0.28
  -9   1  -9    5.10    0.24
   9  -1   9    5.27    0.20
   9  -1   9    5.80    0.22
 -10   1  -9    3.89    0.26
 -10   1  -9    4.03    0.25
 -10   1  -9    3.85    0.23
  10  -1   9    3.52    0.17
  10  -1   9    4.32    0.20
 -11   1  -9   -0.08    0.10
 -11   1  -9   -0.14    0.13
  11  -1   9    0.10    0.08
  11  -1   9   -0.06    0.14
  11  -1   9    0.11    0.06
 -12   1  -9    0.12    0.15
 -12   1  -9    0.41    0.13
  12  -1   9    0.38    0.07
  12  -1   9    0.34    0.16
   4   0  -9    0.15    0.10
   4   0  -9   -0.04    0.10
  -4   0   9    0.08    0.09
   3   0  -9    0.61    0.09
   3   0  -9    0.48    0.11
  -3   0   9    0.74    0.10
  -3   0   9    0.61    0.11
   2   0  -9    1.03    0.12
   2   0  -9    1.00    0.10
  -2   0   9    1.00    0.11
   1   0  -9    4.94    0.20
   1   0  -9    4.74    0.21
  -1   0   9    4.50    0.20
  -1   0   9    4.45    0.24
  -1   0   9    4.75    0.19
   0   0  -9   -0.02    0.06
   0   0  -9   -0.04    0.06
   0   0   9   -0.02    0.07
   0   0   9   -0.02    0.06
   0   0   9    0.10    0.05
  -1   0  -9    0.76    0.09
  -1   0  -9    0.99    0.11
   1   0   9    0.74    0.08
   1   0   9    0.92    0.09
   1   0   9    1.03    0.10
  -2   0  -9    0.05    0.06
  -2   0  -9    0.16    0.08
   2   0   9    0.12    0.06
   2   0   9    0.07    0.06
   2   0   9    0.02    0.05
  -3   0  -9    0.23    0.07
  -3   0  -9    0.21    0.07
  -3   0  -9    0.12    0.08
   3   0   9    0.20    0.06
   3   0   9    0.23    0.05
   3   0   9    0.29    0.06
  -4   0  -9    1.90    0.16
  -4   0  -9    1.98    0.13
  -4   0  -9    1.93    0.14
   4   0   9    1.97    0.12
   4   0   9    1.74    0.11
   4   0   9    2.00    0.12
  -5   0  -9    3.16    0.19
  -5   0  -9    3.24    0.16
  -5   0  -9    3.40    0.17
   5   0   9    3.30    0.13
   5   0   9    3.24    0.15
   5   0   9    3.04    0.14
  -6   0  -9    6.41    0.23
  -6   0  -9    6.48    0.27
  -6   0  -9    6.42    0.24
   6   0   9    6.23    0.22
   6   0   9    6.41    0.19
   6   0   9    6.49    0.22
  -7   0  -9    0.56    0.10
  -7   0  -9    0.61    0.09
  -7   0  -9    0.73    0.10
   7   0   9    0.55    0.07
   7   0   9    0.59    0.06
   7   0   9    0.77    0.08
  -8   0  -9    0.13    0.08
  -8   0  -9    0.27    0.09
  -8   0  -9    0.00    0.08
   8   0   9    0.20    0.05
   8   0   9    0.18    0.06
  -9   0  -9    1.19    0.13
  -9   0  -9    1.17    0.13
  -9   0  -9    1.58    0.18
   9   0   9    1.29    0.13
   9   0   9    1.40    0.10
 -10   0  -9    5.12    0.25
 -10   0  -9    5.46    0.27
 -10   0  -9    5.24    0.27
  10   0   9    5.23    0.20
  10   0   9    5.28    0.26
  10   0   9    5.46    0.22
 -11   0  -9    1.47    0.16
 -11   0  -9    1.33    0.15
  11   0   9    1.36    0.15
  11   0   9    1.05    0.11
  11   0   9    1.23    0.11
 -12   0  -9    1.27    0.17
 -12   0  -9    1.32    0.16
  12   0   9    1.28    0.12
  12   0   9    1.36    0.17
   5  -1  -9   -0.15    0.11
  -5   1   9    0.02    0.10
   4  -1  -9    0.02    0.10
   4  -1  -9    0.12    0.09
  -4   1   9    0.07    0.09
   3  -1  -9    0.04    0.08
   3  -1  -9   -0.13    0.07
  -3   1   9    0.07    0.07
  -3   1   9    0.03    0.08
   2  -1  -9    0.27    0.08
   2  -1  -9    0.31    0.08
  -2   1   9    0.23    0.07
  -2   1   9    0.34    0.07
   1  -1  -9    0.04    0.06
   1  -1  -9    0.02    0.06
  -1   1   9    0.02    0.05
  -1   1   9    0.02    0.06
  -1   1   9   -0.06    0.09
   0  -1  -9    0.01    0.06
   0  -1  -9   -0.05    0.06
   0   1   9   -0.03    0.08
   0   1   9    0.06    0.05
   0   1   9   -0.03    0.05
  -1  -1  -9    9.14    0.29
  -1  -1  -9    8.77    0.29
   1   1   9    8.99    0.28
   1   1   9    8.93    0.28
   1   1   9    9.05    0.27
  -2  -1  -9    2.74    0.15
  -2  -1  -9    2.61    0.15
   2   1   9    2.44    0.13
   2   1   9    2.60    0.13
   2   1   9    2.77    0.13
  -3  -1  -9    0.74    0.08
  -3  -1  -9    0.65    0.08
  -3  -1  -9    0.72    0.10
   3   1   9    0.61    0.06
   3   1   9    0.66    0.07
   3   1   9    0.81    0.09
  -4  -1  -9    1.17    0.12
  -4  -1  -9    1.22    0.12
  -4  -1  -9    1.45    0.15
   4   1   9    1.34    0.11
   4   1   9    1.38    0.10
   4   1   9    1.25    0.09
  -5  -1  -9    5.32    0.21
  -5  -1  -9    5.28    0.21
  -5  -1  -9    5.51    0.24
   5   1   9    5.38    0.19
   5   1   9    5.51    0.17
   5   1   9    5.40    0.19
  -6  -1  -9    0.26    0.09
  -6  -1  -9    0.27    0.07
  -6  -1  -9    0.25    0.08
   6   1   9    0.31    0.06
   6   1   9    0.33    0.05
   6   1   9    0.31    0.06
  -7  -1  -9    3.51    0.20
  -7  -1  -9    3.43    0.18
  -7  -1  -9    3.31    0.18
   7   1   9    3.49    0.13
   7   1   9    3.29    0.14
   7   1   9    3.37    0.15
  -8  -1  -9    2.41    0.18
  -8  -1  -9    1.82    0.16
  -8  -1  -9    2.03    0.16
   8   1   9    2.01    0.13
   8   1   9    1.81    0.11
   8   1   9    1.80    0.10
  -9  -1  -9    2.81    0.18
  -9  -1  -9    2.75    0.19
  -9  -1  -9    3.11    0.20
   9   1   9    2.58    0.15
   9   1   9    2.76    0.13
 -10  -1  -9    0.71    0.12
 -10  -1  -9    0.46    0.13
 -10  -1  -9    0.57    0.11
  10   1   9    0.60    0.07
  10   1   9    0.45    0.10
  10   1   9    0.50    0.08
 -11  -1  -9    2.69    0.21
  11   1   9    2.43    0.21
  11   1   9    2.04    0.13
 -12  -1  -9    0.02    0.14
 -12  -1  -9   -0.02    0.11
  12   1   9    0.18    0.13
  12   1   9    0.07    0.06
 -13  -1  -9    0.60    0.14
  13   1   9    0.47    0.08
   5  -2  -9   -0.21    0.10
  -5   2   9   -0.09    0.08
   4  -2  -9   -0.10    0.09
   4  -2  -9    0.07    0.09
  -4   2   9    0.13    0.08
   3  -2  -9    0.60    0.10
   3  -2  -9    0.56    0.09
  -3   2   9    0.66    0.09
  -3   2   9    0.56    0.08
   2  -2  -9    0.72    0.09
   2  -2  -9    0.70    0.09
  -2   2   9    0.59    0.08
  -2   2   9    0.68    0.08
   1  -2  -9    3.92    0.18
   1  -2  -9    3.99    0.18
  -1   2   9    3.73    0.19
  -1   2   9    3.95    0.18
  -1   2   9    4.01    0.16
   0  -2  -9    3.46    0.16
   0  -2  -9    3.31    0.16
   0   2   9    3.33    0.15
   0   2   9    3.38    0.14
   0   2   9    3.21    0.16
  -1  -2  -9    7.08    0.25
  -1  -2  -9    7.28    0.24
   1   2   9    6.98    0.24
   1   2   9    7.54    0.24
   1   2   9    7.35    0.22
  -2  -2  -9   45.66    1.18
  -2  -2  -9   46.42    1.17
   2   2   9   45.60    1.15
   2   2   9   46.08    1.15
   2   2   9   46.30    1.14
  -3  -2  -9    0.29    0.07
  -3  -2  -9    0.32    0.07
   3   2   9    0.29    0.05
   3   2   9    0.36    0.06
   3   2   9    0.43    0.06
  -4  -2  -9   44.67    1.13
  -4  -2  -9   44.02    1.14
   4   2   9   44.32    1.11
   4   2   9   44.10    1.11
   4   2   9   44.32    1.09
  -5  -2  -9    3.60    0.19
  -5  -2  -9    3.12    0.16
  -5  -2  -9    3.23    0.17
   5   2   9    3.37    0.14
   5   2   9    3.25    0.13
   5   2   9    3.15    0.14
  -6  -2  -9   22.03    0.62
  -6  -2  -9   22.82    0.63
  -6  -2  -9   22.16    0.64
   6   2   9   22.85    0.57
   6   2   9   22.62    0.59
   6   2   9   22.61    0.59
  -7  -2  -9    0.12    0.07
  -7  -2  -9    0.04    0.07
  -7  -2  -9    0.12    0.08
   7   2   9    0.15    0.05
   7   2   9    0.16    0.05
   7   2   9    0.10    0.04
  -8  -2  -9    0.29    0.09
  -8  -2  -9    0.42    0.09
  -8  -2  -9    0.38    0.09
   8   2   9    0.34    0.06
   8   2   9    0.40    0.07
   8   2   9    0.40    0.06
  -9  -2  -9    0.13    0.10
  -9  -2  -9    0.00    0.08
  -9  -2  -9   -0.14    0.09
   9   2   9    0.01    0.07
   9   2   9   -0.03    0.04
   9   2   9   -0.05    0.05
 -10  -2  -9    1.27    0.15
 -10  -2  -9    1.37    0.16
 -10  -2  -9    1.38    0.14
  10   2   9    1.26    0.10
  10   2   9    1.24    0.11
 -11  -2  -9    0.67    0.12
 -11  -2  -9    0.78    0.13
  11   2   9    0.59    0.11
  11   2   9    0.55    0.07
 -12  -2  -9    0.88    0.14
 -12  -2  -9    1.01    0.15
  12   2   9    0.71    0.08
 -13  -2  -9    0.25    0.13
  13   2   9    0.29    0.07
   5  -3  -9    0.13    0.11
  -5   3   9    0.07    0.08
   4  -3  -9    0.44    0.10
   4  -3  -9    0.57    0.10
  -4   3   9    0.59    0.09
   3  -3  -9    0.01    0.08
   3  -3  -9    0.17    0.08
  -3   3   9    0.04    0.06
   2  -3  -9    0.05    0.07
   2  -3  -9    0.07    0.07
  -2   3   9   -0.03    0.06
  -2   3   9    0.02    0.05
   1  -3  -9   11.28    0.34
   1  -3  -9   10.85    0.34
  -1   3   9    9.39    0.29
  -1   3   9   11.05    0.32
  -1   3   9   10.75    0.32
   0  -3  -9    2.63    0.15
   0  -3  -9    2.67    0.15
   0   3   9    2.77    0.12
   0   3   9    2.52    0.13
   0   3   9    2.53    0.14
  -1  -3  -9   21.15    0.58
  -1  -3  -9   20.95    0.57
   1   3   9   20.88    0.55
   1   3   9   20.87    0.54
   1   3   9   21.49    0.56
  -2  -3  -9    9.12    0.29
  -2  -3  -9    9.23    0.30
   2   3   9    9.17    0.26
   2   3   9    8.87    0.27
   2   3   9    9.19    0.27
  -3  -3  -9    4.05    0.17
  -3  -3  -9    3.95    0.18
   3   3   9    3.90    0.14
   3   3   9    3.83    0.15
   3   3   9    4.17    0.15
  -4  -3  -9    4.57    0.19
  -4  -3  -9    4.24    0.19
   4   3   9    4.38    0.16
   4   3   9    4.21    0.15
   4   3   9    4.36    0.16
  -5  -3  -9    0.47    0.08
  -5  -3  -9    0.46    0.08
   5   3   9    0.32    0.05
   5   3   9    0.33    0.06
   5   3   9    0.32    0.05
  -6  -3  -9    1.97    0.14
  -6  -3  -9    2.20    0.15
   6   3   9    2.20    0.10
   6   3   9    2.21    0.11
   6   3   9    2.13    0.12
  -7  -3  -9    0.02    0.07
  -7  -3  -9    0.02    0.07
   7   3   9    0.00    0.04
   7   3   9   -0.05    0.04
   7   3   9    0.02    0.05
  -8  -3  -9    0.06    0.08
  -8  -3  -9    0.00    0.07
  -8  -3  -9   -0.09    0.08
   8   3   9    0.02    0.05
   8   3   9    0.00    0.04
  -9  -3  -9    1.97    0.17
  -9  -3  -9    1.66    0.17
  -9  -3  -9    1.99    0.19
   9   3   9    1.75    0.11
   9   3   9    1.76    0.13
   9   3   9    1.90    0.11
 -10  -3  -9    5.35    0.29
 -10  -3  -9    5.54    0.26
  10   3   9    5.37    0.21
  10   3   9    5.30    0.19
 -11  -3  -9    5.11    0.27
  11   3   9    5.14    0.19
 -12  -3  -9    4.90    0.28
  12   3   9    4.55    0.18
 -13  -3  -9    3.05    0.26
  13   3   9    2.21    0.14
   5  -4  -9   -0.09    0.10
  -5   4   9    0.08    0.08
   4  -4  -9    3.56    0.19
   4  -4  -9    3.64    0.21
  -4   4   9    3.69    0.19
   3  -4  -9    2.56    0.17
   3  -4  -9    2.88    0.18
  -3   4   9    2.89    0.16
   2  -4  -9    4.51    0.20
   2  -4  -9    4.62    0.20
  -2   4   9    4.73    0.19
  -2   4   9    4.35    0.14
   1  -4  -9   11.79    0.36
   1  -4  -9   11.42    0.36
  -1   4   9   11.45    0.31
  -1   4   9   11.76    0.34
  -1   4   9   11.05    0.33
   0  -4  -9   19.47    0.53
   0  -4  -9   18.86    0.52
   0   4   9   19.22    0.49
   0   4   9   18.55    0.51
   0   4   9   19.34    0.51
  -1  -4  -9    2.59    0.16
  -1  -4  -9    3.43    0.17
   1   4   9    3.28    0.15
   1   4   9    3.27    0.14
   1   4   9    3.48    0.13
  -2  -4  -9   13.90    0.41
  -2  -4  -9   13.41    0.41
   2   4   9   14.07    0.38
   2   4   9   13.83    0.37
   2   4   9   13.86    0.38
  -3  -4  -9    0.16    0.07
  -3  -4  -9    0.14    0.07
   3   4   9    0.16    0.04
   3   4   9    0.15    0.04
   3   4   9    0.12    0.05
  -4  -4  -9   -0.02    0.06
  -4  -4  -9    0.04    0.06
   4   4   9   -0.03    0.04
   4   4   9   -0.08    0.04
   4   4   9   -0.07    0.04
  -5  -4  -9    0.03    0.07
  -5  -4  -9    0.05    0.07
   5   4   9    0.17    0.05
   5   4   9    0.14    0.08
   5   4   9    0.12    0.05
   5   4   9    0.08    0.04
  -6  -4  -9    1.20    0.13
  -6  -4  -9    1.39    0.14
   6   4   9    1.26    0.09
   6   4   9    1.37    0.13
   6   4   9    1.33    0.09
  -7  -4  -9    1.36    0.15
  -7  -4  -9    1.37    0.14
   7   4   9    1.29    0.10
   7   4   9    1.25    0.09
  -8  -4  -9   -0.02    0.07
  -8  -4  -9    0.05    0.10
   8   4   9    0.03    0.05
   8   4   9    0.08    0.05
   8   4   9   -0.01    0.04
  -9  -4  -9    0.38    0.12
  -9  -4  -9    0.44    0.11
   9   4   9    0.47    0.06
   9   4   9    0.37    0.06
 -10  -4  -9   10.29    0.37
 -10  -4  -9    9.25    0.36
  10   4   9    9.42    0.29
 -11  -4  -9    1.37    0.15
  11   4   9    1.63    0.11
 -12  -4  -9    4.69    0.29
  12   4   9    3.96    0.17
 -13  -4  -9    0.45    0.15
  13   4   9    0.15    0.07
   5  -5  -9    0.13    0.11
  -5   5   9    0.24    0.09
   4  -5  -9    0.64    0.11
   4  -5  -9    0.75    0.11
  -4   5   9    0.50    0.09
   3  -5  -9    0.14    0.09
   3  -5  -9    0.29    0.08
  -3   5   9    0.11    0.07
   2  -5  -9    4.66    0.20
   2  -5  -9    4.61    0.21
  -2   5   9    4.77    0.19
   1  -5  -9    6.91    0.26
   1  -5  -9    7.27    0.25
  -1   5   9    6.91    0.24
  -1   5   9    7.00    0.24
   0  -5  -9    6.77    0.25
   0  -5  -9    6.32    0.23
   0   5   9    6.18    0.22
   0   5   9    6.48    0.22
  -1  -5  -9   19.22    0.54
  -1  -5  -9   19.72    0.55
   1   5   9   19.32    0.52
   1   5   9   19.59    0.52
  -2  -5  -9    0.50    0.08
  -2  -5  -9    0.45    0.08
   2   5   9    0.42    0.06
   2   5   9    0.40    0.06
  -3  -5  -9    0.11    0.07
  -3  -5  -9    0.10    0.07
   3   5   9    0.07    0.04
   3   5   9    0.06    0.04
  -4  -5  -9    0.17    0.07
  -4  -5  -9    0.08    0.07
   4   5   9    0.17    0.05
   4   5   9    0.12    0.04
   4   5   9    0.15    0.08
  -5  -5  -9    0.80    0.10
  -5  -5  -9    0.86    0.10
   5   5   9    0.93    0.10
   5   5   9    0.87    0.08
   5   5   9    0.82    0.08
  -6  -5  -9    1.22    0.13
  -6  -5  -9    1.41    0.15
   6   5   9    1.56    0.10
   6   5   9    1.37    0.10
  -7  -5  -9    8.29    0.31
  -7  -5  -9    8.03    0.30
   7   5   9    8.32    0.24
   7   5   9    8.32    0.25
  -8  -5  -9    5.51    0.25
  -8  -5  -9    5.14    0.25
   8   5   9    5.46    0.19
   8   5   9    5.62    0.18
  -9  -5  -9    1.88    0.22
  -9  -5  -9    2.12    0.18
   9   5   9    2.18    0.12
   9   5   9    2.18    0.12
 -10  -5  -9    2.85    0.22
 -10  -5  -9    3.01    0.26
  10   5   9    3.07    0.14
  10   5   9    3.27    0.14
 -11  -5  -9    8.55    0.36
  11   5   9    7.42    0.25
 -12  -5  -9    5.64    0.33
  12   5   9    5.36    0.20
 -13  -5  -9    0.25    0.16
  13   5   9    0.10    0.07
   5  -6  -9    0.21    0.12
  -5   6   9    0.11    0.08
   4  -6  -9    2.37    0.18
   4  -6  -9    2.91    0.20
  -4   6   9    2.71    0.17
   3  -6  -9    0.03    0.08
   3  -6  -9    0.03    0.09
  -3   6   9    0.10    0.06
   2  -6  -9    0.20    0.09
   2  -6  -9    0.26    0.08
  -2   6   9    0.15    0.06
   1  -6  -9    2.33    0.16
   1  -6  -9    2.55    0.15
  -1   6   9    2.22    0.15
  -1   6   9    2.19    0.13
   0  -6  -9    5.11    0.22
   0  -6  -9    5.13    0.21
   0   6   9    4.78    0.19
   0   6   9    5.07    0.19
  -1  -6  -9    9.01    0.31
  -1  -6  -9    8.92    0.30
   1   6   9    8.74    0.27
   1   6   9    8.59    0.27
  -2  -6  -9    7.42    0.28
  -2  -6  -9    8.04    0.28
   2   6   9    7.76    0.24
   2   6   9    7.94    0.24
  -3  -6  -9   -0.02    0.07
  -3  -6  -9    0.05    0.07
   3   6   9   -0.04    0.04
   3   6   9    0.07    0.04
  -4  -6  -9    1.67    0.15
  -4  -6  -9    1.70    0.15
   4   6   9    1.73    0.10
   4   6   9    1.67    0.12
   4   6   9    1.72    0.10
  -5  -6  -9    0.71    0.11
  -5  -6  -9    0.70    0.10
   5   6   9    0.76    0.09
   5   6   9    0.80    0.08
  -6  -6  -9   17.70    0.53
  -6  -6  -9   18.17    0.54
   6   6   9   17.70    0.48
   6   6   9   17.97    0.47
  -7  -6  -9    0.66    0.10
  -7  -6  -9    0.60    0.11
   7   6   9    0.47    0.06
   7   6   9    0.47    0.06
  -8  -6  -9   29.54    0.83
  -8  -6  -9   29.90    0.82
   8   6   9   29.30    0.74
   8   6   9   28.89    0.76
  -9  -6  -9    2.09    0.19
  -9  -6  -9    2.14    0.18
   9   6   9    2.12    0.13
   9   6   9    2.08    0.12
 -10  -6  -9    2.72    0.27
 -10  -6  -9    2.87    0.22
  10   6   9    2.82    0.15
  10   6   9    2.78    0.14
 -11  -6  -9    0.28    0.13
  11   6   9    0.23    0.06
 -12  -6  -9    1.28    0.18
  12   6   9    1.42    0.12
   5  -7  -9    1.26    0.15
  -5   7   9    1.13    0.12
   4  -7  -9    0.45    0.10
   4  -7  -9    0.41    0.10
  -4   7   9    0.24    0.09
   3  -7  -9    1.02    0.12
   3  -7  -9    1.35    0.16
  -3   7   9    0.92    0.10
   2  -7  -9    0.55    0.11
   2  -7  -9    0.66    0.09
  -2   7   9    0.56    0.08
   1  -7  -9    1.37    0.13
   1  -7  -9    1.05    0.12
  -1   7   9    0.93    0.10
  -1   7   9    0.95    0.11
   0  -7  -9    0.08    0.08
   0  -7  -9    0.09    0.09
   0   7   9    0.02    0.07
   0   7   9    0.02    0.05
  -1  -7  -9    1.32    0.15
  -1  -7  -9    1.42    0.16
   1   7   9    1.43    0.11
   1   7   9    1.23    0.11
  -2  -7  -9   -0.07    0.08
  -2  -7  -9    0.03    0.05
  -2  -7  -9   -0.07    0.07
   2   7   9   -0.11    0.04
   2   7   9    0.04    0.05
  -3  -7  -9    0.46    0.09
  -3  -7  -9    0.41    0.09
   3   7   9    0.41    0.06
   3   7   9    0.49    0.06
  -4  -7  -9    0.22    0.08
  -4  -7  -9    0.14    0.09
   4   7   9    0.10    0.05
   4   7   9    0.07    0.05
  -5  -7  -9    7.18    0.29
  -5  -7  -9    7.44    0.29
   5   7   9    7.42    0.23
   5   7   9    7.50    0.24
  -6  -7  -9    3.01    0.21
  -6  -7  -9    2.66    0.19
   6   7   9    2.73    0.14
   6   7   9    3.15    0.14
  -7  -7  -9    4.52    0.24
  -7  -7  -9    4.90    0.25
   7   7   9    4.46    0.17
   7   7   9    4.63    0.18
  -8  -7  -9    4.31    0.23
  -8  -7  -9    4.06    0.25
   8   7   9    3.72    0.16
   8   7   9    3.91    0.17
  -9  -7  -9    2.08    0.25
  -9  -7  -9    2.19    0.20
   9   7   9    2.24    0.13
   9   7   9    2.15    0.13
 -10  -7  -9    3.41    0.31
 -10  -7  -9    4.09    0.26
  10   7   9    3.39    0.17
  10   7   9    3.49    0.16
 -11  -7  -9    0.35    0.13
  11   7   9    0.01    0.06
 -12  -7  -9    0.81    0.13
 -12  -7  -9    1.04    0.18
  12   7   9    0.96    0.10
   5  -8  -9    0.59    0.13
  -5   8   9    0.45    0.10
   4  -8  -9    3.26    0.22
   4  -8  -9    3.38    0.22
  -4   8   9    3.03    0.19
   3  -8  -9    0.40    0.11
   3  -8  -9    0.48    0.10
  -3   8   9    0.30    0.08
   2  -8  -9    1.82    0.16
   2  -8  -9    1.94    0.18
  -2   8   9    1.90    0.14
   1  -8  -9    2.65    0.16
   1  -8  -9    2.54    0.19
  -1   8   9    2.44    0.14
  -1   8   9    2.19    0.18
   0  -8  -9    4.29    0.21
   0  -8  -9    3.98    0.22
   0   8   9    3.38    0.17
   0   8   9    3.66    0.16
  -1  -8  -9    0.34    0.09
  -1  -8  -9    0.20    0.05
  -1  -8  -9    0.34    0.10
   1   8   9    0.19    0.06
   1   8   9    0.24    0.06
  -2  -8  -9    0.82    0.12
  -2  -8  -9    1.10    0.13
  -2  -8  -9    1.18    0.10
   2   8   9    1.03    0.11
   2   8   9    1.21    0.11
  -3  -8  -9    0.39    0.10
  -3  -8  -9    0.33    0.06
  -3  -8  -9    0.23    0.09
   3   8   9    0.23    0.06
   3   8   9    0.26    0.06
  -4  -8  -9    2.04    0.19
  -4  -8  -9    1.92    0.12
  -4  -8  -9    1.81    0.17
   4   8   9    2.19    0.12
   4   8   9    2.01    0.12
  -5  -8  -9   10.54    0.32
  -5  -8  -9   10.80    0.38
  -5  -8  -9   10.88    0.38
   5   8   9   10.70    0.32
   5   8   9   10.85    0.32
  -6  -8  -9    5.06    0.26
  -6  -8  -9    4.85    0.19
  -6  -8  -9    4.74    0.25
   6   8   9    4.45    0.18
   6   8   9    4.57    0.18
  -7  -8  -9    9.20    0.36
  -7  -8  -9    8.88    0.36
  -7  -8  -9    9.14    0.30
   7   8   9    9.15    0.28
   7   8   9    9.20    0.29
  -8  -8  -9   10.82    0.41
  -8  -8  -9   11.61    0.42
  -8  -8  -9   11.26    0.36
   8   8   9   11.07    0.33
   8   8   9   10.90    0.33
  -9  -8  -9    8.43    0.38
  -9  -8  -9    8.76    0.37
  -9  -8  -9    8.54    0.31
   9   8   9    8.43    0.28
   9   8   9    8.32    0.27
 -10  -8  -9    0.05    0.13
 -10  -8  -9    0.07    0.09
  10   8   9    0.08    0.06
  10   8   9    0.16    0.08
 -11  -8  -9    0.41    0.15
 -11  -8  -9    0.32    0.10
  11   8   9    0.66    0.08
   5  -9  -9    0.53    0.19
   5  -9  -9    0.12    0.13
  -5   9   9    0.40    0.11
   4  -9  -9    0.17    0.11
   4  -9  -9    0.16    0.12
   4  -9  -9    0.26    0.16
  -4   9   9    0.24    0.09
   3  -9  -9    0.25    0.14
   3  -9  -9    0.09    0.10
   3  -9  -9    0.35    0.11
  -3   9   9    0.04    0.08
   2  -9  -9    0.64    0.10
   2  -9  -9    0.68    0.12
   2  -9  -9    0.67    0.14
  -2   9   9    0.63    0.08
   1  -9  -9    1.04    0.13
   1  -9  -9    0.81    0.12
   1  -9  -9    1.04    0.11
  -1   9   9    0.84    0.12
  -1   9   9    0.87    0.09
   0  -9  -9    0.10    0.08
   0  -9  -9    0.00    0.10
   0   9   9   -0.01    0.06
   0   9   9   -0.01    0.07
  -1  -9  -9    1.13    0.13
  -1  -9  -9    0.86    0.08
  -1  -9  -9    0.98    0.13
   1   9   9    0.95    0.11
   1   9   9    0.96    0.09
  -2  -9  -9    1.12    0.13
  -2  -9  -9    1.32    0.15
  -2  -9  -9    1.18    0.11
   2   9   9    1.21    0.12
   2   9   9    1.11    0.11
  -3  -9  -9    1.73    0.12
  -3  -9  -9    2.02    0.19
  -3  -9  -9    1.75    0.19
   3   9   9    2.06    0.13
   3   9   9    1.77    0.13
  -4  -9  -9    0.05    0.10
  -4  -9  -9    0.09    0.10
  -4  -9  -9    0.08    0.06
   4   9   9    0.00    0.05
   4   9   9    0.11    0.06
  -5  -9  -9    0.84    0.13
  -5  -9  -9    0.57    0.12
  -5  -9  -9    0.68    0.08
   5   9   9    0.46    0.07
   5   9   9    0.64    0.08
  -6  -9  -9    0.48    0.12
  -6  -9  -9    0.51    0.09
  -6  -9  -9    0.61    0.14
   6   9   9    0.53    0.08
   6   9   9    0.40    0.07
  -7  -9  -9    3.95    0.25
  -7  -9  -9    3.85    0.20
  -7  -9  -9    4.04    0.27
   7   9   9    4.07    0.18
   7   9   9    4.19    0.18
  -8  -9  -9    3.13    0.27
  -8  -9  -9    2.88    0.25
  -8  -9  -9    2.98    0.19
   8   9   9    3.22    0.17
   8   9   9    2.93    0.16
  -9  -9  -9    1.66    0.18
  -9  -9  -9    1.72    0.20
  -9  -9  -9    1.53    0.17
   9   9   9    1.76    0.13
   9   9   9    1.74    0.16
 -10  -9  -9    0.85    0.12
 -10  -9  -9    0.80    0.18
  10   9   9    0.92    0.09
 -11  -9  -9    0.26    0.11
 -11  -9  -9    0.22    0.17
  11   9   9    0.04    0.07
   4 -10  -9    4.20    0.26
   4 -10  -9    4.84    0.37
   4 -10  -9    4.67    0.26
  -4  10   9    4.30    0.24
   3 -10  -9    3.63    0.23
   3 -10  -9    3.48    0.31
   3 -10  -9    3.41    0.24
  -3  10   9    3.54    0.21
   2 -10  -9    0.89    0.13
   2 -10  -9    1.05    0.15
   2 -10  -9    0.89    0.12
  -2  10   9    0.99    0.11
   1 -10  -9    0.17    0.11
   1 -10  -9    0.13    0.09
   1 -10  -9    0.10    0.10
  -1  10   9    0.13    0.07
   0 -10  -9    0.32    0.11
   0 -10  -9    0.36    0.11
   0  10   9    0.37    0.09
   0  10   9    0.44    0.08
  -1 -10  -9    0.90    0.09
  -1 -10  -9    1.05    0.15
  -1 -10  -9    0.97    0.13
   1  10   9    1.07    0.12
   1  10   9    1.28    0.13
  -2 -10  -9    1.31    0.15
  -2 -10  -9    1.14    0.12
  -2 -10  -9    0.99    0.14
   2  10   9    1.32    0.13
   2  10   9    1.09    0.13
  -3 -10  -9    1.57    0.14
  -3 -10  -9    1.86    0.18
  -3 -10  -9    1.45    0.16
   3  10   9    1.48    0.13
   3  10   9    1.86    0.14
  -4 -10  -9    1.78    0.20
  -4 -10  -9    1.74    0.21
  -4 -10  -9    1.84    0.14
   4  10   9    1.83    0.14
   4  10   9    1.66    0.14
  -5 -10  -9    0.80    0.14
  -5 -10  -9    0.86    0.15
  -5 -10  -9    0.75    0.10
   5  10   9    0.61    0.08
   5  10   9    0.69    0.09
  -6 -10  -9    1.34    0.17
  -6 -10  -9    1.17    0.17
  -6 -10  -9    1.13    0.12
   6  10   9    1.25    0.14
   6  10   9    1.24    0.13
  -7 -10  -9    1.94    0.20
  -7 -10  -9    2.17    0.23
  -7 -10  -9    2.14    0.18
   7  10   9    2.42    0.16
   7  10   9    2.40    0.15
  -8 -10  -9    2.61    0.20
  -8 -10  -9    2.54    0.26
  -8 -10  -9    2.19    0.22
   8  10   9    2.70    0.18
   8  10   9    2.39    0.15
  -9 -10  -9    4.49    0.25
  -9 -10  -9    3.73    0.32
  -9 -10  -9    3.67    0.35
   9  10   9    4.04    0.19
   9  10   9    4.68    0.23
 -10 -10  -9    0.12    0.17
 -10 -10  -9    0.15    0.12
  10  10   9    0.08    0.07
   3 -11  -9    2.39    0.22
   3 -11  -9    2.27    0.24
   3 -11  -9    2.28    0.22
  -3  11   9    2.42    0.21
   2 -11  -9   -0.02    0.10
   2 -11  -9   -0.19    0.14
   2 -11  -9    0.03    0.12
  -2  11   9   -0.13    0.08
   1 -11  -9    0.15    0.12
   1 -11  -9    0.07    0.11
   1 -11  -9   -0.02    0.09
  -1  11   9    0.02    0.08
   0 -11  -9    0.20    0.11
   0 -11  -9    0.19    0.11
   0  11   9    0.10    0.08
   0  11   9    0.20    0.09
  -1 -11  -9    0.93    0.15
  -1 -11  -9    0.82    0.14
  -1 -11  -9    0.96    0.12
   1  11   9    1.23    0.14
   1  11   9    0.88    0.11
  -2 -11  -9    0.87    0.14
  -2 -11  -9    0.64    0.14
  -2 -11  -9    0.71    0.09
   2  11   9    0.74    0.10
   2  11   9    0.80    0.10
  -3 -11  -9    2.42    0.24
  -3 -11  -9    2.92    0.25
  -3 -11  -9    2.36    0.17
   3  11   9    2.19    0.16
   3  11   9    2.43    0.17
  -4 -11  -9    3.71    0.20
  -4 -11  -9    3.80    0.29
  -4 -11  -9    4.37    0.29
   4  11   9    4.13    0.19
   4  11   9    3.61    0.19
  -5 -11  -9    0.00    0.12
  -5 -11  -9    0.12    0.13
  -5 -11  -9    0.24    0.09
   5  11   9    0.02    0.07
   5  11   9    0.27    0.08
  -6 -11  -9    0.87    0.12
  -6 -11  -9    0.82    0.17
  -6 -11  -9    1.08    0.17
   6  11   9    1.03    0.11
   6  11   9    1.06    0.11
  -7 -11  -9    0.05    0.10
  -7 -11  -9   -0.07    0.15
  -7 -11  -9    0.03    0.14
   7  11   9   -0.08    0.07
   7  11   9    0.06    0.07
  -8 -11  -9    1.18    0.14
  -8 -11  -9    1.16    0.18
  -8 -11  -9    0.90    0.22
   8  11   9    0.89    0.11
   8  11   9    0.94    0.10
  -9 -11  -9    0.10    0.11
  -9 -11  -9    0.24    0.16
   9  11   9   -0.02    0.07
   9  11   9    0.08    0.10
   2 -12  -9    0.58    0.14
   2 -12  -9    0.40    0.18
  -2  12   9    0.34    0.11
   1 -12  -9    0.02    0.11
   1 -12  -9    0.02    0.15
   1 -12  -9    0.10    0.12
  -1  12   9    0.03    0.08
   0 -12  -9   -0.15    0.13
   0 -12  -9    0.20    0.13
   0 -12  -9    0.22    0.10
   0  12   9    0.07    0.10
   0  12   9    0.04    0.08
  -1 -12  -9    0.04    0.12
   1  12   9   -0.05    0.10
   1  12   9    0.12    0.08
  -2 -12  -9    0.59    0.16
  -2 -12  -9    0.53    0.10
  -2 -12  -9    0.45    0.14
   2  12   9    0.50    0.11
   2  12   9    0.61    0.09
  -3 -12  -9    0.59    0.15
  -3 -12  -9    0.61    0.15
  -3 -12  -9    0.39    0.11
   3  12   9    0.35    0.09
   3  12   9    0.36    0.08
  -4 -12  -9    3.80    0.30
  -4 -12  -9    4.33    0.31
  -4 -12  -9    3.54    0.22
   4  12   9    3.60    0.20
   4  12   9    3.14    0.20
  -5 -12  -9    4.41    0.34
  -5 -12  -9    4.32    0.25
  -5 -12  -9    4.99    0.34
   5  12   9    4.84    0.23
   5  12   9    4.70    0.23
  -6 -12  -9    0.21    0.15
  -6 -12  -9    0.23    0.17
  -6 -12  -9    0.10    0.11
   6  12   9    0.18    0.09
   6  12   9    0.38    0.11
   6  12   9    0.29    0.09
  -7 -12  -9    3.51    0.26
  -7 -12  -9    3.80    0.34
  -7 -12  -9    3.19    0.29
   7  12   9    3.34    0.20
   7  12   9    3.42    0.21
  -8 -12  -9    1.32    0.16
  -8 -12  -9    1.69    0.22
  -8 -12  -9    1.44    0.26
   8  12   9    1.16    0.13
   8  12   9    1.12    0.12
  -1  13   9   -0.16    0.10
   0 -13  -9    0.26    0.14
   0  13   9    0.12    0.09
  -1 -13  -9   -0.10    0.14
   1  13   9   -0.03    0.12
   1  13   9    0.03    0.08
  -2 -13  -9    1.69    0.20
   2  13   9    1.78    0.21
   2  13   9    2.52    0.19
  -3 -13  -9    0.27    0.16
  -3 -13  -9    0.06    0.15
  -3 -13  -9    0.01    0.12
   3  13   9   -0.07    0.10
   3  13   9    0.11    0.08
  -4 -13  -9    1.82    0.22
  -4 -13  -9    1.89    0.24
  -4 -13  -9    2.29    0.25
   4  13   9    2.27    0.18
   4  13   9    2.27    0.24
   4  13   9    2.05    0.20
  -5 -13  -9    1.63    0.23
  -5 -13  -9    1.19    0.22
  -5 -13  -9    1.65    0.17
   5  13   9    1.57    0.18
   5  13   9    1.31    0.16
   5  13   9    1.68    0.18
  -6 -13  -9    0.77    0.22
  -6 -13  -9    1.04    0.16
   6  13   9    0.85    0.12
   6  13   9    1.05    0.13
  -2   4 -10    0.03    0.16
  -2   4 -10   -0.02    0.10
  -2   4 -10   -0.06    0.12
   2  -4  10   -0.10    0.10
   2  -4  10    0.21    0.13
  -3   4 -10    0.18    0.15
  -3   4 -10    0.08    0.11
  -3   4 -10    0.13    0.11
   3  -4  10    0.20    0.12
   3  -4  10    0.11    0.10
  -4   4 -10    1.60    0.19
  -4   4 -10    1.26    0.15
  -4   4 -10    1.38    0.14
   4  -4  10    1.29    0.14
   4  -4  10    1.17    0.14
  -5   4 -10    4.08    0.27
  -5   4 -10    3.60    0.23
  -5   4 -10    4.55    0.31
  -5   4 -10    3.60    0.21
   5  -4  10    3.65    0.22
   5  -4  10    4.10    0.21
   5  -4  10    4.21    0.23
  -6   4 -10    3.71    0.28
  -6   4 -10    3.23    0.23
  -6   4 -10    3.00    0.26
   6  -4  10    3.22    0.22
   6  -4  10    3.51    0.21
  -7   4 -10    1.39    0.17
  -7   4 -10    1.59    0.16
  -7   4 -10    1.38    0.18
   7  -4  10    1.69    0.18
   7  -4  10    1.61    0.18
  -8   4 -10    0.90    0.17
  -8   4 -10    0.96    0.15
  -8   4 -10    1.01    0.18
   8  -4  10    0.75    0.12
   8  -4  10    0.87    0.12
   0   3 -10    0.44    0.11
   0   3 -10    0.36    0.13
   0  -3  10    0.12    0.12
  -1   3 -10    0.20    0.11
  -1   3 -10    0.57    0.12
   1  -3  10    0.24    0.11
  -2   3 -10    3.89    0.30
  -2   3 -10    3.25    0.20
  -2   3 -10    3.04    0.21
   2  -3  10    2.97    0.21
   2  -3  10    2.78    0.23
  -3   3 -10    4.84    0.25
  -3   3 -10    4.88    0.31
  -3   3 -10    4.52    0.22
   3  -3  10    4.71    0.24
   3  -3  10    5.05    0.25
  -4   3 -10   -0.02    0.11
  -4   3 -10   -0.06    0.09
  -4   3 -10   -0.15    0.12
  -4   3 -10    0.07    0.10
   4  -3  10    0.09    0.09
   4  -3  10    0.17    0.08
   4  -3  10   -0.19    0.08
  -5   3 -10    2.97    0.23
  -5   3 -10    2.92    0.19
  -5   3 -10    2.87    0.20
  -5   3 -10    3.50    0.26
   5  -3  10    3.10    0.20
   5  -3  10    3.13    0.19
   5  -3  10    2.91    0.17
  -6   3 -10   -0.09    0.10
  -6   3 -10    0.15    0.11
  -6   3 -10    0.04    0.12
   6  -3  10    0.12    0.08
   6  -3  10   -0.09    0.08
   6  -3  10    0.00    0.08
  -7   3 -10    0.74    0.12
  -7   3 -10    0.66    0.13
  -7   3 -10    0.81    0.15
   7  -3  10    0.78    0.11
   7  -3  10    0.76    0.11
  -8   3 -10    0.15    0.14
  -8   3 -10    0.28    0.12
  -8   3 -10    0.17    0.13
   8  -3  10    0.39    0.09
   8  -3  10    0.28    0.10
  -9   3 -10    0.43    0.15
  -9   3 -10    0.57    0.14
  -9   3 -10    0.50    0.15
   9  -3  10    0.54    0.09
   9  -3  10    0.64    0.11
 -10   3 -10    0.16    0.15
 -10   3 -10    0.08    0.12
  10  -3  10    0.00    0.08
  10  -3  10   -0.01    0.09
   1   2 -10    0.50    0.11
   1   2 -10    0.41    0.12
  -1  -2  10    0.41    0.12
   0   2 -10    0.17    0.11
   0   2 -10    0.10    0.09
   0  -2  10    0.04    0.10
  -1   2 -10    1.72    0.17
  -1   2 -10    1.76    0.18
   1  -2  10    1.58    0.15
   1  -2  10    1.59    0.18
  -2   2 -10    3.33    0.20
  -2   2 -10    3.15    0.28
  -2   2 -10    3.52    0.19
   2  -2  10    3.28    0.21
   2  -2  10    3.53    0.20
  -3   2 -10    8.80    0.33
  -3   2 -10    9.45    0.38
  -3   2 -10    8.96    0.31
   3  -2  10    9.24    0.30
   3  -2  10    9.25    0.32
   3  -2  10    8.96    0.32
  -4   2 -10   12.16    0.41
  -4   2 -10   11.96    0.38
  -4   2 -10   12.55    0.45
  -4   2 -10   11.92    0.38
   4  -2  10   12.30    0.37
   4  -2  10   12.76    0.39
   4  -2  10   12.39    0.39
  -5   2 -10    2.24    0.20
  -5   2 -10    2.40    0.22
  -5   2 -10    2.17    0.17
   5  -2  10    2.45    0.17
   5  -2  10    2.08    0.14
   5  -2  10    1.81    0.16
  -6   2 -10    2.73    0.21
  -6   2 -10    2.75    0.18
  -6   2 -10    2.97    0.23
   6  -2  10    2.96    0.17
   6  -2  10    2.90    0.15
   6  -2  10    2.40    0.17
  -7   2 -10   -0.07    0.11
  -7   2 -10    0.04    0.10
  -7   2 -10   -0.14    0.10
   7  -2  10    0.04    0.07
   7  -2  10    0.08    0.07
   7  -2  10   -0.03    0.07
  -8   2 -10    0.10    0.10
  -8   2 -10    0.07    0.12
  -8   2 -10    0.01    0.11
   8  -2  10   -0.03    0.08
   8  -2  10   -0.08    0.06
  -9   2 -10    0.19    0.11
  -9   2 -10    0.26    0.13
  -9   2 -10    0.31    0.14
   9  -2  10    0.23    0.08
   9  -2  10    0.22    0.09
 -10   2 -10    0.74    0.14
 -10   2 -10    0.77    0.16
  10  -2  10    0.68    0.11
  10  -2  10    0.61    0.09
 -11   2 -10    1.21    0.19
 -11   2 -10    1.13    0.16
  11  -2  10    1.29    0.21
  11  -2  10    1.33    0.15
  11  -2  10    1.69    0.18
   2   1 -10    0.71    0.11
   2   1 -10    0.62    0.13
  -2  -1  10    0.50    0.13
   1   1 -10    1.76    0.17
   1   1 -10    1.58    0.15
  -1  -1  10    1.71    0.19
   0   1 -10    1.86    0.17
   0   1 -10    2.20    0.18
   0  -1  10    2.37    0.18
   0  -1  10    2.44    0.16
  -1   1 -10    0.24    0.09
  -1   1 -10    0.20    0.09
   1  -1  10    0.21    0.10
   1  -1  10    0.32    0.09
   1  -1  10    0.30    0.07
  -2   1 -10    5.14    0.24
  -2   1 -10    5.30    0.23
   2  -1  10    5.58    0.23
   2  -1  10    5.80    0.22
   2  -1  10    5.43    0.23
  -3   1 -10    2.74    0.17
  -3   1 -10    2.85    0.23
  -3   1 -10    2.80    0.18
  -3   1 -10    2.96    0.17
   3  -1  10    2.79    0.15
   3  -1  10    2.94    0.17
   3  -1  10    2.78    0.17
  -4   1 -10    0.72    0.10
  -4   1 -10    1.06    0.11
  -4   1 -10    1.05    0.13
   4  -1  10    1.01    0.11
   4  -1  10    0.97    0.09
   4  -1  10    1.21    0.14
  -5   1 -10    3.53    0.19
  -5   1 -10    3.41    0.20
  -5   1 -10    3.51    0.23
   5  -1  10    3.49    0.18
   5  -1  10    3.34    0.15
   5  -1  10    3.59    0.17
  -6   1 -10    0.11    0.09
  -6   1 -10    0.19    0.10
  -6   1 -10    0.05    0.09
   6  -1  10    0.10    0.07
   6  -1  10    0.00    0.06
   6  -1  10    0.07    0.07
  -7   1 -10    0.03    0.08
  -7   1 -10    0.06    0.10
  -7   1 -10    0.06    0.10
   7  -1  10   -0.04    0.06
   7  -1  10   -0.03    0.07
   7  -1  10    0.13    0.06
  -8   1 -10    0.35    0.10
  -8   1 -10    0.43    0.13
  -8   1 -10    0.39    0.12
   8  -1  10    0.25    0.08
   8  -1  10    0.27    0.07
  -9   1 -10    0.55    0.13
  -9   1 -10    0.50    0.11
  -9   1 -10    0.93    0.14
   9  -1  10    0.59    0.09
   9  -1  10    0.63    0.08
 -10   1 -10   -0.03    0.14
 -10   1 -10    0.11    0.11
 -10   1 -10    0.07    0.12
  10  -1  10    0.00    0.08
  10  -1  10    0.03    0.07
 -11   1 -10   10.63    0.44
 -11   1 -10   10.17    0.40
  11  -1  10   10.59    0.36
  11  -1  10   10.20    0.33
  11  -1  10   10.66    0.43
   3   0 -10    2.40    0.22
  -3   0  10    2.52    0.21
   2   0 -10    0.83    0.12
   2   0 -10    0.83    0.11
  -2   0  10    0.73    0.12
  -2   0  10    0.80    0.10
   1   0 -10    0.51    0.09
   1   0 -10    0.48    0.10
  -1   0  10    0.65    0.10
  -1   0  10    0.58    0.10
   0   0 -10    0.97    0.11
   0   0 -10    0.95    0.11
   0   0  10    0.99    0.10
   0   0  10    1.29    0.15
  -1   0 -10    0.60    0.09
  -1   0 -10    0.48    0.09
   1   0  10    0.42    0.09
   1   0  10    0.51    0.09
   1   0  10    0.36    0.07
  -2   0 -10    0.83    0.10
  -2   0 -10    1.14    0.13
   2   0  10    1.16    0.12
   2   0  10    1.04    0.10
   2   0  10    1.00    0.10
  -3   0 -10    0.63    0.12
  -3   0 -10    0.78    0.10
  -3   0 -10    0.79    0.10
   3   0  10    0.66    0.09
   3   0  10    0.65    0.08
   3   0  10    0.77    0.09
  -4   0 -10    1.55    0.14
  -4   0 -10    1.53    0.18
  -4   0 -10    1.41    0.15
   4   0  10    1.63    0.13
   4   0  10    1.61    0.13
   4   0  10    1.63    0.12
  -5   0 -10    0.57    0.10
  -5   0 -10    0.73    0.09
  -5   0 -10    0.54    0.10
   5   0  10    0.62    0.08
   5   0  10    0.71    0.07
   5   0  10    0.72    0.08
  -6   0 -10    3.13    0.18
  -6   0 -10    3.40    0.19
  -6   0 -10    2.88    0.21
   6   0  10    3.31    0.16
   6   0  10    3.18    0.16
   6   0  10    3.37    0.14
  -7   0 -10    0.65    0.10
  -7   0 -10    0.87    0.12
  -7   0 -10    0.65    0.11
   7   0  10    0.78    0.07
   7   0  10    0.75    0.08
   7   0  10    1.09    0.13
  -8   0 -10    0.70    0.12
  -8   0 -10    0.92    0.13
  -8   0 -10    0.96    0.12
   8   0  10    0.94    0.11
   8   0  10    0.66    0.07
   8   0  10    0.72    0.08
  -9   0 -10    2.93    0.24
  -9   0 -10    2.35    0.22
  -9   0 -10    2.81    0.19
   9   0  10    2.47    0.14
   9   0  10    2.42    0.16
 -10   0 -10    2.26    0.21
 -10   0 -10    2.24    0.24
 -10   0 -10    2.72    0.25
  10   0  10    1.94    0.16
  10   0  10    2.26    0.14
 -11   0 -10    0.80    0.16
 -11   0 -10    0.36    0.13
  11   0  10    0.32    0.14
  11   0  10    0.31    0.07
  11   0  10    0.48    0.10
 -12   0 -10    3.00    0.27
 -12   0 -10    3.81    0.32
  12   0  10    2.78    0.29
  12   0  10    2.66    0.16
   3  -1 -10   -0.10    0.10
   3  -1 -10    0.03    0.11
  -3   1  10    0.17    0.10
   2  -1 -10    1.78    0.17
   2  -1 -10    1.60    0.17
  -2   1  10    1.46    0.17
  -2   1  10    1.33    0.16
   1  -1 -10    2.95    0.18
   1  -1 -10    3.23    0.19
  -1   1  10    3.13    0.19
  -1   1  10    3.01    0.17
   0  -1 -10    0.10    0.08
   0  -1 -10    0.05    0.08
   0   1  10    0.13    0.07
   0   1  10    0.15    0.08
   0   1  10    0.17    0.07
  -1  -1 -10    1.51    0.14
  -1  -1 -10    1.69    0.14
   1   1  10    1.52    0.13
   1   1  10    1.56    0.14
   1   1  10    1.80    0.13
  -2  -1 -10    4.23    0.21
  -2  -1 -10    4.31    0.20
   2   1  10    4.49    0.19
   2   1  10    4.52    0.18
   2   1  10    4.35    0.18
  -3  -1 -10   16.76    0.48
  -3  -1 -10   16.00    0.47
   3   1  10   16.49    0.45
   3   1  10   16.55    0.46
   3   1  10   16.51    0.46
  -4  -1 -10    0.23    0.08
  -4  -1 -10    0.37    0.10
  -4  -1 -10    0.24    0.08
   4   1  10    0.18    0.06
   4   1  10    0.31    0.06
   4   1  10    0.27    0.07
  -5  -1 -10    2.79    0.17
  -5  -1 -10    2.61    0.18
  -5  -1 -10    2.56    0.20
   5   1  10    2.74    0.13
   5   1  10    2.74    0.14
   5   1  10    3.02    0.15
  -6  -1 -10    0.05    0.08
  -6  -1 -10    0.17    0.09
  -6  -1 -10    0.05    0.07
   6   1  10    0.06    0.05
   6   1  10    0.16    0.06
   6   1  10   -0.04    0.05
  -7  -1 -10    0.08    0.09
  -7  -1 -10    0.08    0.08
  -7  -1 -10    0.05    0.08
   7   1  10    0.11    0.05
   7   1  10    0.16    0.06
   7   1  10    0.09    0.06
  -8  -1 -10    1.10    0.14
  -8  -1 -10    1.01    0.12
  -8  -1 -10    1.03    0.12
   8   1  10    1.03    0.11
   8   1  10    1.20    0.12
   8   1  10    1.04    0.09
  -9  -1 -10    0.32    0.11
  -9  -1 -10    0.26    0.10
  -9  -1 -10    0.23    0.11
   9   1  10    0.27    0.07
   9   1  10    0.26    0.06
 -10  -1 -10    0.25    0.11
 -10  -1 -10    0.20    0.13
 -10  -1 -10    0.27    0.13
  10   1  10    0.15    0.06
  10   1  10    0.18    0.08
  10   1  10    0.20    0.12
 -11  -1 -10    3.56    0.30
 -11  -1 -10    3.60    0.24
  11   1  10    3.26    0.16
  11   1  10    3.12    0.24
 -12  -1 -10    0.54    0.15
 -12  -1 -10    0.69    0.18
  12   1  10    1.00    0.11
   4  -2 -10   -0.19    0.10
  -4   2  10    0.21    0.09
   3  -2 -10    2.38    0.20
   3  -2 -10    2.25    0.19
  -3   2  10    1.85    0.18
   2  -2 -10    1.58    0.16
   2  -2 -10    0.93    0.12
  -2   2  10    0.82    0.10
  -2   2  10    1.03    0.10
   1  -2 -10    4.15    0.21
   1  -2 -10    4.52    0.21
  -1   2  10    4.31    0.20
  -1   2  10    4.34    0.18
   0  -2 -10    2.29    0.16
   0  -2 -10    2.40    0.16
   0   2  10    2.37    0.15
   0   2  10    2.32    0.13
   0   2  10    2.27    0.18
  -1  -2 -10    2.68    0.16
  -1  -2 -10    2.67    0.16
   1   2  10    2.64    0.15
   1   2  10    2.58    0.13
   1   2  10    2.77    0.14
  -2  -2 -10    1.32    0.12
  -2  -2 -10    1.41    0.14
   2   2  10    1.10    0.11
   2   2  10    1.44    0.11
   2   2  10    1.47    0.11
  -3  -2 -10   10.72    0.34
  -3  -2 -10   10.79    0.33
   3   2  10   10.56    0.31
   3   2  10   10.65    0.31
   3   2  10   10.56    0.32
  -4  -2 -10    7.48    0.27
  -4  -2 -10    7.64    0.27
   4   2  10    7.66    0.23
   4   2  10    7.59    0.24
   4   2  10    7.52    0.25
  -5  -2 -10    0.24    0.08
  -5  -2 -10    0.18    0.08
   5   2  10    0.18    0.06
   5   2  10    0.21    0.05
   5   2  10    0.21    0.06
  -6  -2 -10    5.48    0.25
  -6  -2 -10    4.62    0.22
  -6  -2 -10    5.17    0.22
   6   2  10    4.78    0.17
   6   2  10    4.69    0.19
   6   2  10    4.90    0.18
  -7  -2 -10    2.01    0.19
  -7  -2 -10    2.14    0.16
  -7  -2 -10    2.20    0.17
   7   2  10    2.36    0.13
   7   2  10    2.05    0.12
   7   2  10    2.15    0.11
  -8  -2 -10    2.78    0.18
  -8  -2 -10    2.67    0.20
  -8  -2 -10    3.23    0.21
   8   2  10    3.01    0.15
   8   2  10    2.82    0.14
   8   2  10    2.76    0.12
  -9  -2 -10    0.03    0.11
  -9  -2 -10    0.03    0.09
  -9  -2 -10    0.03    0.10
   9   2  10    0.06    0.05
   9   2  10    0.07    0.06
 -10  -2 -10    3.82    0.25
 -10  -2 -10    3.42    0.22
 -10  -2 -10    3.16    0.26
  10   2  10    3.46    0.16
  10   2  10    3.40    0.21
 -11  -2 -10    2.24    0.21
 -11  -2 -10    2.01    0.18
  11   2  10    2.11    0.13
 -12  -2 -10    2.00    0.20
 -12  -2 -10    1.92    0.23
  12   2  10    2.17    0.14
   4  -3 -10   -0.19    0.11
   4  -3 -10   -0.14    0.10
  -4   3  10    0.11    0.09
   3  -3 -10    0.42    0.11
   3  -3 -10    0.51    0.10
  -3   3  10    0.31    0.08
   2  -3 -10    0.32    0.10
   2  -3 -10    0.43    0.09
  -2   3  10    0.23    0.07
   1  -3 -10    0.64    0.10
   1  -3 -10    0.70    0.10
  -1   3  10    0.65    0.07
  -1   3  10    0.62    0.08
   0  -3 -10    0.81    0.09
   0  -3 -10    0.63    0.10
   0   3  10    0.70    0.08
   0   3  10    0.63    0.10
   0   3  10    0.74    0.07
  -1  -3 -10    2.27    0.17
  -1  -3 -10    2.37    0.16
   1   3  10    2.19    0.13
   1   3  10    2.43    0.12
   1   3  10    2.42    0.13
  -2  -3 -10    0.03    0.07
  -2  -3 -10    0.06    0.07
   2   3  10    0.02    0.05
   2   3  10    0.11    0.06
   2   3  10    0.16    0.05
  -3  -3 -10    0.34    0.08
  -3  -3 -10    0.23    0.08
   3   3  10    0.19    0.06
   3   3  10    0.33    0.06
   3   3  10    0.25    0.06
  -4  -3 -10    1.47    0.14
  -4  -3 -10    1.58    0.14
   4   3  10    1.45    0.10
   4   3  10    1.33    0.11
   4   3  10    1.47    0.10
  -5  -3 -10    1.64    0.15
  -5  -3 -10    1.41    0.14
   5   3  10    1.34    0.11
   5   3  10    1.59    0.11
   5   3  10    1.41    0.10
  -6  -3 -10    4.26    0.21
  -6  -3 -10    4.17    0.20
   6   3  10    4.13    0.17
   6   3  10    4.11    0.15
   6   3  10    4.04    0.17
  -7  -3 -10    0.26    0.09
  -7  -3 -10    0.26    0.09
   7   3  10    0.31    0.06
   7   3  10    0.32    0.06
   7   3  10    0.36    0.06
  -8  -3 -10    1.11    0.13
  -8  -3 -10    1.35    0.15
   8   3  10    1.25    0.12
   8   3  10    1.20    0.10
   8   3  10    1.00    0.10
  -9  -3 -10   -0.09    0.11
  -9  -3 -10    0.02    0.09
   9   3  10    0.04    0.06
   9   3  10   -0.09    0.08
   9   3  10    0.00    0.05
 -10  -3 -10   -0.04    0.10
 -10  -3 -10    0.14    0.13
  10   3  10    0.03    0.05
 -11  -3 -10    6.12    0.30
  11   3  10    5.93    0.21
 -12  -3 -10    2.57    0.25
  12   3  10    2.21    0.14
   4  -4 -10    1.08    0.13
   4  -4 -10    1.23    0.14
  -4   4  10    1.20    0.12
   3  -4 -10    0.49    0.10
   3  -4 -10    0.37    0.11
  -3   4  10    0.21    0.08
   2  -4 -10    1.33    0.16
   2  -4 -10    1.28    0.12
  -2   4  10    1.15    0.11
   1  -4 -10    4.60    0.22
   1  -4 -10    4.23    0.20
  -1   4  10    4.48    0.19
  -1   4  10    4.14    0.16
   0  -4 -10   12.10    0.38
   0  -4 -10   11.91    0.37
   0   4  10   12.37    0.36
   0   4  10   11.36    0.36
   0   4  10   11.82    0.32
  -1  -4 -10    0.61    0.09
  -1  -4 -10    0.60    0.09
   1   4  10    0.52    0.06
   1   4  10    0.63    0.06
   1   4  10    0.66    0.08
  -2  -4 -10    1.82    0.15
  -2  -4 -10    1.91    0.15
   2   4  10    1.92    0.12
   2   4  10    1.85    0.11
   2   4  10    1.93    0.12
  -3  -4 -10    0.57    0.09
  -3  -4 -10    0.48    0.09
   3   4  10    0.44    0.06
   3   4  10    0.40    0.06
   3   4  10    0.49    0.07
  -4  -4 -10    2.32    0.17
  -4  -4 -10    2.48    0.16
   4   4  10    2.38    0.12
   4   4  10    2.49    0.13
   4   4  10    2.39    0.12
  -5  -4 -10    0.17    0.08
  -5  -4 -10    0.10    0.07
   5   4  10   -0.01    0.05
   5   4  10    0.11    0.05
   5   4  10    0.01    0.05
  -6  -4 -10    5.30    0.23
  -6  -4 -10    5.56    0.25
   6   4  10    5.40    0.18
   6   4  10    5.46    0.20
   6   4  10    5.45    0.19
  -7  -4 -10    0.70    0.11
  -7  -4 -10    0.80    0.11
   7   4  10    0.75    0.08
   7   4  10    0.92    0.09
  -8  -4 -10    1.60    0.19
  -8  -4 -10    1.98    0.17
   8   4  10    1.58    0.11
   8   4  10    1.56    0.11
  -9  -4 -10    0.34    0.10
  -9  -4 -10    0.54    0.13
   9   4  10    0.40    0.06
   9   4  10    0.45    0.06
 -10  -4 -10    0.85    0.16
 -10  -4 -10    0.85    0.13
  10   4  10    0.97    0.10
 -11  -4 -10    0.11    0.12
  11   4  10    0.01    0.05
 -12  -4 -10    2.26    0.25
  12   4  10    1.60    0.13
   4  -5 -10    0.15    0.11
   4  -5 -10    0.18    0.11
  -4   5  10    0.23    0.09
   3  -5 -10   -0.03    0.10
   3  -5 -10    0.22    0.10
  -3   5  10    0.06    0.07
   2  -5 -10    1.43    0.16
   2  -5 -10    1.40    0.13
  -2   5  10    1.27    0.13
   1  -5 -10    0.20    0.08
   1  -5 -10    0.23    0.10
  -1   5  10    0.33    0.07
   0  -5 -10    0.09    0.07
   0  -5 -10    0.04    0.08
   0  -5 -10    0.07    0.09
   0   5  10   -0.03    0.06
   0   5  10    0.04    0.08
  -1  -5 -10    8.33    0.29
  -1  -5 -10    7.93    0.28
   1   5  10    8.19    0.25
   1   5  10    6.70    0.22
   1   5  10    8.04    0.26
  -2  -5 -10    0.43    0.09
  -2  -5 -10    0.52    0.10
   2   5  10    0.39    0.05
   2   5  10    0.54    0.07
   2   5  10    0.34    0.06
  -3  -5 -10    0.46    0.09
  -3  -5 -10    0.54    0.10
   3   5  10    0.47    0.06
   3   5  10    0.58    0.07
   3   5  10    0.44    0.06
  -4  -5 -10    1.78    0.15
  -4  -5 -10    1.70    0.15
   4   5  10    1.57    0.11
   4   5  10    1.55    0.10
  -5  -5 -10    0.53    0.09
  -5  -5 -10    0.53    0.10
   5   5  10    0.43    0.06
   5   5  10    0.38    0.06
  -6  -5 -10    0.20    0.09
  -6  -5 -10    0.15    0.08
   6   5  10    0.20    0.05
   6   5  10    0.22    0.06
  -7  -5 -10    2.43    0.20
  -7  -5 -10    2.37    0.18
   7   5  10    2.29    0.12
   7   5  10    2.21    0.13
  -8  -5 -10    4.11    0.22
  -8  -5 -10    4.15    0.24
   8   5  10    3.95    0.17
   8   5  10    4.09    0.16
  -9  -5 -10    0.08    0.12
  -9  -5 -10    0.00    0.09
   9   5  10    0.04    0.06
   9   5  10   -0.06    0.05
 -10  -5 -10    4.34    0.31
 -10  -5 -10    4.67    0.27
  10   5  10    5.13    0.18
  10   5  10    4.93    0.19
 -11  -5 -10   -0.08    0.11
  11   5  10    0.05    0.06
 -12  -5 -10    3.72    0.29
  12   5  10    3.68    0.17
   4  -6 -10    5.23    0.26
   4  -6 -10    5.64    0.28
  -4   6  10    5.57    0.25
   3  -6 -10    0.23    0.11
   3  -6 -10    0.09    0.10
  -3   6  10    0.18    0.08
   2  -6 -10    7.55    0.31
   2  -6 -10    8.48    0.30
  -2   6  10    7.87    0.28
   1  -6 -10    0.02    0.08
   1  -6 -10   -0.22    0.08
  -1   6  10   -0.04    0.05
   0  -6 -10    3.67    0.20
   0  -6 -10    3.76    0.20
   0   6  10    3.43    0.16
   0   6  10    3.64    0.19
  -1  -6 -10   -0.02    0.08
  -1  -6 -10    0.06    0.09
   1   6  10   -0.02    0.06
   1   6  10    0.07    0.06
  -2  -6 -10   -0.06    0.07
  -2  -6 -10    0.14    0.09
   2   6  10   -0.09    0.05
   2   6  10   -0.03    0.05
  -3  -6 -10    1.54    0.15
  -3  -6 -10    1.44    0.15
   3   6  10    1.23    0.11
   3   6  10    1.29    0.11
  -4  -6 -10    1.53    0.15
  -4  -6 -10    1.55    0.16
   4   6  10    1.40    0.11
   4   6  10    1.29    0.11
  -5  -6 -10    0.04    0.08
  -5  -6 -10    0.07    0.08
   5   6  10    0.03    0.05
   5   6  10    0.00    0.05
  -6  -6 -10    0.17    0.09
  -6  -6 -10    0.06    0.09
   6   6  10    0.00    0.05
   6   6  10    0.08    0.05
  -7  -6 -10    1.89    0.20
  -7  -6 -10    2.34    0.19
   7   6  10    1.91    0.13
   7   6  10    2.09    0.12
  -8  -6 -10    8.64    0.36
  -8  -6 -10    9.45    0.35
   8   6  10    9.20    0.27
   8   6  10    9.02    0.29
  -9  -6 -10    5.71    0.32
  -9  -6 -10    6.54    0.29
   9   6  10    5.51    0.21
   9   6  10    6.07    0.21
 -10  -6 -10    3.17    0.30
 -10  -6 -10    3.23    0.24
  10   6  10    3.34    0.16
  10   6  10    3.41    0.16
 -11  -6 -10    1.65    0.18
  11   6  10    2.04    0.13
 -12  -6 -10    1.08    0.19
  12   6  10    1.09    0.12
   4  -7 -10    1.46    0.14
   4  -7 -10    1.40    0.16
  -4   7  10    1.27    0.13
   3  -7 -10    2.10    0.21
   3  -7 -10    2.54    0.21
  -3   7  10    1.98    0.17
   2  -7 -10   -0.01    0.11
   2  -7 -10    0.04    0.09
   1  -7 -10    0.24    0.10
   1  -7 -10    0.34    0.09
  -1   7  10    0.07    0.06
   0  -7 -10    0.10    0.08
   0  -7 -10    0.04    0.10
   0   7  10    0.25    0.09
   0   7  10    0.03    0.06
  -1  -7 -10    0.17    0.10
  -1  -7 -10    0.14    0.08
   1   7  10    0.00    0.07
   1   7  10   -0.04    0.05
  -2  -7 -10    2.52    0.19
  -2  -7 -10    2.43    0.12
  -2  -7 -10    2.41    0.18
   2   7  10    2.41    0.13
   2   7  10    2.57    0.14
  -3  -7 -10    0.02    0.09
  -3  -7 -10    0.09    0.08
   3   7  10    0.05    0.05
   3   7  10    0.09    0.05
  -4  -7 -10    0.33    0.10
  -4  -7 -10    0.33    0.10
   4   7  10    0.44    0.07
   4   7  10    0.32    0.06
  -5  -7 -10    5.48    0.25
  -5  -7 -10    5.20    0.26
   5   7  10    5.50    0.20
   5   7  10    5.22    0.20
  -6  -7 -10   16.59    0.53
  -6  -7 -10   17.07    0.53
   6   7  10   16.92    0.47
   6   7  10   16.58    0.46
  -7  -7 -10    0.54    0.13
  -7  -7 -10    0.65    0.12
   7   7  10    0.62    0.08
   7   7  10    0.53    0.08
  -8  -7 -10   13.57    0.46
  -8  -7 -10   12.72    0.46
   8   7  10   13.25    0.39
   8   7  10   13.13    0.37
  -9  -7 -10    1.23    0.15
  -9  -7 -10    0.90    0.16
   9   7  10    1.04    0.11
   9   7  10    1.11    0.13
 -10  -7 -10    7.64    0.36
 -10  -7 -10    8.04    0.40
  10   7  10    7.99    0.26
  10   7  10    7.76    0.26
 -11  -7 -10    0.21    0.14
  11   7  10    0.03    0.06
 -12  -7 -10    0.76    0.17
  12   7  10    0.55    0.08
   4  -8 -10    1.18    0.15
   4  -8 -10    1.19    0.15
  -4   8  10    0.98    0.12
   3  -8 -10    0.02    0.11
   3  -8 -10    0.03    0.11
  -3   8  10   -0.01    0.08
   2  -8 -10    1.19    0.13
   2  -8 -10    1.08    0.14
  -2   8  10    1.01    0.11
   1  -8 -10    0.03    0.09
   1  -8 -10   -0.15    0.09
  -1   8  10    0.00    0.06
   0  -8 -10    2.07    0.19
   0   8  10    1.77    0.13
   0   8  10    1.74    0.15
  -1  -8 -10    0.12    0.11
  -1  -8 -10    0.02    0.09
   1   8  10   -0.02    0.07
   1   8  10   -0.09    0.05
  -2  -8 -10    3.05    0.21
  -2  -8 -10    2.93    0.14
  -2  -8 -10    3.08    0.21
   2   8  10    3.13    0.15
   2   8  10    2.96    0.15
  -3  -8 -10    0.13    0.09
  -3  -8 -10    0.22    0.06
  -3  -8 -10    0.16    0.10
   3   8  10    0.22    0.07
   3   8  10    0.10    0.06
  -4  -8 -10    2.08    0.13
  -4  -8 -10    2.05    0.20
  -4  -8 -10    1.86    0.18
   4   8  10    2.29    0.13
   4   8  10    2.13    0.14
  -5  -8 -10    2.28    0.14
  -5  -8 -10    2.15    0.20
  -5  -8 -10    2.20    0.21
   5   8  10    2.43    0.14
   5   8  10    2.40    0.14
  -6  -8 -10   14.56    0.49
  -6  -8 -10   14.56    0.49
   6   8  10   14.82    0.42
   6   8  10   14.63    0.41
  -7  -8 -10   19.22    0.60
  -7  -8 -10   18.80    0.60
   7   8  10   18.98    0.53
   7   8  10   18.92    0.52
  -8  -8 -10    8.62    0.38
  -8  -8 -10    9.13    0.37
   8   8  10    8.55    0.29
   8   8  10    8.47    0.28
  -9  -8 -10    3.00    0.29
  -9  -8 -10    3.05    0.24
   9   8  10    2.47    0.17
   9   8  10    2.86    0.15
 -10  -8 -10    4.56    0.35
 -10  -8 -10    4.31    0.23
 -10  -8 -10    3.72    0.29
  10   8  10    4.20    0.19
  10   8  10    4.48    0.21
 -11  -8 -10   -0.02    0.16
 -11  -8 -10    0.12    0.10
  11   8  10    0.14    0.07
   3  -9 -10    2.50    0.24
   3  -9 -10    2.88    0.23
  -3   9  10    2.29    0.19
   2  -9 -10    1.00    0.15
   2  -9 -10    1.17    0.13
  -2   9  10    0.82    0.11
   1  -9 -10    0.78    0.11
   1  -9 -10    0.95    0.13
  -1   9  10    0.85    0.10
   0  -9 -10   -0.05    0.10
   0   9  10    0.06    0.09
   0   9  10   -0.06    0.06
  -1  -9 -10    0.07    0.10
  -1  -9 -10    0.08    0.11
   1   9  10    0.12    0.08
   1   9  10   -0.05    0.05
  -2  -9 -10    2.03    0.22
  -2  -9 -10    2.93    0.22
  -2  -9 -10    2.28    0.14
   2   9  10    2.27    0.14
   2   9  10    2.47    0.15
  -3  -9 -10    2.23    0.21
  -3  -9 -10    2.04    0.21
  -3  -9 -10    2.08    0.13
   3   9  10    2.28    0.15
   3   9  10    2.30    0.15
  -4  -9 -10    0.24    0.07
  -4  -9 -10    0.18    0.11
  -4  -9 -10    0.26    0.11
   4   9  10    0.23    0.07
   4   9  10    0.03    0.06
  -5  -9 -10    5.71    0.22
  -5  -9 -10    5.92    0.30
  -5  -9 -10    5.26    0.29
   5   9  10    5.71    0.22
   5   9  10    5.53    0.22
  -6  -9 -10    1.18    0.16
  -6  -9 -10    1.02    0.16
  -6  -9 -10    1.10    0.11
   6   9  10    1.20    0.12
   6   9  10    0.97    0.10
  -7  -9 -10    1.82    0.22
  -7  -9 -10    1.85    0.20
  -7  -9 -10    1.69    0.15
   7   9  10    1.65    0.13
   7   9  10    1.85    0.15
  -8  -9 -10    3.88    0.21
  -8  -9 -10    3.45    0.30
  -8  -9 -10    4.06    0.27
   8   9  10    3.72    0.19
   8   9  10    3.66    0.18
  -9  -9 -10   -0.13    0.12
  -9  -9 -10    0.00    0.09
  -9  -9 -10   -0.22    0.17
   9   9  10    0.05    0.07
   9   9  10    0.14    0.08
 -10  -9 -10    0.07    0.09
 -10  -9 -10    0.06    0.15
  10   9  10    0.16    0.07
  10   9  10    0.12    0.10
 -11  -9 -10   -0.13    0.16
 -11  -9 -10    0.17    0.11
  11   9  10    0.21    0.07
   3 -10 -10    0.25    0.14
   3 -10 -10    0.08    0.13
  -3  10  10   -0.07    0.09
   2 -10 -10    8.83    0.33
   2 -10 -10    8.30    0.36
  -2  10  10    8.58    0.31
   1 -10 -10    0.74    0.13
   1 -10 -10    0.90    0.12
  -1  10  10    0.69    0.10
   0 -10 -10    0.61    0.13
   0  10  10    1.04    0.11
   0  10  10    1.12    0.12
  -1 -10 -10    0.23    0.11
  -1 -10 -10    0.31    0.13
   1  10  10    0.08    0.09
   1  10  10    0.21    0.07
  -2 -10 -10    4.28    0.29
  -2 -10 -10    4.70    0.27
  -2 -10 -10    4.06    0.18
   2  10  10    4.19    0.20
   2  10  10    4.27    0.19
  -3 -10 -10    3.61    0.28
  -3 -10 -10    3.17    0.17
  -3 -10 -10    3.37    0.25
   3  10  10    3.31    0.18
   3  10  10    3.73    0.18
  -4 -10 -10    1.40    0.14
  -4 -10 -10    1.61    0.17
  -4 -10 -10    1.98    0.23
   4  10  10    1.65    0.15
   4  10  10    1.50    0.14
  -5 -10 -10    3.52    0.19
  -5 -10 -10    3.81    0.27
  -5 -10 -10    3.94    0.28
   5  10  10    3.64    0.18
   5  10  10    3.39    0.19
  -6 -10 -10    0.54    0.10
  -6 -10 -10    0.44    0.13
  -6 -10 -10    0.44    0.15
   6  10  10    0.41    0.08
   6  10  10    0.38    0.08
  -7 -10 -10    3.31    0.27
  -7 -10 -10    3.25    0.29
  -7 -10 -10    3.18    0.21
   7  10  10    3.15    0.18
   7  10  10    2.89    0.18
  -8 -10 -10    0.16    0.17
  -8 -10 -10    0.06    0.09
  -8 -10 -10   -0.03    0.14
   8  10  10   -0.09    0.07
   8  10  10   -0.02    0.08
  -9 -10 -10    0.53    0.17
  -9 -10 -10    0.81    0.13
  -9 -10 -10    0.37    0.21
   9  10  10    0.65    0.09
   9  10  10    0.65    0.11
 -10 -10 -10    0.07    0.16
 -10 -10 -10    0.23    0.11
  10  10  10    0.16    0.11
  10  10  10    0.12    0.07
   2 -11 -10    0.54    0.14
   2 -11 -10    0.67    0.15
  -2  11  10    0.61    0.11
   1 -11 -10    0.04    0.12
   1 -11 -10   -0.22    0.11
  -1  11  10   -0.09    0.08
   0 -11 -10   -0.17    0.11
   0 -11 -10    0.08    0.11
   0  11  10   -0.18    0.07
  -1 -11 -10    0.10    0.15
  -1 -11 -10    0.72    0.15
   1  11  10    0.43    0.10
   1  11  10    0.44    0.09
  -2 -11 -10    0.05    0.14
  -2 -11 -10   -0.18    0.12
   2  11  10    0.00    0.09
   2  11  10   -0.01    0.07
  -3 -11 -10    1.98    0.17
  -3 -11 -10    2.29    0.26
  -3 -11 -10    2.27    0.26
   3  11  10    2.21    0.17
   3  11  10    1.95    0.16
  -4 -11 -10    1.55    0.17
  -4 -11 -10    2.02    0.21
  -4 -11 -10    1.54    0.19
   4  11  10    1.54    0.16
   4  11  10    2.11    0.17
  -5 -11 -10    2.78    0.20
  -5 -11 -10    2.54    0.29
  -5 -11 -10    2.98    0.28
   5  11  10    2.78    0.18
   5  11  10    2.68    0.18
  -6 -11 -10    3.33    0.28
  -6 -11 -10    2.84    0.31
  -6 -11 -10    3.09    0.21
   6  11  10    3.17    0.20
   6  11  10    3.23    0.18
  -7 -11 -10    0.16    0.17
  -7 -11 -10    0.02    0.10
  -7 -11 -10    0.18    0.15
   7  11  10    0.04    0.09
   7  11  10    0.07    0.07
  -8 -11 -10    0.90    0.18
  -8 -11 -10    0.98    0.14
  -8 -11 -10    1.03    0.22
   8  11  10    1.06    0.12
   8  11  10    0.76    0.10
  -9 -11 -10   -0.15    0.16
  -9 -11 -10    0.15    0.12
   9  11  10    0.17    0.11
   9  11  10   -0.04    0.07
   1 -12 -10    0.61    0.18
   1 -12 -10    0.60    0.16
   1 -12 -10    0.56    0.14
  -1  12  10    0.26    0.11
   0 -12 -10    0.32    0.12
   0 -12 -10   -0.05    0.14
   0  12  10    0.08    0.09
  -1 -12 -10    0.26    0.14
   1  12  10    0.18    0.11
   1  12  10    0.27    0.09
  -2 -12 -10    0.15    0.15
  -2 -12 -10    0.40    0.15
   2  12  10    0.24    0.08
   2  12  10    0.39    0.11
  -3 -12 -10    1.07    0.17
  -3 -12 -10    1.06    0.13
  -3 -12 -10    1.51    0.20
   3  12  10    1.26    0.13
   3  12  10    1.48    0.17
  -4 -12 -10    1.10    0.13
  -4 -12 -10    0.96    0.18
  -4 -12 -10    1.41    0.19
   4  12  10    1.08    0.13
   4  12  10    0.79    0.10
  -5 -12 -10    0.46    0.17
  -5 -12 -10    0.47    0.17
  -5 -12 -10    0.64    0.13
   5  12  10    0.49    0.10
   5  12  10    0.56    0.10
  -6 -12 -10    0.75    0.17
  -6 -12 -10    0.54    0.19
  -6 -12 -10    0.32    0.13
   6  12  10    0.58    0.10
   6  12  10    0.69    0.11
  -7 -12 -10    0.58    0.22
  -7 -12 -10    0.54    0.14
  -7 -12 -10    1.18    0.21
   7  12  10    0.99    0.11
   7  12  10    0.60    0.10
  -1 -13 -10    0.11    0.16
   1  13  10   -0.05    0.09
  -2 -13 -10    0.57    0.18
   2  13  10    0.26    0.13
   2  13  10    0.60    0.10
  -3 -13 -10    0.25    0.17
  -3 -13 -10    0.19    0.17
   3  13  10    0.02    0.12
   3  13  10    0.04    0.09
  -4 -13 -10    2.16    0.23
  -4 -13 -10    1.57    0.23
  -4 -13 -10    2.14    0.25
   4  13  10    1.94    0.21
   4  13  10    2.13    0.19
  -5 -13 -10    0.00    0.18
  -5 -13 -10   -0.10    0.14
  -5 -13 -10    0.07    0.19
   5  13  10    0.01    0.10
   5  13  10    0.00    0.09
  -4   3 -11    1.77    0.20
  -4   3 -11    1.28    0.15
  -4   3 -11    1.67    0.20
   4  -3  11    1.72    0.18
   4  -3  11    1.40    0.16
   4  -3  11    1.36    0.14
  -5   3 -11    0.95    0.14
  -5   3 -11    0.59    0.17
  -5   3 -11    0.84    0.15
   5  -3  11    0.85    0.14
   5  -3  11    1.00    0.13
   5  -3  11    0.86    0.12
  -6   3 -11    0.05    0.12
  -6   3 -11   -0.16    0.13
  -6   3 -11   -0.02    0.14
  -6   3 -11    0.03    0.16
   6  -3  11    0.08    0.09
   6  -3  11    0.06    0.10
   6  -3  11    0.07    0.10
  -7   3 -11    1.47    0.19
  -7   3 -11    1.14    0.16
  -7   3 -11    0.64    0.16
  -7   3 -11    0.95    0.15
   7  -3  11    1.09    0.13
   7  -3  11    1.13    0.13
  -2   2 -11   -0.08    0.10
  -2   2 -11    0.16    0.12
   2  -2  11   -0.05    0.09
   2  -2  11    0.07    0.10
  -3   2 -11    0.49    0.11
  -3   2 -11    0.51    0.12
   3  -2  11    0.37    0.11
   3  -2  11    0.61    0.12
   3  -2  11    0.51    0.09
  -4   2 -11    3.20    0.29
  -4   2 -11    2.99    0.23
  -4   2 -11    3.27    0.21
   4  -2  11    3.17    0.21
   4  -2  11    3.09    0.20
   4  -2  11    3.55    0.22
  -5   2 -11    0.75    0.14
  -5   2 -11    0.85    0.16
  -5   2 -11    0.89    0.12
  -5   2 -11    0.67    0.14
   5  -2  11    0.90    0.12
   5  -2  11    0.96    0.12
   5  -2  11    0.84    0.10
  -6   2 -11    1.47    0.19
  -6   2 -11    1.68    0.16
  -6   2 -11    1.50    0.16
   6  -2  11    1.91    0.16
   6  -2  11    1.80    0.18
   6  -2  11    2.04    0.17
  -7   2 -11    1.02    0.15
  -7   2 -11    1.03    0.17
  -7   2 -11    0.76    0.15
   7  -2  11    0.77    0.11
   7  -2  11    0.73    0.11
  -8   2 -11    0.75    0.17
  -8   2 -11    0.75    0.14
  -8   2 -11    1.08    0.17
   8  -2  11    0.69    0.11
   8  -2  11    0.72    0.11
  -9   2 -11    0.39    0.16
  -9   2 -11    0.13    0.15
  -9   2 -11   -0.09    0.13
   9  -2  11   -0.09    0.09
   9  -2  11   -0.04    0.09
   0   1 -11   -0.01    0.11
   0   1 -11    0.28    0.12
   0  -1  11    0.08    0.11
   0  -1  11    0.07    0.09
  -1   1 -11    4.60    0.25
  -1   1 -11    5.10    0.25
   1  -1  11    4.54    0.22
   1  -1  11    4.46    0.25
  -2   1 -11   -0.02    0.09
  -2   1 -11   -0.26    0.09
   2  -1  11    0.01    0.08
   2  -1  11   -0.04    0.09
   2  -1  11    0.11    0.11
  -3   1 -11    0.92    0.12
  -3   1 -11    0.83    0.12
   3  -1  11    0.79    0.10
   3  -1  11    0.98    0.12
   3  -1  11    0.83    0.12
  -4   1 -11    0.36    0.13
  -4   1 -11    0.35    0.09
  -4   1 -11    0.16    0.10
   4  -1  11    0.07    0.07
   4  -1  11    0.14    0.08
   4  -1  11    0.13    0.10
  -5   1 -11    0.33    0.12
  -5   1 -11    0.42    0.12
  -5   1 -11    0.20    0.11
   5  -1  11    0.30    0.09
   5  -1  11    0.37    0.10
   5  -1  11    0.25    0.08
  -6   1 -11    0.55    0.14
  -6   1 -11    0.50    0.12
  -6   1 -11    0.59    0.13
   6  -1  11    0.62    0.10
   6  -1  11    0.70    0.10
   6  -1  11    0.46    0.08
  -7   1 -11    0.19    0.11
  -7   1 -11    0.00    0.12
  -7   1 -11    0.24    0.12
   7  -1  11    0.20    0.08
   7  -1  11    0.18    0.07
   7  -1  11    0.23    0.08
  -8   1 -11    0.28    0.12
  -8   1 -11    0.35    0.14
  -8   1 -11    0.18    0.13
   8  -1  11    0.16    0.08
   8  -1  11    0.14    0.09
  -9   1 -11    0.59    0.15
  -9   1 -11    0.30    0.13
  -9   1 -11    0.12    0.15
   9  -1  11    0.16    0.09
   9  -1  11    0.36    0.08
 -10   1 -11    0.31    0.13
 -10   1 -11   -0.05    0.16
 -10   1 -11    0.75    0.17
  10  -1  11    0.27    0.08
  10  -1  11    0.08    0.09
   1   0 -11    2.43    0.20
   1   0 -11    2.34    0.21
  -1   0  11    2.50    0.21
  -1   0  11    2.23    0.21
   0   0 -11    2.18    0.21
   0   0 -11    2.49    0.20
   0   0  11    1.95    0.19
   0   0  11    1.83    0.19
  -1   0 -11    0.97    0.12
  -1   0 -11    0.64    0.11
   1   0  11    0.88    0.11
   1   0  11    0.89    0.10
  -2   0 -11    5.08    0.24
  -2   0 -11    4.99    0.25
   2   0  11    5.03    0.24
   2   0  11    5.18    0.23
   2   0  11    5.17    0.22
  -3   0 -11    0.26    0.09
  -3   0 -11    0.19    0.08
   3   0  11   -0.02    0.07
   3   0  11    0.22    0.09
   3   0  11    0.12    0.08
  -4   0 -11    1.83    0.15
  -4   0 -11    2.36    0.19
   4   0  11    2.44    0.17
   4   0  11    2.24    0.16
   4   0  11    2.02    0.15
  -5   0 -11    0.10    0.10
  -5   0 -11    0.28    0.10
  -5   0 -11   -0.04    0.11
   5   0  11    0.10    0.07
   5   0  11    0.15    0.08
   5   0  11    0.28    0.09
  -6   0 -11    0.89    0.12
  -6   0 -11    1.08    0.14
  -6   0 -11    0.70    0.12
   6   0  11    0.71    0.10
   6   0  11    0.95    0.11
   6   0  11    0.91    0.09
  -7   0 -11    0.31    0.11
  -7   0 -11    0.46    0.13
  -7   0 -11    0.34    0.12
   7   0  11    0.38    0.08
   7   0  11    0.39    0.08
   7   0  11    0.41    0.07
  -8   0 -11   -0.09    0.12
  -8   0 -11    0.07    0.10
  -8   0 -11   -0.02    0.12
   8   0  11   -0.05    0.07
   8   0  11   -0.14    0.06
  -9   0 -11    0.08    0.11
  -9   0 -11   -0.05    0.12
  -9   0 -11    0.23    0.13
   9   0  11    0.09    0.07
   9   0  11    0.11    0.08
 -10   0 -11    0.16    0.15
 -10   0 -11    0.16    0.12
 -10   0 -11    0.02    0.15
  10   0  11    0.12    0.08
  10   0  11    0.02    0.07
 -11   0 -11    0.50    0.19
 -11   0 -11    0.56    0.14
  11   0  11    0.31    0.08
  11   0  11    0.65    0.11
  11   0  11    0.52    0.17
   1  -1 -11    1.35    0.14
   1  -1 -11    1.98    0.19
  -1   1  11    1.30    0.13
  -1   1  11    1.00    0.12
   0  -1 -11    1.03    0.13
   0  -1 -11    1.10    0.12
   0   1  11    1.09    0.11
   0   1  11    1.03    0.11
  -1  -1 -11    3.34    0.20
  -1  -1 -11    3.42    0.20
   1   1  11    3.32    0.18
   1   1  11    3.00    0.19
   1   1  11    3.30    0.19
  -2  -1 -11    0.01    0.08
  -2  -1 -11    0.12    0.08
   2   1  11   -0.07    0.07
   2   1  11   -0.01    0.08
   2   1  11    0.05    0.06
  -3  -1 -11    0.03    0.08
  -3  -1 -11   -0.03    0.09
   3   1  11    0.11    0.07
   3   1  11   -0.05    0.08
   3   1  11    0.12    0.06
  -4  -1 -11    0.57    0.10
  -4  -1 -11    0.71    0.11
   4   1  11    0.75    0.09
   4   1  11    0.65    0.08
   4   1  11    0.65    0.09
  -5  -1 -11    0.51    0.10
  -5  -1 -11    0.46    0.11
   5   1  11    0.44    0.08
   5   1  11    0.45    0.08
   5   1  11    0.46    0.07
  -6  -1 -11    0.17    0.09
  -6  -1 -11    0.14    0.10
  -6  -1 -11    0.14    0.11
   6   1  11    0.22    0.06
   6   1  11    0.17    0.07
   6   1  11    0.23    0.07
  -7  -1 -11    0.27    0.12
  -7  -1 -11    0.18    0.10
  -7  -1 -11    0.19    0.11
   7   1  11    0.15    0.06
   7   1  11    0.29    0.07
   7   1  11    0.14    0.07
  -8  -1 -11    0.40    0.11
  -8  -1 -11    0.13    0.11
  -8  -1 -11    0.44    0.13
   8   1  11    0.29    0.08
   8   1  11    0.22    0.07
   8   1  11    0.35    0.07
  -9  -1 -11    4.01    0.28
  -9  -1 -11    3.79    0.24
  -9  -1 -11    3.61    0.26
   9   1  11    3.57    0.18
   9   1  11    3.68    0.19
 -10  -1 -11   13.56    0.46
 -10  -1 -11   13.50    0.50
 -10  -1 -11   12.55    0.47
  10   1  11   13.44    0.41
  10   1  11   12.82    0.40
 -11  -1 -11    1.52    0.20
 -11  -1 -11    1.71    0.18
  11   1  11    1.82    0.14
  11   1  11    2.02    0.18
   2  -2 -11   -0.16    0.11
   2  -2 -11    0.09    0.10
  -2   2  11   -0.17    0.08
   1  -2 -11    1.40    0.14
   1  -2 -11    1.80    0.19
  -1   2  11    1.64    0.16
  -1   2  11    1.37    0.16
   0  -2 -11    1.26    0.13
   0  -2 -11    1.72    0.17
   0   2  11    1.33    0.14
   0   2  11    1.69    0.15
  -1  -2 -11    0.10    0.08
  -1  -2 -11    0.06    0.09
   1   2  11    0.20    0.07
   1   2  11    0.03    0.06
   1   2  11    0.16    0.09
  -2  -2 -11    0.04    0.08
   2   2  11    0.06    0.07
   2   2  11    0.01    0.06
   2   2  11   -0.01    0.07
  -3  -2 -11    0.21    0.09
  -3  -2 -11    0.29    0.10
   3   2  11    0.23    0.08
   3   2  11    0.30    0.07
   3   2  11    0.22    0.07
  -4  -2 -11    1.43    0.16
  -4  -2 -11    1.35    0.13
   4   2  11    1.37    0.13
   4   2  11    1.57    0.13
   4   2  11    1.59    0.12
  -5  -2 -11    0.04    0.09
  -5  -2 -11    0.10    0.09
   5   2  11    0.24    0.06
   5   2  11    0.15    0.07
   5   2  11    0.11    0.06
  -6  -2 -11    2.62    0.20
  -6  -2 -11    2.91    0.19
   6   2  11    2.66    0.15
   6   2  11    2.67    0.14
   6   2  11    2.73    0.15
  -7  -2 -11    3.13    0.22
  -7  -2 -11    3.03    0.24
  -7  -2 -11    3.27    0.20
   7   2  11    3.35    0.15
   7   2  11    3.35    0.17
   7   2  11    3.09    0.16
  -8  -2 -11    2.04    0.19
  -8  -2 -11    2.21    0.22
  -8  -2 -11    2.42    0.23
   8   2  11    2.62    0.16
   8   2  11    2.25    0.14
   8   2  11    2.20    0.12
  -9  -2 -11    0.12    0.12
  -9  -2 -11   -0.01    0.12
  -9  -2 -11    0.05    0.11
   9   2  11    0.03    0.06
   9   2  11    0.19    0.07
 -10  -2 -11    5.93    0.31
 -10  -2 -11    6.29    0.34
 -10  -2 -11    6.43    0.34
  10   2  11    6.50    0.24
  10   2  11    6.45    0.29
  10   2  11    6.61    0.26
 -11  -2 -11    2.52    0.30
 -11  -2 -11    2.51    0.25
  11   2  11    2.42    0.15
 -12  -2 -11    1.48    0.21
 -12  -2 -11    1.47    0.19
  12   2  11    1.49    0.13
   2  -3 -11    0.46    0.11
   2  -3 -11    0.20    0.11
  -2   3  11    0.12    0.09
   1  -3 -11    0.10    0.10
   1  -3 -11    0.30    0.10
  -1   3  11    0.17    0.08
   0  -3 -11    0.03    0.09
   0  -3 -11    0.00    0.08
   0   3  11    0.04    0.07
   0   3  11   -0.04    0.07
  -1  -3 -11   11.37    0.38
  -1  -3 -11   11.29    0.36
   1   3  11   10.98    0.33
   1   3  11   11.41    0.35
   1   3  11   10.70    0.34
  -2  -3 -11   11.80    0.38
  -2  -3 -11   12.62    0.40
   2   3  11   12.14    0.35
   2   3  11   11.65    0.36
   2   3  11   12.38    0.36
  -3  -3 -11    1.32    0.13
  -3  -3 -11    1.40    0.16
   3   3  11    1.33    0.12
   3   3  11    1.43    0.11
   3   3  11    1.30    0.13
  -4  -3 -11    0.79    0.11
  -4  -3 -11    0.85    0.11
   4   3  11    0.73    0.08
   4   3  11    0.68    0.09
   4   3  11    0.69    0.08
  -5  -3 -11    2.34    0.19
  -5  -3 -11    2.14    0.17
   5   3  11    2.23    0.13
   5   3  11    2.19    0.13
   5   3  11    1.85    0.13
  -6  -3 -11    0.44    0.11
  -6  -3 -11    0.37    0.10
   6   3  11    0.37    0.06
   6   3  11    0.51    0.07
   6   3  11    0.31    0.07
  -7  -3 -11    5.27    0.25
  -7  -3 -11    4.99    0.25
   7   3  11    4.97    0.20
   7   3  11    4.88    0.18
   7   3  11    5.05    0.20
  -8  -3 -11    5.05    0.27
  -8  -3 -11    5.09    0.25
   8   3  11    5.06    0.20
   8   3  11    4.84    0.18
   8   3  11    5.53    0.21
  -9  -3 -11    1.96    0.20
  -9  -3 -11    1.87    0.18
   9   3  11    2.30    0.14
   9   3  11    2.33    0.13
 -10  -3 -11    3.80    0.30
 -10  -3 -11    3.71    0.25
  10   3  11    4.04    0.18
 -11  -3 -11    1.56    0.19
  11   3  11    1.54    0.13
 -12  -3 -11    2.00    0.21
  12   3  11    2.00    0.14
   3  -4 -11    0.06    0.10
   3  -4 -11   -0.16    0.12
  -3   4  11   -0.01    0.08
   2  -4 -11    2.20    0.20
   2  -4 -11    1.69    0.20
  -2   4  11    1.88    0.17
   1  -4 -11    0.68    0.12
   1  -4 -11    0.41    0.10
  -1   4  11    0.26    0.08
   0  -4 -11    2.96    0.18
   0  -4 -11    2.74    0.20
   0   4  11    2.82    0.16
   0   4  11    2.60    0.14
  -1  -4 -11    6.76    0.26
  -1  -4 -11    5.65    0.26
  -1  -4 -11    6.69    0.27
   1   4  11    6.55    0.24
   1   4  11    6.41    0.21
   1   4  11    6.84    0.24
  -2  -4 -11   10.74    0.36
  -2  -4 -11   10.77    0.35
   2   4  11   10.28    0.32
   2   4  11   10.43    0.32
   2   4  11   10.45    0.31
  -3  -4 -11    0.23    0.10
  -3  -4 -11    0.25    0.09
   3   4  11    0.23    0.06
   3   4  11    0.20    0.07
   3   4  11    0.27    0.06
  -4  -4 -11    0.81    0.11
  -4  -4 -11    0.81    0.11
   4   4  11    0.80    0.09
   4   4  11    0.89    0.10
   4   4  11    0.77    0.08
  -5  -4 -11   -0.08    0.08
  -5  -4 -11    0.02    0.09
   5   4  11    0.03    0.06
   5   4  11   -0.01    0.05
   5   4  11    0.01    0.06
  -6  -4 -11   13.09    0.43
  -6  -4 -11   13.00    0.43
   6   4  11   12.65    0.38
   6   4  11   12.82    0.37
   6   4  11   12.92    0.36
  -7  -4 -11    2.07    0.21
  -7  -4 -11    2.41    0.19
   7   4  11    2.22    0.15
   7   4  11    2.21    0.13
   7   4  11    2.16    0.14
  -8  -4 -11    7.32    0.31
  -8  -4 -11    7.29    0.32
   8   4  11    7.53    0.25
   8   4  11    7.09    0.23
  -9  -4 -11    3.07    0.23
  -9  -4 -11    2.94    0.25
   9   4  11    2.73    0.14
   9   4  11    3.16    0.16
 -10  -4 -11    0.82    0.17
 -10  -4 -11    1.02    0.15
  10   4  11    0.96    0.11
 -11  -4 -11    1.42    0.17
  11   4  11    1.25    0.12
 -12  -4 -11   -0.06    0.13
  12   4  11    0.00    0.07
   3  -5 -11    0.33    0.13
   3  -5 -11    0.92    0.13
  -3   5  11    0.63    0.11
   2  -5 -11   -0.13    0.11
   2  -5 -11    0.02    0.10
  -2   5  11   -0.03    0.08
   1  -5 -11    0.27    0.10
   1  -5 -11    0.06    0.10
  -1   5  11    0.26    0.08
   0  -5 -11    0.44    0.09
   0  -5 -11    0.51    0.11
   0   5  11    0.32    0.07
  -1  -5 -11    2.67    0.19
  -1  -5 -11    2.68    0.19
   1   5  11    2.06    0.12
   1   5  11    2.64    0.16
   1   5  11    2.42    0.15
  -2  -5 -11    0.41    0.11
  -2  -5 -11    0.55    0.10
   2   5  11    0.57    0.08
   2   5  11    0.48    0.08
   2   5  11    0.35    0.06
  -3  -5 -11    1.18    0.13
  -3  -5 -11    1.10    0.13
   3   5  11    0.91    0.10
   3   5  11    1.02    0.12
   3   5  11    1.06    0.11
  -4  -5 -11   -0.04    0.09
  -4  -5 -11    0.05    0.09
   4   5  11    0.01    0.06
   4   5  11   -0.04    0.05
   4   5  11   -0.05    0.05
  -5  -5 -11    0.21    0.10
  -5  -5 -11    0.08    0.10
   5   5  11    0.20    0.07
   5   5  11    0.23    0.06
  -6  -5 -11    0.07    0.10
  -6  -5 -11    0.14    0.09
   6   5  11    0.03    0.05
   6   5  11   -0.08    0.05
  -7  -5 -11    2.67    0.22
  -7  -5 -11    2.80    0.21
   7   5  11    2.74    0.15
   7   5  11    2.94    0.14
  -8  -5 -11    1.94    0.23
  -8  -5 -11    1.26    0.14
   8   5  11    1.48    0.13
   8   5  11    1.68    0.12
  -9  -5 -11    4.45    0.26
  -9  -5 -11    3.90    0.28
   9   5  11    3.96    0.17
   9   5  11    3.78    0.17
 -10  -5 -11    3.83    0.30
 -10  -5 -11    3.65    0.26
  10   5  11    3.93    0.17
 -11  -5 -11    0.29    0.14
  11   5  11    0.31    0.07
 -12  -5 -11    1.75    0.21
  12   5  11    1.89    0.14
   3  -6 -11    0.02    0.13
   3  -6 -11    0.24    0.11
  -3   6  11    0.05    0.09
   2  -6 -11    3.04    0.24
   2  -6 -11    3.49    0.23
  -2   6  11    3.56    0.19
   1  -6 -11    0.52    0.11
   1  -6 -11    0.39    0.12
  -1   6  11    0.39    0.08
   0  -6 -11    2.01    0.17
   0  -6 -11    1.82    0.19
   0   6  11    1.87    0.14
  -1  -6 -11    0.36    0.10
  -1  -6 -11    0.55    0.12
   1   6  11    0.21    0.08
   1   6  11    0.33    0.07
  -2  -6 -11    2.64    0.19
  -2  -6 -11    3.23    0.20
   2   6  11    2.39    0.15
   2   6  11    2.56    0.15
  -3  -6 -11    0.83    0.13
  -3  -6 -11    0.81    0.12
   3   6  11    0.87    0.09
   3   6  11    0.83    0.09
  -4  -6 -11   -0.09    0.09
  -4  -6 -11    0.05    0.10
   4   6  11    0.06    0.06
   4   6  11    0.10    0.06
  -5  -6 -11    0.08    0.10
  -5  -6 -11    0.02    0.10
   5   6  11    0.09    0.06
   5   6  11    0.05    0.06
  -6  -6 -11    2.37    0.20
  -6  -6 -11    2.38    0.21
   6   6  11    2.49    0.14
   6   6  11    2.19    0.14
  -7  -6 -11    6.54    0.30
  -7  -6 -11    6.86    0.30
   7   6  11    6.31    0.23
   7   6  11    6.45    0.23
  -8  -6 -11    1.19    0.15
  -8  -6 -11    0.99    0.15
   8   6  11    1.06    0.09
   8   6  11    1.05    0.12
  -9  -6 -11    2.11    0.21
  -9  -6 -11    1.85    0.20
   9   6  11    1.65    0.13
   9   6  11    1.90    0.14
 -10  -6 -11    1.42    0.18
 -10  -6 -11    1.72    0.21
  10   6  11    1.58    0.14
  10   6  11    1.22    0.12
 -11  -6 -11   -0.03    0.13
  11   6  11    0.21    0.07
 -12  -6 -11   -0.22    0.15
  12   6  11    0.10    0.07
   3  -7 -11   -0.07    0.13
   3  -7 -11    0.01    0.12
  -3   7  11   -0.25    0.08
   2  -7 -11   -0.05    0.11
   2  -7 -11    0.10    0.13
  -2   7  11   -0.11    0.08
   1  -7 -11   -0.14    0.09
   1  -7 -11   -0.04    0.11
   0  -7 -11    0.18    0.09
   0  -7 -11    0.01    0.10
   0   7  11    0.02    0.07
  -1  -7 -11    1.29    0.14
  -1  -7 -11    1.75    0.21
   1   7  11    1.48    0.13
   1   7  11    1.71    0.15
  -2  -7 -11    0.77    0.08
  -2  -7 -11    0.75    0.12
  -2  -7 -11    0.70    0.13
   2   7  11    0.63    0.08
   2   7  11    0.80    0.09
  -3  -7 -11    1.63    0.18
  -3  -7 -11    2.34    0.20
   3   7  11    1.63    0.13
   3   7  11    1.64    0.13
  -4  -7 -11    2.34    0.21
  -4  -7 -11    2.08    0.19
   4   7  11    2.34    0.14
   4   7  11    2.17    0.14
  -5  -7 -11    0.51    0.12
  -5  -7 -11    0.41    0.12
   5   7  11    0.48    0.08
   5   7  11    0.54    0.07
  -6  -7 -11    0.27    0.12
  -6  -7 -11    0.24    0.11
   6   7  11    0.40    0.07
   6   7  11    0.23    0.07
  -7  -7 -11    6.72    0.31
  -7  -7 -11    6.82    0.33
   7   7  11    7.10    0.24
   7   7  11    6.55    0.24
  -8  -7 -11    6.24    0.33
  -8  -7 -11    6.88    0.32
   8   7  11    6.63    0.24
   8   7  11    6.63    0.24
  -9  -7 -11    0.01    0.11
  -9  -7 -11   -0.02    0.15
   9   7  11    0.07    0.08
   9   7  11   -0.06    0.07
 -10  -7 -11    0.64    0.19
 -10  -7 -11    0.99    0.15
  10   7  11    0.74    0.09
  10   7  11    0.80    0.10
 -11  -7 -11   -0.07    0.13
  11   7  11    0.03    0.07
   3  -8 -11    0.83    0.15
  -3   8  11    0.70    0.11
   2  -8 -11    0.50    0.14
   2  -8 -11    0.60    0.14
  -2   8  11    0.31    0.09
   1  -8 -11   -0.10    0.10
   1  -8 -11    0.02    0.11
  -1   8  11   -0.08    0.07
   0  -8 -11    0.11    0.09
   0  -8 -11   -0.07    0.11
   0   8  11    0.07    0.07
  -1  -8 -11    2.46    0.23
  -1  -8 -11    2.17    0.20
   1   8  11    2.17    0.15
   1   8  11    2.47    0.17
  -2  -8 -11    3.19    0.25
  -2  -8 -11    3.32    0.23
   2   8  11    3.44    0.17
   2   8  11    3.19    0.18
  -3  -8 -11    0.13    0.11
  -3  -8 -11    0.02    0.06
  -3  -8 -11   -0.11    0.10
   3   8  11    0.05    0.07
   3   8  11    0.00    0.06
  -4  -8 -11    0.03    0.10
  -4  -8 -11    0.06    0.11
  -4  -8 -11    0.00    0.07
   4   8  11    0.05    0.06
   4   8  11    0.03    0.07
  -5  -8 -11    0.17    0.11
  -5  -8 -11    0.04    0.11
   5   8  11    0.24    0.08
   5   8  11    0.22    0.07
  -6  -8 -11    0.41    0.14
  -6  -8 -11    0.49    0.14
   6   8  11    0.36    0.08
   6   8  11    0.37    0.08
  -7  -8 -11    2.70    0.27
  -7  -8 -11    2.53    0.23
   7   8  11    2.59    0.16
   7   8  11    2.75    0.17
  -8  -8 -11    1.85    0.20
  -8  -8 -11    2.02    0.20
   8   8  11    1.84    0.15
   8   8  11    1.89    0.15
  -9  -8 -11    5.77    0.32
  -9  -8 -11    5.61    0.36
   9   8  11    5.50    0.23
   9   8  11    5.66    0.22
 -10  -8 -11    0.44    0.20
 -10  -8 -11   -0.08    0.13
  10   8  11    0.27    0.09
  10   8  11    0.08    0.07
 -11  -8 -11   -0.12    0.15
  11   8  11    0.11    0.07
   2  -9 -11    0.02    0.12
   2  -9 -11    0.12    0.13
   1  -9 -11   -0.08    0.10
   1  -9 -11   -0.03    0.12
  -1   9  11   -0.13    0.07
   0  -9 -11    0.07    0.10
   0  -9 -11   -0.10    0.12
   0   9  11   -0.06    0.06
  -1  -9 -11    1.25    0.17
  -1  -9 -11    0.81    0.14
   1   9  11    1.25    0.13
   1   9  11    1.20    0.12
  -2  -9 -11    0.87    0.15
  -2  -9 -11    0.77    0.13
   2   9  11    0.67    0.09
   2   9  11    0.81    0.10
  -3  -9 -11    0.80    0.09
  -3  -9 -11    0.91    0.15
  -3  -9 -11    0.82    0.16
   3   9  11    0.78    0.09
   3   9  11    0.74    0.10
  -4  -9 -11   17.51    0.58
  -4  -9 -11   17.58    0.58
  -4  -9 -11   16.89    0.48
   4   9  11   17.69    0.50
   4   9  11   17.75    0.50
  -5  -9 -11    1.02    0.16
  -5  -9 -11    1.15    0.11
  -5  -9 -11    0.87    0.16
   5   9  11    1.24    0.14
   5   9  11    1.07    0.10
  -6  -9 -11    1.68    0.19
  -6  -9 -11    1.83    0.16
  -6  -9 -11    1.75    0.19
   6   9  11    1.51    0.15
   6   9  11    2.04    0.16
  -7  -9 -11   -0.03    0.08
  -7  -9 -11    0.04    0.14
  -7  -9 -11    0.14    0.13
   7   9  11    0.08    0.07
   7   9  11   -0.08    0.08
  -8  -9 -11    2.65    0.26
  -8  -9 -11    2.19    0.19
  -8  -9 -11    2.32    0.23
   8   9  11    2.68    0.18
   8   9  11    2.29    0.16
  -9  -9 -11    0.25    0.14
  -9  -9 -11    0.32    0.10
  -9  -9 -11    0.47    0.20
   9   9  11    0.21    0.08
   9   9  11    0.34    0.09
 -10  -9 -11    0.68    0.13
 -10  -9 -11    0.53    0.16
  10   9  11    0.58    0.09
  10   9  11    0.65    0.11
   2 -10 -11    0.16    0.14
  -2  10  11   -0.04    0.09
   1 -10 -11   -0.13    0.13
   1 -10 -11   -0.13    0.12
  -1  10  11   -0.06    0.08
   0 -10 -11    0.68    0.12
   0 -10 -11    0.50    0.13
   0  10  11    0.36    0.08
  -1 -10 -11    0.23    0.15
  -1 -10 -11    0.09    0.12
   1  10  11   -0.04    0.10
   1  10  11   -0.05    0.07
  -2 -10 -11    0.83    0.15
  -2 -10 -11    0.95    0.17
   2  10  11    1.22    0.14
   2  10  11    1.05    0.12
  -3 -10 -11    1.05    0.18
  -3 -10 -11    0.95    0.16
  -3 -10 -11    0.98    0.11
   3  10  11    1.21    0.11
   3  10  11    1.00    0.11
  -4 -10 -11    3.31    0.19
  -4 -10 -11    3.43    0.29
  -4 -10 -11    3.56    0.30
   4  10  11    3.28    0.19
   4  10  11    3.93    0.20
  -5 -10 -11    9.61    0.43
  -5 -10 -11    9.57    0.33
  -5 -10 -11    9.38    0.42
   5  10  11    9.86    0.33
   5  10  11    9.93    0.33
  -6 -10 -11    0.31    0.13
  -6 -10 -11    0.07    0.15
  -6 -10 -11    0.12    0.09
   6  10  11    0.13    0.08
   6  10  11   -0.10    0.08
  -7 -10 -11    2.99    0.28
  -7 -10 -11    3.20    0.20
  -7 -10 -11    2.82    0.31
   7  10  11    3.07    0.19
   7  10  11    2.82    0.18
  -8 -10 -11    0.56    0.12
  -8 -10 -11    0.79    0.18
  -8 -10 -11    0.52    0.19
   8  10  11    0.56    0.09
   8  10  11    0.58    0.10
  -9 -10 -11    2.17    0.23
  -9 -10 -11    2.29    0.27
  -9 -10 -11    2.69    0.22
   9  10  11    2.60    0.20
   9  10  11    2.28    0.17
   1 -11 -11    0.00    0.14
   1 -11 -11    0.23    0.14
  -1  11  11    0.08    0.09
   0 -11 -11    0.06    0.13
   0 -11 -11    0.28    0.12
   0  11  11    0.07    0.09
  -1 -11 -11    0.04    0.14
   1  11  11    0.17    0.08
  -2 -11 -11    2.03    0.20
  -2 -11 -11    2.51    0.23
   2  11  11    2.34    0.20
   2  11  11    2.29    0.18
  -3 -11 -11    0.28    0.15
  -3 -11 -11    0.34    0.17
   3  11  11    0.03    0.08
   3  11  11    0.15    0.10
  -4 -11 -11    5.01    0.25
  -4 -11 -11    5.31    0.36
  -4 -11 -11    5.81    0.34
   4  11  11    5.07    0.25
   4  11  11    5.58    0.24
  -5 -11 -11    0.37    0.11
  -5 -11 -11    0.28    0.16
  -5 -11 -11    0.19    0.15
   5  11  11    0.27    0.10
   5  11  11    0.27    0.09
  -6 -11 -11    0.74    0.19
  -6 -11 -11    0.90    0.13
  -6 -11 -11    1.11    0.19
   6  11  11    0.80    0.11
   6  11  11    0.74    0.11
  -7 -11 -11    0.23    0.15
  -7 -11 -11   -0.06    0.18
  -7 -11 -11   -0.04    0.11
   7  11  11    0.08    0.09
   7  11  11    0.15    0.09
  -8 -11 -11    0.04    0.21
  -8 -11 -11    0.09    0.16
  -8 -11 -11    0.10    0.12
   8  11  11    0.10    0.09
   8  11  11   -0.05    0.09
  -1 -12 -11    0.85    0.16
   1  12  11    0.82    0.12
  -2 -12 -11    1.00    0.21
  -2 -12 -11    0.56    0.16
   2  12  11    0.53    0.13
   2  12  11    0.68    0.11
  -3 -12 -11    1.81    0.23
  -3 -12 -11    1.79    0.21
   3  12  11    1.48    0.15
   3  12  11    1.90    0.17
  -4 -12 -11    0.38    0.12
  -4 -12 -11    0.74    0.18
  -4 -12 -11    0.21    0.17
   4  12  11    0.27    0.10
   4  12  11    0.08    0.11
  -5 -12 -11    1.22    0.22
  -5 -12 -11    1.31    0.15
  -5 -12 -11    1.25    0.21
   5  12  11    1.06    0.12
   5  12  11    1.12    0.14
  -6 -12 -11   -0.18    0.19
  -6 -12 -11   -0.10    0.16
  -6 -12 -11    0.05    0.12
   6  12  11   -0.12    0.09
   6  12  11   -0.05    0.10
  -7 -12 -11    0.39    0.17
  -7 -12 -11    0.00    0.13
   7  12  11    0.12    0.10
   7  12  11    0.00    0.09
  -3   1 -12    7.23    0.32
  -3   1 -12    7.37    0.32
   3  -1  12    7.11    0.29
   3  -1  12    7.30    0.34
   3  -1  12    7.19    0.30
  -4   1 -12   -0.10    0.11
  -4   1 -12    0.08    0.11
   4  -1  12    0.35    0.13
   4  -1  12    0.06    0.10
   4  -1  12   -0.07    0.09
  -5   1 -12    2.61    0.30
  -5   1 -12    2.99    0.21
  -5   1 -12    3.05    0.26
   5  -1  12    2.73    0.23
   5  -1  12    2.96    0.21
   5  -1  12    2.52    0.19
  -6   1 -12    0.84    0.15
  -6   1 -12    0.31    0.16
  -6   1 -12    0.53    0.16
   6  -1  12    0.62    0.12
   6  -1  12    0.35    0.11
   6  -1  12    0.39    0.10
  -7   1 -12   -0.05    0.14
  -7   1 -12    0.07    0.14
  -7   1 -12    0.29    0.15
   7  -1  12   -0.07    0.10
   7  -1  12   -0.06    0.09
  -8   1 -12    0.39    0.17
  -8   1 -12   -0.02    0.16
  -8   1 -12    0.18    0.15
   8  -1  12   -0.06    0.09
   8  -1  12    0.15    0.10
  -2   0 -12    0.38    0.11
  -2   0 -12    0.36    0.12
   2   0  12    0.33    0.10
   2   0  12    0.23    0.11
  -3   0 -12    0.45    0.12
  -3   0 -12    0.39    0.11
   3   0  12    0.79    0.13
   3   0  12    0.60    0.10
   3   0  12    0.76    0.12
  -4   0 -12    2.70    0.20
  -4   0 -12    2.42    0.23
   4   0  12    2.56    0.18
   4   0  12    2.62    0.21
   4   0  12    2.39    0.20
  -5   0 -12   -0.14    0.14
  -5   0 -12    0.07    0.11
   5   0  12    0.08    0.09
   5   0  12   -0.02    0.09
   5   0  12    0.08    0.10
  -6   0 -12    2.25    0.24
  -6   0 -12    2.66    0.27
  -6   0 -12    2.11    0.23
   6   0  12    2.15    0.17
   6   0  12    2.43    0.18
   6   0  12    2.16    0.19
  -7   0 -12    0.69    0.17
  -7   0 -12    0.63    0.14
  -7   0 -12    0.69    0.15
   7   0  12    0.51    0.11
   7   0  12    0.56    0.09
   7   0  12    0.65    0.11
  -8   0 -12   -0.11    0.13
  -8   0 -12    0.06    0.13
  -8   0 -12    0.01    0.14
   8   0  12   -0.09    0.08
   8   0  12    0.03    0.08
  -9   0 -12    0.14    0.16
  -9   0 -12    0.18    0.13
  -9   0 -12   -0.06    0.15
   9   0  12   -0.07    0.08
   9   0  12    0.00    0.09
  -1  -1 -12    1.44    0.15
  -1  -1 -12    1.80    0.20
   1   1  12    1.41    0.13
   1   1  12    1.14    0.12
  -2  -1 -12    0.13    0.11
  -2  -1 -12    0.10    0.10
   2   1  12    0.10    0.09
   2   1  12    0.08    0.08
  -3  -1 -12    0.76    0.12
  -3  -1 -12    1.07    0.13
   3   1  12    1.03    0.11
   3   1  12    0.83    0.12
   3   1  12    0.80    0.10
  -4  -1 -12    0.05    0.10
   4   1  12    0.22    0.09
   4   1  12    0.23    0.08
   4   1  12    0.22    0.10
  -5  -1 -12    1.80    0.17
  -5  -1 -12    1.71    0.16
   5   1  12    1.91    0.15
   5   1  12    1.80    0.17
   5   1  12    1.92    0.17
  -6  -1 -12   -0.22    0.11
  -6  -1 -12    0.20    0.13
   6   1  12   -0.18    0.07
   6   1  12   -0.02    0.08
   6   1  12   -0.03    0.08
  -7  -1 -12    0.99    0.15
  -7  -1 -12    1.12    0.15
  -7  -1 -12    1.01    0.16
   7   1  12    0.94    0.11
   7   1  12    0.92    0.11
   7   1  12    1.03    0.10
  -8  -1 -12    0.50    0.15
  -8  -1 -12    0.11    0.14
  -8  -1 -12    0.35    0.15
   8   1  12    0.14    0.08
   8   1  12    0.15    0.08
  -9  -1 -12   -0.02    0.13
  -9  -1 -12    0.08    0.15
  -9  -1 -12    0.21    0.16
   9   1  12    0.25    0.09
   9   1  12    0.02    0.07
 -10  -1 -12   -0.15    0.17
 -10  -1 -12    0.05    0.13
 -10  -1 -12   -0.03    0.16
  10   1  12    0.05    0.08
  10   1  12    0.13    0.09
   0  -2 -12    2.45    0.22
   0  -2 -12    2.13    0.21
   0   2  12    2.07    0.19
  -1  -2 -12    0.07    0.10
  -1  -2 -12   -0.04    0.10
   1   2  12   -0.07    0.09
   1   2  12   -0.13    0.07
  -2  -2 -12    0.65    0.12
  -2  -2 -12    0.80    0.12
   2   2  12    0.48    0.09
   2   2  12    0.66    0.10
   2   2  12    0.69    0.11
  -3  -2 -12    0.08    0.09
   3   2  12    0.05    0.09
   3   2  12   -0.08    0.07
   3   2  12    0.24    0.08
  -4  -2 -12    0.30    0.11
  -4  -2 -12    0.21    0.12
   4   2  12    0.36    0.09
   4   2  12    0.28    0.08
   4   2  12    0.27    0.09
  -5  -2 -12    0.79    0.13
  -5  -2 -12    1.05    0.14
   5   2  12    0.98    0.10
   5   2  12    0.99    0.11
   5   2  12    0.84    0.10
  -6  -2 -12    0.02    0.12
  -6  -2 -12    0.39    0.12
   6   2  12    0.24    0.08
   6   2  12    0.20    0.08
   6   2  12    0.14    0.08
  -7  -2 -12    0.58    0.13
  -7  -2 -12    0.43    0.13
   7   2  12    0.31    0.08
   7   2  12    0.38    0.08
   7   2  12    0.41    0.08
  -8  -2 -12    0.24    0.12
  -8  -2 -12    0.31    0.13
   8   2  12    0.52    0.09
   8   2  12    0.28    0.08
   8   2  12    0.07    0.08
  -9  -2 -12    0.18    0.15
  -9  -2 -12    0.15    0.13
   9   2  12    0.16    0.08
   9   2  12    0.15    0.07
 -10  -2 -12    0.27    0.17
 -10  -2 -12    0.68    0.16
  10   2  12    0.52    0.10
  10   2  12    0.36    0.09
 -11  -2 -12   -0.10    0.13
  11   2  12    0.20    0.08
   1  -3 -12    1.92    0.23
   1  -3 -12    1.83    0.22
  -1   3  12    1.38    0.13
   0  -3 -12   -0.02    0.09
   0  -3 -12   -0.13    0.10
   0   3  12   -0.17    0.07
  -1  -3 -12    0.04    0.10
  -1  -3 -12    0.08    0.09
   1   3  12   -0.12    0.07
   1   3  12   -0.01    0.09
  -2  -3 -12    1.37    0.14
  -2  -3 -12    1.16    0.13
   2   3  12    0.92    0.10
   2   3  12    0.99    0.12
   2   3  12    1.23    0.14
  -3  -3 -12    2.29    0.23
  -3  -3 -12    2.44    0.21
   3   3  12    2.35    0.17
   3   3  12    2.49    0.16
   3   3  12    2.36    0.16
  -4  -3 -12   -0.09    0.11
  -4  -3 -12   -0.01    0.10
   4   3  12    0.02    0.07
   4   3  12    0.05    0.08
   4   3  12    0.04    0.07
  -5  -3 -12    1.07    0.14
  -5  -3 -12    1.39    0.15
   5   3  12    1.10    0.13
   5   3  12    1.04    0.10
   5   3  12    0.83    0.10
  -6  -3 -12    0.11    0.11
  -6  -3 -12   -0.06    0.11
   6   3  12    0.09    0.08
   6   3  12    0.06    0.07
   6   3  12    0.06    0.07
  -7  -3 -12    1.78    0.21
  -7  -3 -12    2.29    0.23
   7   3  12    2.23    0.14
   7   3  12    1.91    0.15
   7   3  12    2.25    0.16
  -8  -3 -12    6.38    0.31
  -8  -3 -12    6.17    0.32
   8   3  12    6.07    0.22
   8   3  12    5.85    0.24
   8   3  12    6.91    0.25
  -9  -3 -12    0.02    0.14
  -9  -3 -12    0.22    0.13
   9   3  12    0.23    0.08
   9   3  12    0.20    0.08
 -10  -3 -12    3.08    0.27
 -10  -3 -12    2.72    0.32
  10   3  12    3.29    0.18
 -11  -3 -12    0.14    0.14
   1  -4 -12    0.01    0.13
   1  -4 -12    0.22    0.11
  -1   4  12    0.28    0.09
   0  -4 -12    0.22    0.12
   0  -4 -12    0.31    0.10
   0   4  12    0.12    0.07
  -1  -4 -12    0.10    0.09
  -1  -4 -12    0.00    0.10
   1   4  12    0.08    0.08
   1   4  12    0.16    0.07
  -2  -4 -12    1.95    0.19
   2   4  12    1.64    0.14
   2   4  12    1.79    0.17
   2   4  12    2.08    0.15
  -3  -4 -12    3.49    0.23
  -3  -4 -12    3.32    0.23
   3   4  12    3.31    0.19
   3   4  12    3.71    0.18
   3   4  12    3.52    0.17
  -4  -4 -12    0.26    0.10
  -4  -4 -12    0.34    0.12
   4   4  12    0.35    0.07
   4   4  12    0.35    0.07
   4   4  12    0.25    0.09
  -5  -4 -12    0.59    0.12
  -5  -4 -12    0.77    0.14
   5   4  12    0.59    0.08
   5   4  12    0.59    0.10
   5   4  12    0.54    0.08
  -6  -4 -12    0.19    0.11
  -6  -4 -12   -0.30    0.11
   6   4  12    0.01    0.08
   6   4  12    0.03    0.07
   6   4  12    0.05    0.07
  -7  -4 -12    3.00    0.26
  -7  -4 -12    2.88    0.23
   7   4  12    3.08    0.18
   7   4  12    3.25    0.18
   7   4  12    3.45    0.16
  -8  -4 -12    2.57    0.26
  -8  -4 -12    2.69    0.23
   8   4  12    2.85    0.16
   8   4  12    2.84    0.17
  -9  -4 -12    3.38    0.26
  -9  -4 -12    3.78    0.30
   9   4  12    3.19    0.17
   9   4  12    3.69    0.18
 -10  -4 -12    0.91    0.16
 -10  -4 -12    1.11    0.19
 -11  -4 -12    0.64    0.16
  11   4  12    1.01    0.12
   1  -5 -12   -0.32    0.12
   1  -5 -12    0.07    0.10
  -1   5  12   -0.05    0.08
   0  -5 -12    2.11    0.21
   0  -5 -12    1.95    0.19
   0   5  12    1.85    0.16
  -1  -5 -12    0.47    0.10
  -1  -5 -12    0.43    0.12
   1   5  12    0.36    0.08
  -2  -5 -12    4.27    0.25
  -2  -5 -12    4.34    0.25
   2   5  12    4.46    0.21
   2   5  12    4.36    0.20
   2   5  12    3.88    0.17
  -3  -5 -12    0.11    0.12
  -3  -5 -12    0.15    0.11
   3   5  12    0.01    0.07
   3   5  12    0.10    0.08
   3   5  12    0.08    0.07
  -4  -5 -12    2.64    0.21
  -4  -5 -12    2.35    0.21
   4   5  12    2.18    0.15
   4   5  12    2.37    0.16
   4   5  12    2.08    0.15
  -5  -5 -12    2.86    0.23
  -5  -5 -12    3.10    0.22
   5   5  12    2.99    0.16
   5   5  12    2.82    0.17
  -6  -5 -12    7.80    0.33
  -6  -5 -12    7.99    0.34
   6   5  12    7.82    0.26
   6   5  12    7.91    0.28
  -7  -5 -12    0.85    0.14
  -7  -5 -12    0.66    0.14
   7   5  12    0.63    0.08
   7   5  12    0.73    0.09
  -8  -5 -12    8.18    0.35
  -8  -5 -12    7.94    0.37
   8   5  12    7.80    0.27
   8   5  12    8.12    0.28
  -9  -5 -12   -0.06    0.15
  -9  -5 -12   -0.06    0.12
   9   5  12   -0.02    0.08
   9   5  12    0.21    0.07
 -10  -5 -12    0.03    0.14
 -10  -5 -12    0.14    0.17
  10   5  12    0.02    0.07
 -11  -5 -12   -0.09    0.14
  11   5  12    0.04    0.06
   1  -6 -12   -0.19    0.12
   1  -6 -12   -0.05    0.10
  -1   6  12   -0.17    0.08
   0  -6 -12    2.62    0.23
   0  -6 -12    2.95    0.21
   0   6  12    2.73    0.18
  -1  -6 -12    0.30    0.11
  -1  -6 -12    0.17    0.10
   1   6  12    0.13    0.07
  -2  -6 -12    1.12    0.15
  -2  -6 -12    0.77    0.13
   2   6  12    0.90    0.10
   2   6  12    0.90    0.11
  -3  -6 -12    0.40    0.12
  -3  -6 -12    0.67    0.14
   3   6  12    0.50    0.09
   3   6  12    0.30    0.08
  -4  -6 -12    1.44    0.17
  -4  -6 -12    1.35    0.15
   4   6  12    1.60    0.15
   4   6  12    1.59    0.14
  -5  -6 -12    2.32    0.21
  -5  -6 -12    2.01    0.22
   5   6  12    2.07    0.15
   5   6  12    2.23    0.16
  -6  -6 -12    1.84    0.22
  -6  -6 -12    1.44    0.17
   6   6  12    1.74    0.15
   6   6  12    1.92    0.14
  -7  -6 -12    4.40    0.29
  -7  -6 -12    4.57    0.28
   7   6  12    4.41    0.20
   7   6  12    4.68    0.20
  -8  -6 -12    0.47    0.15
  -8  -6 -12    0.77    0.15
   8   6  12    0.38    0.09
   8   6  12    0.30    0.09
  -9  -6 -12    2.43    0.22
  -9  -6 -12    2.23    0.25
   9   6  12    2.72    0.16
   9   6  12    2.44    0.17
 -10  -6 -12   -0.02    0.18
 -10  -6 -12    0.21    0.14
  10   6  12   -0.03    0.06
 -11  -6 -12    0.16    0.15
  11   6  12   -0.03    0.07
   1  -7 -12    0.17    0.12
   1  -7 -12    0.02    0.14
  -1   7  12   -0.16    0.07
   0  -7 -12    0.15    0.11
   0  -7 -12    0.12    0.12
   0   7  12   -0.05    0.07
  -1  -7 -12    0.01    0.14
  -1  -7 -12   -0.08    0.11
   1   7  12   -0.11    0.07
  -2  -7 -12    0.14    0.11
  -2  -7 -12    0.07    0.14
   2   7  12    0.33    0.08
   2   7  12    0.23    0.10
  -3  -7 -12    0.84    0.14
  -3  -7 -12    1.13    0.16
   3   7  12    1.32    0.14
   3   7  12    0.98    0.11
  -4  -7 -12    0.82    0.14
  -4  -7 -12    0.88    0.15
   4   7  12    0.82    0.09
   4   7  12    0.74    0.10
  -5  -7 -12    1.55    0.17
  -5  -7 -12    1.29    0.16
   5   7  12    1.48    0.14
   5   7  12    1.24    0.15
  -6  -7 -12    2.37    0.23
  -6  -7 -12    2.13    0.19
   6   7  12    2.39    0.16
   6   7  12    2.42    0.16
  -7  -7 -12    1.35    0.17
  -7  -7 -12    1.16    0.18
   7   7  12    1.46    0.14
   7   7  12    1.26    0.11
  -8  -7 -12    5.10    0.32
  -8  -7 -12    4.86    0.33
   8   7  12    4.72    0.21
   8   7  12    4.56    0.21
  -9  -7 -12    0.11    0.14
  -9  -7 -12   -0.20    0.16
   9   7  12   -0.05    0.07
   9   7  12    0.06    0.08
 -10  -7 -12    1.05    0.22
 -10  -7 -12    0.87    0.17
  10   7  12    1.07    0.11
  10   7  12    1.21    0.12
 -11  -7 -12    0.48    0.16
  11   7  12    0.27    0.08
   1  -8 -12    0.24    0.13
   1  -8 -12    0.31    0.14
  -1   8  12    0.15    0.09
   0  -8 -12    0.51    0.12
   0  -8 -12    0.30    0.13
   0   8  12    0.34    0.08
  -1  -8 -12    0.25    0.15
  -1  -8 -12    0.04    0.12
   1   8  12    0.20    0.08
  -2  -8 -12    0.36    0.14
  -2  -8 -12   -0.14    0.11
   2   8  12    0.02    0.07
   2   8  12    0.03    0.09
  -3  -8 -12    0.48    0.16
  -3  -8 -12    0.30    0.13
   3   8  12    0.29    0.08
   3   8  12    0.36    0.10
  -4  -8 -12    1.14    0.16
  -4  -8 -12    0.82    0.10
  -4  -8 -12    0.72    0.15
   4   8  12    0.82    0.11
   4   8  12    0.88    0.10
  -5  -8 -12    2.75    0.27
  -5  -8 -12    3.05    0.26
   5   8  12    3.19    0.18
   5   8  12    2.99    0.19
  -6  -8 -12    0.60    0.16
  -6  -8 -12    0.86    0.17
   6   8  12    0.93    0.10
   6   8  12    0.83    0.11
  -7  -8 -12    0.72    0.15
  -7  -8 -12    0.37    0.15
   7   8  12    0.55    0.10
   7   8  12    0.36    0.09
  -8  -8 -12   -0.08    0.16
  -8  -8 -12    0.01    0.15
   8   8  12   -0.08    0.07
   8   8  12   -0.15    0.08
  -9  -8 -12    2.31    0.27
  -9  -8 -12    2.00    0.23
   9   8  12    1.92    0.16
   9   8  12    2.20    0.19
 -10  -8 -12    0.09    0.15
 -10  -8 -12   -0.03    0.21
  10   8  12   -0.01    0.08
  10   8  12    0.02    0.10
   1  -9 -12    0.03    0.13
  -1   9  12   -0.10    0.08
   0  -9 -12    0.18    0.14
   0  -9 -12    0.24    0.12
   0   9  12    0.05    0.08
  -1  -9 -12   -0.01    0.12
  -1  -9 -12   -0.32    0.14
   1   9  12   -0.08    0.07
  -2  -9 -12    1.97    0.21
  -2  -9 -12    1.66    0.18
   2   9  12    1.45    0.16
   2   9  12    1.93    0.20
  -3  -9 -12   -0.07    0.15
  -3  -9 -12    0.10    0.13
   3   9  12   -0.10    0.07
   3   9  12    0.13    0.09
  -4  -9 -12    5.98    0.33
  -4  -9 -12    5.41    0.22
  -4  -9 -12    4.90    0.33
   4   9  12    5.48    0.23
   4   9  12    5.33    0.24
  -5  -9 -12    3.20    0.19
  -5  -9 -12    3.60    0.28
  -5  -9 -12    3.19    0.30
   5   9  12    3.66    0.21
   5   9  12    3.53    0.20
  -6  -9 -12   13.53    0.51
  -6  -9 -12   13.32    0.50
  -6  -9 -12   12.62    0.40
   6   9  12   13.07    0.40
   6   9  12   13.20    0.41
  -7  -9 -12   -0.13    0.16
  -7  -9 -12   -0.05    0.09
  -7  -9 -12    0.11    0.14
   7   9  12   -0.03    0.08
   7   9  12   -0.13    0.08
  -8  -9 -12    1.36    0.19
  -8  -9 -12    1.24    0.14
  -8  -9 -12    0.91    0.21
   8   9  12    1.56    0.16
   8   9  12    1.61    0.17
  -9  -9 -12    0.15    0.20
  -9  -9 -12   -0.02    0.15
  -9  -9 -12    0.10    0.12
   9   9  12    0.17    0.08
   9   9  12   -0.02    0.09
 -10  -9 -12    0.87    0.18
  10   9  12    0.86    0.12
  10   9  12    0.94    0.11
   0 -10 -12    0.61    0.16
   0 -10 -12    0.57    0.14
   0  10  12    0.37    0.09
  -1 -10 -12    0.24    0.15
   1  10  12    0.14    0.08
  -2 -10 -12    1.18    0.17
  -2 -10 -12    1.29    0.20
   2  10  12    1.76    0.20
   2  10  12    1.06    0.12
  -3 -10 -12    0.39    0.17
  -3 -10 -12    0.34    0.15
   3  10  12    0.42    0.11
   3  10  12    0.51    0.10
  -4 -10 -12    1.66    0.20
  -4 -10 -12    1.78    0.21
   4  10  12    1.48    0.14
   4  10  12    1.54    0.16
  -5 -10 -12    0.34    0.10
  -5 -10 -12    0.27    0.16
  -5 -10 -12    0.33    0.16
   5  10  12    0.44    0.10
   5  10  12    0.22    0.09
  -6 -10 -12    0.74    0.11
  -6 -10 -12    1.09    0.18
  -6 -10 -12    0.66    0.19
   6  10  12    0.35    0.10
   6  10  12    0.76    0.12
  -7 -10 -12    0.68    0.12
  -7 -10 -12    0.67    0.19
  -7 -10 -12    0.69    0.19
   7  10  12    0.54    0.10
   7  10  12    0.62    0.11
  -8 -10 -12   -0.03    0.11
  -8 -10 -12    0.13    0.17
  -8 -10 -12   -0.12    0.19
   8  10  12    0.19    0.09
   8  10  12    0.08    0.10
  -9 -10 -12    0.10    0.12
  -9 -10 -12   -0.26    0.23
  -9 -10 -12    0.10    0.17
   9  10  12    0.25    0.11
   9  10  12   -0.04    0.08
  -1 -11 -12   -0.04    0.15
   1  11  12    0.05    0.09
  -2 -11 -12    1.21    0.19
  -2 -11 -12    1.48    0.22
   2  11  12    1.48    0.17
  -3 -11 -12    0.81    0.20
  -3 -11 -12    0.87    0.18
   3  11  12    0.57    0.13
   3  11  12    0.66    0.11
  -4 -11 -12    1.66    0.22
  -4 -11 -12    1.99    0.25
   4  11  12    1.52    0.15
   4  11  12    1.75    0.18
  -5 -11 -12   -0.14    0.16
  -5 -11 -12    0.09    0.11
  -5 -11 -12   -0.19    0.17
   5  11  12    0.03    0.09
   5  11  12    0.02    0.10
  -6 -11 -12    1.15    0.19
  -6 -11 -12    0.85    0.14
  -6 -11 -12    0.40    0.20
   6  11  12    0.57    0.12
   6  11  12    0.90    0.12
  -7 -11 -12   -0.14    0.20
  -7 -11 -12   -0.05    0.12
  -7 -11 -12    0.31    0.18
   7  11  12    0.01    0.10
   7  11  12   -0.02    0.09
   3  12  12    1.23    0.15
   3  12  12    1.24    0.13
  -4 -12 -12    0.10    0.20
  -4 -12 -12    0.05    0.18
   4  12  12    0.30    0.12
   4  12  12   -0.07    0.10
  -5 -12 -12    0.47    0.21
   5  12  12    0.87    0.12
   5  12  12    1.03    0.14
  -4  -1 -13    0.29    0.12
  -4  -1 -13    0.45    0.13
   4   1  13    0.19    0.10
   4   1  13    0.28    0.11
   4   1  13    0.04    0.13
  -5  -1 -13   -0.09    0.12
   5   1  13    0.22    0.11
   5   1  13   -0.12    0.11
   5   1  13    0.08    0.10
  -6  -1 -13   -0.16    0.17
  -6  -1 -13   -0.03    0.13
   6   1  13   -0.13    0.09
   6   1  13    0.01    0.09
   6   1  13   -0.12    0.11
  -7  -1 -13    0.40    0.15
  -7  -1 -13    0.04    0.16
   7   1  13    0.12    0.10
   7   1  13    0.42    0.10
   7   1  13    0.40    0.11
  -8  -1 -13    0.09    0.16
  -8  -1 -13    0.10    0.17
   8   1  13   -0.08    0.10
   8   1  13    0.09    0.10
  -3  -2 -13    0.06    0.12
  -3  -2 -13    0.05    0.11
   3   2  13    0.05    0.08
   3   2  13   -0.06    0.10
  -4  -2 -13    0.18    0.13
   4   2  13    0.08    0.10
   4   2  13    0.30    0.10
   4   2  13    0.27    0.11
  -5  -2 -13    0.36    0.14
   5   2  13    0.40    0.10
   5   2  13    0.50    0.10
   5   2  13    0.51    0.11
  -6  -2 -13    0.16    0.15
  -6  -2 -13    0.25    0.14
   6   2  13    0.22    0.09
   6   2  13   -0.02    0.09
   6   2  13    0.27    0.10
  -7  -2 -13    0.64    0.17
  -7  -2 -13    0.59    0.15
   7   2  13    0.45    0.11
   7   2  13    0.67    0.11
   7   2  13    0.73    0.11
  -8  -2 -13    0.15    0.16
  -8  -2 -13    0.06    0.16
   8   2  13    0.19    0.09
   8   2  13   -0.02    0.09
  -9  -2 -13    5.18    0.33
  -9  -2 -13    4.97    0.36
   9   2  13    4.56    0.23
   9   2  13    5.01    0.24
  -2  -3 -13    0.51    0.13
  -2  -3 -13    0.37    0.12
   2   3  13    0.50    0.10
   2   3  13    0.34    0.11
  -3  -3 -13    0.13    0.12
  -3  -3 -13    0.02    0.11
   3   3  13    0.06    0.08
   3   3  13   -0.22    0.09
   3   3  13   -0.27    0.11
  -4  -3 -13    0.16    0.12
   4   3  13   -0.01    0.08
   4   3  13   -0.03    0.10
   4   3  13   -0.11    0.08
  -5  -3 -13    0.97    0.16
  -5  -3 -13    0.76    0.15
   5   3  13    0.67    0.10
   5   3  13    0.71    0.11
   5   3  13    0.68    0.11
  -6  -3 -13    1.89    0.19
  -6  -3 -13    1.50    0.17
   6   3  13    1.21    0.13
   6   3  13    1.59    0.17
   6   3  13    1.29    0.12
  -7  -3 -13    0.98    0.17
  -7  -3 -13    0.83    0.16
   7   3  13    0.73    0.11
   7   3  13    0.97    0.11
   7   3  13    0.79    0.12
  -8  -3 -13    0.55    0.17
  -8  -3 -13    0.95    0.17
   8   3  13    0.70    0.11
   8   3  13    0.83    0.11
   8   3  13    0.83    0.11
  -9  -3 -13    2.99    0.29
  -9  -3 -13    2.79    0.24
   9   3  13    3.33    0.21
   9   3  13    3.22    0.20
 -10  -3 -13    6.05    0.36
  10   3  13    6.07    0.26
  -1  -4 -13    0.04    0.12
  -1  -4 -13    0.19    0.12
   1   4  13    0.03    0.09
  -2  -4 -13    0.21    0.12
  -2  -4 -13    0.44    0.11
   2   4  13    0.22    0.09
   2   4  13    0.44    0.10
  -3  -4 -13    0.34    0.13
   3   4  13    0.25    0.11
   3   4  13    0.37    0.09
   3   4  13    0.34    0.09
  -4  -4 -13    0.08    0.12
  -4  -4 -13    0.08    0.15
   4   4  13    0.03    0.10
   4   4  13    0.12    0.08
   4   4  13    0.09    0.08
  -5  -4 -13    0.09    0.14
  -5  -4 -13   -0.08    0.13
   5   4  13    0.04    0.08
   5   4  13   -0.15    0.08
   5   4  13    0.02    0.09
  -6  -4 -13   -0.01    0.14
  -6  -4 -13    0.23    0.14
   6   4  13    0.23    0.09
   6   4  13    0.23    0.10
   6   4  13    0.43    0.09
  -7  -4 -13    5.56    0.34
  -7  -4 -13    5.73    0.32
   7   4  13    5.39    0.23
   7   4  13    5.55    0.25
   7   4  13    5.91    0.25
  -8  -4 -13   -0.05    0.15
  -8  -4 -13    0.36    0.15
   8   4  13    0.21    0.09
   8   4  13    0.16    0.09
  -9  -4 -13    1.88    0.22
  -9  -4 -13    1.85    0.22
   9   4  13    2.48    0.18
 -10  -4 -13    0.75    0.18
 -10  -4 -13    1.13    0.22
  10   4  13    1.44    0.15
  -1  -5 -13    2.54    0.26
  -1  -5 -13    3.38    0.23
   1   5  13    2.91    0.20
  -2  -5 -13    3.00    0.23
  -2  -5 -13    3.30    0.26
   2   5  13    3.21    0.19
  -3  -5 -13    0.97    0.16
   3   5  13    1.20    0.13
   3   5  13    0.78    0.10
   3   5  13    0.90    0.11
  -4  -5 -13    3.79    0.29
  -4  -5 -13    3.89    0.28
   4   5  13    3.74    0.22
   4   5  13    3.79    0.19
   4   5  13    4.13    0.20
  -5  -5 -13    2.07    0.24
  -5  -5 -13    1.87    0.19
   5   5  13    1.82    0.18
   5   5  13    1.63    0.16
  -6  -5 -13    2.38    0.26
  -6  -5 -13    2.39    0.26
   6   5  13    2.49    0.17
   6   5  13    2.38    0.19
  -7  -5 -13    1.91    0.20
  -7  -5 -13    2.13    0.20
   7   5  13    2.28    0.18
   7   5  13    2.16    0.17
  -8  -5 -13    3.24    0.31
  -8  -5 -13    3.27    0.29
   8   5  13    3.64    0.20
   8   5  13    3.67    0.20
  -9  -5 -13    0.17    0.18
  -9  -5 -13   -0.15    0.15
   9   5  13   -0.18    0.10
   9   5  13    0.23    0.08
 -10  -5 -13    0.78    0.18
 -10  -5 -13    0.61    0.21
  10   5  13    0.97    0.11
  -1  -6 -13    3.18    0.23
  -1  -6 -13    2.35    0.20
   1   6  13    2.43    0.19
  -2  -6 -13    3.07    0.25
   2   6  13    3.57    0.20
  -3  -6 -13    0.23    0.16
  -3  -6 -13    0.03    0.12
   3   6  13   -0.03    0.10
   3   6  13   -0.09    0.07
  -4  -6 -13    0.01    0.15
  -4  -6 -13   -0.07    0.13
   4   6  13    0.13    0.08
   4   6  13    0.05    0.09
  -5  -6 -13    0.24    0.15
  -5  -6 -13   -0.03    0.13
   5   6  13    0.07    0.08
   5   6  13    0.15    0.09
  -6  -6 -13    0.03    0.14
  -6  -6 -13    0.36    0.15
   6   6  13    0.32    0.09
   6   6  13    0.38    0.10
  -7  -6 -13    1.64    0.20
  -7  -6 -13    2.15    0.21
   7   6  13    1.98    0.17
   7   6  13    2.36    0.18
  -8  -6 -13    0.72    0.17
  -8  -6 -13    0.29    0.16
   8   6  13    0.36    0.10
   8   6  13    0.36    0.09
  -9  -6 -13    3.23    0.29
  -9  -6 -13    2.07    0.24
   9   6  13    2.31    0.19
   9   6  13    2.56    0.17
 -10  -6 -13   -0.14    0.20
 -10  -6 -13    0.27    0.17
  10   6  13   -0.01    0.08
  -1  -7 -13    0.02    0.13
  -1  -7 -13    0.19    0.11
   1   7  13    0.08    0.08
  -2  -7 -13    1.12    0.16
   2   7  13    1.26    0.12
  -3  -7 -13    0.27    0.16
  -3  -7 -13    0.09    0.13
   3   7  13    0.26    0.09
   3   7  13    0.07    0.11
  -4  -7 -13    7.69    0.36
  -4  -7 -13    6.92    0.36
   4   7  13    6.93    0.28
   4   7  13    6.55    0.27
  -5  -7 -13   -0.01    0.15
  -5  -7 -13   -0.29    0.13
   5   7  13    0.11    0.08
   5   7  13    0.10    0.10
  -6  -7 -13    0.97    0.18
  -6  -7 -13    1.54    0.20
   6   7  13    1.39    0.16
   6   7  13    1.47    0.17
  -7  -7 -13    0.09    0.16
  -7  -7 -13    0.03    0.16
   7   7  13    0.02    0.09
   7   7  13    0.02    0.09
  -8  -7 -13   -0.14    0.16
  -8  -7 -13    0.18    0.16
   8   7  13    0.07    0.09
   8   7  13   -0.04    0.09
  -9  -7 -13    1.11    0.19
  -9  -7 -13    0.90    0.21
   9   7  13    0.89    0.12
   9   7  13    0.87    0.11
 -10  -7 -13   -0.06    0.16
  10   7  13    0.05    0.08
  -1  -8 -13    0.08    0.12
  -1  -8 -13   -0.04    0.13
   1   8  13    0.05    0.09
  -2  -8 -13    1.35    0.20
  -2  -8 -13    0.59    0.16
   2   8  13    0.88    0.11
  -3  -8 -13    1.85    0.20
  -3  -8 -13    2.04    0.22
   3   8  13    2.06    0.21
   3   8  13    1.94    0.17
  -4  -8 -13    0.25    0.17
  -4  -8 -13    0.01    0.14
   4   8  13    0.19    0.09
   4   8  13    0.28    0.11
  -5  -8 -13    1.26    0.19
  -5  -8 -13    1.39    0.20
   5   8  13    1.15    0.12
   5   8  13    1.28    0.13
  -6  -8 -13    0.15    0.16
  -6  -8 -13    0.01    0.15
   6   8  13    0.08    0.09
   6   8  13    0.06    0.10
  -7  -8 -13    0.69    0.18
  -7  -8 -13    0.06    0.17
   7   8  13    0.35    0.10
   7   8  13    0.41    0.11
  -8  -8 -13    0.30    0.16
  -8  -8 -13    0.27    0.19
   8   8  13    0.43    0.11
   8   8  13    0.17    0.10
  -9  -8 -13   -0.13    0.17
  -9  -8 -13   -0.27    0.21
   9   8  13   -0.01    0.09
   9   8  13    0.04    0.10
  -1  -9 -13    0.36    0.13
   1   9  13    0.18    0.09
  -2  -9 -13    0.55    0.20
  -2  -9 -13    0.15    0.15
   2   9  13    0.19    0.09
  -3  -9 -13    0.06    0.18
  -3  -9 -13    0.25    0.15
   3   9  13    0.46    0.09
   3   9  13    0.51    0.13
  -4  -9 -13    3.50    0.35
  -4  -9 -13    3.31    0.32
   4   9  13    3.51    0.24
   4   9  13    3.22    0.20
  -5  -9 -13   -0.10    0.11
  -5  -9 -13   -0.22    0.14
  -5  -9 -13    0.27    0.17
   5   9  13    0.06    0.10
   5   9  13    0.05    0.09
  -6  -9 -13    0.54    0.18
  -6  -9 -13    0.20    0.17
  -6  -9 -13    0.46    0.11
   6   9  13    0.59    0.11
   6   9  13    0.54    0.12
  -7  -9 -13    0.06    0.18
  -7  -9 -13    0.24    0.17
  -7  -9 -13    0.28    0.12
   7   9  13    0.34    0.11
   7   9  13    0.37    0.10
  -8  -9 -13    0.20    0.20
  -8  -9 -13    0.43    0.17
  -8  -9 -13    0.33    0.13
   8   9  13    0.34    0.10
   8   9  13    0.16    0.11
  -2 -10 -13    0.51    0.22
   2  10  13    0.12    0.09
  -3 -10 -13    0.81    0.17
  -3 -10 -13    1.04    0.22
   3  10  13    0.57    0.14
   3  10  13    0.61    0.11
  -4 -10 -13    0.24    0.19
  -4 -10 -13    0.27    0.17
   4  10  13    0.29    0.12
   4  10  13    0.09    0.09
  -5 -10 -13   -0.05    0.17
  -5 -10 -13    0.48    0.18
   5  10  13   -0.10    0.09
   5  10  13    0.06    0.11
  -6 -10 -13    0.49    0.12
  -6 -10 -13    0.30    0.18
  -6 -10 -13    0.19    0.19
   6  10  13    0.27    0.10
   6  10  13    0.27    0.11
  -7 -10 -13    0.38    0.19
  -7 -10 -13    0.52    0.20
  -7 -10 -13    0.39    0.13
   7  10  13    0.45    0.11
   7  10  13    0.36    0.11
  -5  -4 -14    0.11    0.15
   5   4  14    0.10    0.10
   5   4  14    0.08    0.12
   5   4  14   -0.12    0.09
  -6  -4 -14    0.02    0.19
  -6  -4 -14   -0.19    0.15
   6   4  14   -0.05    0.10
   6   4  14   -0.04    0.12
   6   4  14    0.08    0.10
  -7  -4 -14    1.00    0.20
  -7  -4 -14    0.78    0.19
   7   4  14    0.73    0.13
   7   4  14    0.75    0.13
   7   4  14    0.67    0.12
  -4  -5 -14    1.17    0.18
   4   5  14    1.30    0.16
   4   5  14    0.94    0.12
  -5  -5 -14   -0.02    0.20
  -5  -5 -14    0.05    0.15
   5   5  14   -0.01    0.10
   5   5  14    0.05    0.12
  -6  -5 -14    1.51    0.21
  -6  -5 -14    1.08    0.18
   6   5  14    1.45    0.15
   6   5  14    1.32    0.13
  -7  -5 -14    0.83    0.19
  -7  -5 -14    1.02    0.19
   7   5  14    0.74    0.12
   7   5  14    1.18    0.14
  -8  -5 -14    4.40    0.35
   8   5  14    4.34    0.24
   8   5  14    4.72    0.25
  -4  -6 -14    0.01    0.15
   4   6  14    0.15    0.13
   4   6  14    0.08    0.10
  -5  -6 -14    1.60    0.21
  -5  -6 -14    1.65    0.23
   5   6  14    1.83    0.21
   5   6  14    1.57    0.18
  -6  -6 -14    1.19    0.19
  -6  -6 -14    1.30    0.22
   6   6  14    1.70    0.20
   6   6  14    1.64    0.18
  -7  -6 -14    0.49    0.19
  -7  -6 -14    0.72    0.21
   7   6  14    0.85    0.13
   7   6  14    0.72    0.12
  -8  -6 -14    0.00    0.18
  -8  -6 -14   -0.03    0.18
   8   6  14   -0.04    0.10
   8   6  14    0.17    0.11
  -4  -7 -14    5.91    0.38
  -4  -7 -14    4.09    0.34
   4   7  14    4.80    0.27
   4   7  14    5.00    0.24
  -5  -7 -14    0.42    0.19
  -5  -7 -14    0.01    0.16
   5   7  14    0.15    0.12
   5   7  14    0.36    0.09
  -6  -7 -14    4.55    0.37
  -6  -7 -14    4.17    0.35
   6   7  14    4.70    0.23
   6   7  14    4.54    0.25
  -7  -7 -14   -0.04    0.17
  -7  -7 -14    0.14    0.18
   7   7  14    0.00    0.11
   7   7  14    0.20    0.11
  -4  -8 -14    0.00    0.21
   4   8  14    0.36    0.10
   4   8  14    0.10    0.13
  -5  -8 -14    0.89    0.20
  -5  -8 -14    1.15    0.22
   5   8  14    0.94    0.14
   5   8  14    0.83    0.12
  -6  -8 -14    0.08    0.20
  -6  -8 -14   -0.01    0.17
   6   8  14   -0.06    0.11
   6   8  14    0.05    0.10
  -7  -8 -14   -0.05    0.19
   7   8  14    0.07    0.11
   7   8  14    0.10    0.11
   0   0   0    0.00    0.00
;
_shelx_hkl_checksum              74291
#END Tags that were not found in dictionaries
loop_
_space_group_symop_operation_xyz
'x, y, z'
'-x, -y, -z'
loop_
_atom_site_label
_atom_site_type_symbol
_atom_site_fract_x
_atom_site_fract_y
_atom_site_fract_z
_atom_site_U_iso_or_equiv
_atom_site_adp_type
_atom_site_occupancy
_atom_site_site_symmetry_order
_atom_site_calc_flag
_atom_site_refinement_flags_posn
_atom_site_refinement_flags_adp
N1 N 0.79821(11) 0.44015(11) -0.22992(11) 0.02514(16) Uani 1 1 d . .
C2 C 0.94121(13) 0.52788(13) -0.28022(14) 0.02749(19) Uani 1 1 d . .
H2 H 1.0065 0.4831 -0.2156 0.033 Uiso 1 1 calc R U
C3 C 0.99545(14) 0.68211(13) -0.42417(14) 0.0290(2) Uani 1 1 d . .
C4 C 0.89707(15) 0.74326(15) -0.51617(14) 0.0332(2) Uani 1 1 d . .
H4 H 0.9313 0.8481 -0.6166 0.040 Uiso 1 1 calc R U
C5 C 0.74940(15) 0.65172(16) -0.46179(15) 0.0356(2) Uani 1 1 d . .
H5 H 0.6819 0.6935 -0.5243 0.043 Uiso 1 1 calc R U
C6 C 0.70103(13) 0.49972(15) -0.31649(14) 0.0310(2) Uani 1 1 d . .
H6 H 0.5990 0.4369 -0.2773 0.037 Uiso 1 1 calc R U
C7 C 1.15539(18) 0.77678(17) -0.47466(19) 0.0435(3) Uani 1 1 d . .
H7A H 1.1276 0.8620 -0.4337 0.052 Uiso 1 1 calc R U
H7B H 1.2214 0.8278 -0.6048 0.052 Uiso 1 1 calc R U
H7C H 1.2214 0.7022 -0.4184 0.052 Uiso 1 1 calc R U
C8 C 0.74417(14) 0.27650(13) -0.07130(14) 0.0290(2) Uani 1 1 d . .
H8A H 0.8434 0.2170 -0.0741 0.035 Uiso 1 1 calc R U
H8B H 0.6635 0.2114 -0.0752 0.035 Uiso 1 1 calc R U
C9 C 0.66178(14) 0.29475(13) 0.09974(14) 0.0292(2) Uani 1 1 d . .
H9A H 0.5650 0.3578 0.1005 0.035 Uiso 1 1 calc R U
H9B H 0.7438 0.3564 0.1056 0.035 Uiso 1 1 calc R U
C10 C 0.6009(2) 0.12796(16) 0.26163(18) 0.0458(3) Uani 1 1 d . .
H10A H 0.5156 0.0691 0.2588 0.055 Uiso 1 1 calc R U
H10B H 0.5515 0.1424 0.3709 0.055 Uiso 1 1 calc R U
H10C H 0.6964 0.0648 0.2597 0.055 Uiso 1 1 calc R U
P1 P 0.76708(3) 0.77084(3) 0.03604(4) 0.02730(9) Uani 1 1 d . .
F1 F 0.68051(11) 0.69857(10) -0.04294(12) 0.04211(18) Uani 1 1 d . .
F2 F 0.93386(11) 0.69256(14) -0.03854(13) 0.0523(2) Uani 1 1 d . .
F3 F 0.83653(16) 0.93557(12) -0.14277(14) 0.0668(3) Uani 1 1 d . .
F4 F 0.85269(11) 0.83928(11) 0.11852(12) 0.0476(2) Uani 1 1 d . .
F5 F 0.59791(12) 0.84306(14) 0.11584(18) 0.0627(3) Uani 1 1 d . .
F6 F 0.69687(13) 0.60346(11) 0.21869(11) 0.0520(2) Uani 1 1 d . .
loop_
_atom_site_aniso_label
_atom_site_aniso_U_11
_atom_site_aniso_U_22
_atom_site_aniso_U_33
_atom_site_aniso_U_23
_atom_site_aniso_U_13
_atom_site_aniso_U_12
N1 0.0235(4) 0.0277(4) 0.0228(3) -0.0120(3) -0.0082(3) 0.0029(3)
C2 0.0264(4) 0.0298(4) 0.0263(4) -0.0115(4) -0.0123(4) 0.0019(3)
C3 0.0300(5) 0.0307(5) 0.0238(4) -0.0111(4) -0.0099(4) -0.0001(4)
C4 0.0356(5) 0.0341(5) 0.0231(4) -0.0090(4) -0.0111(4) 0.0048(4)
C5 0.0296(5) 0.0466(6) 0.0271(5) -0.0123(4) -0.0143(4) 0.0078(4)
C6 0.0225(4) 0.0423(6) 0.0275(4) -0.0159(4) -0.0098(4) 0.0031(4)
C7 0.0439(7) 0.0414(6) 0.0374(6) -0.0088(5) -0.0169(5) -0.0125(5)
C8 0.0310(5) 0.0234(4) 0.0286(4) -0.0104(3) -0.0105(4) 0.0010(3)
C9 0.0319(5) 0.0258(4) 0.0250(4) -0.0088(3) -0.0105(4) 0.0007(4)
C10 0.0600(8) 0.0313(6) 0.0304(5) -0.0045(4) -0.0141(5) -0.0053(5)
P1 0.02546(14) 0.02495(13) 0.02967(14) -0.00891(10) -0.01344(10) 0.00046(9)
F1 0.0451(4) 0.0455(4) 0.0511(4) -0.0241(4) -0.0316(4) 0.0061(3)
F2 0.0358(4) 0.0801(7) 0.0558(5) -0.0421(5) -0.0231(4) 0.0223(4)
F3 0.0827(8) 0.0415(5) 0.0525(5) 0.0115(4) -0.0382(5) -0.0189(5)
F4 0.0442(4) 0.0562(5) 0.0532(5) -0.0290(4) -0.0238(4) -0.0052(4)
F5 0.0413(5) 0.0727(7) 0.1035(9) -0.0635(7) -0.0349(5) 0.0248(5)
F6 0.0630(6) 0.0418(4) 0.0347(4) -0.0011(3) -0.0204(4) -0.0132(4)
loop_
_atom_type_symbol
_atom_type_description
_atom_type_scat_dispersion_real
_atom_type_scat_dispersion_imag
_atom_type_scat_source
C C 0.0033 0.0016 'International Tables Vol C Tables 4.2.6.8 and 6.1.1.4'
H H 0.0000 0.0000 'International Tables Vol C Tables 4.2.6.8 and 6.1.1.4'
N N 0.0061 0.0033 'International Tables Vol C Tables 4.2.6.8 and 6.1.1.4'
F F 0.0171 0.0103 'International Tables Vol C Tables 4.2.6.8 and 6.1.1.4'
P P 0.1023 0.0942 'International Tables Vol C Tables 4.2.6.8 and 6.1.1.4'
loop_
_geom_angle_atom_site_label_1
_geom_angle_atom_site_label_2
_geom_angle_atom_site_label_3
_geom_angle
C2 N1 C6 121.21(9)
C2 N1 C8 118.98(9)
C6 N1 C8 119.78(9)
N1 C2 C3 121.41(9)
N1 C2 H2 119.3
C3 C2 H2 119.3
C2 C3 C4 117.67(10)
C2 C3 C7 119.64(10)
C4 C3 C7 122.68(11)
C5 C4 C3 120.18(10)
C5 C4 H4 119.9
C3 C4 H4 119.9
C6 C5 C4 119.52(10)
C6 C5 H5 120.2
C4 C5 H5 120.2
N1 C6 C5 119.99(10)
N1 C6 H6 120.0
C5 C6 H6 120.0
C3 C7 H7A 109.5
C3 C7 H7B 109.5
H7A C7 H7B 109.5
C3 C7 H7C 109.5
H7A C7 H7C 109.5
H7B C7 H7C 109.5
N1 C8 C9 110.64(8)
N1 C8 H8A 109.5
C9 C8 H8A 109.5
N1 C8 H8B 109.5
C9 C8 H8B 109.5
H8A C8 H8B 108.1
C8 C9 C10 110.74(9)
C8 C9 H9A 109.5
C10 C9 H9A 109.5
C8 C9 H9B 109.5
C10 C9 H9B 109.5
H9A C9 H9B 108.1
C9 C10 H10A 109.5
C9 C10 H10B 109.5
H10A C10 H10B 109.5
C9 C10 H10C 109.5
H10A C10 H10C 109.5
H10B C10 H10C 109.5
F3 P1 F5 90.87(7)
F3 P1 F2 91.00(6)
F5 P1 F2 178.10(6)
F3 P1 F4 90.28(6)
F5 P1 F4 90.42(5)
F2 P1 F4 89.92(5)
F3 P1 F1 90.93(5)
F5 P1 F1 89.76(5)
F2 P1 F1 89.86(5)
F4 P1 F1 178.78(5)
F3 P1 F6 179.65(5)
F5 P1 F6 89.13(6)
F2 P1 F6 89.00(6)
F4 P1 F6 89.37(5)
F1 P1 F6 89.43(5)
loop_
_geom_bond_atom_site_label_1
_geom_bond_atom_site_label_2
_geom_bond_distance
N1 C2 1.3428(13)
N1 C6 1.3451(14)
N1 C8 1.4894(13)
C2 C3 1.3838(14)
C2 H2 0.9500
C3 C4 1.3906(16)
C3 C7 1.5031(17)
C4 C5 1.3841(18)
C4 H4 0.9500
C5 C6 1.3761(16)
C5 H5 0.9500
C6 H6 0.9500
C7 H7A 0.9800
C7 H7B 0.9800
C7 H7C 0.9800
C8 C9 1.5134(15)
C8 H8A 0.9900
C8 H8B 0.9900
C9 C10 1.5187(15)
C9 H9A 0.9900
C9 H9B 0.9900
C10 H10A 0.9800
C10 H10B 0.9800
C10 H10C 0.9800
P1 F3 1.5769(9)
P1 F5 1.5919(9)
P1 F2 1.5959(9)
P1 F4 1.5971(8)
P1 F1 1.5983(8)
P1 F6 1.6063(8)
