#------------------------------------------------------------------------------
#$Date: 2016-03-24 14:28:49 +0200 (Thu, 24 Mar 2016) $
#$Revision: 179665 $
#$URL: svn://www.crystallography.net/cod/cif/4/51/18/4511866.cif $
#------------------------------------------------------------------------------
#
# This file is available in the Crystallography Open Database (COD),
# http://www.crystallography.net/
#
# All data on this site have been placed in the public domain by the
# contributors.
#
data_4511866
loop_
_publ_author_name
'Miyake, Ryosuke'
'Nakagawa, Yuki'
'Hase, Mariko'
_publ_section_title
;
 Selective Thermal Elongation of Metal--Metal Distances in the
 Two-Dimensional Assembly of Ag(I) Ions Templated by Assembled Peptide
 Ligands
;
_journal_issue                   10
_journal_name_full               'Crystal Growth &amp; Design'
_journal_page_first              4882
_journal_paper_doi               10.1021/cg5009347
_journal_volume                  14
_journal_year                    2014
_chemical_absolute_configuration ad
_chemical_formula_sum            'C7 H11 Ag2 N3 O5'
_chemical_formula_weight         432.93
_space_group_crystal_system      monoclinic
_space_group_IT_number           4
_space_group_name_Hall           'P 2yb'
_space_group_name_H-M_alt        'P 1 21 1'
_symmetry_space_group_name_Hall  'P 2yb'
_symmetry_space_group_name_H-M   'P 1 21 1'
_atom_sites_solution_hydrogens   geom
_cell_angle_alpha                90
_cell_angle_beta                 103.005(3)
_cell_angle_gamma                90
_cell_formula_units_Z            2
_cell_length_a                   4.8314(8)
_cell_length_b                   19.955(3)
_cell_length_c                   5.5470(10)
_cell_measurement_temperature    293
_cell_volume                     521.07(15)
_computing_cell_refinement       'SAINT V8.32B (Bruker AXS)'
_computing_data_collection       'Bruker SMART APEXII ULTRA'
_computing_data_reduction        'SAINT V8.32B (Bruker AXS)'
_computing_molecular_graphics    'XSHELL V6.3.1 (Bruker AXS)'
_computing_publication_material  'Generate Report (Bruker AXS)'
_computing_structure_refinement  'SHELXL-2013 (Sheldrick, 2013)'
_computing_structure_solution    'SHELXS-97 (Sheldrick, 1997)'
_diffrn_ambient_temperature      293
_diffrn_detector_area_resol_mean 8.333
_diffrn_measured_fraction_theta_full 0.988
_diffrn_measured_fraction_theta_max 0.988
_diffrn_measurement_device_type  'Bruker D8 goniometer'
_diffrn_measurement_method       'omega scans'
_diffrn_radiation_monochromator  'multilayered conforcal mirror'
_diffrn_radiation_type           MoK\a
_diffrn_radiation_wavelength     0.71073
_diffrn_reflns_av_R_equivalents  0.0178
_diffrn_reflns_limit_h_max       5
_diffrn_reflns_limit_h_min       -6
_diffrn_reflns_limit_k_max       22
_diffrn_reflns_limit_k_min       -27
_diffrn_reflns_limit_l_max       7
_diffrn_reflns_limit_l_min       -7
_diffrn_reflns_number            3559
_diffrn_reflns_theta_full        29.13
_diffrn_reflns_theta_max         29.13
_diffrn_reflns_theta_min         2.04
_diffrn_source                   'rotating-anode X-ray tube'
_diffrn_source_type              'Bruker Tourbo X-ray Source'
_exptl_absorpt_coefficient_mu    3.773
_exptl_absorpt_correction_T_max  0.96
_exptl_absorpt_correction_T_min  0.82
_exptl_absorpt_correction_type   empirical
_exptl_absorpt_process_details   'SADABS V2012/1 (Bruker AXS)'
_exptl_crystal_colour            colorless
_exptl_crystal_density_diffrn    2.759
_exptl_crystal_density_method    'not measured'
_exptl_crystal_description       plate
_exptl_crystal_F_000             416
_exptl_crystal_size_max          0.055
_exptl_crystal_size_mid          0.023
_exptl_crystal_size_min          0.010
_refine_diff_density_max         2.013
_refine_diff_density_min         -1.588
_refine_ls_abs_structure_details
;
Flack x determined using 876 quotients [(I+)-(I-)]/[(I+)+(I-)]
(Parsons and Flack (2004), Acta Cryst. A60, s61).
;
_refine_ls_abs_structure_Flack   0.08(3)
_refine_ls_extinction_method     none
_refine_ls_goodness_of_fit_ref   1.046
_refine_ls_hydrogen_treatment    constr
_refine_ls_matrix_type           full
_refine_ls_number_parameters     154
_refine_ls_number_reflns         2256
_refine_ls_number_restraints     1
_refine_ls_restrained_S_all      1.046
_refine_ls_R_factor_all          0.0394
_refine_ls_R_factor_gt           0.0333
_refine_ls_shift/su_max          0.000
_refine_ls_shift/su_mean         0.000
_refine_ls_structure_factor_coef Fsqd
_refine_ls_weighting_details
'w=1/[\s^2^(Fo^2^)+(0.0248P)^2^+1.6019P] where P=(Fo^2^+2Fc^2^)/3'
_refine_ls_weighting_scheme      calc
_refine_ls_wR_factor_gt          0.0703
_refine_ls_wR_factor_ref         0.0728
_reflns_number_gt                2025
_reflns_number_total             2256
_reflns_threshold_expression     'I > 2\s(I)'
_cod_data_source_file            cg5009347_si_001.cif
_cod_data_source_block           p21_293K_again
_cod_depositor_comments
'Adding full bibliography for 4511859--4511871.cif.'
_cod_original_cell_volume        521.07(16)
_cod_database_code               4511866
#BEGIN Tags that were not found in dictionaries:
_shelx_res_file
;
TITL p21(20) in P2(1)
CELL 0.71073   4.83140  19.95480   5.54700  90.0000 103.0047  90.0000
ZERR    2.00   0.00080   0.00340   0.00100   0.0000   0.0026   0.0000
LATT -1
SYMM -X, 0.5+Y, -Z
SFAC C  H  N  O  Ag
UNIT 14  22  6  10  4
L.S. 10
SHEL 20 0.73
ACTA
BOND $h
FMAP 2
PLAN 20
size 0.055 0.023 0.010
TEMP 20
WGHT    0.024800    1.601900
FVAR       0.18711
AG1   5    0.209766    0.857338    0.437422    11.00000    0.03972    0.01784 =
         0.04515   -0.00468   -0.00544    0.00913
AG2   5   -0.430524    0.867450   -0.007579    11.00000    0.04170    0.02324 =
         0.04005   -0.00533   -0.00269    0.00862
C1    1   -0.023887    0.756179    0.033729    11.00000    0.02461    0.02281 =
         0.02171   -0.00640   -0.00162    0.00361
C2    1    0.141060    0.695245    0.146865    11.00000    0.02962    0.02013 =
         0.02883   -0.00497    0.00030    0.00361
AFIX  23
H2A   2    0.306230    0.689798    0.076541    11.00000   -1.20000
H2B   2    0.022899    0.655752    0.105298    11.00000   -1.20000
AFIX   0
C3    1    0.237623    0.700585    0.427472    11.00000    0.01481    0.01203 =
         0.02792    0.00424    0.00598    0.00309
AFIX  13
H3    2    0.070004    0.704677    0.498354    11.00000   -1.20000
AFIX   0
C4    1    0.399086    0.636755    0.527025    11.00000    0.01772    0.01526 =
         0.02840    0.00401    0.00149    0.00460
C5    1    0.383306    0.524569    0.691480    11.00000    0.01669    0.01200 =
         0.03015    0.00456    0.00093    0.00021
AFIX  13
H5    2    0.557957    0.519893    0.631047    11.00000   -1.20000
AFIX   0
C6    1    0.466177    0.525660    0.972610    11.00000    0.03093    0.01643 =
         0.02946   -0.00036    0.00133    0.00143
AFIX  23
H6A   2    0.578657    0.565392    1.026872    11.00000   -1.20000
H6B   2    0.295780    0.528059    1.037157    11.00000   -1.20000
AFIX   0
C7    1    0.189933    0.465440    0.590906    11.00000    0.02086    0.01785 =
         0.02938    0.00084    0.00187    0.00053
N1    3    0.416013    0.759836    0.494124    11.00000    0.02312    0.01665 =
         0.02836    0.00058   -0.00280   -0.00116
AFIX  23
H1A   2    0.562770    0.758798    0.400195    11.00000   -1.20000
H1B   2    0.509974    0.756166    0.667609    11.00000   -1.20000
AFIX   0
N2    3    0.248359    0.587573    0.594880    11.00000    0.01761    0.01699 =
         0.03658    0.00960    0.00805    0.00409
AFIX  43
H2    2    0.068921    0.592821    0.581872    11.00000   -1.20000
AFIX   0
N3    3    0.629930    0.465874    1.072806    11.00000    0.03175    0.02524 =
         0.02530    0.00627   -0.00253   -0.00178
AFIX  23
H3A   2    0.691422    0.471794    1.250396    11.00000   -1.20000
H3B   2    0.799719    0.465015    1.007054    11.00000   -1.20000
AFIX   0
O1    4    0.058538    0.789278   -0.126635    11.00000    0.05208    0.07023 =
         0.04049    0.02401    0.02226    0.01799
O2    4   -0.240214    0.771625    0.111775    11.00000    0.03491    0.03623 =
         0.06638    0.02272    0.02670    0.01418
O3    4    0.657201    0.632067    0.535652    11.00000    0.01613    0.02607 =
         0.09004    0.02405    0.01860    0.00486
O4    4    0.260261    0.428783    0.436307    11.00000    0.06366    0.06512 =
         0.06655   -0.04262    0.02918   -0.02394
O5    4   -0.024294    0.456629    0.675673    11.00000    0.02545    0.03125 =
         0.06350   -0.01165    0.01634   -0.00997
HKLF 4

REM  p21(20) in P2(1)
REM R1 =  0.0333 for    2025 Fo > 4sig(Fo)  and  0.0394 for all    2256 data
REM    154 parameters refined using      1 restraints

END

WGHT      0.0248      1.6018

REM Highest difference peak  2.013,  deepest hole -1.588,  1-sigma level  0.128
Q1    1   0.0953  0.8497  0.5119  11.00000  0.05    2.01
Q2    1  -0.3044  0.8778 -0.0824  11.00000  0.05    1.69
Q3    1   0.1696  0.8606  0.3618  11.00000  0.05    0.69
Q4    1  -0.3975  0.8650  0.0638  11.00000  0.05    0.60
Q5    1  -0.3099  0.8446 -0.0915  11.00000  0.05    0.57
Q6    1   0.3187  0.8607  0.4702  11.00000  0.05    0.56
Q7    1  -0.4604  0.8643  0.1933  11.00000  0.05    0.53
Q8    1  -0.6039  0.8567 -0.0563  11.00000  0.05    0.52
Q9    1   0.1342  0.4571  0.4010  11.00000  0.05    0.51
Q10   1   0.2792  0.8632  0.2334  11.00000  0.05    0.49
Q11   1   0.9082  0.3863  0.9530  11.00000  0.05    0.46
Q12   1   0.1048  0.3609  0.2839  11.00000  0.05    0.44
Q13   1   0.2329  0.8859  0.4117  11.00000  0.05    0.42
Q14   1  -0.0881  0.8593  0.0817  11.00000  0.05    0.42
Q15   1   0.0770  0.8787 -0.1570  11.00000  0.05    0.39
Q16   1  -0.2302  0.8616  0.2706  11.00000  0.05    0.39
Q17   1  -0.0582  0.7801 -0.1960  11.00000  0.05    0.37
Q18   1   0.0488  0.6507 -0.0612  11.00000  0.05    0.37
Q19   1  -0.0841  0.8781 -0.1037  11.00000  0.05    0.37
Q20   1  -0.1630  0.7984  0.2678  11.00000  0.05    0.36
;
_shelx_res_checksum              99589
_shelx_hkl_file
;
  -1   0   0  119.55    2.04
  -1   0   0  116.57    1.94
  -2   0   0   16.88    0.54
  -2   0   0   17.87    0.63
  -3   0   0   24.08    0.89
  -3   0   0   23.31    0.78
  -4   0   0    6.72    0.58
  -4   0   0    6.75    0.68
  -5   0   0   51.76    1.78
  -6   0   0    5.87    0.89
   0  -1   0   -1.31    0.01
   0   1   0   -1.33    0.01
  -1  -1   0   82.24    1.38
  -1  -1   0   84.30    1.46
  -1   1   0   80.36    1.39
  -1   1   0   76.52    1.46
  -2  -1   0  225.76    3.90
  -2  -1   0  224.19    3.71
  -2   1   0  218.58    3.71
  -2   1   0  228.06    3.91
  -3  -1   0  102.05    2.02
  -3  -1   0  100.62    2.19
  -3   1   0  101.18    2.02
  -3   1   0  103.60    2.22
  -4  -1   0    6.67    0.58
  -4  -1   0    7.55    0.71
  -4   1   0    6.35    0.65
  -5  -1   0    4.05    0.70
  -5   1   0    5.47    0.80
  -6  -1   0    9.68    1.08
  -6   1   0   11.26    1.17
   0  -2   0  872.54   17.85
  -1  -2   0   38.01    0.77
  -1  -2   0   37.55    0.81
   1  -2   0   40.00    0.77
  -1   2   0   41.58    0.83
  -2  -2   0    2.27    0.30
  -2  -2   0    2.70    0.27
  -2   2   0    2.43    0.31
  -3  -2   0   68.51    1.50
  -3  -2   0   67.09    1.64
  -3   2   0   66.55    1.64
  -4  -2   0    8.34    0.63
  -4  -2   0    9.44    0.80
  -4   2   0    7.40    0.70
  -5  -2   0   23.64    1.22
  -5   2   0   23.28    1.22
  -6  -2   0    3.63    0.76
  -6   2   0    2.70    0.73
   0  -3   0   -0.35    0.08
   1  -3   0   52.01    0.97
  -1  -3   0   51.37    1.00
  -1  -3   0   50.67    0.98
  -1   3   0   51.55    1.02
  -1   3   0   49.54    1.00
  -2  -3   0  174.85    3.12
  -2  -3   0  174.09    2.98
   2  -3   0  173.43    2.97
  -2   3   0  174.76    3.14
  -3  -3   0  174.02    3.35
  -3  -3   0  180.45    3.17
   3  -3   0  172.28    3.12
  -3   3   0  172.55    3.36
  -4  -3   0    1.70    0.39
   4  -3   0    2.10    0.34
  -4  -3   0    1.54    0.47
  -4   3   0    2.44    0.49
  -5  -3   0    4.47    0.69
  -5   3   0    2.76    0.63
  -6  -3   0   10.35    1.06
  -6   3   0   10.14    1.07
   0  -4   0  390.31    6.18
  -1  -4   0  127.18    2.22
   1  -4   0  131.71    2.20
  -1  -4   0  129.08    2.21
  -1   4   0  128.34    2.26
  -1   4   0  128.73    2.35
  -2  -4   0   26.76    0.79
   2  -4   0   26.63    0.71
  -2  -4   0   26.95    0.75
  -2   4   0   28.70    0.81
   3  -4   0   50.66    1.21
  -3  -4   0   50.39    1.37
  -3  -4   0   51.92    1.26
  -3   4   0   49.96    1.37
   4  -4   0    2.30    0.37
  -4  -4   0    2.10    0.43
  -4  -4   0    2.16    0.49
  -4   4   0    1.50    0.46
  -5  -4   0   15.42    1.04
  -5   4   0   13.29    1.04
  -6  -4   0    4.64    0.81
  -6   4   0    3.14    0.74
   0  -5   0   -0.72    0.13
  -1  -5   0   60.92    1.21
  -1  -5   0   62.24    1.25
   1  -5   0   63.60    1.25
  -1   5   0   67.08    1.32
  -1   5   0   66.96    1.27
   2  -5   0  308.20    4.97
  -2  -5   0  309.33    4.99
  -2  -5   0  307.64    5.12
  -2   5   0  306.96    5.16
  -2   5   0  278.31    5.26
   3  -5   0  238.46    4.16
  -3  -5   0  245.03    4.40
  -3  -5   0  238.10    4.18
  -3   5   0  240.89    4.42
  -4  -5   0    1.18    0.44
   4  -5   0    1.28    0.32
  -4  -5   0    0.98    0.38
  -4   5   0    1.43    0.46
  -5  -5   0    2.33    0.60
  -5   5   0    3.53    0.67
  -6  -5   0    8.61    1.01
  -6   5   0    8.18    1.02
   0  -6   0  316.53    5.12
  -1  -6   0  126.41    2.24
   1  -6   0  127.33    2.27
  -1  -6   0  131.86    2.29
  -1   6   0  128.87    2.30
  -1   6   0  129.34    2.44
  -2  -6   0    5.71    0.42
   2  -6   0    5.55    0.36
  -2  -6   0    5.25    0.41
  -2   6   0    6.45    0.43
  -2   6   0    6.09    0.34
  -3  -6   0  100.86    2.19
  -3  -6   0  101.08    2.08
   3  -6   0   99.28    2.04
  -3   6   0  101.97    2.24
  -4  -6   0    2.39    0.45
  -4  -6   0    2.28    0.49
   4  -6   0    1.90    0.36
  -4   6   0    2.60    0.53
  -5  -6   0   12.53    1.00
  -5   6   0   15.10    1.06
  -6  -6   0    4.90    0.85
  -6   6   0    5.67    0.92
   0  -7   0   -0.01    0.16
  -1  -7   0  217.76    3.70
  -1  -7   0  216.72    3.67
   1  -7   0  222.95    3.71
  -2  -7   0  176.00    3.22
  -2  -7   0  180.64    3.21
   2  -7   0  185.12    3.20
  -2   7   0  185.08    3.31
  -2   7   0  176.53    3.35
  -3  -7   0  258.12    4.66
   3  -7   0  256.39    4.48
  -3  -7   0  257.62    4.53
  -3   7   0  262.52    4.73
   4  -7   0    0.56    0.28
  -4  -7   0    1.05    0.42
  -4  -7   0    1.24    0.40
  -4   7   0    1.21    0.45
  -5  -7   0    2.27    0.59
  -5   7   0    2.56    0.65
  -6  -7   0    8.40    1.00
  -6   7   0    8.28    1.06
   0  -8   0  636.46   10.07
   1  -8   0  177.87    3.10
  -1  -8   0  173.82    3.02
  -1  -8   0  176.81    3.10
   2  -8   0   37.88    0.99
  -2  -8   0   38.19    1.01
  -2  -8   0   36.34    0.97
  -2   8   0   35.62    0.98
  -2   8   0   35.53    1.01
  -3  -8   0   42.49    1.22
  -3  -8   0   41.70    1.21
   3  -8   0   40.83    1.15
  -3   8   0   41.25    1.26
  -3   8   0   40.00    1.09
  -4  -8   0    7.23    0.72
  -4  -8   0    5.61    0.60
   4  -8   0    6.99    0.60
  -4   8   0    6.14    0.71
  -5  -8   0   26.92    1.29
  -5   8   0   26.52    1.35
  -6  -8   0    4.23    0.79
  -6   8   0    3.16    0.81
   0  -9   0   -0.24    0.19
   1  -9   0   48.36    1.15
  -1  -9   0   47.19    1.15
  -1  -9   0   47.60    1.04
  -2  -9   0   42.07    1.12
   2  -9   0   40.69    1.08
  -2  -9   0   40.49    1.05
  -2   9   0   39.93    1.10
   3  -9   0   61.48    1.54
  -3  -9   0   63.57    1.59
  -3  -9   0   63.32    1.58
  -3   9   0   64.66    1.65
  -4  -9   0    7.31    0.73
  -4  -9   0    7.47    0.68
   4  -9   0    6.04    0.60
  -4   9   0    7.73    0.77
  -5  -9   0    2.43    0.61
  -5   9   0    3.81    0.70
  -6  -9   0    8.74    1.01
  -6   9   0   11.45    1.19
   0 -10   0  685.81   10.94
   1 -10   0   26.98    0.83
  -1 -10   0   24.57    0.70
  -1 -10   0   26.34    0.84
  -2 -10   0    1.86    0.35
  -2 -10   0    2.25    0.32
   2 -10   0    1.75    0.32
  -2  10   0    2.08    0.34
  -3 -10   0   24.11    0.93
  -3 -10   0   26.08    0.99
   3 -10   0   24.24    0.91
  -3  10   0   26.63    1.01
   4 -10   0    6.56    0.62
  -4 -10   0    6.62    0.65
  -4 -10   0    6.25    0.68
  -4  10   0    7.18    0.75
  -5 -10   0   29.15    1.34
  -5  10   0   28.02    1.42
  -6 -10   0    4.37    0.81
  -6  10   0    4.41    0.89
   0 -11   0    0.27    0.23
  -1 -11   0   54.23    1.35
   1 -11   0   57.04    1.37
  -1 -11   0   54.39    1.20
  -2 -11   0   70.30    1.56
   2 -11   0   70.82    1.66
  -2 -11   0   70.64    1.66
   3 -11   0   92.46    2.06
  -3 -11   0   90.21    2.06
  -3 -11   0   92.58    2.11
  -3  11   0   93.42    2.17
   4 -11   0   17.34    0.87
  -4 -11   0   17.47    0.94
  -4 -11   0   16.63    0.95
  -4  11   0   17.63    1.01
  -5 -11   0    2.27    0.58
  -5  11   0    2.27    0.65
  -6 -11   0    5.11    0.83
  -6  11   0    7.96    1.09
   0 -12   0  629.24   10.20
  -1 -12   0   40.99    1.00
  -1 -12   0   42.08    1.18
   1 -12   0   39.63    1.16
  -2 -12   0   20.59    0.75
   2 -12   0   19.80    0.81
  -2 -12   0   20.05    0.87
  -3 -12   0   39.77    1.22
  -3 -12   0   41.86    1.32
   3 -12   0   41.77    1.27
  -3  12   0   40.26    1.29
   4 -12   0   12.54    0.79
  -4 -12   0   13.87    0.87
  -4 -12   0   14.10    0.93
  -4  12   0   10.67    0.86
  -5 -12   0   18.59    1.13
  -5  12   0   21.91    1.30
  -6 -12   0    2.26    0.70
   0 -13   0    0.35    0.25
  -1 -13   0   34.56    1.11
   1 -13   0   35.48    1.11
  -1 -13   0   34.94    0.92
  -2 -13   0  112.17    2.42
   2 -13   0  111.06    2.38
  -2 -13   0  111.68    2.25
  -3 -13   0   73.56    1.81
  -3 -13   0   76.55    1.94
   3 -13   0   77.51    1.91
   4 -13   0   20.19    0.99
  -4 -13   0   21.77    1.09
  -4 -13   0   21.30    1.02
  -4  13   0   22.01    1.10
  -5 -13   0    0.37    0.46
  -5  13   0    0.49    0.52
   0 -14   0  200.54    3.77
  -1 -14   0   37.11    1.20
  -1 -14   0   38.11    0.99
   1 -14   0   37.62    1.19
  -2 -14   0   36.80    1.24
  -2 -14   0   36.78    1.07
   2 -14   0   38.70    1.22
   3 -14   0   27.06    1.09
  -3 -14   0   27.05    1.00
  -3 -14   0   27.86    1.14
   4 -14   0    5.78    0.65
  -4 -14   0    5.47    0.69
  -4 -14   0    4.61    0.59
   0 -15   0    0.18    0.29
  -1 -15   0   55.43    1.55
  -1 -15   0   53.69    1.29
   1 -15   0   58.11    1.56
   2 -15   0   48.71    1.45
  -2 -15   0   47.12    1.46
  -3 -15   0   68.82    1.74
   3 -15   0   71.42    1.88
  -3 -15   0   69.04    1.92
  -4 -15   0   11.68    0.93
   4 -15   0   12.32    0.88
   0 -16   0   64.08    1.72
  -1 -16   0   31.98    1.18
   1 -16   0   32.07    1.16
  -1 -16   0   31.77    0.93
  -2 -16   0   20.08    1.00
   2 -16   0   18.46    0.94
  -3 -16   0   28.25    1.25
   3 -16   0   30.00    1.20
   4 -16   0    4.56    0.67
  -4 -16   0    3.44    0.61
   0 -17   0    0.06    0.31
  -1 -17   0   26.09    0.85
   1 -17   0   26.84    1.10
  -1 -17   0   25.79    1.10
   2 -17   0   41.61    1.41
  -2 -17   0   40.88    1.43
  -3 -17   0   49.42    1.65
   3 -17   0   46.29    1.57
  -4 -17   0    1.12    0.50
   4 -17   0    0.77    0.46
   0 -18   0  247.28    4.72
  -1 -18   0   44.07    1.49
   1 -18   0   45.26    1.49
   2 -18   0   10.45    0.81
  -2 -18   0   11.50    0.88
  -3 -18   0   16.36    1.05
   3 -18   0   15.06    0.98
   4 -18   0    2.18    0.57
  -4 -18   0    1.82    0.57
   0 -19   0    1.14    0.42
  -1 -19   0   67.72    1.94
   1 -19   0   64.95    1.90
  -2 -19   0   16.84    1.03
   2 -19   0   17.52    0.99
  -3 -19   0   37.40    1.51
   3 -19   0   39.92    1.51
  -4 -19   0   11.65    1.03
   4 -19   0   14.04    1.03
   0 -20   0   92.67    2.39
  -1 -20   0   40.13    1.51
   1 -20   0   40.91    1.50
  -2 -20   0   11.64    0.94
   2 -20   0   10.73    0.87
   3 -20   0   13.75    0.99
  -3 -20   0   14.09    1.06
   4 -20   0    6.25    0.83
  -4 -20   0    6.92    0.88
   0 -21   0    0.14    0.39
   1 -21   0   33.98    1.40
  -1 -21   0   34.10    1.44
  -2 -21   0    5.89    0.78
   2 -21   0    7.30    0.83
   3 -21   0   17.09    1.09
  -3 -21   0   17.59    1.16
  -4 -21   0   12.15    1.12
   4 -21   0   12.49    1.03
   0 -22   0   58.60    1.92
   1 -22   0   13.75    0.98
  -1 -22   0   14.65    1.06
  -2 -22   0   11.96    1.08
   2 -22   0   10.72    1.02
   3 -22   0    6.86    0.85
  -3 -22   0    7.21    0.91
   4 -22   0    5.01    0.76
  -4 -22   0    4.35    0.79
   0 -23   0    0.15    0.43
   1 -23   0   20.67    1.18
  -1 -23   0   20.66    1.25
  -2 -23   0   11.94    1.13
   2 -23   0   11.88    1.08
   3 -23   0   15.99    1.15
  -3 -23   0   17.23    1.23
  -4 -23   0   10.89    1.10
   4 -23   0   13.76    1.12
   0 -24   0   26.35    1.38
   1 -24   0    9.21    0.96
  -1 -24   0   10.25    1.03
  -2 -24   0    9.03    1.01
   2 -24   0   11.36    1.09
  -3 -24   0   13.46    1.22
   3 -24   0   14.35    1.14
   0 -25   0    0.99    0.55
  -1 -25   0   23.61    1.40
   1 -25   0   22.51    1.33
  -2 -25   0   14.21    1.19
   2 -25   0   12.71    1.15
  -3 -25   0   27.36    1.57
   3 -25   0   26.61    1.48
   0 -26   0   25.59    1.47
  -1 -26   0   19.24    1.34
   1 -26   0   20.67    1.31
  -2 -26   0   25.43    1.49
   2 -26   0   22.22    1.37
   0 -27   0    0.87    0.58
   1 -27   0   19.24    1.34
  -1 -27   0   18.81    1.39
  -6   0   1    0.58    0.54
  -5   0   1    2.80    0.59
  -4   0   1   19.39    0.96
  -3   0   1   -0.16    0.25
  -2   0   1  585.98    9.52
  -1   0   1   83.88    1.53
   0   0  -1   15.28    0.40
  -1   0  -1  223.06    3.71
  -1   0  -1  224.91    3.75
  -2   0  -1  259.36    4.52
  -2   0  -1  261.68    4.43
  -3   0  -1   19.36    0.85
  -3   0  -1   21.52    0.86
  -4   0  -1    3.03    0.58
  -4   0  -1    3.56    0.57
  -5   0  -1    6.99    0.86
  -5   0  -1    6.47    0.81
  -6   0  -1    0.97    0.64
  -6  -1   1    0.89    0.57
  -6   1   1    1.60    0.62
  -5  -1   1   46.43    1.64
  -5   1   1   43.69    1.63
  -4  -1   1   61.93    1.73
  -4   1   1   61.47    1.72
  -3  -1   1   10.13    0.60
  -3   1   1   11.98    0.66
  -2  -1   1   79.55    1.64
  -2   1   1   79.37    1.63
  -1  -1   1  451.57    7.25
  -1   1   1  451.51    7.23
   0  -1  -1   77.09    1.34
   0   1  -1   78.03    1.35
  -1  -1  -1  205.99    3.45
  -1  -1  -1  210.75    3.45
  -1   1  -1  202.52    3.43
  -1   1  -1  203.59    3.49
  -2  -1  -1    2.05    0.30
  -2  -1  -1    2.27    0.33
  -2   1  -1    2.38    0.32
  -2   1  -1    1.90    0.31
  -3  -1  -1   24.29    0.92
  -3  -1  -1   24.95    0.94
  -3   1  -1   23.89    0.93
  -3   1  -1   24.82    0.95
  -4  -1  -1  123.71    2.81
  -4  -1  -1  122.88    2.69
  -4   1  -1  121.97    2.70
  -4   1  -1  121.30    2.81
  -5  -1  -1   10.31    1.02
  -5  -1  -1   10.47    0.96
  -5   1  -1    9.95    1.02
  -6  -1  -1    0.83    0.65
  -6   1  -1    1.03    0.67
  -6  -2   1    1.17    0.60
  -6   2   1    1.41    0.63
  -5  -2   1    2.10    0.59
  -5   2   1    2.30    0.58
  -4  -2   1   32.73    1.23
  -4   2   1   34.65    1.25
  -3  -2   1   10.02    0.60
  -3   2   1   10.39    0.62
  -2  -2   1  230.04    4.04
  -2   2   1  235.76    4.03
  -1  -2   1  295.64    4.94
  -1   2   1  307.36    4.89
   0  -2  -1   41.33    0.81
   0  -2   1   40.97    0.80
  -1  -2  -1  505.70    8.14
  -1  -2  -1  506.01    8.25
  -1   2  -1  526.77    8.34
  -1   2  -1  526.15    8.16
  -2  -2  -1  186.84    3.29
  -2  -2  -1  181.10    3.30
  -2   2  -1  186.33    3.37
  -2   2  -1  182.63    3.28
  -3  -2  -1   47.37    1.34
  -3  -2  -1   48.68    1.34
  -3   2  -1   45.89    1.35
  -3   2  -1   48.95    1.34
  -4  -2  -1    9.41    0.80
  -4  -2  -1    9.87    0.78
  -4   2  -1    8.27    0.78
  -5  -2  -1    2.15    0.61
  -5  -2  -1    2.73    0.64
  -5   2  -1    2.20    0.66
  -6  -2  -1    9.04    1.06
  -6   2  -1    5.69    0.96
  -6  -3   1    0.84    0.62
  -6   3   1    1.33    0.63
  -5  -3   1   11.01    0.92
  -5   3   1   11.23    0.98
  -4  -3   1   55.42    1.64
  -4   3   1   57.46    1.65
  -3  -3   1    7.87    0.57
  -3   3   1    6.75    0.41
  -3   3   1    7.13    0.55
  -2  -3   1   82.82    1.66
  -2   3   1   75.78    1.63
  -2   3   1   78.25    1.63
  -1  -3   1  382.06    6.21
  -1   3   1  381.16    6.27
  -1   3   1  381.37    6.59
   0  -3  -1    4.35    0.25
   0  -3   1    4.34    0.25
   0   3   1    3.51    0.25
  -1  -3  -1  382.81    6.21
  -1  -3  -1  389.53    6.21
  -2  -3  -1   11.67    0.58
  -2  -3  -1   10.65    0.52
  -2   3  -1   11.59    0.57
  -2   3  -1   10.85    0.56
  -3  -3  -1   15.00    0.77
  -3  -3  -1   14.23    0.75
  -3   3  -1   14.76    0.78
  -4  -3  -1   92.67    2.23
  -4  -3  -1   93.46    2.29
  -4   3  -1   93.81    2.37
   5  -3   1    1.39    0.46
  -5  -3  -1    6.04    0.85
  -5  -3  -1    2.89    0.64
  -5   3  -1    2.91    0.69
  -6  -3  -1    1.47    0.67
  -6   3  -1    1.74    0.69
  -6  -4   1    0.33    0.59
  -6   4   1    0.16    0.54
  -5  -4   1    3.06    0.64
  -5   4   1    2.09    0.61
  -4  -4   1   26.59    1.12
  -4   4   1   27.89    1.13
  -3  -4   1    1.99    0.36
  -3   4   1    1.76    0.27
  -3   4   1    2.33    0.40
  -2  -4   1  265.88    4.62
  -2   4   1  266.75    4.81
  -2   4   1  270.99    4.58
  -1  -4   1   66.69    1.20
   1  -4  -1   66.13    1.21
  -1  -4   1   67.50    1.33
  -1   4   1   64.37    1.38
  -1   4   1   64.30    1.22
   0  -4   1   33.03    0.73
   0  -4  -1   31.41    0.73
   0   4   1   32.70    0.79
  -1  -4  -1  428.58    6.90
  -1  -4  -1  431.30    6.91
   1  -4   1  433.18    6.88
  -2  -4  -1  233.42    4.07
   2  -4   1  235.52    4.06
  -2  -4  -1  234.44    4.09
  -2   4  -1  236.61    4.19
  -3  -4  -1   10.67    0.67
  -3  -4  -1   10.19    0.69
  -3   4  -1    9.47    0.67
  -4  -4  -1    7.04    0.70
  -4  -4  -1    5.49    0.68
   4  -4   1    5.92    0.59
  -4   4  -1    9.00    0.83
  -5  -4  -1    0.18    0.50
   5  -4   1    0.89    0.41
  -5  -4  -1    1.54    0.55
  -5   4  -1    0.70    0.56
  -6  -4  -1    8.17    1.04
  -6   4  -1    9.09    1.10
  -6  -5   1    0.19    0.52
  -6   5   1    0.20    0.57
  -5  -5   1   13.11    0.99
  -5   5   1   13.25    0.98
  -4  -5   1   86.58    2.09
  -4   5   1   84.08    2.08
  -4   5   1   75.18    1.83
  -3  -5   1    8.86    0.59
  -3   5   1    8.59    0.47
  -3   5   1    8.01    0.60
   2  -5  -1   50.34    1.10
  -2  -5   1   53.27    1.10
  -2  -5   1   57.23    1.28
  -2   5   1   57.41    1.25
  -2   5   1   55.12    1.27
  -1  -5   1  263.68    4.31
  -1  -5   1  266.86    4.48
   1  -5  -1  262.09    4.31
  -1   5   1  268.79    4.36
  -1   5   1  275.11    4.77
   0  -5  -1   23.08    0.63
   0  -5   1   22.67    0.62
   0   5   1   24.93    0.69
  -1  -5  -1  272.33    4.58
   1  -5   1  279.22    4.56
  -2  -5  -1   10.60    0.51
  -2  -5  -1   11.24    0.59
   2  -5   1   10.21    0.51
  -2   5  -1   10.58    0.57
   3  -5   1   19.70    0.80
  -3  -5  -1   21.54    0.90
  -3  -5  -1   20.55    0.87
  -3   5  -1   22.19    0.92
  -4  -5  -1   91.61    2.23
  -4  -5  -1   90.48    2.26
   4  -5   1   92.18    2.16
  -4   5  -1   90.66    2.34
   5  -5   1    3.04    0.55
  -5  -5  -1    3.16    0.65
  -5  -5  -1    4.02    0.72
  -5   5  -1    3.93    0.75
  -6  -5  -1    2.21    0.69
  -6   5  -1    1.74    0.70
  -6   6   1   -0.16    0.53
  -5  -6   1    1.75    0.55
  -5   6   1    2.11    0.59
  -4  -6   1   38.06    1.32
  -4   6   1   38.68    1.34
  -3  -6   1    1.30    0.34
  -3  -6   1    0.78    0.26
  -3   6   1    0.43    0.20
  -3   6   1    0.49    0.31
  -2  -6   1  330.63    5.53
  -2  -6   1  319.70    5.25
   2  -6  -1  313.73    5.26
  -2   6   1  326.53    5.46
  -2   6   1  331.51    5.80
  -1  -6   1   95.24    1.81
   1  -6  -1   93.18    1.73
  -1  -6   1   95.92    1.73
  -1   6   1   91.41    1.66
  -1   6   1   93.37    1.91
   0  -6  -1   43.99    0.98
   0  -6   1   42.47    0.95
   0   6   1   42.29    1.04
   1  -6   1  606.46    9.64
  -1  -6  -1  611.92    9.69
   2  -6   1  117.13    2.28
  -2  -6  -1  119.29    2.34
  -2  -6  -1  114.09    2.23
  -2   6  -1  118.25    2.39
  -3  -6  -1   23.91    0.97
  -3  -6  -1   23.75    0.93
   3  -6   1   23.44    0.89
  -3   6  -1   26.03    1.02
  -4  -6  -1    3.51    0.59
  -4  -6  -1    3.71    0.56
   4  -6   1    3.65    0.53
  -4   6  -1    4.07    0.64
   5  -6   1    5.44    0.70
  -5  -6  -1    6.74    0.81
  -5  -6  -1    7.03    0.86
  -5   6  -1    7.87    0.94
  -6  -6  -1    2.47    0.76
  -6   6  -1    3.85    0.86
  -6  -7   1    0.58    0.57
  -6   7   1    0.53    0.58
  -5  -7   1   22.29    1.20
  -5   7   1   23.47    1.23
  -4  -7   1   53.57    1.60
  -4   7   1   52.98    1.41
  -4   7   1   54.86    1.62
   3  -7  -1   15.07    0.59
  -3  -7   1   16.40    0.65
  -3  -7   1   16.35    0.77
  -3   7   1   17.09    0.68
  -3   7   1   16.03    0.75
  -2  -7   1   47.13    1.19
  -2  -7   1   46.67    1.07
   2  -7  -1   46.15    1.07
  -2   7   1   48.66    1.13
  -2   7   1   49.79    1.22
   1  -7  -1  387.05    6.25
  -1  -7   1  387.80    6.41
  -1  -7   1  393.62    6.25
  -1   7   1  393.77    6.84
  -1   7   1  376.75    6.24
   0  -7   1   44.76    1.01
   0  -7  -1   43.80    1.01
   0   7   1   42.80    1.08
   1  -7   1  353.04    5.78
  -1  -7  -1  351.43    5.81
   2  -7   1   16.90    0.68
  -2  -7  -1   18.05    0.74
  -2  -7  -1   16.91    0.62
  -2   7  -1   17.32    0.73
  -3  -7  -1   10.18    0.72
   3  -7   1   10.26    0.64
  -3  -7  -1   10.92    0.66
  -3   7  -1   11.43    0.75
   4  -7   1   56.51    1.60
  -4  -7  -1   52.87    1.60
  -4  -7  -1   51.41    1.62
  -4   7  -1   55.17    1.76
  -5  -7  -1    9.21    0.93
   5  -7   1    8.01    0.80
  -5  -7  -1    8.12    0.88
  -5   7  -1    9.04    1.03
  -6  -7  -1    0.22    0.56
  -6   7  -1    0.72    0.62
  -6  -8   1    1.56    0.63
  -6   8   1    0.76    0.61
  -5  -8   1    1.18    0.52
  -5   8   1    2.29    0.62
  -4  -8   1   25.05    0.91
  -4  -8   1   26.50    1.11
   4  -8  -1   24.60    0.85
  -4   8   1   24.58    1.09
  -4   8   1   21.72    0.88
  -3  -8   1   13.38    0.73
  -3  -8   1   13.97    0.64
   3  -8  -1   14.10    0.60
  -3   8   1   13.00    0.63
  -3   8   1   13.36    0.70
  -2  -8   1  199.19    3.58
  -2  -8   1  196.86    3.41
   2  -8  -1  199.68    3.43
  -2   8   1  193.39    3.75
  -2   8   1  194.96    3.49
   1  -8  -1   83.65    1.66
  -1  -8   1   84.58    1.65
  -1  -8   1   83.07    1.67
  -1   8   1   80.23    1.80
  -1   8   1   80.21    1.52
   0  -8  -1   67.13    1.44
   0  -8   1   68.07    1.44
   0   8   1   69.95    1.56
  -1  -8  -1  277.45    4.73
   1  -8   1  278.96    4.71
  -2  -8  -1  111.02    2.25
   2  -8   1  105.53    2.17
  -3  -8  -1   21.18    0.85
   3  -8   1   21.26    0.87
  -3  -8  -1   21.44    0.96
  -3   8  -1   19.65    0.95
  -4  -8  -1    7.29    0.76
  -4  -8  -1    7.89    0.76
   4  -8   1    7.15    0.69
  -4   8  -1    7.47    0.82
  -5  -8  -1    6.01    0.78
  -5  -8  -1    3.51    0.67
   5  -8   1    4.38    0.64
  -5   8  -1    6.11    0.90
  -6  -8  -1    3.53    0.76
  -6  -9   1    0.70    0.58
  -6   9   1    1.34    0.66
  -5  -9   1   20.81    1.17
  -5   9   1   19.30    1.15
  -4  -9   1   22.11    1.06
   4  -9  -1   21.33    0.82
  -4  -9   1   21.15    0.88
  -4   9   1   21.63    0.88
  -4   9   1   21.79    1.05
   3  -9  -1   10.26    0.55
  -3  -9   1    9.52    0.67
  -3  -9   1    9.61    0.59
  -3   9   1    6.71    0.58
  -3   9   1    7.21    0.54
  -2  -9   1   74.51    1.69
  -2  -9   1   73.95    1.60
   2  -9  -1   76.69    1.63
  -2   9   1   76.94    1.78
  -2   9   1   78.64    1.62
   1  -9  -1  279.83    4.78
  -1  -9   1  278.83    4.84
  -1  -9   1  287.94    4.78
  -1   9   1  288.12    5.22
   0  -9  -1   13.42    0.57
   0  -9   1   13.04    0.56
   0   9   1   13.73    0.62
  -1  -9  -1   78.11    1.70
   1  -9   1   79.23    1.69
  -2  -9  -1   16.20    0.75
   2  -9   1   15.69    0.69
   3  -9   1   27.45    0.99
  -3  -9  -1   27.54    0.97
  -3  -9  -1   26.25    1.08
  -3   9  -1   26.40    1.09
   4  -9   1   93.38    2.22
  -4  -9  -1   90.30    2.24
  -4  -9  -1   89.41    2.29
  -4   9  -1   89.75    2.42
   5  -9   1    7.05    0.76
  -5  -9  -1    6.01    0.81
  -5  -9  -1    5.68    0.80
  -5   9  -1    7.77    0.94
  -6  -9  -1    1.35    0.68
  -6 -10   1    1.13    0.60
  -6  10   1    0.41    0.57
  -5 -10   1    2.83    0.64
  -5  10   1    2.61    0.62
  -4 -10   1   16.85    0.83
  -4 -10   1   15.58    0.94
   4 -10  -1   14.96    0.74
  -4  10   1   17.45    0.95
  -4  10   1   16.68    0.80
  -3 -10   1   15.44    0.80
   3 -10  -1   14.15    0.66
  -3 -10   1   14.60    0.72
  -3  10   1   15.00    0.75
  -3  10   1   15.50    0.75
   2 -10  -1  121.42    2.38
  -2 -10   1  123.94    2.37
  -2 -10   1  122.41    2.44
  -2  10   1  121.22    2.59
  -2  10   1  118.50    2.33
   1 -10  -1   88.25    1.85
  -1 -10   1   88.97    1.83
  -1 -10   1   88.63    1.84
  -1  10   1   89.71    2.00
   0 -10  -1  102.56    2.05
   0 -10   1   99.42    2.02
   1 -10   1  171.71    3.17
  -1 -10  -1  173.01    3.22
   2 -10   1   81.40    1.84
  -2 -10  -1   79.30    1.87
   3 -10   1   21.26    0.91
  -3 -10  -1   21.88    1.01
  -3 -10  -1   22.45    0.87
  -4 -10  -1    6.38    0.68
   4 -10   1    7.56    0.75
  -4 -10  -1    7.18    0.77
  -4  10  -1    7.92    0.85
  -5 -10  -1    6.79    0.84
  -5 -10  -1    7.76    0.88
   5 -10   1    8.87    0.88
  -5  10  -1    9.50    1.04
  -6 -11   1    0.92    0.58
  -6  11   1    0.76    0.59
  -5 -11   1   27.29    1.34
  -5  11   1   28.48    1.37
  -4 -11   1   26.49    1.16
   4 -11  -1   23.79    0.95
  -4 -11   1   27.56    1.06
  -4  11   1   27.42    1.16
  -4  11   1   25.66    1.00
   3 -11  -1    0.92    0.30
  -3 -11   1    1.09    0.34
  -3 -11   1    0.63    0.36
  -3  11   1    1.33    0.37
  -3  11   1    1.39    0.34
  -2 -11   1   50.93    1.31
  -2 -11   1   53.58    1.36
   2 -11  -1   52.14    1.33
  -2  11   1   52.82    1.26
  -2  11   1   50.93    1.42
   1 -11  -1  262.05    4.60
  -1 -11   1  269.26    4.60
  -1 -11   1  263.06    4.61
  -1  11   1  264.77    5.00
   0 -11   1   32.53    0.97
   0 -11  -1   32.16    0.98
   1 -11   1  147.84    2.86
  -1 -11  -1  151.87    2.92
  -2 -11  -1    9.46    0.66
   2 -11   1    9.76    0.63
  -3 -11  -1    5.62    0.54
   3 -11   1    7.12    0.66
  -3 -11  -1    4.54    0.60
  -4 -11  -1   50.61    1.57
  -4 -11  -1   53.98    1.72
   4 -11   1   51.52    1.63
   5 -11   1    7.55    0.83
  -5 -11  -1    8.14    0.90
  -6 -12   1    1.70    0.62
  -6  12   1    1.89    0.67
  -5 -12   1    5.30    0.77
  -5  12   1    6.73    0.82
  -4 -12   1   14.57    0.86
   4 -12  -1   14.87    0.78
  -4 -12   1   15.96    0.95
  -4  12   1   14.57    0.81
  -4  12   1   15.41    0.92
  -3 -12   1    5.37    0.58
  -3 -12   1    5.58    0.55
   3 -12  -1    6.08    0.56
  -3  12   1    5.81    0.57
  -3  12   1    5.44    0.57
   2 -12  -1  166.77    3.17
  -2 -12   1  164.88    3.13
  -2 -12   1  164.67    3.18
  -2  12   1  162.86    3.40
  -2  12   1  165.29    3.06
   1 -12  -1   56.92    1.41
  -1 -12   1   54.62    1.34
  -1 -12   1   53.75    1.39
  -1  12   1   57.29    1.53
   0 -12  -1   50.26    1.32
   0 -12   1   49.84    1.32
   1 -12   1  172.85    3.29
  -1 -12  -1  173.43    3.32
   2 -12   1   72.75    1.75
  -2 -12  -1   69.39    1.80
  -3 -12  -1   14.93    0.72
   3 -12   1   13.89    0.83
  -3 -12  -1   13.91    0.88
  -4 -12  -1    3.43    0.56
   4 -12   1    4.63    0.66
  -4 -12  -1    3.42    0.63
  -5 -12  -1    4.19    0.76
   5 -12   1    4.83    0.75
  -6 -13   1    1.14    0.61
  -6  13   1    1.31    0.65
  -5 -13   1   19.55    1.18
  -5  13   1   17.91    1.14
   4 -13  -1   41.04    1.30
  -4 -13   1   40.60    1.43
  -4 -13   1   40.49    1.34
  -4  13   1   37.79    1.39
  -4  13   1   39.62    1.36
   3 -13  -1   19.55    0.88
  -3 -13   1   20.07    0.92
  -3 -13   1   20.51    0.91
  -3  13   1   20.81    0.94
  -3  13   1   19.02    0.85
  -2 -13   1   32.91    1.07
  -2 -13   1   30.87    1.04
   2 -13  -1   31.54    1.05
  -2  13   1   29.80    1.11
  -1 -13   1  104.82    2.16
   1 -13  -1  104.58    2.24
  -1 -13   1  104.28    2.23
   0 -13  -1   20.47    0.84
   0 -13   1   18.67    0.81
  -1 -13  -1   95.71    2.15
   1 -13   1   96.19    2.12
   2 -13   1   40.84    1.26
  -2 -13  -1   38.38    1.29
   3 -13   1    8.87    0.73
  -3 -13  -1   10.39    0.84
  -4 -13  -1   63.97    1.96
   4 -13   1   63.42    1.88
  -5 -13  -1    3.25    0.71
   5 -13   1    4.06    0.71
  -6 -14   1    0.92    0.60
  -5 -14   1    5.91    0.77
  -5  14   1    6.02    0.79
   4 -14  -1   15.61    0.86
  -4 -14   1   16.37    0.93
  -4 -14   1   15.89    0.98
  -4  14   1   15.72    0.94
  -3 -14   1    2.14    0.45
  -3 -14   1    2.55    0.48
   3 -14  -1    2.96    0.45
  -3  14   1    2.11    0.43
  -3  14   1    2.54    0.43
  -2 -14   1  102.35    2.25
   2 -14  -1  102.83    2.29
  -2 -14   1  102.54    2.26
  -2  14   1  103.80    2.47
   1 -14  -1   56.68    1.51
  -1 -14   1   56.85    1.42
  -1 -14   1   55.58    1.50
   0 -14   1   71.20    1.74
   0 -14  -1   69.62    1.74
   1 -14   1  118.11    2.51
  -1 -14  -1  117.71    2.56
  -2 -14  -1   87.43    2.16
   2 -14   1   92.09    2.16
   3 -14   1    9.57    0.77
  -3 -14  -1   10.62    0.86
  -4 -14  -1    4.99    0.73
   4 -14   1    5.77    0.73
   5 -14   1    2.42    0.63
  -5 -14  -1    2.33    0.68
  -5 -15   1    2.19    0.62
  -5  15   1    3.10    0.66
   4 -15  -1   24.46    1.08
  -4 -15   1   23.41    1.14
  -4 -15   1   22.07    1.09
  -4  15   1   22.24    1.07
  -3 -15   1   30.07    1.17
   3 -15  -1   31.47    1.16
  -3 -15   1   32.58    1.18
  -2 -15   1   23.38    0.99
   2 -15  -1   23.10    0.98
  -2 -15   1   23.24    0.93
   1 -15  -1   78.11    1.90
  -1 -15   1   76.09    1.77
  -1 -15   1   75.86    1.88
   0 -15   1    1.18    0.36
   0 -15  -1    0.95    0.33
  -1 -15  -1   81.78    2.02
   1 -15   1   78.41    1.94
  -2 -15  -1   38.17    1.34
   2 -15   1   38.64    1.32
   3 -15   1    9.15    0.83
  -3 -15  -1    7.70    0.80
   4 -15   1   33.39    1.39
  -4 -15  -1   31.29    1.44
   5 -15   1    0.33    0.48
  -5 -15  -1    1.62    0.65
  -5 -16   1    2.98    0.66
  -5  16   1    3.98    0.68
   4 -16  -1   14.52    0.87
  -4 -16   1   11.98    0.94
  -4 -16   1   14.45    0.96
  -3 -16   1    3.35    0.52
  -3 -16   1    3.02    0.54
   3 -16  -1    4.15    0.56
   2 -16  -1   68.36    1.84
  -2 -16   1   71.28    1.84
  -2 -16   1   67.55    1.74
   1 -16  -1   16.38    0.84
  -1 -16   1   15.25    0.84
  -1 -16   1   16.21    0.75
   0 -16   1   34.32    1.19
   0 -16  -1   33.55    1.21
  -1 -16  -1   94.83    2.29
   1 -16   1   93.75    2.24
   2 -16   1   60.42    1.74
  -2 -16  -1   58.23    1.74
  -3 -16  -1   16.45    1.03
   3 -16   1   16.05    1.00
   4 -16   1    0.88    0.51
  -4 -16  -1    0.96    0.55
  -5 -16  -1    4.12    0.82
   5 -16   1    3.30    0.68
  -4 -17   1   20.85    1.09
   4 -17  -1   21.59    1.05
  -4 -17   1   19.06    1.19
   3 -17  -1   15.28    0.89
  -3 -17   1   17.54    0.98
  -3 -17   1   15.58    0.88
  -2 -17   1   29.37    1.08
   2 -17  -1   29.51    1.17
  -2 -17   1   30.42    1.20
   1 -17  -1   44.21    1.41
  -1 -17   1   42.09    1.26
  -1 -17   1   43.38    1.41
   0 -17  -1    8.91    0.73
   0 -17   1    9.59    0.74
   1 -17   1   27.87    1.14
  -1 -17  -1   27.06    1.17
  -2 -17  -1   31.74    1.31
   2 -17   1   32.26    1.26
  -3 -17  -1   14.08    1.02
   3 -17   1   14.30    0.98
  -4 -17  -1   28.10    1.42
   4 -17   1   29.14    1.40
  -5 -17  -1    6.06    0.92
   5 -17   1    8.09    0.98
   4 -18  -1    7.22    0.74
  -3 -18   1    1.73    0.46
   3 -18  -1    1.30    0.44
  -3 -18   1    1.36    0.47
  -2 -18   1  101.42    2.47
   2 -18  -1  102.33    2.48
  -2 -18   1  101.40    2.33
  -1 -18   1    8.29    0.77
  -1 -18   1    9.32    0.64
   1 -18  -1    9.55    0.81
   0 -18  -1   49.22    1.57
   0 -18   1   46.36    1.52
   1 -18   1   46.89    1.54
  -1 -18  -1   46.46    1.58
   2 -18   1   45.11    1.54
  -2 -18  -1   44.42    1.58
   3 -18   1   12.16    1.05
  -3 -18  -1   10.34    0.98
  -4 -18  -1    1.68    0.64
   4 -18   1    1.51    0.55
   5 -18   1    8.87    0.98
   4 -19  -1   10.36    0.87
   3 -19  -1   19.41    1.06
  -3 -19   1   19.86    1.09
   2 -19  -1   24.84    1.14
  -2 -19   1   25.87    1.04
  -2 -19   1   25.88    1.20
  -1 -19   1   56.41    1.55
   1 -19  -1   59.90    1.77
  -1 -19   1   55.76    1.74
   0 -19   1   12.48    0.87
   0 -19  -1    9.65    0.83
  -1 -19  -1   29.90    1.32
   1 -19   1   30.04    1.27
   2 -19   1   18.44    1.07
  -2 -19  -1   19.71    1.13
  -3 -19  -1    8.62    0.93
   3 -19   1   11.93    1.03
   4 -19   1   22.36    1.30
  -4 -19  -1   18.40    1.30
   4 -20  -1    5.79    0.77
  -3 -20   1    4.37    0.69
   3 -20  -1    4.48    0.65
   2 -20  -1   38.18    1.45
  -2 -20   1   40.11    1.51
   1 -20  -1   28.36    1.27
  -1 -20   1   30.47    1.10
  -1 -20   1   32.80    1.35
   0 -20   1   45.20    1.59
   0 -20  -1   46.84    1.62
   1 -20   1   39.76    1.50
  -1 -20  -1   40.63    1.56
   2 -20   1   20.69    1.16
  -2 -20  -1   22.56    1.22
   3 -20   1   12.66    1.02
  -3 -20  -1   14.76    1.12
  -4 -20  -1    1.59    0.66
   4 -20   1    0.98    0.55
   3 -21  -1   11.93    1.03
  -3 -21   1   10.69    1.00
   2 -21  -1   11.53    0.90
  -2 -21   1   12.40    0.98
   1 -21  -1   41.82    1.57
  -1 -21   1   43.06    1.60
   0 -21   1    7.67    0.81
   0 -21  -1    7.04    0.77
   1 -21   1   20.91    1.15
  -1 -21  -1   18.23    1.17
   2 -21   1   19.56    1.17
  -2 -21  -1   20.57    1.22
   3 -21   1    8.41    0.96
  -3 -21  -1    8.07    0.98
  -4 -21  -1   15.83    1.29
   4 -21   1   19.05    1.27
   3 -22  -1    0.61    0.42
  -3 -22   1    0.68    0.51
   2 -22  -1   19.77    1.14
  -2 -22   1   22.87    1.25
  -1 -22   1   13.44    1.04
   1 -22  -1   12.98    1.00
   0 -22   1   38.64    1.55
   0 -22  -1   38.71    1.56
  -1 -22  -1   21.49    1.27
   1 -22   1   22.86    1.24
  -2 -22  -1   14.31    1.12
   2 -22   1   14.65    1.07
   3 -22   1    6.99    0.90
  -3 -22  -1    6.26    0.90
  -4 -22  -1    2.78    0.82
   3 -23  -1    8.15    0.89
  -3 -23   1    7.91    0.91
  -2 -23   1   17.02    1.17
   2 -23  -1   19.27    1.17
   1 -23  -1   26.37    1.36
  -1 -23   1   29.29    1.41
   0 -23  -1    4.61    0.72
   0 -23   1    4.52    0.72
  -1 -23  -1   22.88    1.33
   1 -23   1   22.40    1.31
   2 -23   1   13.57    1.20
  -2 -23  -1   14.54    1.17
   3 -23   1    5.08    0.82
  -3 -23  -1    3.54    0.83
  -3 -24   1    3.06    0.71
   3 -24  -1    3.96    0.71
   2 -24  -1   26.99    1.38
  -2 -24   1   28.36    1.45
   1 -24  -1   10.51    1.01
  -1 -24   1    9.05    1.00
   0 -24   1   30.26    1.47
   0 -24  -1   31.21    1.52
  -1 -24  -1   31.85    1.56
   1 -24   1   28.99    1.48
   2 -24   1   11.49    1.12
  -2 -24  -1   11.04    1.11
  -3 -24  -1    4.32    0.86
   3 -24   1    6.61    0.95
   3 -25  -1   20.36    1.28
  -3 -25   1   21.90    1.35
  -2 -25   1    6.49    0.90
   2 -25  -1    8.79    1.01
   1 -25  -1   13.16    1.18
  -1 -25   1   15.15    1.20
   0 -25  -1    5.12    0.82
   0 -25   1    4.00    0.72
  -1 -25  -1   17.40    1.29
   1 -25   1   16.71    1.21
  -2 -25  -1   23.22    1.45
   2 -25   1   22.66    1.38
  -3 -26   1    5.35    0.94
   2 -26  -1   19.15    1.29
  -2 -26   1   18.38    1.32
   1 -26  -1    3.18    0.73
  -1 -26   1    3.46    0.77
   0 -26  -1   30.14    1.61
   0 -26   1   34.07    1.62
   1 -26   1    9.21    1.03
  -1 -26  -1   10.07    1.09
  -2 -26  -1   13.22    1.29
  -2 -27   1   11.03    1.24
  -1 -27   1    9.35    1.10
   1 -27  -1    7.48    0.96
   0 -27   1    1.21    0.62
   0 -27  -1    1.23    0.69
  -6   0   2   14.86    1.18
  -5   0   2    4.71    0.70
  -4   0   2    3.92    0.55
  -3   0   2   -0.09    0.30
  -2   0   2   23.75    0.76
  -1   0   2  530.72    8.57
   0   0  -2 1000.00   15.75
  -1   0  -2    8.80    0.50
  -2   0  -2    7.85    0.54
  -2   0  -2    7.38    0.57
  -3   0  -2   69.00    1.81
  -3   0  -2   70.45    1.82
  -4   0  -2   -0.28    0.44
  -4   0  -2   -0.16    0.45
  -5   0  -2   32.47    1.52
  -5   0  -2   31.11    1.54
  -6   0  -2   -0.27    0.65
  -6  -1   2    5.91    0.90
  -6   1   2    5.03    0.88
  -5  -1   2    1.31    0.55
  -5   1   2    1.02    0.54
  -4  -1   2    8.48    0.76
  -4   1   2    8.54    0.77
  -3  -1   2  123.36    2.53
  -3   1   2  122.06    2.52
  -2  -1   2   43.60    1.10
  -2   1   2   42.30    1.07
  -1  -1   2   29.40    0.78
  -1   1   2   30.21    0.75
   0  -1  -2  192.87    3.26
   0   1  -2  194.78    3.26
  -1  -1  -2    2.07    0.31
  -1   1  -2    1.60    0.29
  -2  -1  -2  147.62    2.91
  -2  -1  -2  149.61    2.88
  -2   1  -2  149.25    2.91
  -2   1  -2  153.57    2.91
  -3  -1  -2   37.42    1.25
  -3  -1  -2   38.73    1.30
  -3   1  -2   38.43    1.31
  -3   1  -2   38.27    1.30
  -4  -1  -2    3.74    0.66
  -4  -1  -2    4.78    0.67
  -4   1  -2    3.49    0.65
  -4   1  -2    3.67    0.67
  -5  -1  -2   25.60    1.41
  -5  -1  -2   25.47    1.39
  -5   1  -2   27.14    1.49
  -6  -1  -2    6.85    1.09
  -6   1  -2    7.64    1.12
  -6  -2   2   12.10    1.13
  -6   2   2   12.26    1.17
  -5  -2   2    5.01    0.76
  -5   2   2    4.47    0.72
  -4  -2   2    9.00    0.73
  -4   2   2    9.40    0.76
  -3  -2   2   14.84    0.75
  -3   2   2   15.75    0.74
  -2  -2   2   24.18    0.81
  -2   2   2   26.75    0.79
  -1  -2   2  326.56    5.43
  -1   2   2  324.45    5.33
   0  -2  -2  373.25    5.94
   0   2   2  375.85    6.44
   0   2  -2  360.16    5.94
  -1  -2  -2   23.78    0.80
  -1   2  -2   26.03    0.81
  -2  -2  -2   23.02    0.90
  -2  -2  -2   23.07    0.81
  -2   2  -2   23.24    0.90
  -3  -2  -2   88.77    2.14
  -3  -2  -2   87.71    2.08
  -3   2  -2   85.39    2.13
  -3   2  -2   88.19    2.13
  -4  -2  -2    2.95    0.58
  -4  -2  -2    3.44    0.64
  -4   2  -2    2.35    0.61
  -4   2  -2    3.66    0.66
  -5  -2  -2   21.26    1.30
  -5  -2  -2   22.79    1.33
  -5   2  -2   22.76    1.40
  -6  -2  -2   -0.26    0.64
  -6  -3   2    4.19    0.79
  -6   3   2    4.28    0.77
  -5  -3   2    1.31    0.53
  -5   3   2    1.22    0.54
  -4  -3   2   11.15    0.79
  -4   3   2   10.16    0.77
  -4   3   2   10.42    0.65
  -3  -3   2  190.40    3.63
  -3   3   2  187.98    3.71
  -3   3   2  191.83    3.58
  -2  -3   2   75.63    1.66
  -2   3   2   76.17    1.59
  -1  -3   2   26.64    0.75
  -1   3   2   24.85    0.77
  -1   3   2   25.62    0.64
   0  -3  -2   79.07    1.56
   0   3   2   80.56    1.67
  -1  -3  -2    5.99    0.46
   1   3   2    4.38    0.31
  -1   3  -2    5.39    0.44
  -2  -3  -2  226.47    4.05
  -2  -3  -2  218.06    3.95
  -2   3  -2  221.24    4.03
  -3  -3  -2   33.60    1.17
  -3  -3  -2   34.35    1.27
  -3   3  -2   34.99    1.24
  -3   3  -2   35.06    1.26
  -4  -3  -2    0.83    0.48
  -4  -3  -2   -0.01    0.48
  -4   3  -2    1.13    0.52
  -5  -3  -2    9.91    1.00
  -5  -3  -2   10.41    1.03
  -5   3  -2   11.59    1.13
  -6  -3  -2    1.91    0.74
  -6  -4   2    5.65    0.84
  -6   4   2    8.02    0.97
  -5  -4   2   17.80    1.10
  -5   4   2   15.61    1.04
  -4  -4   2   12.96    0.83
  -4   4   2   12.00    0.70
  -4   4   2   11.64    0.81
  -3  -4   2    6.55    0.60
  -3   4   2    7.24    0.62
  -3   4   2    6.98    0.54
  -2  -4   2   20.88    0.75
  -2   4   2   19.71    0.74
  -2   4   2   19.45    0.67
  -1  -4   2  167.43    3.06
  -1  -4   2  170.23    2.83
  -1   4   2  173.38    3.26
   0  -4  -2  384.31    6.27
   0  -4   2  388.31    6.23
   0   4   2  390.86    6.79
  -1  -4  -2   17.33    0.68
   1   4   2   16.96    0.57
  -2  -4  -2   24.69    0.94
  -2  -4  -2   24.91    0.81
  -3  -4  -2   58.10    1.56
  -3  -4  -2   56.68    1.65
  -3   4  -2   57.19    1.65
  -4  -4  -2    6.31    0.74
   4  -4   2    6.67    0.73
  -4  -4  -2    8.39    0.85
  -4   4  -2    8.77    0.92
  -5  -4  -2    6.96    0.88
  -5  -4  -2   10.00    1.02
   5  -4   2    7.79    0.86
  -5   4  -2    9.75    1.11
  -6  -4  -2    0.36    0.62
  -6  -5   2    4.32    0.82
  -6   5   2    3.69    0.74
  -5  -5   2    0.09    0.46
  -5   5   2    0.54    0.52
  -4  -5   2   34.68    1.29
  -4   5   2   34.73    1.17
  -4   5   2   35.87    1.28
  -3  -5   2  201.62    3.87
  -3   5   2  204.44    3.80
  -3   5   2  204.36    3.99
  -2  -5   2   11.11    0.58
  -2   5   2   10.36    0.56
  -2   5   2   10.37    0.49
   1  -5  -2   25.92    0.66
  -1  -5   2   26.11    0.79
  -1  -5   2   25.86    0.65
  -1   5   2   25.38    0.61
  -1   5   2   26.40    0.84
   0  -5   2   55.58    1.21
   0  -5  -2   56.88    1.24
   0   5   2   56.12    1.33
   1  -5   2    7.70    0.47
  -1  -5  -2    8.20    0.52
   1   5   2    8.13    0.43
  -2  -5  -2  317.40    5.54
   2  -5   2  319.65    5.50
  -2  -5  -2  317.28    5.42
   3  -5   2   35.28    1.23
  -3  -5  -2   39.43    1.23
  -3  -5  -2   37.71    1.33
  -4  -5  -2    0.63    0.52
  -4  -5  -2    0.59    0.46
   4  -5   2    1.43    0.48
  -4   5  -2    1.18    0.54
  -5  -5  -2   13.22    1.13
   5  -5   2    9.25    0.90
  -5  -5  -2    9.61    1.02
  -5   5  -2   10.44    1.08
  -6  -5  -2   10.92    1.21
  -6  -6   2    6.26    0.91
  -6   6   2    6.36    0.89
  -5  -6   2    3.12    0.66
  -5   6   2    3.39    0.64
  -4  -6   2   38.19    1.34
  -4   6   2   36.81    1.22
  -4   6   2   36.58    1.30
  -3  -6   2    3.37    0.49
  -3   6   2    2.56    0.43
  -3   6   2    2.73    0.41
  -2  -6   2    5.98    0.48
  -2   6   2    5.74    0.47
  -2   6   2    5.22    0.39
  -1  -6   2   84.72    1.78
  -1  -6   2   84.93    1.61
   1  -6  -2   84.61    1.62
  -1   6   2   83.94    1.86
   0  -6  -2  232.64    3.99
   0  -6   2  232.15    3.94
   0   6   2  236.45    4.31
  -1  -6  -2    9.68    0.57
   1  -6   2   10.41    0.53
   1   6   2    9.18    0.48
  -2  -6  -2   20.14    0.72
   2  -6   2   21.67    0.84
  -2  -6  -2   20.23    0.88
  -3  -6  -2  110.63    2.37
   3  -6   2  105.61    2.41
  -3  -6  -2  108.98    2.53
  -4  -6  -2    1.26    0.56
   4  -6   2    1.11    0.45
  -4  -6  -2    1.12    0.48
  -4   6  -2    1.54    0.56
  -5  -6  -2   13.93    1.11
  -5  -6  -2   14.27    1.16
   5  -6   2   12.64    1.08
  -5   6  -2   13.47    1.21
  -6  -7   2    1.80    0.66
  -6   7   2    3.30    0.75
  -5  -7   2    3.44    0.69
  -5   7   2    2.98    0.63
  -4  -7   2   18.72    0.97
  -4   7   2   18.20    0.95
  -4   7   2   15.99    0.83
  -3  -7   2  180.27    3.51
  -3   7   2  174.68    3.59
  -3   7   2  179.38    3.40
  -2  -7   2   14.58    0.68
  -2  -7   2   13.54    0.50
  -2   7   2   15.03    0.69
  -2   7   2   14.89    0.56
  -1  -7   2   32.67    0.94
   1  -7  -2   31.28    0.83
  -1  -7   2   32.38    0.83
  -1   7   2   31.22    0.99
   0  -7  -2   98.40    1.95
   0  -7   2   98.60    1.91
   0   7   2   94.48    2.07
   1  -7   2   34.43    0.99
  -1  -7  -2   35.34    1.04
   1   7   2   34.46    0.97
  -2  -7  -2  213.00    3.87
  -2  -7  -2  229.91    4.14
   2  -7   2  223.71    4.05
  -3  -7  -2   46.70    1.52
   3  -7   2   45.90    1.43
  -3  -7  -2   50.45    1.39
  -4  -7  -2    3.94    0.61
  -4  -7  -2    4.57    0.73
   4  -7   2    4.25    0.63
  -5  -7  -2   14.64    1.21
   5  -7   2   16.62    1.13
  -5  -7  -2   15.80    1.15
  -6  -8   2    7.12    0.95
  -6   8   2    5.50    0.85
  -5  -8   2   13.68    1.04
  -5   8   2   14.04    1.01
  -4  -8   2    7.71    0.76
  -4   8   2    6.66    0.69
  -4   8   2    5.36    0.55
  -3  -8   2   13.03    0.77
  -3   8   2   11.87    0.72
  -3   8   2   12.16    0.68
   2  -8  -2   12.77    0.51
  -2  -8   2   13.09    0.53
  -2  -8   2   14.48    0.68
  -2   8   2   12.50    0.52
  -2   8   2   12.84    0.68
   1  -8  -2  151.01    2.74
  -1  -8   2  149.64    2.88
  -1  -8   2  149.63    2.71
  -1   8   2  154.93    3.06
   0  -8   2  350.68    5.83
   0  -8  -2  345.57    5.85
   0   8   2  357.11    6.36
   1  -8   2   16.08    0.66
  -1  -8  -2   16.69    0.74
   1   8   2   17.00    0.70
  -2  -8  -2   38.64    1.24
   2  -8   2   36.75    1.16
   3  -8   2   40.41    1.35
  -3  -8  -2   43.25    1.45
  -3  -8  -2   40.43    1.22
   4  -8   2    2.86    0.58
  -4  -8  -2    2.54    0.61
  -4  -8  -2    3.38    0.57
   5  -8   2   15.57    1.12
  -5  -8  -2   14.22    1.20
  -6  -9   2    1.97    0.70
  -6   9   2    1.98    0.69
  -5  -9   2    3.25    0.69
  -5   9   2    2.61    0.61
  -4  -9   2    8.04    0.80
  -4   9   2    6.08    0.59
  -4   9   2    7.71    0.73
  -3  -9   2  118.69    2.57
  -3   9   2  115.04    2.38
  -3   9   2  113.11    2.60
  -2  -9   2    6.83    0.45
   2  -9  -2    7.06    0.43
  -2  -9   2    7.16    0.56
  -2   9   2    7.19    0.41
  -2   9   2    8.18    0.57
  -1  -9   2   26.68    0.81
   1  -9  -2   25.20    0.80
  -1   9   2   27.19    0.93
   0  -9   2   81.26    1.74
   0  -9  -2   83.54    1.79
   0   9   2   81.81    1.91
  -1  -9  -2    4.76    0.49
   1  -9   2    3.85    0.41
   1   9   2    3.85    0.43
  -2  -9  -2  130.70    2.76
   2  -9   2  128.48    2.67
  -3  -9  -2   14.48    0.73
  -3  -9  -2   12.25    0.89
   3  -9   2   14.35    0.84
  -4  -9  -2    5.95    0.68
   4  -9   2    7.09    0.77
  -4  -9  -2    7.25    0.83
  -5  -9  -2    9.28    1.04
   5  -9   2   12.01    1.09
  -6 -10   2    9.40    1.10
  -6  10   2   10.29    1.06
  -5 -10   2    9.41    0.97
  -5  10   2    9.18    0.92
  -4 -10   2    4.30    0.65
  -4  10   2    4.11    0.53
  -4  10   2    3.40    0.56
   3 -10  -2    2.41    0.34
  -3 -10   2    1.99    0.47
  -3 -10   2    1.78    0.33
  -3  10   2    2.97    0.43
  -3  10   2    2.52    0.43
  -2 -10   2    8.14    0.51
  -2 -10   2    9.37    0.62
   2 -10  -2    8.17    0.49
  -2  10   2    8.26    0.43
  -2  10   2    8.42    0.60
  -1 -10   2  177.17    3.20
   1 -10  -2  173.61    3.20
  -1  10   2  174.49    3.54
   0 -10   2  254.38    4.44
   0 -10  -2  260.56    4.50
   0  10   2  251.19    4.84
   1 -10   2   20.89    0.83
  -1 -10  -2   21.78    0.88
  -2 -10  -2    6.71    0.65
   2 -10   2    7.68    0.60
  -3 -10  -2   41.11    1.46
   3 -10   2   42.14    1.38
  -3 -10  -2   41.95    1.34
   4 -10   2    1.96    0.55
  -4 -10  -2    1.38    0.58
   5 -10   2   14.52    1.10
  -5 -10  -2   14.78    1.24
  -6 -11   2    5.44    0.89
  -6  11   2    5.56    0.86
  -5 -11   2    0.34    0.48
  -5  11   2    0.36    0.50
  -4 -11   2   16.89    1.02
  -4  11   2   17.73    0.95
  -4  11   2   19.04    0.98
  -3 -11   2   82.84    2.05
  -3 -11   2   80.79    1.78
   3 -11  -2   80.48    1.81
  -3  11   2   80.93    1.86
  -3  11   2   82.17    2.09
   2 -11  -2   18.80    0.73
  -2 -11   2   18.59    0.74
  -2 -11   2   19.57    0.85
  -2  11   2   17.41    0.62
  -2  11   2   20.02    0.88
   1 -11  -2   27.66    0.91
  -1 -11   2   27.83    0.93
  -1  11   2   28.69    1.03
   0 -11  -2   51.07    1.37
   0 -11   2   50.00    1.32
   0  11   2   52.46    1.44
   1 -11   2   13.67    0.71
  -1 -11  -2   13.34    0.74
  -2 -11  -2   61.60    1.72
   2 -11   2   63.90    1.66
  -3 -11  -2   43.71    1.53
   3 -11   2   43.05    1.43
  -4 -11  -2    4.40    0.72
   4 -11   2    4.42    0.69
  -5 -11  -2   15.55    1.25
   5 -11   2   14.58    1.13
  -6 -12   2    8.09    1.02
  -5 -12   2    0.23    0.49
  -5  12   2    0.85    0.48
  -4 -12   2   29.05    1.29
  -4  12   2   29.82    1.18
  -4  12   2   30.69    1.25
  -3 -12   2    0.96    0.32
  -3 -12   2    0.66    0.40
   3 -12  -2    0.68    0.26
  -3  12   2    0.27    0.28
  -3  12   2    0.39    0.35
  -2 -12   2   17.94    0.77
   2 -12  -2   18.20    0.75
  -2 -12   2   17.26    0.83
  -2  12   2   16.59    0.61
  -2  12   2   17.55    0.87
  -1 -12   2  154.61    3.08
   1 -12  -2  156.32    3.01
  -1 -12   2  156.56    3.01
  -1  12   2  157.23    3.31
   0 -12   2  163.09    3.17
   0 -12  -2  166.89    3.21
   0  12   2  164.41    3.43
   1 -12   2   32.79    1.10
  -1 -12  -2   32.67    1.15
   2 -12   2    7.55    0.67
  -2 -12  -2    7.29    0.71
   3 -12   2   67.36    1.90
  -3 -12  -2   69.55    2.01
   4 -12   2    0.56    0.46
  -4 -12  -2    0.60    0.54
  -5 -12  -2   11.47    1.11
   5 -12   2   13.98    1.14
  -6 -13   2    2.67    0.72
  -6  13   2    1.37    0.61
  -5 -13   2    1.17    0.57
  -5  13   2    1.27    0.56
  -4 -13   2   17.92    1.07
  -4  13   2   18.12    1.00
  -4  13   2   17.59    0.94
  -3 -13   2   68.06    1.85
  -3 -13   2   64.66    1.62
   3 -13  -2   65.99    1.65
  -3  13   2   63.76    1.60
  -3  13   2   67.77    1.92
   2 -13  -2   18.53    0.80
  -2 -13   2   20.54    0.92
  -2 -13   2   18.97    0.83
  -2  13   2   19.16    0.94
  -2  13   2   16.97    0.63
  -1 -13   2   20.44    0.86
   1 -13  -2   20.18    0.85
  -1 -13   2   22.19    0.89
  -1  13   2   20.93    0.94
   0 -13   2   33.53    1.11
   0 -13  -2   33.53    1.14
   0  13   2   35.43    1.22
   1 -13   2    8.48    0.65
  -1 -13  -2    8.87    0.69
  -2 -13  -2   86.65    2.19
   2 -13   2   84.54    2.11
   3 -13   2   27.37    1.22
  -3 -13  -2   26.76    1.28
   4 -13   2   13.60    1.02
  -4 -13  -2   13.15    1.10
   5 -13   2    7.04    0.89
  -5 -13  -2    6.67    0.93
  -6 -14   2    4.73    0.88
  -6  14   2    4.96    0.83
  -5 -14   2    2.65    0.67
  -5  14   2    1.62    0.54
  -4 -14   2   11.63    1.00
  -4  14   2   12.07    0.88
  -4  14   2   11.19    0.78
  -3 -14   2    3.68    0.48
   3 -14  -2    3.69    0.47
  -3 -14   2    3.31    0.54
  -3  14   2    5.29    0.66
  -3  14   2    4.03    0.47
  -2 -14   2   22.67    0.92
  -2 -14   2   19.93    0.94
   2 -14  -2   20.09    0.87
  -2  14   2   21.69    1.02
   1 -14  -2   88.24    2.03
  -1 -14   2   86.78    2.03
  -1 -14   2   85.59    2.00
  -1  14   2   83.35    2.17
   0 -14   2  106.05    2.32
   0 -14  -2  105.97    2.37
   0  14   2  104.64    2.53
   1 -14   2   41.02    1.31
  -1 -14  -2   41.07    1.35
   2 -14   2   12.90    0.83
  -2 -14  -2   12.74    0.88
  -3 -14  -2   38.97    1.53
   3 -14   2   39.07    1.47
   4 -14   2    1.09    0.58
  -4 -14  -2    1.30    0.61
  -5 -14  -2    6.48    0.93
   5 -14   2    5.79    0.86
  -6  15   2    3.11    0.75
  -5 -15   2    1.61    0.59
  -5  15   2    1.42    0.55
  -4 -15   2   12.94    1.00
  -4  15   2   12.01    0.83
  -4  15   2   14.52    0.95
  -3 -15   2   65.25    1.76
  -3 -15   2   72.21    1.95
   3 -15  -2   68.05    1.78
  -3  15   2   70.46    2.02
   2 -15  -2   21.38    0.92
  -2 -15   2   19.08    0.91
  -2 -15   2   21.01    0.96
  -2  15   2   19.40    0.99
  -1 -15   2   38.16    1.26
  -1 -15   2   38.75    1.26
   1 -15  -2   39.79    1.28
  -1  15   2   38.53    1.38
   0 -15  -2   14.80    0.84
   0 -15   2   14.43    0.81
   1 -15   2    7.22    0.67
  -1 -15  -2    6.45    0.65
  -2 -15  -2   70.40    2.00
   2 -15   2   69.84    1.92
   3 -15   2   20.95    1.14
  -3 -15  -2   21.17    1.21
   4 -15   2    7.44    0.88
  -4 -15  -2    6.95    0.89
  -5 -15  -2    3.05    0.81
   5 -15   2    3.16    0.73
  -5 -16   2    2.47    0.64
  -4 -16   2   12.61    1.01
  -4  16   2   14.97    0.99
  -3 -16   2   10.01    0.77
  -3 -16   2   11.44    0.86
   3 -16  -2   11.21    0.73
  -3  16   2   11.46    0.88
  -2 -16   2   18.56    0.93
  -2 -16   2   19.27    0.95
   2 -16  -2   19.24    0.92
  -2  16   2   18.18    1.01
  -1 -16   2   51.08    1.49
  -1 -16   2   50.43    1.52
   1 -16  -2   49.87    1.51
  -1  16   2   50.16    1.64
   0 -16   2   64.71    1.78
   0 -16  -2   64.97    1.80
  -1 -16  -2   30.26    1.23
   1 -16   2   30.16    1.18
  -2 -16  -2    9.04    0.85
   2 -16   2   10.95    0.91
  -3 -16  -2   24.51    1.30
   3 -16   2   24.21    1.24
   4 -16   2    1.05    0.56
  -4 -16  -2    1.27    0.63
  -5 -17   2    0.96    0.57
  -4 -17   2    7.75    0.85
  -4  17   2    8.42    0.87
  -3 -17   2   47.70    1.53
   3 -17  -2   48.73    1.52
  -3 -17   2   46.78    1.59
  -3  17   2   48.99    1.73
  -2 -17   2    7.24    0.72
  -2 -17   2    7.40    0.74
   2 -17  -2    8.50    0.75
  -2  17   2    9.45    0.90
  -1 -17   2   27.55    1.09
   1 -17  -2   26.46    1.12
  -1 -17   2   27.80    1.15
   0 -17   2   37.37    1.35
   0 -17  -2   35.89    1.34
   1 -17   2    4.92    0.63
  -1 -17  -2    3.36    0.56
   2 -17   2   60.21    1.86
  -2 -17  -2   60.30    1.93
   3 -17   2   11.83    1.03
  -3 -17  -2   10.34    0.98
  -4 -17  -2    2.90    0.74
   4 -17   2    1.53    0.61
  -5 -18   2    2.47    0.66
  -4 -18   2    5.95    0.78
  -4  18   2    7.86    0.89
  -3 -18   2    4.21    0.61
  -3 -18   2    4.14    0.63
   3 -18  -2    4.66    0.59
  -3  18   2    5.25    0.73
  -2 -18   2   14.84    0.93
   2 -18  -2   14.33    0.88
  -2 -18   2   13.99    0.89
  -2  18   2   14.35    0.98
  -1 -18   2   41.78    1.38
  -1 -18   2   40.47    1.44
   1 -18  -2   41.55    1.44
   0 -18  -2  106.25    2.60
   0 -18   2  105.00    2.55
  -1 -18  -2   20.09    1.09
   1 -18   2   19.96    1.06
  -2 -18  -2    7.00    0.82
   2 -18   2    8.10    0.85
  -3 -18  -2   16.90    1.18
   3 -18   2   17.51    1.16
  -4 -18  -2    0.86    0.61
   4 -18   2    0.86    0.58
  -4 -19   2    6.28    0.83
  -3 -19   2   30.11    1.29
  -3 -19   2   30.90    1.31
   3 -19  -2   27.62    1.22
   2 -19  -2    4.78    0.64
  -2 -19   2    6.14    0.72
  -2 -19   2    6.95    0.77
  -1 -19   2   34.69    1.28
   1 -19  -2   34.35    1.36
  -1 -19   2   35.52    1.37
   0 -19  -2   24.39    1.20
   0 -19   2   21.08    1.12
  -1 -19  -2    9.11    0.90
   1 -19   2    9.76    0.89
   2 -19   2   31.38    1.39
  -2 -19  -2   30.55    1.45
  -3 -19  -2    9.52    0.99
   3 -19   2   10.97    1.07
   4 -19   2   12.83    1.18
  -4 -19  -2   15.14    1.27
  -4 -20   2    8.12    0.93
  -3 -20   2    1.96    0.54
  -3 -20   2    1.41    0.51
   3 -20  -2    1.74    0.46
  -2 -20   2   12.52    0.97
   2 -20  -2   11.05    0.89
  -2 -20   2   12.27    0.88
  -1 -20   2   38.72    1.47
  -1 -20   2   39.76    1.40
   1 -20  -2   36.92    1.48
   0 -20  -2   48.82    1.72
   0 -20   2   45.51    1.62
   1 -20   2   28.38    1.34
  -1 -20  -2   29.04    1.37
  -2 -20  -2    5.11    0.79
   2 -20   2    6.22    0.77
   3 -20   2   16.31    1.21
  -3 -20  -2   17.44    1.26
   3 -21  -2   24.06    1.23
  -3 -21   2   26.09    1.30
  -3 -21   2   25.10    1.26
  -2 -21   2    9.86    0.88
   2 -21  -2    9.65    0.89
  -2 -21   2    8.46    0.88
  -1 -21   2   23.62    1.23
  -1 -21   2   23.73    1.12
   1 -21  -2   24.01    1.26
   0 -21  -2   15.42    1.09
   0 -21   2   12.91    1.01
   1 -21   2    9.47    0.96
  -1 -21  -2    6.87    0.81
   2 -21   2   22.80    1.30
  -2 -21  -2   24.57    1.39
  -3 -21  -2    7.96    0.97
   3 -21   2    9.28    1.02
  -3 -22   2    0.60    0.53
   3 -22  -2    1.17    0.48
  -2 -22   2   11.10    1.02
  -2 -22   2   11.10    0.92
   2 -22  -2   10.92    0.97
  -1 -22   2   31.72    1.42
  -1 -22   2   31.58    1.30
   1 -22  -2   29.65    1.43
   0 -22   2   27.81    1.38
   0 -22  -2   31.05    1.47
  -1 -22  -2   23.92    1.36
   1 -22   2   28.26    1.40
  -2 -22  -2    1.45    0.63
   2 -22   2    0.84    0.59
  -3 -22  -2   10.95    1.13
   3 -22   2   10.58    1.10
  -3 -23   2   13.52    1.11
   3 -23  -2   14.99    1.09
   2 -23  -2    3.48    0.67
  -2 -23   2    4.17    0.77
  -1 -23   2   20.15    1.25
   1 -23  -2   21.06    1.29
   0 -23   2    2.69    0.65
   0 -23  -2    2.22    0.62
   1 -23   2    7.89    0.94
  -1 -23  -2    5.87    0.84
  -2 -23  -2   15.21    1.26
   2 -23   2   15.03    1.19
   3 -24  -2    1.11    0.52
  -3 -24   2    0.38    0.53
   2 -24  -2    7.75    0.89
  -2 -24   2    6.79    0.88
  -1 -24   2   18.81    1.25
   1 -24  -2   17.39    1.26
   0 -24   2    7.28    0.94
   0 -24  -2    7.16    0.91
   1 -24   2   23.04    1.37
  -1 -24  -2   19.99    1.35
  -2 -24  -2    2.12    0.71
   2 -24   2    1.38    0.63
   3 -25  -2   15.02    1.17
  -2 -25   2    3.97    0.81
   2 -25  -2    5.72    0.83
  -1 -25   2   14.67    1.26
   1 -25  -2   14.95    1.28
   0 -25   2    6.36    0.91
   0 -25  -2    4.92    0.80
   1 -25   2    8.40    1.01
  -1 -25  -2    6.35    0.94
   2 -26  -2   10.15    1.08
  -2 -26   2    9.13    1.04
  -1 -26   2   13.37    1.25
   1 -26  -2   15.14    1.28
   0 -26  -2   13.19    1.26
   0 -26   2   15.14    1.24
  -1 -26  -2   21.00    1.48
   1 -26   2   20.70    1.47
  -1 -27   2   17.04    1.31
  -6   0   3    0.51    0.57
  -5   0   3    1.75    0.58
  -4   0   3    9.01    0.78
  -3   0   3   12.21    0.72
  -2   0   3  115.02    2.32
  -1   0   3    1.78    0.29
   0   0  -3   19.27    0.70
  -1   0  -3  232.59    4.18
  -2   0  -3   40.07    1.32
  -3   0  -3   17.35    1.07
  -4   0  -3   10.82    1.03
  -5   0  -3   -0.46    0.60
  -6  -1   3    0.41    0.57
  -6   1   3    0.06    0.54
  -5  -1   3   21.50    1.18
  -5   1   3   20.09    1.18
  -4  -1   3    5.01    0.66
  -4   1   3    5.94    0.66
  -3  -1   3    3.36    0.50
  -3   1   3    2.92    0.45
  -2  -1   3  148.83    2.88
  -2   1   3  147.73    2.83
  -1  -1   3  122.47    2.39
  -1   1   3  125.19    2.35
   0  -1  -3   47.16    1.17
   0   1  -3   47.11    1.16
  -1  -1  -3   16.42    0.78
  -1   1  -3   15.64    0.75
   1   1   3   15.29    0.62
  -2  -1  -3   10.05    0.75
  -2   1  -3    9.79    0.75
  -3  -1  -3   84.50    2.25
  -3   1  -3   83.46    2.25
  -4  -1  -3   66.99    2.17
  -4   1  -3   66.94    2.15
  -5  -1  -3   -0.48    0.61
  -6  -2   3   -0.03    0.56
  -6   2   3    0.36    0.56
  -5  -2   3    8.77    0.90
  -5   2   3    8.91    0.75
  -5   2   3    9.43    0.94
  -4  -2   3   31.84    1.24
  -4   2   3   31.96    1.22
  -3  -2   3    9.91    0.71
  -3   2   3   11.30    0.68
  -2  -2   3   92.79    2.03
  -2   2   3   94.60    1.95
  -1  -2   3    5.03    0.33
  -1  -2   3    5.05    0.43
  -1   2   3    5.55    0.40
   0  -2  -3   76.88    1.68
   0   2  -3   81.36    1.70
   0   2   3   81.94    1.79
  -1  -2  -3  267.21    4.72
  -1   2  -3  261.80    4.71
   1   2   3  270.67    4.83
  -2  -2  -3   24.09    1.06
  -2   2  -3   26.49    1.08
  -3  -2  -3   16.32    1.03
  -3   2  -3   13.93    1.00
  -4  -2  -3    7.00    0.87
  -4   2  -3    7.71    0.90
  -5  -2  -3   -0.13    0.62
  -6  -3   3   -0.03    0.58
  -6   3   3    0.27    0.55
  -5  -3   3   19.23    1.15
  -5   3   3   20.48    1.16
  -5   3   3   19.50    1.01
  -4  -3   3   15.55    0.93
  -4   3   3   16.20    0.92
  -4   3   3   17.55    0.90
  -3  -3   3    4.51    0.54
  -3   3   3    4.52    0.53
  -2  -3   3   85.28    1.90
  -2   3   3   81.70    1.77
  -1  -3   3   48.11    1.03
  -1  -3   3   46.21    1.21
   1  -3  -3   46.95    1.05
  -1   3   3   46.77    1.08
   0  -3  -3   45.16    1.15
   0   3   3   44.05    1.20
  -1  -3  -3   16.13    0.78
   1   3   3   13.23    0.63
  -1   3  -3   13.74    0.74
  -2  -3  -3    9.37    0.78
  -2   3  -3    7.76    0.69
  -3  -3  -3   28.39    1.28
  -3   3  -3   27.24    1.25
  -4  -3  -3   25.41    1.36
  -4  -3  -3   25.18    1.26
  -5  -3  -3    0.03    0.57
   5  -3   3    0.34    0.55
  -5  -3  -3   -0.75    0.58
  -6  -4   3    0.02    0.56
  -6   4   3    0.95    0.61
  -5  -4   3    5.06    0.76
  -5   4   3    4.30    0.72
  -5   4   3    3.57    0.55
  -4  -4   3   18.23    0.99
  -4   4   3   16.40    0.95
  -4   4   3   17.89    0.94
  -3  -4   3   16.76    0.87
  -3   4   3   17.95    0.86
  -3   4   3   18.17    0.81
  -2  -4   3   58.94    1.52
  -2   4   3   60.02    1.38
  -2   4   3   60.39    1.59
  -1  -4   3   11.11    0.46
   1  -4  -3   10.68    0.48
  -1  -4   3   11.28    0.59
  -1   4   3   10.67    0.46
  -1   4   3   10.76    0.62
   0  -4  -3   14.48    0.66
   0  -4   3   14.88    0.61
   0   4   3   14.04    0.66
  -1  -4  -3  270.26    4.75
   1   4   3  261.54    4.85
  -2  -4  -3   14.32    0.87
  -3  -4  -3    3.08    0.62
  -4  -4  -3    4.34    0.68
  -4  -4  -3    5.25    0.82
   4  -4   3    3.87    0.66
  -5  -4  -3   -0.48    0.63
  -5  -4  -3    0.37    0.57
   5  -4   3    0.22    0.56
  -6  -5   3    1.30    0.64
  -6   5   3    1.29    0.64
  -5  -5   3   14.45    1.07
  -5   5   3   14.73    0.91
  -5   5   3   16.31    1.07
  -4  -5   3    8.27    0.80
  -4   5   3    6.84    0.69
  -4   5   3    9.55    0.84
  -3  -5   3    2.16    0.47
  -3   5   3    3.20    0.49
  -3   5   3    2.73    0.44
  -2  -5   3   93.08    2.09
  -2   5   3   94.48    2.20
  -2   5   3   93.57    1.90
   1  -5  -3  104.68    2.02
  -1  -5   3  106.27    1.98
  -1   5   3  106.12    2.33
   0  -5   3   47.81    1.19
   0  -5  -3   46.19    1.23
   0   5   3   50.13    1.31
   1  -5   3   19.38    0.80
  -1  -5  -3   17.64    0.85
   1   5   3   16.66    0.73
  -2  -5  -3    6.30    0.67
  -3  -5  -3   38.40    1.49
   3  -5   3   36.96    1.39
  -4  -5  -3   42.89    1.54
   4  -5   3   40.55    1.62
  -4  -5  -3   41.15    1.70
   5  -5   3   -0.06    0.55
  -5  -5  -3   -0.09    0.64
  -6  -6   3    0.16    0.58
  -6   6   3    0.31    0.54
  -5  -6   3    8.44    0.92
  -5   6   3    5.59    0.65
  -5   6   3    8.42    0.90
  -4  -6   3   27.66    1.23
  -4   6   3   28.54    1.17
  -4   6   3   29.18    1.19
  -3  -6   3   12.78    0.80
  -3   6   3   11.94    0.69
  -3   6   3   13.92    0.81
  -2  -6   3   84.47    1.98
  -2   6   3   85.42    2.07
  -2   6   3   86.71    1.77
  -1  -6   3    3.63    0.36
   1  -6  -3    3.83    0.35
  -1   6   3    3.10    0.41
   0  -6  -3   53.27    1.36
   0  -6   3   54.46    1.30
   0   6   3   52.17    1.41
   1  -6   3  418.69    7.10
  -1  -6  -3  426.60    7.19
   1   6   3  427.50    7.55
   2  -6   3   19.50    0.91
  -2  -6  -3   18.03    0.96
  -3  -6  -3   12.29    0.99
   3  -6   3   12.71    0.90
   4  -6   3    2.94    0.63
  -4  -6  -3    3.49    0.66
  -4  -6  -3    3.63    0.74
   5  -6   3    0.48    0.62
  -5  -6  -3    0.02    0.66
  -6  -7   3    0.11    0.56
  -6   7   3    0.79    0.57
  -5  -7   3   13.36    1.08
  -5   7   3   12.49    0.99
  -5   7   3   13.07    0.89
  -4  -7   3    8.03    0.81
  -4   7   3    6.80    0.69
  -4   7   3    7.86    0.72
  -3  -7   3   22.91    1.03
  -3   7   3   23.65    1.03
  -3   7   3   22.88    0.90
  -2  -7   3   81.74    1.93
  -2   7   3   82.39    2.02
  -2   7   3   78.12    1.65
  -1  -7   3   99.99    1.95
   1  -7  -3   97.85    1.97
  -1   7   3   97.37    2.25
   0  -7  -3   67.62    1.62
   0  -7   3   67.48    1.56
   0   7   3   71.44    1.73
   1  -7   3   17.95    0.82
  -1  -7  -3   17.79    0.86
   1   7   3   18.19    0.80
  -2  -7  -3   28.01    1.17
   2  -7   3   27.24    1.07
  -3  -7  -3   32.50    1.40
  -3  -7  -3   32.32    1.14
   3  -7   3   31.64    1.29
   4  -7   3   35.22    1.53
  -4  -7  -3   34.06    1.58
   5  -7   3    3.59    0.78
  -5  -7  -3    0.94    0.73
  -6  -8   3    0.24    0.59
  -6   8   3   -0.12    0.52
  -5  -8   3    2.00    0.62
  -5   8   3    0.46    0.38
  -5   8   3    2.09    0.57
  -4  -8   3    9.49    0.88
  -4   8   3    8.83    0.76
  -4   8   3    8.18    0.75
  -3  -8   3    7.16    0.70
  -3   8   3    7.65    0.70
  -3   8   3    5.62    0.51
  -2  -8   3   70.60    1.78
  -2   8   3   71.70    1.86
  -2   8   3   68.73    1.49
  -1  -8   3    5.65    0.47
   1  -8  -3    4.94    0.42
  -1   8   3    5.57    0.55
   0  -8   3   31.32    0.96
   0  -8  -3   30.43    1.02
   0   8   3   30.36    1.05
   1  -8   3  116.64    2.47
  -1  -8  -3  115.93    2.54
   1   8   3  119.78    2.55
  -2  -8  -3   16.47    0.94
   2  -8   3   16.20    0.87
  -3  -8  -3   10.93    0.98
   3  -8   3   10.39    0.88
   4  -8   3    4.87    0.75
  -4  -8  -3    4.17    0.78
   5  -8   3    1.95    0.68
  -5  -8  -3    1.37    0.73
  -6  -9   3    0.78    0.60
  -6   9   3    0.79    0.60
  -5  -9   3   18.21    1.21
  -5   9   3   18.73    1.07
  -5   9   3   18.76    1.09
  -4  -9   3    3.56    0.63
  -4   9   3    2.97    0.54
  -4   9   3    3.37    0.55
  -3  -9   3   18.99    0.97
  -3   9   3   16.40    0.77
  -3   9   3   18.79    0.98
  -2  -9   3  100.67    2.34
   2  -9  -3  101.08    2.06
  -2   9   3  110.89    2.52
   1  -9  -3   84.34    1.85
  -1  -9   3   85.53    1.80
  -1   9   3   83.65    2.07
   0  -9  -3   41.39    1.25
   0  -9   3   42.40    1.19
   0   9   3   44.45    1.33
  -1  -9  -3    1.21    0.41
   1  -9   3    1.90    0.42
   1   9   3    2.08    0.40
  -2  -9  -3   14.22    0.90
   2  -9   3   11.40    0.78
  -3  -9  -3   31.75    1.42
   3  -9   3   30.58    1.31
   4  -9   3   46.39    1.76
  -4  -9  -3   46.00    1.84
   5  -9   3    1.23    0.68
  -5  -9  -3    1.47    0.73
  -6 -10   3    2.13    0.71
  -6  10   3    1.63    0.64
  -5 -10   3    2.19    0.63
  -5  10   3    2.94    0.61
  -5  10   3    1.79    0.50
  -4 -10   3    9.65    0.90
  -4  10   3    9.55    0.77
  -4  10   3    8.65    0.80
  -3 -10   3    6.32    0.71
  -3  10   3    4.21    0.46
  -3  10   3    4.57    0.61
  -2 -10   3   61.29    1.68
  -2 -10   3   61.91    1.45
   2 -10  -3   62.66    1.47
  -2  10   3   63.77    1.78
   1 -10  -3   33.32    1.04
  -1 -10   3   33.13    1.02
  -1  10   3   32.97    1.18
   0 -10   3   27.91    0.98
   0 -10  -3   29.80    1.05
   0  10   3   27.65    1.06
  -1 -10  -3   76.08    1.92
   1 -10   3   70.48    1.77
   1  10   3   71.99    1.84
   2 -10   3   10.13    0.77
  -2 -10  -3   10.83    0.87
   3 -10   3   10.79    0.91
  -3 -10  -3   10.04    0.95
  -4 -10  -3    5.32    0.84
   4 -10   3    5.08    0.78
   5 -10   3    1.33    0.66
  -5 -10  -3    1.51    0.74
  -6 -11   3    1.34    0.67
  -6  11   3    1.18    0.61
  -5 -11   3   10.47    1.03
  -5  11   3   11.05    0.93
  -5  11   3   10.12    0.89
  -4 -11   3    4.77    0.73
  -4  11   3    4.51    0.66
  -4  11   3    4.72    0.60
  -3 -11   3    2.56    0.52
  -3  11   3    2.58    0.54
  -3  11   3    2.04    0.36
  -2 -11   3   71.39    1.89
   2 -11  -3   74.09    1.69
  -2 -11   3   73.50    1.67
  -2  11   3   73.66    1.99
  -1 -11   3   49.73    1.34
   1 -11  -3   50.60    1.37
  -1  11   3   48.76    1.52
   0 -11  -3   41.09    1.30
   0 -11   3   41.03    1.24
   0  11   3   42.38    1.37
  -1 -11  -3    8.83    0.72
   1 -11   3    9.24    0.68
   1  11   3    8.89    0.68
   2 -11   3    3.04    0.52
  -2 -11  -3    3.22    0.59
  -3 -11  -3   30.61    1.43
   3 -11   3   30.80    1.32
   4 -11   3   28.55    1.43
  -4 -11  -3   27.46    1.50
   5 -11   3    1.10    0.64
  -5 -11  -3    1.00    0.72
  -6  12   3    1.03    0.63
  -5 -12   3    5.45    0.80
  -5  12   3    5.00    0.69
  -5  12   3    6.10    0.76
  -4 -12   3   13.58    1.04
  -4  12   3   11.87    0.92
  -4  12   3   11.66    0.81
  -3 -12   3    8.72    0.83
  -3  12   3    8.93    0.82
  -2 -12   3   54.47    1.45
  -2 -12   3   57.08    1.65
   2 -12  -3   58.83    1.49
  -2  12   3   58.34    1.75
   1 -12  -3    9.12    0.66
  -1 -12   3    9.12    0.63
  -1  12   3    7.81    0.70
   0 -12  -3   27.80    1.08
   0 -12   3   27.73    1.03
   0  12   3   27.40    1.12
   1 -12   3  167.20    3.36
  -1 -12  -3  164.48    3.43
   1  12   3  166.74    3.55
   2 -12   3   14.25    0.89
  -2 -12  -3   14.05    0.99
  -3 -12  -3    8.78    0.93
   3 -12   3   10.70    0.93
  -4 -12  -3    7.18    0.95
   4 -12   3    6.30    0.85
  -5 -13   3   13.02    1.13
  -5  13   3   11.70    1.02
  -4 -13   3    3.55    0.69
  -4  13   3    2.73    0.60
  -3 -13   3    4.21    0.65
  -3  13   3    3.95    0.63
  -2 -13   3   65.31    1.64
  -2 -13   3   63.62    1.80
   2 -13  -3   67.05    1.67
  -2  13   3   62.86    1.90
  -1 -13   3   32.48    1.12
   1 -13  -3   35.14    1.18
  -1  13   3   34.52    1.30
   0 -13   3   43.38    1.33
   0 -13  -3   43.68    1.41
   0  13   3   41.61    1.43
   1 -13   3    9.96    0.76
  -1 -13  -3    9.21    0.77
   2 -13   3   21.96    1.10
  -2 -13  -3   23.57    1.20
   3 -13   3   27.15    1.31
  -3 -13  -3   27.21    1.38
  -4 -13  -3   29.11    1.59
   4 -13   3   33.04    1.56
  -5 -14   3    3.66    0.74
  -5  14   3    2.46    0.67
  -4 -14   3   12.86    1.04
  -4  14   3   12.02    1.00
  -3 -14   3   15.85    1.01
  -3  14   3   16.07    1.05
  -2 -14   3   28.36    1.07
  -2 -14   3   30.92    1.22
   2 -14  -3   29.32    1.08
  -2  14   3   28.29    1.25
   1 -14  -3   24.23    1.01
  -1 -14   3   21.45    0.97
  -1  14   3   23.41    1.12
   0 -14  -3   59.99    1.75
   0 -14   3   61.68    1.70
   0  14   3   63.98    1.86
   1 -14   3  123.22    2.78
  -1 -14  -3  127.34    2.89
  -2 -14  -3    9.24    0.89
   2 -14   3   12.47    0.92
  -3 -14  -3    5.97    0.85
   3 -14   3    9.62    0.96
   4 -14   3    3.80    0.76
  -4 -14  -3    4.83    0.84
  -5 -15   3    6.87    0.91
  -4 -15   3    4.54    0.75
  -4  15   3    5.22    0.80
  -3 -15   3   12.08    0.95
  -3  15   3   14.30    1.02
  -2 -15   3   23.65    1.00
   2 -15  -3   22.58    0.99
  -2 -15   3   21.86    1.08
  -2  15   3   21.81    1.14
   1 -15  -3    9.99    0.77
  -1 -15   3    8.88    0.74
  -1  15   3    8.68    0.80
   0 -15  -3   14.41    0.91
   0 -15   3   12.79    0.84
   0  15   3   12.81    0.92
  -1 -15  -3    6.54    0.74
   1 -15   3    6.56    0.73
   2 -15   3   17.76    1.05
  -2 -15  -3   18.71    1.15
   3 -15   3    5.90    0.84
  -3 -15  -3    4.55    0.76
   4 -15   3    4.69    0.85
  -4 -15  -3    5.76    0.92
  -5 -16   3    6.31    0.88
  -4 -16   3   11.38    1.05
  -4  16   3   11.19    1.04
  -3 -16   3   13.87    1.00
  -3  16   3   10.98    0.97
   2 -16  -3   21.63    1.01
  -2 -16   3   23.09    1.02
  -2 -16   3   20.31    1.06
  -2  16   3   19.53    1.12
  -1 -16   3   -0.02    0.38
  -1 -16   3    0.59    0.41
   1 -16  -3   -0.38    0.32
  -1  16   3    0.45    0.40
   0 -16   3   13.81    0.88
   0 -16  -3   12.63    0.91
   0  16   3   12.36    0.95
  -1 -16  -3   89.43    2.36
   1 -16   3   82.79    2.21
   2 -16   3    7.12    0.79
  -2 -16  -3    9.31    0.97
   3 -16   3    5.38    0.81
  -3 -16  -3    4.59    0.78
  -4 -16  -3    2.39    0.77
   4 -16   3    1.46    0.67
  -5 -17   3   10.55    1.08
  -4 -17   3    2.75    0.64
  -4  17   3    3.52    0.66
  -3 -17   3   16.42    1.08
  -3  17   3   18.80    1.18
   2 -17  -3   21.44    1.04
  -2 -17   3   21.88    1.12
  -2 -17   3   24.00    1.08
  -2  17   3   20.97    1.19
   1 -17  -3   21.93    1.11
  -1 -17   3   21.15    1.04
  -1 -17   3   21.49    1.09
  -1  17   3   20.97    1.16
   0 -17   3   19.71    1.05
   0 -17  -3   19.85    1.08
   1 -17   3    4.36    0.68
  -1 -17  -3    2.06    0.57
   2 -17   3   16.37    1.07
  -2 -17  -3   16.11    1.13
  -3 -17  -3   12.31    1.15
   3 -17   3   15.87    1.25
  -5 -18   3    1.49    0.65
  -4 -18   3    2.30    0.66
  -4  18   3    2.69    0.63
  -3 -18   3    7.43    0.85
  -3  18   3    8.69    0.95
   2 -18  -3   27.12    1.19
  -2 -18   3   25.25    1.16
  -2 -18   3   24.30    1.19
  -2  18   3   25.23    1.30
   1 -18  -3    5.04    0.67
  -1 -18   3    6.51    0.75
  -1 -18   3    6.12    0.76
  -1  18   3    4.45    0.69
   0 -18  -3   18.46    1.10
   0 -18   3   17.13    1.05
   1 -18   3   49.87    1.72
  -1 -18  -3   47.50    1.76
   2 -18   3    9.14    0.94
  -2 -18  -3    5.92    0.83
   3 -18   3    8.67    0.99
  -3 -18  -3    8.14    1.01
  -5 -19   3    7.04    1.05
  -4 -19   3    0.41    0.55
  -4  19   3    1.13    0.54
  -3 -19   3   13.96    1.06
  -3  19   3   14.65    1.11
   2 -19  -3   34.34    1.39
  -2 -19   3   35.09    1.44
  -2 -19   3   37.38    1.41
  -2  19   3   31.00    1.50
  -1 -19   3   21.46    1.13
   1 -19  -3   23.18    1.21
  -1 -19   3   21.28    1.14
  -1  19   3   20.94    1.24
   0 -19   3   21.92    1.19
  -1 -19  -3    2.25    0.62
   1 -19   3    1.57    0.57
   2 -19   3   17.16    1.19
  -2 -19  -3   17.74    1.23
  -3 -19  -3   15.36    1.29
   3 -19   3   13.88    1.18
  -4 -20   3    4.76    0.80
  -4  20   3    4.52    0.80
  -3 -20   3    3.52    0.67
  -3  20   3    3.31    0.69
  -2 -20   3   21.59    1.17
   2 -20  -3   23.58    1.22
  -2 -20   3   21.41    1.19
  -2  20   3   22.34    1.31
   1 -20  -3   18.61    1.17
  -1 -20   3   19.16    1.11
  -1 -20   3   20.75    1.16
   0 -20  -3   24.30    1.30
   0 -20   3   22.88    1.26
  -1 -20  -3   23.53    1.34
   1 -20   3   24.86    1.30
  -2 -20  -3    8.93    1.01
   2 -20   3    8.83    0.97
  -3 -20  -3   10.78    1.18
   3 -20   3   14.46    1.28
  -4 -21   3    1.87    0.68
  -3 -21   3    9.25    0.98
  -3  21   3   10.70    1.12
   2 -21  -3   18.58    1.17
  -2 -21   3   16.64    1.10
  -2 -21   3   18.30    1.15
  -1 -21   3    3.72    0.69
  -1 -21   3    3.24    0.68
   1 -21  -3    3.17    0.66
   0 -21   3   22.56    1.27
   0 -21  -3   27.19    1.40
   1 -21   3    1.41    0.59
  -1 -21  -3    1.33    0.61
  -2 -21  -3   15.55    1.27
   2 -21   3   14.64    1.20
  -4 -22   3    1.32    0.64
  -3 -22   3    2.55    0.68
  -2 -22   3   10.36    0.99
   2 -22  -3   10.84    1.00
  -2 -22   3   12.13    1.03
  -1 -22   3   14.10    1.04
   1 -22  -3   14.25    1.15
  -1 -22   3   14.06    1.18
   0 -22   3   11.29    1.07
   0 -22  -3   11.90    1.10
  -1 -22  -3    9.03    1.02
   1 -22   3   10.61    1.08
   2 -22   3    3.68    0.78
  -2 -22  -3    3.70    0.81
  -3 -23   3    4.40    0.77
   2 -23  -3   16.35    1.23
  -2 -23   3   16.73    1.17
  -2 -23   3   15.92    1.18
   1 -23  -3    3.38    0.71
  -1 -23   3    4.85    0.82
  -1 -23   3    4.75    0.77
   0 -23   3   10.58    1.06
   0 -23  -3    9.21    1.02
   1 -23   3    1.55    0.68
  -1 -23  -3    1.33    0.64
  -2 -24   3   11.74    1.10
  -2 -24   3   13.09    1.12
   2 -24  -3   11.47    1.08
  -1 -24   3    6.60    0.90
   1 -24  -3    5.46    0.85
  -1 -24   3    9.23    1.01
   0 -24   3   14.57    1.29
   0 -24  -3   13.86    1.22
  -1 -24  -3   41.07    1.88
   1 -24   3   37.82    1.77
  -2 -25   3    7.37    0.95
   2 -25  -3    5.67    0.86
  -1 -25   3    2.94    0.70
   1 -25  -3    2.85    0.71
  -1 -25   3    2.63    0.70
   0 -25   3   15.08    1.26
   0 -25  -3   16.58    1.33
   2 -26  -3    6.94    0.98
  -2 -26   3    6.81    0.96
  -1 -26   3    3.82    0.80
   1 -26  -3    5.01    0.87
  -6   0   4    3.74    0.79
  -5   0   4    0.61    0.51
  -4   0   4   -0.11    0.42
  -3   0   4    9.30    0.76
  -2   0   4   14.52    0.77
   1   0  -4  243.28    4.19
  -1   0   4  243.42    4.39
   0   0  -4   36.03    1.13
  -1   0  -4    0.34    0.41
   1   0   4    0.66    0.28
  -2   0  -4   52.04    1.72
  -3   0  -4   15.78    1.25
  -4   0  -4    8.85    1.09
  -6  -1   4    0.42    0.60
  -6   1   4    0.30    0.56
  -5  -1   4    0.10    0.48
  -5   1   4    0.06    0.46
  -4  -1   4    9.68    0.86
  -4   1   4    9.53    0.82
  -3  -1   4   75.64    1.94
  -3   1   4   75.38    1.92
  -2  -1   4    3.55    0.51
  -2   1   4    3.73    0.49
  -1  -1   4    7.84    0.60
   1  -1  -4    6.99    0.50
   1   1  -4    7.10    0.51
  -1   1   4    7.02    0.55
   0  -1  -4   50.65    1.38
   0   1  -4   50.94    1.39
  -1  -1  -4    3.01    0.53
   1   1   4    3.62    0.42
  -1   1  -4    3.40    0.55
  -2  -1  -4   66.98    1.97
  -2   1  -4   67.57    1.99
  -3  -1  -4    1.85    0.66
  -3   1  -4    2.35    0.69
  -4  -1  -4    1.88    0.74
  -4   1  -4    2.60    0.80
  -6  -2   4    4.49    0.87
  -6   2   4    4.58    0.82
  -5  -2   4    1.00    0.53
  -5   2   4   -0.01    0.46
  -5   2   4   -0.36    0.36
  -4  -2   4    4.16    0.67
  -4   2   4    4.53    0.65
  -3  -2   4    9.76    0.78
  -3   2   4    8.24    0.72
  -2  -2   4    3.68    0.53
  -2   2   4    3.31    0.44
   1  -2  -4  121.83    2.32
  -1  -2   4  118.87    2.51
  -1   2   4  120.71    2.41
   0  -2  -4   36.96    1.16
   0   2   4   36.23    1.17
   0   2  -4   37.27    1.16
  -1  -2  -4    1.12    0.43
  -1   2  -4    0.53    0.42
   1   2   4    0.80    0.30
  -2  -2  -4   40.14    1.50
  -2   2  -4   37.51    1.48
  -3  -2  -4   25.59    1.37
  -3   2  -4   26.91    1.41
  -4  -2  -4    6.26    1.00
  -6  -3   4    0.39    0.58
  -6   3   4    0.52    0.58
  -5  -3   4   -0.02    0.47
  -5   3   4   -0.11    0.49
  -5   3   4    0.45    0.44
  -4  -3   4   15.82    1.02
  -4   3   4   16.05    0.96
  -4   3   4   16.08    1.00
  -3  -3   4   31.67    1.22
  -3   3   4   31.94    1.14
  -2  -3   4    8.56    0.68
  -2   3   4    9.46    0.62
  -1  -3   4   12.71    0.58
  -1  -3   4    9.95    0.68
   1  -3  -4   10.32    0.58
  -1   3   4   12.00    0.76
  -1   3   4   10.93    0.60
   0  -3  -4   62.35    1.58
   0   3   4   58.87    1.61
  -1  -3  -4    6.99    0.69
  -1   3  -4    5.28    0.61
   1   3   4    4.50    0.47
  -2  -3  -4   46.99    1.63
  -2   3  -4   47.55    1.63
  -3  -3  -4    1.47    0.61
  -4  -3  -4    3.01    0.82
  -6  -4   4    3.68    0.79
  -6   4   4    2.97    0.71
  -5  -4   4    0.93    0.58
  -5   4   4    1.24    0.56
  -5   4   4    0.60    0.46
  -4  -4   4    0.78    0.50
  -4   4   4    0.85    0.47
  -4   4   4    1.16    0.47
  -3  -4   4   11.15    0.83
  -3   4   4   11.28    0.84
  -3   4   4   11.44    0.76
  -2  -4   4    1.24    0.41
  -2   4   4    1.51    0.41
  -2   4   4    1.58    0.36
  -1  -4   4   82.30    1.72
   1  -4  -4   80.75    1.75
  -1  -4   4   80.31    1.93
  -1   4   4   79.20    1.71
  -1   4   4   82.76    2.06
   0  -4   4   50.61    1.36
   0  -4  -4   50.53    1.42
   0   4   4   51.15    1.47
  -1  -4  -4    1.85    0.48
   1   4   4    1.19    0.34
  -2  -4  -4   46.22    1.63
  -3  -4  -4   26.18    1.41
   4  -4   4    6.09    0.88
  -4  -4  -4    6.84    0.99
  -6  -5   4    0.66    0.63
  -6   5   4    0.68    0.62
  -5  -5   4   -0.06    0.47
  -5   5   4    0.22    0.43
  -5   5   4    0.21    0.49
  -4  -5   4   51.69    1.75
  -4   5   4   55.74    1.80
  -4   5   4   50.40    1.59
  -3  -5   4   28.99    1.19
  -3   5   4   27.07    1.21
  -3   5   4   28.38    1.06
  -2  -5   4    0.92    0.39
  -2   5   4    1.01    0.33
  -2   5   4    0.60    0.39
  -1  -5   4    5.64    0.47
   1  -5  -4    6.22    0.52
  -1   5   4    5.38    0.59
   0  -5  -4   58.86    1.56
   0  -5   4   58.05    1.48
   0   5   4   57.93    1.61
  -1  -5  -4   30.04    1.20
   1  -5   4   30.43    1.14
   1   5   4   30.25    1.07
  -2  -5  -4   57.76    1.84
   3  -5   4    1.46    0.55
  -3  -5  -4    1.91    0.65
  -4  -5  -4    1.19    0.70
   4  -5   4    1.68    0.66
  -6  -6   4    7.38    1.03
  -6   6   4    7.31    0.92
  -5  -6   4    0.88    0.54
  -5   6   4   -0.13    0.40
  -5   6   4   -0.39    0.47
  -4  -6   4   10.47    0.96
  -4   6   4   11.51    0.92
  -4   6   4   10.39    0.86
  -3  -6   4    4.67    0.64
  -3   6   4    3.49    0.57
  -3   6   4    1.92    0.44
  -2  -6   4    0.69    0.39
  -2   6   4    1.10    0.38
  -2   6   4    0.94    0.32
  -1  -6   4  101.37    2.03
   1  -6  -4  100.79    2.08
  -1   6   4   94.93    2.37
   0  -6   4   47.74    1.33
   0  -6  -4   45.25    1.38
   0   6   4   47.66    1.44
  -1  -6  -4    2.62    0.54
   1  -6   4    3.93    0.53
   1   6   4    3.45    0.47
   2  -6   4   37.61    1.41
  -2  -6  -4   38.93    1.52
   3  -6   4   22.30    1.25
  -3  -6  -4   23.81    1.37
  -4  -6  -4    3.61    0.85
   4  -6   4    6.24    0.89
  -6  -7   4   -0.02    0.57
  -6   7   4    0.40    0.56
  -5  -7   4    1.11    0.60
  -5   7   4    0.60    0.53
  -5   7   4    0.35    0.42
  -4  -7   4   31.22    1.40
  -4   7   4   32.97    1.26
  -4   7   4   30.86    1.37
  -3  -7   4   22.44    1.11
  -3   7   4   22.05    0.90
  -3   7   4   22.57    1.12
  -2  -7   4    4.42    0.56
  -2   7   4    4.35    0.43
  -2   7   4    5.08    0.62
  -1  -7   4    7.84    0.58
   1  -7  -4    9.48    0.63
  -1   7   4    8.95    0.77
   0  -7  -4   70.25    1.79
   0  -7   4   70.15    1.73
   0   7   4   69.47    1.89
  -1  -7  -4   14.38    0.92
   1  -7   4   14.01    0.84
   1   7   4   16.00    0.85
   2  -7   4   59.11    1.76
  -2  -7  -4   54.17    1.83
  -3  -7  -4    0.76    0.58
   3  -7   4    2.38    0.61
   4  -7   4    3.86    0.82
  -4  -7  -4    2.56    0.80
  -6  -8   4    3.90    0.85
  -6   8   4    4.75    0.78
  -5  -8   4    0.23    0.54
  -5   8   4    1.33    0.51
  -5   8   4    0.88    0.53
  -4  -8   4    4.03    0.69
  -4   8   4    3.15    0.56
  -4   8   4    3.65    0.63
  -3  -8   4    6.03    0.74
  -3   8   4    4.21    0.51
  -3   8   4    5.19    0.66
  -2  -8   4    2.85    0.52
  -2   8   4    2.71    0.50
   1  -8  -4   70.11    1.71
  -1  -8   4   70.28    1.66
  -1   8   4   71.75    1.95
   0  -8  -4   57.46    1.58
   0  -8   4   51.44    1.48
   0   8   4   56.57    1.67
  -1  -8  -4   11.33    0.91
   1  -8   4    9.61    0.76
   1   8   4    9.66    0.71
  -2  -8  -4   31.09    1.41
   2  -8   4   32.86    1.32
  -3  -8  -4   14.66    1.16
   3  -8   4   13.86    1.06
   4  -8   4    4.14    0.81
  -4  -8  -4    5.00    0.95
  -6   9   4   -0.11    0.54
  -5  -9   4    0.95    0.58
  -5   9   4    1.39    0.56
  -5   9   4    0.46    0.48
  -4  -9   4    8.81    0.91
  -4   9   4    7.98    0.72
  -4   9   4    9.10    0.88
  -4   9   4    7.94    0.72
  -3  -9   4   33.76    1.37
  -3   9   4   33.63    1.38
  -2  -9   4    3.40    0.55
  -2   9   4    3.40    0.58
   1  -9  -4    3.79    0.50
  -1  -9   4    4.04    0.50
  -1   9   4    4.72    0.62
   0  -9   4   43.38    1.32
   0  -9  -4   43.43    1.41
   0   9   4   43.28    1.46
  -1  -9  -4   -0.17    0.38
   1  -9   4    0.40    0.39
   1   9   4    0.34    0.33
   2  -9   4   45.33    1.59
  -2  -9  -4   45.41    1.68
  -3  -9  -4    3.90    0.74
   3  -9   4    3.86    0.72
   4  -9   4    1.54    0.66
  -4  -9  -4    0.90    0.71
  -5 -10   4    0.18    0.55
  -5  10   4    0.99    0.52
  -4 -10   4    1.84    0.58
  -4  10   4    1.91    0.56
  -3 -10   4    4.31    0.68
  -3  10   4    4.68    0.70
  -2 -10   4    3.35    0.45
  -2 -10   4    3.45    0.56
   2 -10  -4    3.89    0.44
  -2  10   4    3.60    0.60
   1 -10  -4   66.61    1.69
  -1 -10   4   65.53    1.62
  -1  10   4   60.57    1.86
   0 -10   4   25.48    1.04
   0 -10  -4   27.60    1.14
   0  10   4   25.11    1.17
   1 -10   4   13.29    0.85
  -1 -10  -4   12.75    0.92
   1  10   4   14.40    0.85
  -2 -10  -4   26.98    1.36
   2 -10   4   27.24    1.24
   3 -10   4   12.79    1.05
  -3 -10  -4   13.86    1.22
   4 -10   4    3.63    0.80
  -4 -10  -4    2.72    0.81
  -5 -11   4    0.38    0.56
  -5  11   4    0.07    0.45
  -4 -11   4    6.56    0.86
  -4  11   4    8.02    0.86
  -3 -11   4   31.88    1.38
  -3  11   4   31.19    1.38
   2 -11  -4    3.02    0.42
  -2 -11   4    3.78    0.60
  -2 -11   4    1.88    0.41
  -2  11   4    3.11    0.59
   1 -11  -4   14.70    0.85
  -1 -11   4   15.67    0.83
  -1  11   4   16.73    1.00
   0 -11   4   35.39    1.26
   0 -11  -4   35.77    1.33
   0  11   4   37.41    1.41
  -1 -11  -4    1.58    0.51
   1 -11   4    1.62    0.49
   1  11   4    1.21    0.44
  -2 -11  -4   35.02    1.54
   2 -11   4   38.69    1.46
  -3 -11  -4    6.55    0.93
   3 -11   4    8.45    0.96
  -4 -11  -4    4.24    0.90
   4 -11   4    3.51    0.80
  -5 -12   4    1.09    0.62
  -5  12   4    0.34    0.49
  -4 -12   4    6.65    0.85
  -4  12   4    6.08    0.82
  -3 -12   4    5.55    0.75
  -3  12   4    6.01    0.78
  -2 -12   4    3.04    0.49
  -2 -12   4    3.35    0.57
   2 -12  -4    3.63    0.46
  -2  12   4    4.11    0.67
   1 -12  -4  101.99    2.35
  -1 -12   4   98.07    2.27
  -1  12   4  100.02    2.59
   0 -12  -4   14.18    0.93
   0 -12   4   14.13    0.88
   0  12   4   13.61    0.96
  -1 -12  -4   17.77    1.09
   1 -12   4   16.42    0.97
   1  12   4   17.16    0.97
  -2 -12  -4   22.40    1.27
   2 -12   4   22.63    1.18
   3 -12   4   11.61    1.07
  -3 -12  -4   11.87    1.17
  -4 -12  -4    5.35    0.94
   4 -12   4    5.13    0.88
  -5 -13   4    3.13    0.77
  -5  13   4    2.19    0.64
  -4 -13   4   21.15    1.27
  -4  13   4   20.90    1.25
  -3 -13   4   33.92    1.45
  -3  13   4   28.57    1.39
  -2 -13   4    6.24    0.63
   2 -13  -4    8.67    0.69
  -2 -13   4    6.59    0.75
  -2  13   4    7.30    0.81
   1 -13  -4    4.97    0.62
  -1 -13   4    5.66    0.65
  -1  13   4    6.17    0.77
   0 -13   4   19.04    0.99
   0 -13  -4   19.82    1.06
   0  13   4   18.56    1.09
   1 -13   4    7.86    0.80
  -1 -13  -4    8.02    0.86
   1  13   4    7.86    0.81
  -2 -13  -4   29.05    1.42
   2 -13   4   28.97    1.34
   3 -13   4    7.26    0.91
  -3 -13  -4    8.74    1.04
  -5 -14   4    1.21    0.64
  -5  14   4    0.84    0.57
  -4 -14   4    2.20    0.62
  -4  14   4    0.89    0.58
  -3 -14   4    7.33    0.83
  -3  14   4    5.30    0.76
   2 -14  -4    4.37    0.55
  -2 -14   4    5.49    0.71
  -2 -14   4    3.94    0.57
  -2  14   4    5.29    0.74
  -1 -14   4   50.68    1.54
   1 -14  -4   48.90    1.59
  -1  14   4   50.76    1.79
   0 -14  -4   13.93    0.97
   0 -14   4   13.58    0.92
   0  14   4   12.76    0.99
  -1 -14  -4   16.05    1.10
   1 -14   4   17.80    1.05
   1  14   4   16.46    1.06
   2 -14   4   15.63    1.09
  -2 -14  -4   16.98    1.16
  -3 -14  -4   16.02    1.28
   3 -14   4   15.35    1.18
  -5 -15   4    1.42    0.67
  -5  15   4    2.01    0.68
  -4 -15   4   10.82    1.04
  -4  15   4   14.16    1.18
  -3 -15   4    9.03    0.93
  -3  15   4   12.02    1.11
  -2 -15   4    7.50    0.86
  -2 -15   4    5.87    0.66
   2 -15  -4    8.23    0.72
  -2  15   4    7.42    0.89
   1 -15  -4   10.11    0.87
  -1 -15   4   10.25    0.88
  -1  15   4   11.26    1.00
   0 -15   4   20.13    1.09
   0 -15  -4   17.42    1.08
   0  15   4   19.84    1.17
  -1 -15  -4    4.29    0.76
   1 -15   4    5.08    0.73
   2 -15   4   15.19    1.11
  -2 -15  -4   14.70    1.16
   3 -15   4    6.75    0.92
  -3 -15  -4    7.10    1.02
  -5 -16   4    0.95    0.66
  -5  16   4    1.29    0.63
  -4 -16   4    4.39    0.77
  -4  16   4    4.78    0.83
  -3 -16   4    3.08    0.65
  -3  16   4    4.44    0.78
  -2 -16   4    1.17    0.50
  -2 -16   4    1.56    0.50
   2 -16  -4    0.88    0.42
  -2  16   4    2.17    0.63
  -1 -16   4   30.47    1.37
   1 -16  -4   31.94    1.35
  -1 -16   4   29.69    1.27
  -1  16   4   31.68    1.49
   0 -16   4   17.93    1.09
   0 -16  -4   17.96    1.12
   0  16   4   18.08    1.17
  -1 -16  -4   11.07    1.05
   1 -16   4   11.30    1.03
  -2 -16  -4   12.28    1.15
   2 -16   4   11.31    1.08
  -3 -16  -4    7.35    1.02
   3 -16   4   11.22    1.13
  -5  17   4    0.93    0.60
  -4 -17   4    8.87    1.01
  -4  17   4    9.30    1.05
  -3 -17   4   13.50    1.10
  -3  17   4   12.64    1.13
  -2 -17   4    4.88    0.76
   2 -17  -4    4.31    0.60
  -2 -17   4    5.99    0.77
  -2  17   4    4.28    0.78
  -1 -17   4    8.17    0.87
  -1 -17   4    7.90    0.87
   1 -17  -4    8.46    0.87
  -1  17   4   10.65    1.04
   0 -17  -4   15.20    1.10
   0 -17   4   16.55    1.07
   0  17   4   16.74    1.20
   1 -17   4    8.34    0.95
  -1 -17  -4    7.36    0.93
  -2 -17  -4   18.85    1.29
   2 -17   4   17.12    1.17
   3 -17   4    2.89    0.75
  -3 -17  -4    2.36    0.78
  -4 -18   4    3.20    0.72
  -4  18   4    2.67    0.72
  -3 -18   4    1.52    0.59
  -3  18   4    2.82    0.69
  -2 -18   4    6.42    0.82
   2 -18  -4    5.28    0.67
  -2  18   4    4.96    0.82
  -1 -18   4   48.45    1.69
   1 -18  -4   48.18    1.74
  -1 -18   4   47.10    1.76
  -1  18   4   46.09    1.84
   0 -18   4   12.72    1.01
   0 -18  -4   14.90    1.11
   0  18   4   13.26    1.14
  -1 -18  -4    8.89    0.99
   1 -18   4   10.09    0.99
   2 -18   4   14.82    1.16
  -2 -18  -4   11.66    1.15
  -4 -19   4    7.04    0.94
  -4  19   4    8.34    1.03
  -3 -19   4    8.92    1.00
  -3  19   4   10.27    1.11
  -2 -19   4   14.98    1.10
   2 -19  -4   15.06    1.06
  -2  19   4   15.06    1.18
  -1 -19   4    5.07    0.79
  -1 -19   4    4.16    0.72
   1 -19  -4    3.74    0.71
  -1  19   4    3.81    0.76
   0 -19  -4   12.70    1.14
   0 -19   4   14.41    1.09
   1 -19   4    4.22    0.76
  -1 -19  -4    3.96    0.76
  -2 -19  -4   16.39    1.31
   2 -19   4   16.29    1.24
  -4 -20   4    5.44    0.88
  -4  20   4    4.75    0.87
  -3 -20   4    1.81    0.65
  -3  20   4    1.97    0.66
   2 -20  -4    5.72    0.76
  -2 -20   4    7.15    0.90
  -2  20   4    7.14    0.95
  -1 -20   4   24.59    1.34
  -1 -20   4   21.41    1.26
   1 -20  -4   25.64    1.39
  -1  20   4   23.84    1.45
   0 -20  -4    9.84    1.05
   0 -20   4   10.48    1.04
  -1 -20  -4   16.35    1.26
   1 -20   4   17.67    1.29
  -2 -20  -4    3.92    0.84
   2 -20   4    3.92    0.85
  -3 -21   4    4.87    0.84
  -3  21   4    4.80    0.87
  -2 -21   4   10.70    1.09
  -2  21   4   12.01    1.22
   1 -21  -4    3.20    0.71
  -1 -21   4    5.13    0.79
  -1 -21   4    4.79    0.81
   0 -21   4    9.02    1.08
   0 -21  -4   11.51    1.18
   1 -21   4    0.60    0.60
  -1 -21  -4    0.77    0.61
  -3 -22   4    1.36    0.63
  -2 -22   4    1.60    0.62
  -2  22   4    2.09    0.66
  -1 -22   4   13.04    1.22
   1 -22  -4    8.83    1.01
  -1 -22   4   11.79    1.08
   0 -22   4    3.62    0.81
   0 -22  -4    3.81    0.79
  -1 -22  -4   12.01    1.24
   1 -22   4   11.14    1.16
  -2 -23   4    5.45    0.87
   1 -23  -4    6.88    0.96
  -1 -23   4   10.10    1.14
  -1 -23   4   10.42    1.12
   0 -23   4    3.84    0.83
   0 -23  -4    3.73    0.83
  -2 -24   4    1.01    0.63
  -1 -24   4   15.48    1.23
   1 -24  -4   17.17    1.37
  -1 -24   4   17.78    1.30
   0 -24   4    2.28    0.79
   0 -24  -4    2.87    0.88
  -6   0   5   -0.55    0.49
  -6   0   5   -0.04    0.59
  -5   0   5    3.51    0.70
  -4   0   5    0.39    0.47
  -3   0   5   28.26    1.23
  -2   0   5    0.85    0.44
  -1   0   5    1.57    0.43
   1   0  -5    1.00    0.35
   0   0  -5   30.07    1.18
  -1   0  -5   49.73    1.69
  -2   0  -5   -0.32    0.52
  -3   0  -5    1.24    0.69
  -6  -1   5    0.82    0.61
  -6  -1   5   -0.12    0.51
  -6   1   5    0.35    0.58
  -6   1   5    1.05    0.67
  -5  -1   5    3.81    0.73
  -5   1   5    5.67    0.80
  -4  -1   5    0.63    0.50
  -4   1   5    1.43    0.52
  -3  -1   5   14.17    0.96
  -3   1   5   13.94    0.93
  -2  -1   5   36.23    1.32
  -2   1   5   35.93    1.26
   1  -1  -5   10.64    0.68
  -1  -1   5   11.13    0.78
  -1   1   5   10.57    0.73
   0  -1  -5    9.76    0.78
   0   1  -5    8.76    0.77
   0   1   5    6.88    0.68
  -1  -1  -5    3.63    0.65
  -1   1  -5    3.93    0.67
  -2  -1  -5   -0.86    0.49
  -2   1  -5   -0.13    0.55
  -3  -1  -5   38.04    1.79
  -3   1  -5   33.80    1.72
  -6  -2   5    0.31    0.62
  -6   2   5    0.76    0.57
  -6   2   5    0.36    0.62
  -5  -2   5    7.78    0.94
  -5   2   5    5.01    0.75
  -5   2   5    7.19    0.91
  -4  -2   5    6.80    0.81
  -4   2   5    6.40    0.75
  -3  -2   5    6.32    0.76
  -3   2   5    7.00    0.71
  -2  -2   5    8.10    0.77
  -2   2   5    6.06    0.62
  -1  -2   5    0.73    0.43
   1  -2  -5    1.32    0.35
  -1   2   5    1.07    0.38
   0  -2  -5   30.62    1.19
   0   2   5   32.30    1.25
  -1  -2  -5   64.80    1.95
  -1   2  -5   66.49    1.95
  -2  -2  -5    0.30    0.55
  -2   2  -5    0.56    0.58
  -3  -2  -5    2.25    0.75
  -6   3   5    0.61    0.62
  -6   3   5    0.02    0.52
  -5  -3   5    3.87    0.75
  -5   3   5    4.18    0.72
  -5   3   5    3.33    0.71
  -4  -3   5    2.21    0.63
  -4   3   5    1.12    0.53
  -4   3   5    1.67    0.55
  -3  -3   5    7.64    0.81
  -3   3   5    6.90    0.69
  -3   3   5    6.58    0.76
  -2  -3   5   46.34    1.51
  -2   3   5   43.23    1.32
  -2   3   5   41.10    1.54
  -1  -3   5    4.73    0.60
   1  -3  -5    3.99    0.48
  -1  -3   5    5.19    0.51
  -1   3   5    3.92    0.49
  -1   3   5    4.23    0.60
   0  -3  -5   14.72    0.89
   0   3   5   13.44    0.88
  -1  -3  -5    6.01    0.77
  -2  -3  -5   -0.17    0.54
  -3  -3  -5   24.25    1.50
  -6   4   5    0.69    0.60
  -6   4   5    0.67    0.58
  -5  -4   5    3.34    0.74
  -5   4   5    2.36    0.65
  -5   4   5    3.32    0.68
  -4  -4   5    0.99    0.55
  -4   4   5    0.75    0.52
  -4   4   5    0.70    0.48
  -3  -4   5    5.07    0.72
  -3   4   5    3.79    0.64
  -3   4   5    3.90    0.57
  -2  -4   5    7.54    0.74
  -2   4   5    6.71    0.77
   1  -4  -5    0.17    0.31
  -1  -4   5    0.93    0.35
  -1  -4   5    0.76    0.42
  -1   4   5    0.09    0.40
  -1   4   5    1.11    0.34
   0  -4  -5   38.68    1.36
   0  -4   5   39.56    1.32
   0   4   5   38.91    1.41
  -1  -4  -5   67.78    2.01
  -2  -4  -5    0.00    0.56
   3  -4   5    1.02    0.61
  -3  -4  -5    0.69    0.63
  -6   5   5    1.63    0.64
  -6   5   5    2.72    0.69
  -5  -5   5    3.28    0.73
  -5   5   5    3.01    0.68
  -5   5   5    4.31    0.75
  -4  -5   5    0.79    0.54
  -4   5   5    0.33    0.46
  -4   5   5    0.10    0.46
  -3  -5   5    3.10    0.63
  -3   5   5    2.38    0.50
  -3   5   5    2.85    0.61
  -2  -5   5   48.22    1.58
  -2   5   5   46.90    1.64
  -2   5   5   42.56    1.34
   1  -5  -5    0.80    0.36
  -1  -5   5    0.76    0.36
  -1  -5   5    0.17    0.41
  -1   5   5    0.75    0.43
   0  -5   5    8.01    0.70
   0  -5  -5    5.88    0.70
   0   5   5    6.37    0.69
  -1  -5  -5    4.20    0.68
   1  -5   5    2.86    0.59
  -2  -5  -5    0.75    0.59
   2  -5   5    0.36    0.52
  -3  -5  -5   19.06    1.40
   3  -5   5   22.57    1.41
  -6   6   5    0.20    0.55
  -6   6   5    0.51    0.53
  -5  -6   5    4.56    0.84
  -5   6   5    4.39    0.79
  -5   6   5    3.96    0.72
  -4  -6   5    1.24    0.57
  -4   6   5    1.44    0.56
  -4   6   5    1.57    0.53
  -3  -6   5   10.42    0.99
  -3   6   5    8.44    0.88
  -2  -6   5    4.50    0.66
  -2   6   5    3.87    0.62
  -1  -6   5    0.41    0.34
   1  -6  -5    0.22    0.32
  -1  -6   5    0.26    0.41
  -1   6   5    0.36    0.39
   0  -6  -5   38.47    1.40
   0  -6   5   38.72    1.31
   0   6   5   40.16    1.45
   1  -6   5   58.28    1.77
  -1  -6  -5   59.35    1.90
   2  -6   5    4.57    0.76
  -2  -6  -5    4.35    0.80
   3  -6   5    0.31    0.59
  -3  -6  -5    1.47    0.70
  -6   7   5    2.66    0.68
  -5  -7   5    1.95    0.68
  -5   7   5    3.22    0.71
  -4  -7   5    0.10    0.51
  -4   7   5    0.95    0.55
  -3  -7   5    8.25    0.88
  -3   7   5    7.81    0.85
  -2  -7   5   44.64    1.55
  -2   7   5   42.52    1.60
   1  -7  -5    0.20    0.34
  -1  -7   5   -0.23    0.39
  -1  -7   5    0.48    0.35
  -1   7   5   -0.35    0.36
   0  -7   5    9.42    0.80
   0  -7  -5    9.78    0.86
   0   7   5   10.46    0.90
  -1  -7  -5    3.74    0.70
   1  -7   5    2.89    0.59
   2  -7   5    4.57    0.73
  -2  -7  -5    4.49    0.85
  -3  -7  -5   17.94    1.38
   3  -7   5   18.57    1.33
  -6   8   5   -0.53    0.51
  -5  -8   5    3.09    0.73
  -5   8   5    1.95    0.64
  -4  -8   5    1.64    0.61
  -4   8   5    2.31    0.63
  -3  -8   5    9.64    0.95
  -3   8   5    8.13    0.88
  -2  -8   5    5.32    0.72
  -2   8   5    6.88    0.80
  -1  -8   5    0.20    0.36
  -1  -8   5    1.34    0.50
   1  -8  -5    0.32    0.35
  -1   8   5    1.19    0.47
   0  -8   5   29.76    1.17
   0  -8  -5   27.65    1.23
   0   8   5   29.26    1.30
   1  -8   5   29.78    1.29
  -1  -8  -5   30.13    1.39
   2  -8   5    5.30    0.82
  -2  -8  -5    5.13    0.86
  -3  -8  -5    0.14    0.63
   3  -8   5    1.33    0.66
  -5  -9   5    3.37    0.80
  -5   9   5    2.80    0.70
  -4  -9   5    0.61    0.59
  -4   9   5    1.04    0.58
  -3  -9   5    8.62    0.92
  -3   9   5    9.26    0.97
  -2  -9   5   41.23    1.54
  -2   9   5   41.86    1.60
   1  -9  -5   14.49    0.86
  -1  -9   5   14.02    0.84
  -1   9   5   15.47    1.03
   0  -9  -5    7.17    0.78
   0  -9   5    7.27    0.73
   0   9   5    6.27    0.74
   1  -9   5    1.39    0.51
  -1  -9  -5    1.42    0.59
   2  -9   5    2.44    0.63
  -2  -9  -5    2.39    0.72
   3  -9   5   22.35    1.43
  -3  -9  -5   22.01    1.49
  -5 -10   5    3.42    0.81
  -5  10   5    4.02    0.78
  -4 -10   5    3.38    0.74
  -4  10   5    2.59    0.70
  -3 -10   5   10.30    1.01
  -3  10   5    7.80    0.92
  -2 -10   5    4.89    0.69
  -2  10   5    3.98    0.70
  -1 -10   5    3.08    0.52
   1 -10  -5    3.71    0.58
  -1  10   5    4.89    0.73
   0 -10  -5   25.40    1.22
   0 -10   5   23.88    1.11
   0  10   5   26.71    1.30
  -1 -10  -5   22.58    1.29
   1 -10   5   24.36    1.18
  -2 -10  -5    1.17    0.63
   2 -10   5    2.57    0.68
  -3 -10  -5    0.76    0.70
   3 -10   5    1.27    0.63
  -5 -11   5    2.64    0.74
  -5  11   5    2.78    0.70
  -4 -11   5   -0.37    0.49
  -4  11   5    0.45    0.56
  -3 -11   5    9.58    0.98
  -3  11   5   11.86    1.04
  -2 -11   5   27.12    1.31
  -2  11   5   25.66    1.33
   1 -11  -5    1.68    0.46
  -1 -11   5    1.03    0.50
  -1 -11   5    1.20    0.44
  -1  11   5    1.55    0.56
   0 -11  -5   11.20    0.93
   0 -11   5   10.82    0.88
   0  11   5   12.15    1.07
  -1 -11  -5    1.35    0.60
   1 -11   5    2.43    0.62
  -2 -11  -5   -0.10    0.57
   2 -11   5   -0.04    0.48
   3 -11   5   17.17    1.29
  -3 -11  -5   16.22    1.44
  -5 -12   5    3.25    0.79
  -5  12   5    3.19    0.75
  -4 -12   5   -0.01    0.50
  -4  12   5    0.73    0.58
  -3 -12   5   12.67    1.18
  -3  12   5   12.63    1.07
  -2 -12   5    2.34    0.62
  -2  12   5    1.86    0.60
  -1 -12   5    5.64    0.78
   1 -12  -5    5.59    0.69
  -1 -12   5    6.02    0.70
  -1  12   5    6.39    0.81
   0 -12  -5   18.70    1.13
   0 -12   5   18.58    1.06
   0  12   5   18.48    1.23
   1 -12   5   32.28    1.38
  -1 -12  -5   30.74    1.50
   2 -12   5    1.70    0.62
  -2 -12  -5    1.01    0.65
   3 -12   5    1.44    0.67
  -3 -12  -5    2.26    0.77
  -5  13   5    3.09    0.77
  -4 -13   5    1.03    0.57
  -4  13   5    0.77    0.59
  -3 -13   5    1.57    0.60
  -3  13   5    2.20    0.65
  -2 -13   5   17.88    1.16
  -2  13   5   16.73    1.16
  -1 -13   5    2.96    0.64
  -1 -13   5    1.62    0.52
   1 -13  -5    2.02    0.52
  -1  13   5    3.12    0.70
   0 -13   5   10.54    0.93
   0 -13  -5    8.47    0.90
   0  13   5    8.94    0.96
   1 -13   5    3.76    0.71
  -1 -13  -5    2.99    0.71
   2 -13   5    0.63    0.55
  -2 -13  -5    1.60    0.68
  -4 -14   5    0.11    0.51
  -4  14   5    0.46    0.57
  -3 -14   5    3.72    0.75
  -3  14   5    3.72    0.76
  -2 -14   5    3.48    0.70
  -2  14   5    2.83    0.71
   1 -14  -5    6.87    0.80
  -1 -14   5    6.09    0.72
  -1 -14   5    6.69    0.84
  -1  14   5    8.36    1.01
   0 -14   5   23.56    1.21
   0 -14  -5   19.70    1.21
   0  14   5   22.56    1.35
  -1 -14  -5   38.17    1.69
   1 -14   5   37.44    1.58
  -2 -14  -5    2.87    0.76
   2 -14   5    1.21    0.63
  -4 -15   5    1.37    0.62
  -4  15   5    0.93    0.63
  -3 -15   5    3.32    0.74
  -3  15   5    3.37    0.73
  -2 -15   5   17.92    1.19
  -2  15   5   15.86    1.22
   1 -15  -5    1.67    0.55
  -1 -15   5    1.22    0.51
  -1 -15   5    1.70    0.57
  -1  15   5    1.98    0.65
   0 -15   5    7.09    0.88
   0 -15  -5    6.78    0.86
   0  15   5    6.89    0.90
   1 -15   5    3.25    0.73
  -1 -15  -5    2.28    0.67
   2 -15   5    2.28    0.70
  -2 -15  -5    1.66    0.71
  -4 -16   5    0.59    0.59
  -4  16   5    1.34    0.69
  -3 -16   5    2.95    0.75
  -3  16   5    4.19    0.82
  -2 -16   5    3.59    0.74
  -2  16   5    3.09    0.80
  -1 -16   5    2.10    0.60
  -1 -16   5    3.24    0.73
   1 -16  -5    3.29    0.68
  -1  16   5    3.47    0.77
   0 -16  -5   11.43    1.08
   0 -16   5   13.17    1.08
   0  16   5   14.99    1.25
   1 -16   5   25.93    1.38
  -1 -16  -5   25.61    1.46
   2 -16   5    7.26    1.01
  -2 -16  -5    6.59    1.02
  -4  17   5    0.32    0.60
  -3 -17   5   10.56    1.13
  -3  17   5   10.38    1.20
  -2 -17   5   14.08    1.18
  -2  17   5   15.24    1.25
  -1 -17   5    2.23    0.64
  -1 -17   5    1.46    0.62
   1 -17  -5    2.11    0.62
  -1  17   5    1.17    0.65
   0 -17   5    8.23    0.95
   0 -17  -5    5.59    0.83
   0  17   5    6.63    1.01
   1 -17   5    0.97    0.62
  -1 -17  -5    0.60    0.61
   2 -17   5    4.69    0.91
  -3 -18   5   12.00    1.19
  -3  18   5   11.98    1.25
  -2 -18   5    0.95    0.59
  -2  18   5    0.42    0.60
   1 -18  -5    2.19    0.67
  -1 -18   5    2.61    0.68
  -1 -18   5    2.85    0.69
  -1  18   5    2.57    0.73
   0 -18  -5   11.17    1.11
   0 -18   5   13.47    1.12
   0  18   5   14.15    1.30
   1 -18   5   11.86    1.24
  -1 -18  -5    7.12    0.97
  -3 -19   5    3.47    0.79
  -3  19   5    5.13    0.92
  -2 -19   5   10.87    1.11
  -2  19   5   11.98    1.30
  -1 -19   5    0.82    0.63
   1 -19  -5    1.07    0.57
  -1 -19   5    0.12    0.57
  -1  19   5    0.31    0.63
   0 -19   5    5.49    0.91
   0 -19  -5    6.81    0.97
   0  19   5    6.44    1.00
  -1 -19  -5    2.07    0.73
   1 -19   5    0.64    0.62
  -2 -20   5    1.62    0.67
  -2  20   5    1.38    0.71
  -1 -20   5    2.44    0.69
  -1 -20   5    2.89    0.78
   1 -20  -5    2.08    0.65
  -1  20   5    2.43    0.77
   0 -20  -5    5.05    0.89
   0 -20   5    6.48    0.91
  -1 -21   5    1.57    0.65
   1 -21  -5    1.18    0.62
  -1  21   5    1.33    0.71
   0 -21  -5    7.57    1.04
   0 -21   5    8.41    1.10
   1 -22  -5    6.54    0.95
  -5   0   6    0.00    0.56
  -4   0   6    1.46    0.60
  -3   0   6    4.50    0.69
  -2   0   6   12.19    0.98
  -1   0   6   24.75    1.17
   0   0   6    1.57    0.50
   0   0  -6    1.18    0.53
  -1   0  -6    1.45    0.64
  -2   0  -6   38.50    1.82
  -5  -1   6   -0.22    0.54
  -5   1   6    0.27    0.57
  -5   1   6    0.36    0.63
  -4  -1   6    3.82    0.73
  -4   1   6    4.60    0.72
  -3  -1   6    4.15    0.70
  -3   1   6    2.94    0.63
  -2  -1   6    2.79    0.63
  -2   1   6    2.03    0.56
  -1  -1   6   13.18    0.95
  -1   1   6   13.29    1.02
  -1   1   6   11.01    0.86
   0  -1  -6    6.21    0.77
   0   1   6    7.00    0.79
  -1  -1  -6    4.34    0.83
  -1   1  -6    3.67    0.77
  -2  -1  -6    8.35    1.09
  -2   1  -6    8.22    1.09
  -5  -2   6    0.11    0.55
  -5   2   6    0.25    0.61
  -5   2   6    0.32    0.58
  -4  -2   6    0.56    0.60
  -4   2   6   -0.04    0.50
  -4   2   6   -0.18    0.52
  -3  -2   6    2.26    0.62
  -3   2   6    1.92    0.59
  -3   2   6    2.13    0.59
  -2  -2   6    6.20    0.78
  -2   2   6    3.73    0.68
  -2   2   6    5.58    0.82
  -1  -2   6   15.70    1.04
  -1   2   6   17.85    1.12
   0  -2  -6    0.83    0.51
   0   2   6    0.91    0.48
  -1  -2  -6    2.09    0.68
  -2  -2  -6   15.70    1.41
  -5  -3   6    0.49    0.60
  -5   3   6   -0.38    0.55
  -5   3   6    0.45    0.64
  -4  -3   6    8.09    0.95
  -4   3   6    7.37    0.90
  -4   3   6    9.00    1.01
  -3  -3   6    2.90    0.66
  -3   3   6    1.96    0.60
  -2  -3   6    3.57    0.68
  -2   3   6    2.94    0.65
  -1  -3   6   12.25    0.98
  -1   3   6   10.95    1.00
   0  -3   6    6.44    0.74
   0  -3  -6    7.11    0.80
   0   3   6    6.82    0.77
  -1  -3  -6    6.07    0.90
  -2  -3  -6    4.02    0.89
  -5  -4   6    0.90    0.62
  -5   4   6   -0.01    0.59
  -4  -4   6    0.78    0.61
  -4   4   6    1.82    0.62
  -3  -4   6    4.21    0.76
  -3   4   6    2.53    0.65
  -2  -4   6    2.32    0.62
  -2   4   6    1.20    0.56
  -1  -4   6   18.29    1.13
  -1   4   6   19.06    1.18
   0  -4  -6    0.69    0.51
   0  -4   6    0.48    0.45
   0   4   6    0.71    0.47
  -1  -4  -6    3.72    0.78
   1  -4   6    3.16    0.65
   2  -4   6   18.09    1.32
  -2  -4  -6   12.98    1.26
  -5  -5   6    1.70    0.71
  -5   5   6    1.15    0.68
  -4  -5   6    7.99    0.96
  -4   5   6    8.32    1.00
  -3  -5   6    2.90    0.70
  -3   5   6    1.37    0.60
  -2  -5   6    1.38    0.57
  -2   5   6    1.10    0.55
  -1  -5   6    7.05    0.83
  -1   5   6    7.21    0.88
   0  -5   6    6.56    0.73
   0  -5  -6    5.69    0.77
   0   5   6    6.45    0.77
  -1  -5  -6   11.98    1.13
   1  -5   6   13.00    1.17
   2  -5   6    3.83    0.84
  -2  -5  -6    4.36    0.88
  -5  -6   6    1.15    0.69
  -5   6   6    0.95    0.66
  -4  -6   6    0.60    0.60
  -4   6   6    0.80    0.60
  -3  -6   6    0.48    0.59
  -3   6   6    0.41    0.54
  -2  -6   6    0.59    0.52
  -2   6   6    1.39    0.57
  -1  -6   6   20.59    1.20
  -1   6   6   21.05    1.24
   0  -6   6    3.55    0.62
   0  -6  -6    2.56    0.60
   0   6   6    3.31    0.63
  -1  -6  -6    2.18    0.70
   1  -6   6    3.71    0.70
  -2  -6  -6   17.41    1.38
   2  -6   6   16.16    1.28
  -5  -7   6    0.85    0.70
  -5   7   6    1.18    0.68
  -4  -7   6    5.72    0.88
  -4   7   6    6.29    0.92
  -3  -7   6    0.27    0.56
  -3   7   6    1.30    0.62
  -2  -7   6    0.47    0.51
  -2   7   6    0.00    0.46
  -1  -7   6   14.06    1.06
  -1   7   6   12.29    1.06
   0  -7  -6   11.84    1.03
   0  -7   6    9.59    0.88
   0   7   6    8.61    0.88
   1  -7   6   12.08    1.16
  -1  -7  -6    8.41    0.99
  -2  -7  -6    5.49    0.93
   2  -7   6    5.24    0.91
  -4  -8   6    0.46    0.59
  -4   8   6    0.07    0.55
  -3  -8   6    1.52    0.64
  -3   8   6    1.50    0.62
  -2  -8   6    2.84    0.70
  -2   8   6    3.90    0.75
  -1  -8   6   16.31    1.13
  -1   8   6   17.61    1.20
   0  -8  -6    6.17    0.82
   0  -8   6    5.97    0.75
   0   8   6    7.37    0.88
   1  -8   6    7.36    0.88
  -1  -8  -6    5.17    0.85
   2  -8   6   16.18    1.31
  -2  -8  -6   16.69    1.52
  -4  -9   6    4.87    0.82
  -4   9   6    4.57    0.84
  -3  -9   6    2.03    0.66
  -3   9   6    3.57    0.76
  -2  -9   6    0.21    0.53
  -2   9   6    0.57    0.52
  -1  -9   6    5.44    0.80
  -1   9   6    6.57    0.88
   0  -9   6    2.52    0.59
   0  -9  -6    3.30    0.68
   0   9   6    2.25    0.62
   1  -9   6    1.49    0.60
  -1  -9  -6    2.24    0.71
   2  -9   6    2.13    0.70
  -2  -9  -6    1.86    0.77
  -4 -10   6   -0.02    0.52
  -4  10   6    0.10    0.57
  -3 -10   6   -0.27    0.53
  -3  10   6    0.60    0.57
  -2 -10   6    6.55    0.87
  -2  10   6    6.54    0.92
  -1 -10   6   11.49    1.05
  -1  10   6   10.18    1.05
   0 -10   6    0.31    0.51
   0 -10  -6    0.95    0.55
   0  10   6   -0.32    0.51
   1 -10   6    1.59    0.65
  -1 -10  -6    1.59    0.70
   2 -10   6   12.16    1.19
  -2 -10  -6   11.23    1.23
  -4 -11   6    4.22    0.82
  -4  11   6    5.33    0.90
  -3 -11   6    0.58    0.59
  -3  11   6    1.24    0.64
  -2 -11   6    4.84    0.83
  -2  11   6    2.21    0.69
  -1 -11   6    8.23    0.95
  -1  11   6    8.26    0.95
   0 -11   6    6.70    0.82
   0 -11  -6    7.95    0.93
   0  11   6    7.22    0.97
   1 -11   6    4.01    0.79
  -1 -11  -6    2.79    0.74
   2 -11   6    4.53    0.86
  -2 -11  -6    4.04    0.92
  -4 -12   6    0.27    0.55
  -4  12   6   -0.26    0.53
  -3 -12   6    1.07    0.62
  -3  12   6    0.77    0.62
  -2 -12   6    5.01    0.83
  -2  12   6    4.94    0.86
  -1 -12   6   10.95    1.08
  -1  12   6   10.17    1.05
   0 -12  -6    1.00    0.61
   0 -12   6    1.49    0.58
   0  12   6    1.80    0.70
  -1 -12  -6    3.05    0.77
   1 -12   6    2.66    0.67
  -3 -13   6    1.95    0.72
  -3  13   6    1.13    0.66
  -2 -13   6    2.74    0.72
  -2  13   6    4.74    0.85
  -1 -13   6    3.66    0.73
  -1  13   6    4.52    0.84
   0 -13  -6    2.40    0.69
   0 -13   6    3.76    0.72
   0  13   6    3.31    0.81
  -1 -13  -6    5.66    0.92
   1 -13   6    5.66    0.89
  -3 -14   6    1.68    0.70
  -3  14   6    2.08    0.72
  -2 -14   6    2.42    0.72
  -2  14   6    3.71    0.80
  -1 -14   6   10.25    1.10
  -1  14   6    8.48    1.08
   0 -14  -6    1.46    0.64
   0 -14   6    0.82    0.60
   0  14   6    1.62    0.70
  -1 -14  -6    3.42    0.85
   1 -14   6    4.61    0.88
  -3 -15   6    1.55    0.69
  -3  15   6    2.07    0.77
  -2 -15   6    2.18    0.67
  -2  15   6    3.02    0.78
  -1 -15   6    4.90    0.81
  -1  15   6    4.28    0.91
   0 -15   6    2.73    0.74
   0 -15  -6    2.67    0.76
   0  15   6    2.86    0.77
   1 -15   6    4.99    0.96
  -1 -15  -6    4.99    0.93
  -2 -16   6    0.55    0.58
  -2  16   6    1.06    0.67
  -1 -16   6    6.16    0.93
  -1  16   6    7.81    1.08
   0 -16  -6    2.81    0.79
   0 -16   6    3.35    0.79
   0  16   6    2.56    0.80
   1 -16   6    3.34    0.82
  -2  17   6    0.30    0.66
  -1 -17   6    2.87    0.75
  -1  17   6    3.81    0.86
   0 -17  -6    0.72    0.69
   0 -17   6    0.65    0.64
   0  17   6    0.61    0.67
  -1  18   6    9.26    1.15
   0 -18   6    1.30    0.67
   0 -18  -6    1.08    0.68
   0  18   6    1.63    0.80
  -4   0   7    0.43    0.65
  -2   0   7    0.09    0.56
  -1   0   7   -0.01    0.50
  -4  -1   7    0.39    0.64
  -4   1   7    0.09    0.60
  -3  -1   7    3.61    0.87
  -3   1   7    4.13    0.83
  -2   1   7    3.71    0.79
  -1  -1   7    0.16    0.53
  -1   1   7    0.57    0.58
  -1  -1  -7    3.34    0.86
  -4  -2   7   -0.27    0.61
  -4   2   7   -0.02    0.59
  -3  -2   7    0.37    0.62
  -3   2   7    0.16    0.56
  -2  -2   7    0.52    0.60
  -2   2   7    0.09    0.57
  -1   2   7    0.42    0.54
   1  -2   7    4.77    0.82
  -1  -2  -7    2.90    0.83
  -4  -3   7    0.43    0.62
  -3  -3   7    1.51    0.66
  -3   3   7    1.53    0.71
  -2  -3   7    4.74    0.82
  -2   3   7    6.62    0.98
  -1  -3   7    0.67    0.58
  -1   3   7    0.60    0.56
  -1  -3  -7    2.14    0.78
   1  -3   7    2.36    0.71
  -4  -4   7   -0.03    0.57
  -3  -4   7    0.89    0.62
  -3   4   7    0.84    0.62
  -2  -4   7    0.20    0.60
  -2   4   7    0.37    0.55
  -1  -4   7   -0.27    0.54
  -1   4   7    1.97    0.68
   1  -4   7    3.91    0.78
  -1  -4  -7    6.09    0.96
  -4  -5   7   -0.89    0.55
  -3  -5   7    2.73    0.75
  -3   5   7    2.43    0.71
  -2  -5   7    5.45    0.87
  -2   5   7    6.60    0.96
  -1  -5   7    1.02    0.64
  -1   5   7    0.04    0.52
  -1  -5  -7    2.15    0.78
   1  -5   7    1.66    0.68
  -4  -6   7   -0.13    0.59
  -3  -6   7    0.54    0.63
  -3   6   7    0.65    0.60
  -2  -6   7    0.39    0.58
  -2   6   7    0.36    0.59
  -1  -6   7    1.49    0.66
  -1   6   7    1.49    0.62
  -1  -6  -7    4.63    0.91
   1  -6   7    3.50    0.79
  -3  -7   7    4.85    0.86
  -3   7   7    4.37    0.83
  -2  -7   7    5.05    0.86
  -2   7   7    5.18    0.89
  -1  -7   7    0.74    0.62
  -1   7   7    1.79    0.67
  -1  -7  -7    2.22    0.75
   1  -7   7    1.47    0.65
  -3  -8   7    1.55    0.70
  -3   8   7    0.50    0.58
  -2  -8   7    0.80    0.61
  -2   8   7    1.50    0.66
  -1  -8   7    1.04    0.63
  -1   8   7    1.17    0.64
  -1  -8  -7    3.78    0.91
   1  -8   7    2.52    0.71
  -3  -9   7    3.52    0.80
  -3   9   7    3.85    0.89
  -2  -9   7    2.81    0.74
  -2   9   7    3.35    0.87
  -1  -9   7   -0.07    0.58
  -1   9   7    0.48    0.59
  -1  -9  -7    0.56    0.72
   1  -9   7    0.79    0.66
  -3 -10   7    1.01    0.70
  -2 -10   7    0.11    0.60
  -2  10   7   -0.53    0.52
  -1 -10   7   -0.20    0.56
  -1  10   7    0.23    0.56
  -2 -11   7    4.42    0.87
  -2  11   7    3.14    0.80
  -1 -11   7    0.24    0.60
  -1  11   7    0.61    0.61
  -2 -12   7    0.44    0.67
  -2  12   7    0.25    0.60
  -1 -12   7   -0.19    0.57
  -1  12   7    0.48    0.65
  -1  13   7    1.42    0.74
   0   0   0    0.00    0.00
;
_shelx_hkl_checksum              83950
#END Tags that were not found in dictionaries
loop_
_space_group_symop_operation_xyz
'x, y, z'
'-x, y+1/2, -z'
loop_
_atom_site_type_symbol
_atom_site_label
_atom_site_fract_x
_atom_site_fract_y
_atom_site_fract_z
_atom_site_U_iso_or_equiv
_atom_site_adp_type
_atom_site_calc_flag
_atom_site_refinement_flags_adp
_atom_site_refinement_flags_posn
_atom_site_occupancy
Ag Ag1 0.20977(13) 0.85734(3) 0.43742(12) 0.03661(18) Uani d . . 1
Ag Ag2 -0.43052(14) 0.86745(3) -0.00758(12) 0.03688(18) Uani d . . 1
C C1 -0.0239(17) 0.7562(4) 0.0337(14) 0.0241(16) Uani d . . 1
C C2 0.1411(19) 0.6952(4) 0.1469(16) 0.0272(17) Uani d . . 1
H H2A 0.3062 0.6898 0.0765 0.033 Uiso calc U R 1
H H2B 0.0229 0.6558 0.1053 0.033 Uiso calc U R 1
C C3 0.2376(15) 0.7006(4) 0.4275(14) 0.0181(15) Uani d . . 1
H H3 0.07 0.7047 0.4984 0.022 Uiso calc U R 1
C C4 0.3991(15) 0.6368(4) 0.5270(14) 0.0210(14) Uani d . . 1
C C5 0.3833(16) 0.5246(4) 0.6915(14) 0.0203(15) Uani d . . 1
H H5 0.558 0.5199 0.631 0.024 Uiso calc U R 1
C C6 0.4662(19) 0.5257(4) 0.9726(16) 0.0265(17) Uani d . . 1
H H6A 0.5787 0.5654 1.0269 0.032 Uiso calc U R 1
H H6B 0.2958 0.5281 1.0372 0.032 Uiso calc U R 1
C C7 0.1899(16) 0.4654(4) 0.5909(15) 0.0233(16) Uani d . . 1
N N1 0.4160(14) 0.7598(3) 0.4941(13) 0.0241(14) Uani d . . 1
H H1A 0.5628 0.7588 0.4002 0.029 Uiso calc U R 1
H H1B 0.51 0.7562 0.6676 0.029 Uiso calc U R 1
N N2 0.2484(13) 0.5876(3) 0.5949(13) 0.0234(14) Uani d . . 1
H H2 0.0689 0.5928 0.5819 0.028 Uiso calc U R 1
N N3 0.6299(16) 0.4659(4) 1.0728(13) 0.0288(16) Uani d . . 1
H H3A 0.6914 0.4718 1.2504 0.035 Uiso calc U R 1
H H3B 0.7997 0.465 1.0071 0.035 Uiso calc U R 1
O O1 0.0585(16) 0.7893(4) -0.1266(13) 0.052(2) Uani d . . 1
O O2 -0.2402(14) 0.7716(4) 0.1118(14) 0.0434(18) Uani d . . 1
O O3 0.6572(12) 0.6321(3) 0.5357(15) 0.0430(18) Uani d . . 1
O O4 0.2603(18) 0.4288(4) 0.4363(16) 0.063(3) Uani d . . 1
O O5 -0.0243(13) 0.4566(4) 0.6757(13) 0.0391(16) Uani d . . 1
loop_
_atom_site_aniso_label
_atom_site_aniso_U_11
_atom_site_aniso_U_22
_atom_site_aniso_U_33
_atom_site_aniso_U_12
_atom_site_aniso_U_13
_atom_site_aniso_U_23
Ag1 0.0397(3) 0.0178(3) 0.0451(4) 0.0091(3) -0.0054(3) -0.0047(3)
Ag2 0.0417(3) 0.0232(3) 0.0401(3) 0.0086(3) -0.0027(3) -0.0053(3)
C1 0.025(4) 0.023(4) 0.022(4) 0.004(3) -0.002(3) -0.006(3)
C2 0.030(4) 0.020(4) 0.029(4) 0.004(3) 0.000(3) -0.005(3)
C3 0.015(3) 0.012(4) 0.028(4) 0.003(2) 0.006(3) 0.004(3)
C4 0.018(3) 0.015(3) 0.028(4) 0.005(3) 0.001(3) 0.004(3)
C5 0.017(3) 0.012(3) 0.030(4) 0.000(3) 0.001(3) 0.005(3)
C6 0.031(4) 0.016(4) 0.029(4) 0.001(3) 0.001(4) 0.000(3)
C7 0.021(4) 0.018(4) 0.029(4) 0.001(3) 0.002(3) 0.001(3)
N1 0.023(3) 0.017(3) 0.028(3) -0.001(3) -0.003(3) 0.001(3)
N2 0.018(3) 0.017(3) 0.037(4) 0.004(2) 0.008(3) 0.010(3)
N3 0.032(4) 0.025(4) 0.025(3) -0.002(3) -0.003(3) 0.006(3)
O1 0.052(5) 0.070(6) 0.040(4) 0.018(4) 0.022(4) 0.024(4)
O2 0.035(3) 0.036(4) 0.066(5) 0.014(3) 0.027(3) 0.023(4)
O3 0.016(3) 0.026(3) 0.090(5) 0.005(2) 0.019(3) 0.024(3)
O4 0.064(5) 0.065(6) 0.067(6) -0.024(4) 0.029(5) -0.043(4)
O5 0.025(3) 0.031(4) 0.063(5) -0.010(3) 0.016(3) -0.012(3)
loop_
_atom_type_symbol
_atom_type_description
_atom_type_scat_dispersion_real
_atom_type_scat_dispersion_imag
_atom_type_scat_source
C C 0.0033 0.0016 'International Tables Vol C Tables 4.2.6.8 and 6.1.1.4'
H H 0.0000 0.0000 'International Tables Vol C Tables 4.2.6.8 and 6.1.1.4'
N N 0.0061 0.0033 'International Tables Vol C Tables 4.2.6.8 and 6.1.1.4'
O O 0.0106 0.0060 'International Tables Vol C Tables 4.2.6.8 and 6.1.1.4'
Ag Ag -0.8971 1.1015 'International Tables Vol C Tables 4.2.6.8 and 6.1.1.4'
loop_
_geom_angle_atom_site_label_1
_geom_angle_atom_site_label_2
_geom_angle_atom_site_label_3
_geom_angle_site_symmetry_1
_geom_angle_site_symmetry_3
_geom_angle
N1 Ag1 O5 . 2_556 170.8(3)
N1 Ag1 Ag2 . 1_656 77.54(18)
O5 Ag1 Ag2 2_556 1_656 108.5(2)
N1 Ag1 Ag2 . 1_655 82.12(19)
O5 Ag1 Ag2 2_556 1_655 88.92(17)
Ag2 Ag1 Ag2 1_656 1_655 116.79(3)
O2 Ag2 N3 . 2_556 171.6(3)
O2 Ag2 Ag1 . 1_454 110.0(2)
N3 Ag2 Ag1 2_556 1_454 76.82(19)
O2 Ag2 Ag1 . 1_455 88.64(17)
N3 Ag2 Ag1 2_556 1_455 83.8(2)
Ag1 Ag2 Ag1 1_454 1_455 116.79(3)
O1 C1 O2 . . 122.8(9)
O1 C1 C2 . . 120.1(8)
O2 C1 C2 . . 117.1(8)
C1 C2 C3 . . 112.3(7)
C1 C2 H2A . . 109.1
C3 C2 H2A . . 109.1
C1 C2 H2B . . 109.1
C3 C2 H2B . . 109.1
H2A C2 H2B . . 107.9
N1 C3 C2 . . 110.0(6)
N1 C3 C4 . . 111.0(6)
C2 C3 C4 . . 108.9(6)
N1 C3 H3 . . 109.0
C2 C3 H3 . . 109.0
C4 C3 H3 . . 109.0
O3 C4 N2 . . 123.0(7)
O3 C4 C3 . . 120.2(7)
N2 C4 C3 . . 116.8(6)
N2 C5 C6 . . 110.9(6)
N2 C5 C7 . . 110.1(6)
C6 C5 C7 . . 112.5(7)
N2 C5 H5 . . 107.7
C6 C5 H5 . . 107.7
C7 C5 H5 . . 107.7
N3 C6 C5 . . 111.8(7)
N3 C6 H6A . . 109.3
C5 C6 H6A . . 109.3
N3 C6 H6B . . 109.3
C5 C6 H6B . . 109.3
H6A C6 H6B . . 107.9
O4 C7 O5 . . 124.3(9)
O4 C7 C5 . . 118.1(8)
O5 C7 C5 . . 117.6(7)
C3 N1 Ag1 . . 117.5(5)
C3 N1 H1A . . 107.9
Ag1 N1 H1A . . 107.9
C3 N1 H1B . . 107.9
Ag1 N1 H1B . . 107.9
H1A N1 H1B . . 107.2
C4 N2 C5 . . 120.8(6)
C4 N2 H2 . . 119.6
C5 N2 H2 . . 119.6
C6 N3 Ag2 . 2_546 119.2(6)
C6 N3 H3A . . 107.5
Ag2 N3 H3A 2_546 . 107.5
C6 N3 H3B . . 107.5
Ag2 N3 H3B 2_546 . 107.5
H3A N3 H3B . . 107.0
C1 O2 Ag2 . . 116.2(6)
C7 O5 Ag1 . 2_546 109.8(6)
loop_
_geom_bond_atom_site_label_1
_geom_bond_atom_site_label_2
_geom_bond_site_symmetry_2
_geom_bond_distance
Ag1 N1 . 2.176(7)
Ag1 O5 2_556 2.207(7)
Ag1 Ag2 1_656 3.1829(10)
Ag1 Ag2 1_655 3.3294(10)
Ag2 O2 . 2.160(7)
Ag2 N3 2_556 2.182(8)
Ag2 Ag1 1_454 3.1829(10)
Ag2 Ag1 1_455 3.3294(10)
C1 O1 . 1.243(11)
C1 O2 . 1.256(10)
C1 C2 . 1.511(12)
C2 C3 . 1.525(11)
C2 H2A . 0.97
C2 H2B . 0.97
C3 N1 . 1.461(10)
C3 C4 . 1.530(10)
C3 H3 . 0.98
C4 O3 . 1.241(9)
C4 N2 . 1.326(10)
C5 N2 . 1.461(9)
C5 C6 . 1.520(11)
C5 C7 . 1.530(11)
C5 H5 . 0.98
C6 N3 . 1.470(11)
C6 H6A . 0.97
C6 H6B . 0.97
C7 O4 . 1.232(10)
C7 O5 . 1.242(10)
N1 H1A . 0.97
N1 H1B . 0.97
N2 H2 . 0.86
N3 Ag2 2_546 2.182(8)
N3 H3A . 0.97
N3 H3B . 0.97
O5 Ag1 2_546 2.207(7)
