#------------------------------------------------------------------------------
#$Date: 2016-03-24 14:28:49 +0200 (Thu, 24 Mar 2016) $
#$Revision: 179665 $
#$URL: svn://www.crystallography.net/cod/cif/4/51/18/4511868.cif $
#------------------------------------------------------------------------------
#
# This file is available in the Crystallography Open Database (COD),
# http://www.crystallography.net/
#
# All data on this site have been placed in the public domain by the
# contributors.
#
data_4511868
loop_
_publ_author_name
'Miyake, Ryosuke'
'Nakagawa, Yuki'
'Hase, Mariko'
_publ_section_title
;
 Selective Thermal Elongation of Metal--Metal Distances in the
 Two-Dimensional Assembly of Ag(I) Ions Templated by Assembled Peptide
 Ligands
;
_journal_issue                   10
_journal_name_full               'Crystal Growth &amp; Design'
_journal_page_first              4882
_journal_paper_doi               10.1021/cg5009347
_journal_volume                  14
_journal_year                    2014
_chemical_absolute_configuration ad
_chemical_formula_sum            'C7 H11 Ag2 N3 O5'
_chemical_formula_weight         432.93
_space_group_crystal_system      monoclinic
_space_group_IT_number           4
_space_group_name_Hall           'P 2yb'
_space_group_name_H-M_alt        'P 1 21 1'
_symmetry_space_group_name_Hall  'P 2yb'
_symmetry_space_group_name_H-M   'P 1 21 1'
_atom_sites_solution_hydrogens   geom
_cell_angle_alpha                90
_cell_angle_beta                 103.141(2)
_cell_angle_gamma                90
_cell_formula_units_Z            2
_cell_length_a                   4.8255(6)
_cell_length_b                   19.958(3)
_cell_length_c                   5.5336(7)
_cell_measurement_temperature    223
_cell_volume                     518.97(12)
_computing_cell_refinement       'SAINT V8.32B (Bruker AXS)'
_computing_data_collection       'Bruker SMART APEXII ULTRA'
_computing_data_reduction        'SAINT V8.32B (Bruker AXS)'
_computing_molecular_graphics    'XSHELL V6.3.1 (Bruker AXS)'
_computing_publication_material  'Generate Report (Bruker AXS)'
_computing_structure_refinement  'SHELXL-2013 (Sheldrick, 2013)'
_computing_structure_solution    'SHELXS-97 (Sheldrick, 1997)'
_diffrn_ambient_temperature      223
_diffrn_detector_area_resol_mean 8.333
_diffrn_measured_fraction_theta_full 0.989
_diffrn_measured_fraction_theta_max 0.989
_diffrn_measurement_device_type  'Bruker D8 goniometer'
_diffrn_measurement_method       'omega scans'
_diffrn_radiation_monochromator  'multilayered conforcal mirror'
_diffrn_radiation_type           MoK\a
_diffrn_radiation_wavelength     0.71073
_diffrn_reflns_av_R_equivalents  0.0172
_diffrn_reflns_limit_h_max       6
_diffrn_reflns_limit_h_min       -5
_diffrn_reflns_limit_k_max       22
_diffrn_reflns_limit_k_min       -27
_diffrn_reflns_limit_l_max       7
_diffrn_reflns_limit_l_min       -7
_diffrn_reflns_number            3598
_diffrn_reflns_theta_full        29.12
_diffrn_reflns_theta_max         29.12
_diffrn_reflns_theta_min         2.04
_diffrn_source                   'rotating-anode X-ray tube'
_diffrn_source_type              'Bruker Tourbo X-ray Source'
_exptl_absorpt_coefficient_mu    3.788
_exptl_absorpt_correction_T_max  0.96
_exptl_absorpt_correction_T_min  0.82
_exptl_absorpt_correction_type   empirical
_exptl_absorpt_process_details   'SADABS V2012/1 (Bruker AXS)'
_exptl_crystal_colour            colorless
_exptl_crystal_density_diffrn    2.770
_exptl_crystal_density_method    'not measured'
_exptl_crystal_description       plate
_exptl_crystal_F_000             416
_exptl_crystal_size_max          0.055
_exptl_crystal_size_mid          0.023
_exptl_crystal_size_min          0.010
_refine_diff_density_max         1.502
_refine_diff_density_min         -1.016
_refine_ls_abs_structure_details
;
Flack x determined using 876 quotients [(I+)-(I-)]/[(I+)+(I-)]
(Parsons and Flack (2004), Acta Cryst. A60, s61).
;
_refine_ls_abs_structure_Flack   0.05(3)
_refine_ls_extinction_method     none
_refine_ls_goodness_of_fit_ref   1.052
_refine_ls_hydrogen_treatment    constr
_refine_ls_matrix_type           full
_refine_ls_number_parameters     154
_refine_ls_number_reflns         2250
_refine_ls_number_restraints     1
_refine_ls_restrained_S_all      1.052
_refine_ls_R_factor_all          0.0301
_refine_ls_R_factor_gt           0.0266
_refine_ls_shift/su_max          0.000
_refine_ls_shift/su_mean         0.000
_refine_ls_structure_factor_coef Fsqd
_refine_ls_weighting_details
'w=1/[\s^2^(Fo^2^)+(0.0260P)^2^+0.6249P] where P=(Fo^2^+2Fc^2^)/3'
_refine_ls_weighting_scheme      calc
_refine_ls_wR_factor_gt          0.0584
_refine_ls_wR_factor_ref         0.0600
_reflns_number_gt                2099
_reflns_number_total             2250
_reflns_threshold_expression     'I > 2\s(I)'
_cod_data_source_file            cg5009347_si_001.cif
_cod_data_source_block           p21_223K_again
_cod_depositor_comments
'Adding full bibliography for 4511859--4511871.cif.'
_cod_original_cell_volume        518.97(11)
_cod_database_code               4511868
#BEGIN Tags that were not found in dictionaries:
_shelx_res_file
;
TITL p21(-50) in P2(1)
CELL 0.71073   4.82550  19.95810   5.53360  90.0000 103.1406  90.0000
ZERR    2.00   0.00060   0.00250   0.00070   0.0000   0.0020   0.0000
LATT -1
SYMM -X, 0.5+Y, -Z
SFAC C  H  N  O  Ag
UNIT 14  22  6  10  4
L.S. 10
SHEL 20 0.73
ACTA
BOND $h
FMAP 2
PLAN 20
size 0.055 0.023 0.010
TEMP -50
WGHT    0.026000    0.624900
FVAR       0.18930
AG1   5    0.211708    0.857580    0.432327    11.00000    0.03014    0.01386 =
         0.03404   -0.00328   -0.00206    0.00622
AG2   5   -0.434741    0.867135   -0.007946    11.00000    0.03208    0.01881 =
         0.03045   -0.00375   -0.00046    0.00664
C1    1   -0.022190    0.756073    0.027454    11.00000    0.01990    0.02007 =
         0.01725   -0.00445   -0.00412    0.00187
C2    1    0.141558    0.694704    0.146391    11.00000    0.02028    0.01844 =
         0.02389   -0.00330    0.00257    0.00102
AFIX  23
H2A   2    0.020128    0.655056    0.105530    11.00000   -1.20000
H2B   2    0.308478    0.688302    0.075855    11.00000   -1.20000
AFIX   0
C3    1    0.238911    0.700367    0.427008    11.00000    0.01236    0.01167 =
         0.02002    0.00271    0.00524    0.00196
AFIX  13
H3    2    0.069773    0.704318    0.499186    11.00000   -1.20000
AFIX   0
C4    1    0.402704    0.637122    0.527070    11.00000    0.01366    0.01382 =
         0.02363    0.00393    0.00508    0.00426
C5    1    0.386796    0.524687    0.692853    11.00000    0.01484    0.01089 =
         0.02555    0.00282    0.00568   -0.00024
AFIX  13
H5    2    0.563806    0.520060    0.632373    11.00000   -1.20000
AFIX   0
C6    1    0.469115    0.525873    0.975698    11.00000    0.02562    0.01313 =
         0.02743   -0.00067    0.00456    0.00015
AFIX  23
H6A   2    0.582015    0.566116    1.031325    11.00000   -1.20000
H6B   2    0.296460    0.527926    1.040526    11.00000   -1.20000
AFIX   0
C7    1    0.193702    0.465570    0.591610    11.00000    0.01455    0.01536 =
         0.02036   -0.00019    0.00048    0.00103
N1    3    0.417802    0.760209    0.493096    11.00000    0.01915    0.01285 =
         0.02434    0.00092   -0.00091   -0.00036
AFIX  23
H1A   2    0.566939    0.758909    0.398957    11.00000   -1.20000
H1B   2    0.512253    0.756911    0.669268    11.00000   -1.20000
AFIX   0
N2    3    0.250747    0.587904    0.595688    11.00000    0.01158    0.01608 =
         0.03229    0.00931    0.00832    0.00399
AFIX  43
H2    2    0.069053    0.593297    0.582762    11.00000   -1.20000
AFIX   0
N3    3    0.634711    0.466049    1.075097    11.00000    0.02493    0.02126 =
         0.02070    0.00425    0.00084    0.00123
AFIX  23
H3A   2    0.697830    0.471821    1.255116    11.00000   -1.20000
H3B   2    0.805967    0.465443    1.008007    11.00000   -1.20000
AFIX   0
O1    4    0.060075    0.788813   -0.130042    11.00000    0.04284    0.05428 =
         0.03223    0.02292    0.01757    0.01502
O2    4   -0.242619    0.771482    0.108913    11.00000    0.02839    0.02952 =
         0.05382    0.01732    0.02253    0.01153
O3    4    0.660747    0.632504    0.538158    11.00000    0.01258    0.02029 =
         0.07837    0.02136    0.01497    0.00528
O4    4    0.262167    0.428799    0.433632    11.00000    0.04222    0.06024 =
         0.05427   -0.03246    0.02222   -0.01576
O5    4   -0.022003    0.456281    0.678332    11.00000    0.01865    0.02652 =
         0.04915   -0.00853    0.01295   -0.00904
HKLF 4

REM  p21(-50) in P2(1)
REM R1 =  0.0266 for    2099 Fo > 4sig(Fo)  and  0.0301 for all    2250 data
REM    154 parameters refined using      1 restraints

END

WGHT      0.0259      0.6310

REM Highest difference peak  1.502,  deepest hole -1.016,  1-sigma level  0.115
Q1    1   0.0973  0.8501  0.4997  11.00000  0.05    1.50
Q2    1  -0.3012  0.8751 -0.0803  11.00000  0.05    1.21
Q3    1  -0.2320  0.8634  0.2734  11.00000  0.05    0.49
Q4    1   0.2414  0.8617  0.2381  11.00000  0.05    0.48
Q5    1   0.1387  0.4554  0.3988  11.00000  0.05    0.46
Q6    1  -0.5977  0.8594 -0.0528  11.00000  0.05    0.45
Q7    1   0.8779  0.7762  0.5790  11.00000  0.05    0.45
Q8    1   0.0746  0.8801 -0.1413  11.00000  0.05    0.45
Q9    1  -0.3740  0.8620  0.0918  11.00000  0.05    0.45
Q10   1   0.8899  0.3783  0.9324  11.00000  0.05    0.45
Q11   1   0.3139  0.8607  0.4626  11.00000  0.05    0.44
Q12   1  -0.2584  0.8972  0.1272  11.00000  0.05    0.43
Q13   1  -0.0740  0.7707 -0.1874  11.00000  0.05    0.42
Q14   1   0.9034  0.4072  1.0766  11.00000  0.05    0.41
Q15   1  -0.5394  0.8519 -0.2213  11.00000  0.05    0.40
Q16   1  -0.4313  0.8611  0.1800  11.00000  0.05    0.40
Q17   1   0.2234  0.8419  0.3753  11.00000  0.05    0.39
Q18   1  -0.1140  0.8444 -0.1378  11.00000  0.05    0.38
Q19   1   0.1651  0.8616  0.3566  11.00000  0.05    0.37
Q20   1   0.1302  0.4258  0.7672  11.00000  0.05    0.37
;
_shelx_res_checksum              42781
_shelx_hkl_file
;
   1   0   0  131.47    2.23
   1   0   0  135.67    2.27
   2   0   0   18.56    0.65
   2   0   0   16.49    0.58
   3   0   0   33.59    1.03
   3   0   0   34.46    1.09
   4   0   0   18.33    0.99
   4   0   0   18.86    0.93
   5   0   0   62.75    2.00
   6   0   0   12.48    1.19
   0  -1   0   -1.41    0.01
   0   1   0   -1.40    0.02
   1  -1   0   90.88    1.55
   1  -1   0   90.26    1.57
   1   1   0   85.88    1.54
   1   1   0   86.08    1.57
   2  -1   0  224.19    3.84
   2  -1   0  218.95    3.77
   2   1   0  217.94    3.78
   2   1   0  225.61    3.85
   3  -1   0  123.92    2.46
   3  -1   0  122.25    2.54
   3   1   0  125.60    2.58
   3   1   0  124.00    2.46
   4  -1   0   10.65    0.78
   4  -1   0    9.95    0.81
   4   1   0    8.56    0.75
   5  -1   0    8.10    0.85
   5   1   0    8.36    0.89
   6  -1   0   21.17    1.34
   6   1   0   19.71    1.34
   0  -2   0  932.37   17.97
   1  -2   0   43.14    0.90
   1  -2   0   42.13    0.89
  -1  -2   0   43.87    0.88
   1   2   0   45.85    0.91
   1   2   0   47.47    0.88
   2  -2   0    1.53    0.26
   2  -2   0    1.78    0.27
   2   2   0    2.05    0.28
   3  -2   0   87.42    1.89
   3  -2   0   84.58    1.94
   3   2   0   87.71    1.97
   4  -2   0   17.23    0.91
   4  -2   0   16.97    0.95
   4   2   0   18.21    0.96
   5  -2   0   35.11    1.47
   5   2   0   33.47    1.45
   6  -2   0    5.64    0.87
   6   2   0    4.80    0.84
   0  -3   0   -0.48    0.09
   1  -3   0   59.90    1.18
   1  -3   0   58.79    1.14
  -1  -3   0   61.87    1.16
   1   3   0   60.17    1.17
   1   3   0   61.51    1.18
  -2  -3   0  174.31    3.01
   2  -3   0  172.07    3.04
   2  -3   0  170.29    3.06
   2   3   0  165.79    3.06
   2   3   0  176.60    3.09
  -3  -3   0  209.03    3.78
   3  -3   0  210.12    3.92
   3  -3   0  214.05    3.85
   3   3   0  214.03    3.94
   4  -3   0    2.81    0.50
   4  -3   0    3.78    0.57
  -4  -3   0    2.76    0.40
   4   3   0    3.08    0.52
   5  -3   0    4.58    0.72
   5   3   0    5.30    0.74
   6  -3   0   19.80    1.33
   6   3   0   22.63    1.41
   0  -4   0  399.38    6.46
  -1  -4   0  144.02    2.48
   1  -4   0  141.42    2.43
   1  -4   0  139.63    2.49
   1   4   0  146.96    2.60
   1   4   0  142.90    2.46
   2  -4   0   25.85    0.81
  -2  -4   0   25.46    0.75
   2  -4   0   24.81    0.77
   2   4   0   26.91    0.68
   2   4   0   27.73    0.81
   3  -4   0   69.61    1.70
  -3  -4   0   70.77    1.59
   3  -4   0   69.43    1.64
   3   4   0   68.95    1.70
   4  -4   0    5.68    0.63
   4  -4   0    6.52    0.66
  -4  -4   0    5.38    0.52
   4   4   0    5.54    0.64
   5  -4   0   18.46    1.15
   5   4   0   20.70    1.20
   6  -4   0    7.04    0.95
   6   4   0    8.34    1.02
   0  -5   0   -1.15    0.14
   1  -5   0   74.39    1.42
   1  -5   0   75.30    1.51
  -1  -5   0   75.25    1.49
   1   5   0   80.14    1.56
   1   5   0   78.31    1.46
   2  -5   0  321.26    5.24
   2  -5   0  297.40    5.15
  -2  -5   0  306.91    5.18
   2   5   0  299.95    5.39
   2   5   0  312.94    5.21
  -3  -5   0  287.27    5.05
   3  -5   0  285.68    5.08
   3  -5   0  290.02    5.13
   3   5   0  295.15    5.17
   4  -5   0    1.57    0.43
   4  -5   0    1.26    0.43
  -4  -5   0    1.22    0.34
   4   5   0    1.85    0.45
   5  -5   0    5.95    0.78
   5   5   0    5.64    0.80
   6  -5   0   19.12    1.30
   6   5   0   19.10    1.36
   0  -6   0  329.33    5.45
   1  -6   0  143.45    2.48
   1  -6   0  145.26    2.61
  -1  -6   0  142.42    2.57
   1   6   0  145.15    2.72
   1   6   0  142.17    2.51
   2  -6   0    5.53    0.42
   2  -6   0    5.42    0.47
  -2  -6   0    6.12    0.41
   2   6   0    5.73    0.35
   2   6   0    5.32    0.42
  -3  -6   0  130.89    2.62
   3  -6   0  129.80    2.68
   3  -6   0  135.07    2.69
   3   6   0  126.82    2.56
   3   6   0  136.49    2.75
   4  -6   0    5.18    0.62
   4  -6   0    4.52    0.59
  -4  -6   0    4.38    0.50
   4   6   0    4.72    0.62
   5  -6   0   18.77    1.14
   5   6   0   21.22    1.23
   6  -6   0    7.45    0.95
   6   6   0    8.32    1.03
   0  -7   0   -0.35    0.18
   1  -7   0  233.95    3.88
  -1  -7   0  236.11    4.04
   1  -7   0  233.25    4.06
  -2  -7   0  181.37    3.29
   2  -7   0  180.87    3.33
   2  -7   0  176.72    3.21
   2   7   0  176.01    3.38
   2   7   0  185.59    3.28
  -3  -7   0  317.16    5.54
   3  -7   0  322.14    5.57
   3  -7   0  319.93    5.62
   3   7   0  310.14    5.70
   3   7   0  320.71    5.64
  -4  -7   0    1.46    0.38
   4  -7   0    1.79    0.44
   4  -7   0    2.38    0.50
   4   7   0    1.61    0.46
   5  -7   0    2.83    0.62
   5   7   0    3.83    0.68
   6  -7   0   13.98    1.15
   6   7   0   15.69    1.27
   0  -8   0  671.69   10.84
   1  -8   0  185.21    3.14
   1  -8   0  184.51    3.33
  -1  -8   0  182.02    3.30
   2  -8   0   44.56    1.22
  -2  -8   0   44.23    1.17
   2  -8   0   43.91    1.11
   2   8   0   45.36    1.16
   2   8   0   44.08    1.15
   3  -8   0   51.83    1.47
  -3  -8   0   49.48    1.36
   3  -8   0   54.08    1.42
   3   8   0   49.03    1.28
   3   8   0   47.91    1.40
   4  -8   0   10.93    0.83
  -4  -8   0   10.28    0.70
   4  -8   0    9.15    0.77
   4   8   0    9.37    0.80
   5  -8   0   34.02    1.45
   5   8   0   35.12    1.52
   6  -8   0    5.35    0.84
   6   8   0    5.93    0.92
   0  -9   0   -0.06    0.22
  -1  -9   0   47.90    1.21
   1  -9   0   46.60    1.04
   1  -9   0   47.92    1.23
  -2  -9   0   42.79    1.17
   2  -9   0   42.90    1.23
   2  -9   0   41.75    1.09
   2   9   0   44.84    1.17
  -3  -9   0   84.13    1.95
   3  -9   0   83.34    2.02
   3  -9   0   81.81    1.92
   3   9   0   82.41    1.98
   4  -9   0    8.94    0.77
   4  -9   0    7.76    0.72
  -4  -9   0    7.85    0.70
   4   9   0   10.06    0.85
   5  -9   0    4.42    0.71
   5   9   0    5.20    0.76
   6  -9   0   17.34    1.23
   6   9   0   17.28    1.33
   0 -10   0  752.78   12.23
  -1 -10   0   32.90    0.99
   1 -10   0   31.12    0.81
   1 -10   0   30.27    0.99
   2 -10   0    1.99    0.41
   2 -10   0    2.71    0.33
  -2 -10   0    3.18    0.43
   2  10   0    2.72    0.38
   3 -10   0   31.82    1.21
  -3 -10   0   34.80    1.15
   3 -10   0   33.71    1.12
   3  10   0   34.71    1.18
   4 -10   0   12.50    0.92
   4 -10   0   13.41    0.88
  -4 -10   0   11.85    0.80
   4  10   0   12.53    0.88
   5 -10   0   40.33    1.59
   5  10   0   41.42    1.67
   6 -10   0    6.52    0.92
   6  10   0    6.05    0.96
   0 -11   0    0.80    0.30
   1 -11   0   62.20    1.33
   1 -11   0   62.79    1.57
  -1 -11   0   61.58    1.55
   2 -11   0   77.98    1.90
   2 -11   0   78.67    1.71
  -2 -11   0   78.99    1.87
   3 -11   0  113.03    2.45
  -3 -11   0  114.22    2.51
   3 -11   0  117.43    2.61
   3  11   0  111.48    2.50
  -4 -11   0   22.58    1.06
   4 -11   0   23.95    1.10
   4 -11   0   24.26    1.19
   4  11   0   22.52    1.14
   5 -11   0    3.04    0.63
   5  11   0    3.41    0.72
   6 -11   0   11.58    1.14
   6  11   0   14.92    1.34
   0 -12   0  697.53   11.51
  -1 -12   0   44.59    1.31
   1 -12   0   44.57    1.32
   1 -12   0   44.32    1.07
   2 -12   0   24.18    1.03
   2 -12   0   23.73    0.82
  -2 -12   0   24.49    0.96
  -3 -12   0   53.02    1.56
   3 -12   0   51.93    1.46
   3 -12   0   53.76    1.63
   3  12   0   51.11    1.51
   4 -12   0   20.46    1.15
  -4 -12   0   18.87    0.99
   4 -12   0   20.21    1.03
   4  12   0   17.52    1.03
   5 -12   0   26.15    1.30
   5  12   0   25.20    1.39
   6 -12   0    3.95    0.82
   0 -13   0    0.41    0.30
   1 -13   0   34.80    1.21
   1 -13   0   36.53    0.96
  -1 -13   0   36.11    1.21
   2 -13   0  127.72    2.82
  -2 -13   0  128.23    2.77
   2 -13   0  127.79    2.52
  -3 -13   0   88.99    2.24
   3 -13   0   92.60    2.34
   3 -13   0   91.05    2.09
   4 -13   0   27.60    1.20
  -4 -13   0   28.61    1.24
   4 -13   0   29.35    1.37
   4  13   0   28.19    1.25
   5 -13   0    1.93    0.56
   5  13   0    1.17    0.53
   0 -14   0  241.52    4.59
  -1 -14   0   45.21    1.41
   1 -14   0   42.41    1.40
   1 -14   0   42.28    1.09
  -2 -14   0   46.07    1.46
   2 -14   0   46.05    1.24
   2 -14   0   47.13    1.52
  -3 -14   0   34.52    1.30
   3 -14   0   34.85    1.39
   3 -14   0   34.33    1.16
  -4 -14   0   10.48    0.87
   4 -14   0   10.48    0.98
   4 -14   0    8.91    0.78
   5  14   0   11.66    1.09
   0 -15   0    0.06    0.33
  -1 -15   0   60.03    1.73
   1 -15   0   60.01    1.74
   1 -15   0   58.53    1.38
  -2 -15   0   56.90    1.70
   2 -15   0   56.07    1.42
   2 -15   0   56.18    1.72
   3 -15   0   88.11    2.38
   3 -15   0   87.38    2.08
  -3 -15   0   89.50    2.31
  -4 -15   0   17.04    1.05
   4 -15   0   16.01    1.05
   4 -15   0   15.14    1.14
   0 -16   0   76.61    2.05
   1 -16   0   36.15    1.35
   1 -16   0   33.32    0.98
  -1 -16   0   32.59    1.29
   2 -16   0   22.21    1.13
   2 -16   0   23.45    0.87
  -2 -16   0   24.00    1.12
   3 -16   0   36.00    1.32
   3 -16   0   36.71    1.50
  -3 -16   0   38.05    1.46
  -4 -16   0    9.68    0.97
   4 -16   0    6.61    0.87
   0 -17   0    0.82    0.41
   1 -17   0   30.04    0.95
  -1 -17   0   32.92    1.32
   1 -17   0   33.54    1.35
   2 -17   0   50.49    1.71
  -2 -17   0   49.25    1.67
  -3 -17   0   63.40    1.98
   3 -17   0   63.44    2.05
  -4 -17   0    1.97    0.58
   4 -17   0    1.46    0.60
   0 -18   0  279.21    5.42
   1 -18   0   52.42    1.77
  -1 -18   0   54.22    1.78
  -2 -18   0   15.00    0.99
   2 -18   0   14.95    1.05
   3 -18   0   20.38    1.24
  -3 -18   0   19.45    1.16
   4 -18   0    3.31    0.74
  -4 -18   0    4.39    0.75
   0 -19   0    0.58    0.43
   1 -19   0   72.99    2.19
  -1 -19   0   73.61    2.18
   2 -19   0   20.48    1.22
  -2 -19   0   20.84    1.16
   3 -19   0   54.34    1.96
  -3 -19   0   48.84    1.83
   4 -19   0   17.63    1.30
  -4 -19   0   18.54    1.24
   0 -20   0  111.30    2.85
   1 -20   0   46.00    1.74
  -1 -20   0   45.35    1.71
   2 -20   0   15.35    1.12
  -2 -20   0   13.56    1.02
   3 -20   0   18.31    1.26
  -3 -20   0   17.27    1.15
  -4 -20   0   11.95    1.23
   4 -20   0    7.18    0.97
   0 -21   0    0.49    0.47
  -1 -21   0   38.24    1.61
   1 -21   0   40.60    1.68
  -2 -21   0   10.36    1.06
   2 -21   0   10.35    1.06
   3 -21   0   24.90    1.45
  -3 -21   0   23.07    1.34
  -4 -21   0   17.72    1.25
   4 -21   0   16.86    1.37
   0 -22   0   80.10    2.45
  -1 -22   0   16.16    1.11
   1 -22   0   16.40    1.21
  -2 -22   0   13.28    1.09
   2 -22   0   11.31    1.15
  -3 -22   0   10.84    1.17
   3 -22   0    7.24    1.01
  -4 -22   0   10.02    1.15
   4 -22   0    6.43    1.00
   0 -23   0    0.64    0.53
  -1 -23   0   21.67    1.31
   1 -23   0   21.71    1.39
  -2 -23   0   16.71    1.22
   2 -23   0   16.61    1.29
   3 -23   0   26.02    1.58
  -3 -23   0   24.13    1.45
  -4 -23   0   20.61    1.39
   4 -23   0   19.37    1.51
   0 -24   0   37.92    1.77
  -1 -24   0   10.68    1.09
   1 -24   0   11.19    1.16
  -2 -24   0   15.00    1.22
   2 -24   0   16.69    1.32
   3 -24   0   18.86    1.45
  -3 -24   0   21.30    1.41
   0 -25   0    0.03    0.54
  -1 -25   0   24.55    1.48
   1 -25   0   28.58    1.62
  -2 -25   0   20.31    1.38
   2 -25   0   19.24    1.44
   3 -25   0   39.78    2.00
  -3 -25   0   42.03    1.96
   0 -26   0   36.82    1.88
   1 -26   0   25.82    1.63
  -1 -26   0   24.63    1.52
  -2 -26   0   37.69    1.83
   2 -26   0   35.31    1.89
   0 -27   0    0.58    0.66
  -1 -27   0   22.44    1.52
   1 -27   0   22.91    1.63
   6   0  -1    0.34    0.51
   5   0  -1    4.60    0.70
   4   0  -1   29.01    1.16
   3   0  -1    1.08    0.30
   2   0  -1  675.62   10.78
   1   0  -1   75.92    1.40
   0   0   1   13.25    0.39
   1   0   1  239.49    4.03
   1   0   1  236.92    3.93
   2   0   1  305.30    5.23
   2   0   1  300.42    5.14
   3   0   1   19.17    0.85
   3   0   1   17.25    0.87
   4   0   1    1.58    0.50
   4   0   1    2.94    0.65
   5   0   1   10.70    1.01
   5   0   1   10.63    1.04
   6   0   1    1.40    0.63
   6  -1  -1    1.32    0.58
   6   1  -1    1.84    0.60
   5  -1  -1   79.53    2.26
   5   1  -1   81.21    2.30
   4  -1  -1   86.35    2.12
   4   1  -1   83.71    2.10
   4   1  -1   80.63    1.87
   3  -1  -1   12.50    0.66
   3   1  -1   12.51    0.67
   2  -1  -1   94.90    1.89
   2   1  -1   95.64    1.88
   1  -1  -1  455.01    7.19
   1   1  -1  451.02    7.16
   0  -1   1   84.85    1.51
   0   1   1   85.06    1.51
   1  -1   1  200.36    3.44
   1  -1   1  206.25    3.34
   1   1   1  196.14    3.37
   1   1   1  196.66    3.44
   2  -1   1    2.60    0.32
   2  -1   1    2.67    0.38
   2   1   1    2.10    0.31
   2   1   1    2.56    0.38
   3  -1   1   25.69    1.02
   3  -1   1   26.00    0.97
   3   1   1   24.66    1.03
   3   1   1   24.60    0.97
   4  -1   1  165.47    3.51
   4  -1   1  170.14    3.59
   4   1   1  170.93    3.57
   4   1   1  164.11    3.54
   5  -1   1   16.73    1.20
   5  -1   1   16.42    1.14
   5   1   1   14.70    1.11
   6  -1   1    2.30    0.72
   6   1   1    2.51    0.72
   6  -2  -1    1.30    0.61
   6   2  -1    2.02    0.66
   5  -2  -1    2.19    0.61
   5   2  -1    2.80    0.61
   4  -2  -1   43.38    1.45
   4   2  -1   44.73    1.45
   4   2  -1   43.06    1.21
   3  -2  -1    6.00    0.51
   3   2  -1    5.27    0.50
   3   2  -1    5.35    0.40
   2  -2  -1  284.52    4.87
   2   2  -1  292.22    4.85
   1  -2  -1  291.59    4.88
   1   2  -1  310.14    4.83
   0  -2  -1   45.20    0.90
   0  -2   1   44.79    0.92
   1  -2   1  540.37    8.78
   1  -2   1  528.58    8.59
   1   2   1  563.51    8.69
   1   2   1  548.01    8.78
   2  -2   1  208.16    3.69
   2  -2   1  211.09    3.79
   2   2   1  210.04    3.80
   2   2   1  211.33    3.75
   3  -2   1   46.34    1.41
   3  -2   1   46.03    1.34
   3   2   1   46.93    1.38
   3   2   1   46.50    1.39
   4  -2   1   11.32    0.93
   4  -2   1   10.87    0.84
   4   2   1    8.86    0.81
   5  -2   1    5.69    0.80
   5  -2   1    6.56    0.87
  -5  -2  -1    3.68    0.60
   5   2   1    7.74    0.89
   6  -2   1    9.92    1.06
   6   2   1   11.51    1.16
   6  -3  -1    1.30    0.61
   6   3  -1    1.74    0.62
   5  -3  -1   22.11    1.19
   5   3  -1   21.22    1.16
   4  -3  -1   79.14    2.04
   4   3  -1   75.85    2.01
   3  -3  -1    8.88    0.59
   3   3  -1    9.90    0.51
   3   3  -1    9.79    0.59
   2  -3  -1  103.60    2.00
   2   3  -1   96.72    2.02
   2   3  -1   99.67    1.96
   1  -3  -1  396.40    6.32
   1   3  -1  391.48    6.32
   1   3  -1  391.65    6.79
   0  -3   1    3.40    0.27
   0  -3  -1    3.96    0.26
   1  -3   1  401.70    6.58
   1  -3   1  397.60    6.35
   2  -3   1   12.53    0.65
   2  -3   1   11.27    0.53
   2   3   1   12.22    0.58
   2   3   1   12.03    0.63
   3  -3   1   15.51    0.86
   3  -3   1   14.60    0.75
   3   3   1   15.39    0.78
   4  -3   1  128.03    2.87
   4  -3   1  127.97    2.95
   4   3   1  124.43    2.91
   5  -3   1    5.02    0.81
   5  -3   1    4.95    0.74
  -5  -3  -1    5.63    0.72
   5   3   1    5.26    0.79
   6  -3   1    1.63    0.67
   6   3   1    2.26    0.72
   6  -4  -1    0.24    0.54
   6   4  -1    0.80    0.59
   5  -4  -1    4.11    0.67
   5   4  -1    4.70    0.69
   4  -4  -1   36.04    1.32
   4   4  -1   34.70    1.07
   4   4  -1   37.02    1.33
   3  -4  -1    6.04    0.53
   3   4  -1    6.38    0.55
   3   4  -1    4.40    0.39
   2  -4  -1  330.95    5.61
   2   4  -1  340.43    5.56
   2   4  -1  331.47    5.93
  -1  -4   1   65.36    1.23
   1  -4  -1   63.39    1.21
   1  -4  -1   65.81    1.30
   1   4  -1   63.08    1.37
   1   4  -1   62.49    1.18
   0  -4  -1   34.57    0.79
   0  -4   1   33.21    0.81
   0   4  -1   33.79    0.83
  -1  -4  -1  475.05    7.72
   1  -4   1  484.11    7.79
   1  -4   1  467.16    7.50
   2  -4   1  273.87    4.66
   2  -4   1  274.35    4.80
  -2  -4  -1  266.74    4.73
   2   4   1  275.76    4.75
   3  -4   1    9.29    0.72
   3  -4   1    7.91    0.62
  -3  -4  -1    8.74    0.60
   3   4   1    8.22    0.64
   4  -4   1    8.27    0.82
   4  -4   1    5.99    0.68
  -4  -4  -1    6.64    0.67
   4   4   1    7.52    0.75
   5  -4   1    1.94    0.58
   5  -4   1    2.09    0.68
  -5  -4  -1    2.70    0.60
   5   4   1    2.43    0.63
   6  -4   1    8.94    1.03
   6   4   1   11.06    1.18
   6  -5  -1    0.12    0.51
   6   5  -1   -0.29    0.49
   5  -5  -1   29.25    1.36
   5   5  -1   27.70    1.32
   4  -5  -1  111.71    2.55
   4   5  -1  102.92    2.33
   4   5  -1  112.59    2.56
   3  -5  -1   10.21    0.64
   3   5  -1   10.64    0.54
   3   5  -1    9.46    0.63
   2  -5  -1   66.89    1.48
  -2  -5   1   63.99    1.33
   2  -5  -1   64.73    1.33
   2   5  -1   67.91    1.43
   2   5  -1   66.23    1.49
  -1  -5   1  276.92    4.62
   1  -5  -1  279.22    4.64
   1  -5  -1  274.26    4.60
   1   5  -1  286.57    4.99
   1   5  -1  280.76    4.49
   0  -5   1   29.70    0.78
   0  -5  -1   29.03    0.75
   0   5  -1   29.55    0.79
   1  -5   1  277.53    4.74
   1  -5   1  274.50    4.45
  -1  -5  -1  276.14    4.69
   2  -5   1   11.46    0.52
   2  -5   1   11.89    0.66
  -2  -5  -1   10.78    0.58
   2   5   1   11.80    0.61
  -3  -5  -1   21.95    0.90
   3  -5   1   22.69    1.01
   3  -5   1   22.90    0.93
   3   5   1   21.90    0.94
   4  -5   1  124.68    2.88
   4  -5   1  121.69    2.76
  -4  -5  -1  119.72    2.75
   4   5   1  119.31    2.84
   5  -5   1    9.84    1.01
   5  -5   1    9.50    0.92
  -5  -5  -1    8.87    0.89
   5   5   1   10.50    1.02
   6  -5   1    2.04    0.69
   6   5   1    2.34    0.75
   6  -6  -1    0.30    0.51
   6   6  -1   -0.12    0.53
   5  -6  -1    2.79    0.63
   5   6  -1    2.53    0.59
   4  -6  -1   43.69    1.45
   4   6  -1   42.18    1.42
   4   6  -1   41.43    1.21
  -3  -6   1    2.81    0.31
   3  -6  -1    3.75    0.45
   3  -6  -1    2.85    0.37
   3   6  -1    2.52    0.33
   3   6  -1    2.90    0.42
   2  -6  -1  398.66    6.54
  -2  -6   1  386.12    6.43
   2  -6  -1  385.89    6.43
   2   6  -1  400.93    6.45
   2   6  -1  389.25    6.94
   1  -6  -1   95.00    1.80
  -1  -6   1   91.63    1.79
   1  -6  -1   93.80    1.78
   1   6  -1   89.01    1.63
   1   6  -1   96.20    1.94
   0  -6   1   46.48    1.07
   0  -6  -1   44.48    1.02
   0   6  -1   42.26    1.07
  -1  -6  -1  672.44   10.80
   1  -6   1  673.38   10.47
   1  -6   1  664.21   10.85
  -2  -6  -1  144.16    2.79
   2  -6   1  139.60    2.63
   2  -6   1  142.82    2.87
   2   6   1  144.79    2.79
  -3  -6  -1   21.44    0.91
   3  -6   1   22.63    0.91
   3  -6   1   21.87    1.00
   3   6   1   22.14    0.95
   4  -6   1    1.52    0.47
  -4  -6  -1    1.92    0.48
   4  -6   1    2.47    0.57
   4   6   1    2.21    0.53
  -5  -6  -1    9.23    0.91
   5  -6   1   10.24    0.94
   5  -6   1   11.26    1.07
   5   6   1   10.67    1.02
   6  -6   1    3.77    0.78
   6   6   1    3.98    0.84
   6  -7  -1    0.20    0.54
   6   7  -1    1.07    0.60
   5  -7  -1   44.55    1.66
   5   7  -1   44.40    1.65
   4  -7  -1   72.13    1.95
   4   7  -1   74.63    1.95
   4   7  -1   70.20    1.76
  -3  -7   1   20.09    0.72
   3  -7  -1   20.30    0.87
   3  -7  -1   20.66    0.79
   3   7  -1   20.65    0.78
   3   7  -1   21.22    0.86
  -2  -7   1   55.24    1.27
   2  -7  -1   56.03    1.34
   2  -7  -1   53.81    1.27
   2   7  -1   56.20    1.38
   2   7  -1   56.82    1.27
   1  -7  -1  420.37    6.76
   1  -7  -1  409.31    6.80
  -1  -7   1  412.19    6.82
   1   7  -1  414.87    7.30
   0  -7   1   52.03    1.22
   0  -7  -1   52.68    1.20
   0   7  -1   52.86    1.27
   1  -7   1  367.83    6.22
   1  -7   1  373.83    5.84
  -1  -7  -1  358.24    6.14
  -2  -7  -1   16.31    0.71
   2  -7   1   15.55    0.60
   2  -7   1   16.67    0.80
   2   7   1   15.42    0.71
   3  -7   1   11.15    0.82
  -3  -7  -1   11.99    0.72
   3  -7   1   11.48    0.69
   3   7   1   11.97    0.76
   4  -7   1   74.65    2.12
  -4  -7  -1   71.64    1.98
   4  -7   1   76.16    1.99
   4   7   1   69.94    2.07
   5  -7   1   15.27    1.06
   5  -7   1   14.42    1.20
  -5  -7  -1   14.73    1.04
   5   7   1   15.66    1.19
   6  -7   1   -0.42    0.51
   6   7   1    0.01    0.55
   6  -8  -1    1.82    0.66
   6   8  -1    2.79    0.74
   5  -8  -1    2.34    0.59
   5   8  -1    2.18    0.58
   4  -8  -1   36.91    1.33
  -4  -8   1   34.77    1.07
   4   8  -1   34.69    1.29
   4   8  -1   31.37    1.09
   3  -8  -1   12.22    0.68
   3  -8  -1   12.59    0.72
  -3  -8   1   12.95    0.62
   3   8  -1   12.29    0.68
   3   8  -1   12.84    0.64
   2  -8  -1  252.38    4.34
  -2  -8   1  248.77    4.30
   2  -8  -1  240.77    4.28
   2   8  -1  242.05    4.58
   2   8  -1  242.08    4.21
   1  -8  -1   85.54    1.70
  -1  -8   1   85.02    1.75
   1  -8  -1   83.30    1.73
   1   8  -1   81.85    1.84
   1   8  -1   79.67    1.52
   0  -8  -1   62.67    1.42
   0  -8   1   62.67    1.45
   0   8  -1   65.97    1.51
  -1  -8  -1  307.33    5.35
   1  -8   1  311.25    5.00
   1  -8   1  316.54    5.42
   2  -8   1  138.07    2.81
  -2  -8  -1  131.87    2.68
   2  -8   1  130.65    2.49
   3  -8   1   19.68    1.00
  -3  -8  -1   20.84    0.93
   3  -8   1   20.04    0.85
   3   8   1   19.16    0.94
   4  -8   1   12.13    0.86
  -4  -8  -1   10.28    0.89
   4  -8   1   10.71    0.92
   4   8   1   10.87    0.94
   5  -8   1   10.79    1.07
   5  -8   1    8.94    0.91
  -5  -8  -1   11.26    1.02
   5   8   1    8.09    0.95
   6  -8   1    6.55    0.89
   6  -9  -1    0.22    0.51
   6   9  -1    1.23    0.61
   5  -9  -1   39.14    1.57
   5   9  -1   38.64    1.57
  -4  -9   1   32.13    1.10
   4  -9  -1   33.62    1.30
   4   9  -1   34.40    1.15
   4   9  -1   35.14    1.30
  -3  -9   1   10.37    0.59
   3  -9  -1   10.14    0.68
   3  -9  -1    9.74    0.66
   3   9  -1    9.05    0.58
   3   9  -1    8.24    0.61
   2  -9  -1   82.86    1.84
   2  -9  -1   81.75    1.81
  -2  -9   1   81.87    1.82
   2   9  -1   86.23    1.74
   2   9  -1   85.21    1.95
   1  -9  -1  297.14    5.13
   1  -9  -1  296.49    5.04
  -1  -9   1  296.99    5.16
   1   9  -1  301.94    5.48
   0  -9   1   17.92    0.72
   0  -9  -1   18.28    0.69
   0   9  -1   17.16    0.71
   1  -9   1   80.10    1.47
  -1  -9  -1   78.84    1.78
   1  -9   1   82.16    1.85
  -2  -9  -1   15.58    0.74
   2  -9   1   16.71    0.84
   2  -9   1   14.67    0.60
  -3  -9  -1   30.70    1.13
   3  -9   1   29.87    1.04
   3  -9   1   30.74    1.25
   3   9   1   28.58    1.14
   4  -9   1  132.53    2.95
  -4  -9  -1  131.61    2.99
   4  -9   1  126.06    3.09
   4   9   1  134.06    3.12
   5  -9   1   11.26    0.98
   5  -9   1   11.79    1.10
  -5  -9  -1   12.76    0.99
   5   9   1   13.24    1.16
   6  -9   1    0.74    0.59
   6 -10  -1    1.38    0.59
   6  10  -1    0.67    0.55
   5 -10  -1    2.81    0.62
   5  10  -1    2.93    0.61
   4 -10  -1   19.01    1.01
  -4 -10   1   17.72    0.84
   4 -10  -1   18.09    0.92
   4  10  -1   20.18    1.03
   4  10  -1   19.83    0.87
   3 -10  -1   11.17    0.71
  -3 -10   1   11.55    0.65
   3 -10  -1   11.51    0.72
   3  10  -1   11.98    0.68
   3  10  -1   11.35    0.66
   2 -10  -1  155.12    2.97
   2 -10  -1  152.10    2.97
  -2 -10   1  155.49    3.01
   2  10  -1  152.83    2.83
   2  10  -1  153.07    3.16
   1 -10  -1   94.40    2.02
  -1 -10   1   94.60    2.04
   1 -10  -1   94.69    1.93
   1  10  -1   94.48    2.14
   0 -10   1  103.84    2.18
   0 -10  -1  101.43    2.14
  -1 -10  -1  192.17    3.60
   1 -10   1  194.43    3.69
   1 -10   1  191.66    3.20
   2 -10   1   95.51    1.92
  -2 -10  -1   97.05    2.18
   2 -10   1   94.70    2.25
   3 -10   1   21.62    0.88
   3 -10   1   21.50    1.11
  -3 -10  -1   21.24    0.97
   4 -10   1    4.56    0.61
  -4 -10  -1    4.58    0.65
   4 -10   1    4.64    0.72
   4  10   1    4.34    0.68
   5 -10   1   11.50    1.11
   5 -10   1   14.26    1.03
  -5 -10  -1   12.40    1.02
   5  10   1   13.15    1.15
   6 -11  -1    1.39    0.60
   6  11  -1    1.58    0.64
   5 -11  -1   48.24    1.77
   5  11  -1   50.16    1.78
   4 -11  -1   36.10    1.35
   4 -11  -1   34.89    1.32
  -4 -11   1   35.09    1.21
   4  11  -1   34.96    1.32
   4  11  -1   35.10    1.22
   3 -11  -1    1.86    0.42
  -3 -11   1    1.95    0.38
   3 -11  -1    1.52    0.38
   3  11  -1    3.42    0.45
   3  11  -1    3.36    0.46
   2 -11  -1   58.43    1.48
   2 -11  -1   58.39    1.51
  -2 -11   1   56.70    1.52
   2  11  -1   59.89    1.59
   2  11  -1   60.04    1.38
  -1 -11   1  293.96    5.19
   1 -11  -1  288.37    5.16
   1 -11  -1  288.59    4.99
   1  11  -1  294.46    5.48
   0 -11   1   40.31    1.19
   0 -11  -1   38.27    1.15
   1 -11   1  158.28    3.18
  -1 -11  -1  157.60    3.11
   2 -11   1    8.60    0.76
   2 -11   1    8.30    0.48
  -2 -11  -1    8.60    0.67
  -3 -11  -1    6.52    0.69
   3 -11   1    5.19    0.52
   3 -11   1    5.83    0.73
   4 -11   1   71.80    1.96
  -4 -11  -1   72.32    2.07
   4 -11   1   71.04    2.16
   5 -11   1   12.28    1.14
  -5 -11  -1   12.62    1.03
   5  11   1   14.10    1.18
   6 -12  -1    2.81    0.69
   6  12  -1    3.15    0.73
   5 -12  -1    6.91    0.86
   5  12  -1    8.24    0.87
   4 -12  -1   18.55    1.05
  -4 -12   1   19.75    0.94
   4 -12  -1   21.11    1.06
   4  12  -1   19.04    1.00
   4  12  -1   18.67    0.91
   3 -12  -1    7.19    0.63
   3 -12  -1    7.58    0.67
  -3 -12   1    7.47    0.68
   3  12  -1    6.79    0.59
   3  12  -1    6.83    0.56
   2 -12  -1  203.28    3.81
  -2 -12   1  208.96    3.95
   2 -12  -1  210.42    3.92
   2  12  -1  205.36    3.68
   2  12  -1  200.00    4.13
   1 -12  -1   62.30    1.48
   1 -12  -1   60.67    1.60
  -1 -12   1   64.02    1.64
   1  12  -1   62.69    1.67
   0 -12   1   46.87    1.37
   0 -12  -1   47.31    1.35
  -1 -12  -1  205.50    3.93
   1 -12   1  207.34    4.00
   2 -12   1   86.46    1.77
   2 -12   1   84.71    2.17
  -2 -12  -1   86.26    2.09
   3 -12   1   16.28    0.76
   3 -12   1   14.53    1.02
  -3 -12  -1   16.83    0.95
  -4 -12  -1    2.61    0.60
   4 -12   1    2.66    0.68
   4 -12   1    2.67    0.51
   5 -12   1    7.62    0.97
  -5 -12  -1    7.80    0.93
   6 -13  -1    2.74    0.69
   6  13  -1    1.80    0.69
   5 -13  -1   30.86    1.44
   5  13  -1   32.76    1.47
   4 -13  -1   56.48    1.76
   4 -13  -1   57.72    1.77
  -4 -13   1   56.31    1.67
   4  13  -1   56.76    1.70
   4  13  -1   54.91    1.70
   3 -13  -1   26.06    1.09
   3 -13  -1   24.90    1.04
  -3 -13   1   25.53    1.06
   3  13  -1   26.60    0.98
   3  13  -1   26.76    1.07
   2 -13  -1   37.30    1.24
   2 -13  -1   38.06    1.17
  -2 -13   1   37.14    1.24
   2  13  -1   35.49    1.24
   1 -13  -1  117.93    2.57
   1 -13  -1  118.69    2.39
  -1 -13   1  119.05    2.59
   1  13  -1  116.55    2.69
   0 -13  -1   23.87    0.97
   0 -13   1   22.42    0.96
  -1 -13  -1   96.58    2.25
   1 -13   1  100.39    2.35
   2 -13   1   39.50    1.41
  -2 -13  -1   38.31    1.32
   2 -13   1   39.72    1.03
   3 -13   1   11.83    0.74
  -3 -13  -1   11.39    0.85
   3 -13   1   11.48    0.97
  -4 -13  -1   87.36    2.39
   4 -13   1   84.92    2.47
  -5 -13  -1    6.64    0.88
   5 -13   1    5.90    0.93
   6 -14  -1    1.78    0.62
   6  14  -1    0.40    0.56
   5 -14  -1    7.92    0.90
   5  14  -1    8.19    0.87
  -4 -14   1   20.05    1.03
   4 -14  -1   21.51    1.11
   4 -14  -1   19.39    1.13
   4  14  -1   20.48    1.00
   4  14  -1   19.05    1.00
  -3 -14   1    4.92    0.63
   3 -14  -1    5.28    0.59
   3 -14  -1    5.36    0.65
   3  14  -1    5.00    0.62
   3  14  -1    4.91    0.54
   2 -14  -1  128.97    2.69
   2 -14  -1  127.20    2.82
  -2 -14   1  133.80    2.90
   2  14  -1  130.78    2.98
   1 -14  -1   70.23    1.82
   1 -14  -1   67.02    1.62
  -1 -14   1   67.10    1.81
   0 -14  -1   73.67    1.90
   0 -14   1   71.38    1.90
   1 -14   1  147.74    3.19
  -1 -14  -1  144.00    3.08
  -2 -14  -1  115.52    2.67
   2 -14   1  112.71    2.73
  -3 -14  -1   11.36    0.88
   3 -14   1   11.24    1.00
  -4 -14  -1    4.35    0.74
   4 -14   1    4.03    0.76
  -5 -14  -1    7.07    0.94
   5 -14   1    4.28    0.85
   5 -15  -1    5.67    0.79
   5  15  -1    6.09    0.79
   4 -15  -1   30.70    1.40
   4 -15  -1   35.12    1.39
  -4 -15   1   34.38    1.36
   4  15  -1   33.77    1.29
   3 -15  -1   37.14    1.40
  -3 -15   1   37.97    1.39
   3 -15  -1   42.09    1.36
   3  15  -1   39.37    1.42
   2 -15  -1   24.64    0.97
  -2 -15   1   26.50    1.11
   2 -15  -1   25.55    1.12
  -1 -15   1   91.27    2.23
   1 -15  -1   86.83    1.98
   1 -15  -1   89.39    2.21
   0 -15  -1    0.89    0.38
   0 -15   1    0.78    0.37
   1 -15   1   95.16    2.40
  -1 -15  -1   94.60    2.32
   2 -15   1   37.64    1.46
  -2 -15  -1   37.97    1.38
   3 -15   1    8.91    0.93
  -3 -15  -1   10.89    0.98
   4 -15   1   44.46    1.82
  -4 -15  -1   44.65    1.70
   5 -15   1    2.62    0.76
  -5 -15  -1    1.61    0.61
   5 -16  -1    4.78    0.76
   5  16  -1    5.10    0.74
   4 -16  -1   15.08    1.14
   4 -16  -1   20.78    1.11
  -4 -16   1   20.36    1.08
   3 -16  -1    5.54    0.61
   3 -16  -1    4.98    0.69
  -3 -16   1    4.78    0.67
  -2 -16   1   93.09    2.38
   2 -16  -1   93.63    2.35
   2 -16  -1   91.51    2.14
   1 -16  -1   15.64    0.76
   1 -16  -1   15.60    0.93
  -1 -16   1   17.55    0.94
   0 -16   1   33.40    1.30
   0 -16  -1   34.86    1.31
  -1 -16  -1  120.89    2.84
   1 -16   1  124.62    2.93
  -2 -16  -1   77.89    2.16
   2 -16   1   78.41    2.24
   3 -16   1   20.98    1.25
  -3 -16  -1   19.40    1.12
   4 -16   1    0.03    0.56
  -4 -16  -1    0.55    0.52
   5 -16   1    5.69    0.94
  -5 -16  -1    7.34    0.95
  -4 -17   1   33.99    1.43
   4 -17  -1   34.36    1.40
   3 -17  -1   20.62    1.13
  -3 -17   1   22.74    1.14
   3 -17  -1   23.20    1.05
   2 -17  -1   31.07    1.11
  -2 -17   1   29.20    1.27
   2 -17  -1   29.84    1.29
   1 -17  -1   48.17    1.39
   1 -17  -1   50.71    1.64
  -1 -17   1   49.84    1.62
   0 -17   1   10.19    0.84
   0 -17  -1   10.67    0.86
  -1 -17  -1   33.35    1.35
   1 -17   1   33.77    1.41
   2 -17   1   34.85    1.49
  -2 -17  -1   33.84    1.40
   3 -17   1   18.53    1.24
  -3 -17  -1   20.14    1.17
  -4 -17  -1   43.20    1.75
   4 -17   1   41.07    1.86
  -5 -17  -1   13.70    1.28
  -4 -18   1   10.30    1.02
   3 -18  -1    2.27    0.48
   3 -18  -1    2.45    0.60
  -3 -18   1    2.02    0.55
   2 -18  -1  133.85    3.12
   2 -18  -1  129.65    2.82
  -2 -18   1  132.39    3.15
   1 -18  -1   12.75    0.72
  -1 -18   1   11.17    0.86
   1 -18  -1   14.08    0.97
   0 -18  -1   47.80    1.66
   0 -18   1   49.50    1.70
  -1 -18  -1   62.63    1.95
   1 -18   1   60.73    1.98
   2 -18   1   62.01    2.04
  -2 -18  -1   58.99    1.93
   3 -18   1   13.83    1.16
  -3 -18  -1   13.00    1.05
   4 -18   1    1.46    0.69
  -4 -18  -1    1.78    0.61
  -5 -18  -1   14.83    1.24
  -4 -19   1   13.13    1.03
   3 -19  -1   27.31    1.35
  -3 -19   1   26.06    1.31
   2 -19  -1   27.17    1.08
  -2 -19   1   24.84    1.24
   2 -19  -1   27.21    1.30
   1 -19  -1   74.83    2.18
  -1 -19   1   74.76    2.16
   1 -19  -1   71.95    1.85
   0 -19   1   14.54    1.04
   0 -19  -1   14.85    1.04
   1 -19   1   36.45    1.57
  -1 -19  -1   36.90    1.52
   2 -19   1   19.88    1.25
  -2 -19  -1   19.32    1.20
  -3 -19  -1   13.62    1.11
   3 -19   1   13.69    1.19
  -4 -19  -1   32.48    1.60
   4 -19   1   29.58    1.69
  -4 -20   1   10.81    1.15
   3 -20  -1    4.66    0.79
  -3 -20   1    3.82    0.69
   2 -20  -1   52.64    1.85
  -2 -20   1   53.10    1.86
   1 -20  -1   36.31    1.25
  -1 -20   1   37.38    1.52
   1 -20  -1   36.90    1.55
   0 -20   1   50.82    1.85
   0 -20  -1   52.94    1.87
  -1 -20  -1   56.49    1.96
   1 -20   1   57.09    2.02
   2 -20   1   27.85    1.47
  -2 -20  -1   26.31    1.39
   3 -20   1   20.67    1.40
  -3 -20  -1   18.17    1.25
   4 -20   1    1.69    0.72
  -4 -20  -1    0.79    0.61
  -3 -21   1   15.26    1.11
   3 -21  -1   14.45    1.16
   2 -21  -1   14.04    1.07
  -2 -21   1   12.61    1.00
   1 -21  -1   56.39    1.98
  -1 -21   1   55.61    1.94
   0 -21  -1    8.98    0.98
   0 -21   1    7.47    0.87
  -1 -21  -1   25.53    1.37
   1 -21   1   24.14    1.43
   2 -21   1   21.16    1.38
  -2 -21  -1   22.12    1.34
  -3 -21  -1   14.30    1.34
   3 -21   1    9.83    1.13
  -4 -21  -1   30.07    1.64
  -3 -22   1    0.56    0.45
   3 -22  -1    0.73    0.58
   2 -22  -1   28.03    1.48
  -2 -22   1   29.93    1.46
  -1 -22   1   18.13    1.20
   1 -22  -1   20.28    1.28
   0 -22  -1   42.41    1.77
   0 -22   1   45.65    1.83
   1 -22   1   33.05    1.66
  -1 -22  -1   33.13    1.59
  -2 -22  -1   20.32    1.32
   2 -22   1   21.83    1.43
  -3 -22  -1   11.11    1.23
   3 -22   1    9.15    1.19
   4 -22   1    4.28    1.00
   3 -23  -1   11.12    1.18
  -3 -23   1   12.55    1.07
   2 -23  -1   20.33    1.33
  -2 -23   1   20.38    1.28
   1 -23  -1   38.64    1.72
  -1 -23   1   36.18    1.68
   0 -23   1    6.78    0.89
   0 -23  -1    7.48    0.93
  -1 -23  -1   29.67    1.57
   1 -23   1   31.73    1.66
  -2 -23  -1   17.08    1.27
   2 -23   1   17.77    1.38
  -3 -23  -1    7.00    1.04
   3 -23   1    6.15    1.00
  -3 -24   1    4.55    0.81
   3 -24  -1    3.98    0.83
  -2 -24   1   36.99    1.70
   2 -24  -1   37.71    1.80
  -1 -24   1   15.61    1.25
   1 -24  -1   15.40    1.27
   0 -24  -1   35.27    1.72
   0 -24   1   37.16    1.79
  -1 -24  -1   47.18    1.98
   1 -24   1   43.92    1.98
  -2 -24  -1   15.25    1.28
   2 -24   1   12.50    1.30
  -3 -24  -1    9.19    1.20
   3 -24   1    7.60    1.15
   3 -25  -1   33.56    1.75
  -3 -25   1   29.81    1.61
  -2 -25   1   10.29    1.16
   2 -25  -1    8.93    1.12
   1 -25  -1   19.96    1.43
  -1 -25   1   18.27    1.37
   0 -25   1    5.85    0.93
   0 -25  -1    6.72    0.95
  -1 -25  -1   25.27    1.53
   1 -25   1   24.19    1.58
  -2 -25  -1   28.92    1.66
   2 -25   1   26.68    1.69
   3 -26  -1    5.48    1.03
  -2 -26   1   31.75    1.70
   2 -26  -1   28.64    1.71
   1 -26  -1    5.57    0.98
  -1 -26   1    5.40    0.89
   0 -26   1   35.62    1.89
   0 -26  -1   36.80    1.83
  -1 -26  -1   16.06    1.32
   1 -26   1   17.04    1.42
   2 -26   1   23.95    1.83
   2 -27  -1   11.79    1.41
  -1 -27   1   11.65    1.23
   1 -27  -1   12.62    1.37
   0 -27   1    3.25    0.88
   0 -27  -1    1.95    0.71
   6   0  -2   29.31    1.51
   5   0  -2    5.66    0.79
   4   0  -2   10.92    0.78
   3   0  -2   -0.02    0.30
   2   0  -2   20.78    0.73
   1   0  -2  638.18   10.11
   0   0   2 1000.00   15.94
   1   0   2    6.64    0.51
   2   0   2    9.91    0.69
   2   0   2   10.62    0.59
   3   0   2   98.33    2.39
   3   0   2   93.86    2.24
   4   0   2   -0.07    0.40
   4   0   2   -0.27    0.53
   5   0   2   37.31    1.76
   5   0   2   39.75    1.72
   6   0   2   -0.07    0.66
   6  -1  -2   10.81    1.12
   6   1  -2   11.82    1.12
   5  -1  -2    0.91    0.52
   5   1  -2    1.77    0.55
   4  -1  -2   14.70    0.86
   4   1  -2   15.62    0.90
   3  -1  -2  169.77    3.24
   3   1  -2  163.54    3.21
   2  -1  -2   36.04    0.98
   2   1  -2   34.17    0.95
   1  -1  -2   29.55    0.79
   1   1  -2   29.89    0.75
   0  -1   2  217.99    3.77
   0   1   2  223.62    3.77
   1  -1   2    0.70    0.29
   1   1   2    0.28    0.25
   2  -1   2  152.52    2.92
   2  -1   2  152.01    3.10
   2   1   2  155.75    3.09
   2   1   2  153.34    2.96
   3  -1   2   38.58    1.30
   3  -1   2   42.46    1.47
   3   1   2   43.60    1.38
   3   1   2   41.79    1.48
   4  -1   2    3.92    0.63
   4  -1   2    3.09    0.71
   4   1   2    4.64    0.68
   4   1   2    4.11    0.76
   5  -1   2   42.42    1.87
   5  -1   2   42.76    1.77
   5   1   2   44.54    1.85
   6  -1   2   12.52    1.27
   6   1   2   13.42    1.41
   6  -2  -2   25.32    1.45
   6   2  -2   23.59    1.40
   5  -2  -2    5.74    0.76
   5   2  -2    4.77    0.69
   4  -2  -2   20.37    0.98
   4   2  -2   21.22    1.02
   4   2  -2   19.73    0.90
   3  -2  -2   17.62    0.82
   3   2  -2   18.56    0.81
   2  -2  -2   23.99    0.81
   2   2  -2   24.62    0.77
   1  -2  -2  411.86    6.67
   1   2  -2  407.04    6.56
   0  -2   2  364.04    6.01
   0   2  -2  368.13    6.37
   0   2   2  362.80    6.01
   1  -2   2   27.16    0.90
   1   2   2   27.71    0.90
  -1   2  -2   26.35    0.70
   2  -2   2   32.00    0.97
   2  -2   2   32.61    1.13
   2   2   2   31.00    1.02
   2   2   2   31.72    1.13
   3  -2   2  115.64    2.69
   3  -2   2  112.66    2.49
   3   2   2  113.49    2.67
   3   2   2  112.00    2.56
   4  -2   2    1.63    0.61
   4  -2   2    1.49    0.47
   4   2   2    2.00    0.62
   4   2   2    1.37    0.53
   5  -2   2   31.56    1.52
   5  -2   2   29.95    1.66
   5   2   2   30.64    1.59
   6  -2   2   -0.07    0.59
   6  -3  -2    8.89    1.02
   6   3  -2    7.76    0.98
   5  -3  -2    0.69    0.49
   5   3  -2    1.22    0.52
   4  -3  -2   19.32    0.99
   4   3  -2   21.74    0.94
   4   3  -2   21.30    1.02
   3  -3  -2  262.64    4.72
   3   3  -2  262.46    4.65
   3   3  -2  253.94    4.90
   2  -3  -2   65.84    1.53
   2   3  -2   66.63    1.45
   1  -3  -2   26.47    0.77
   1   3  -2   25.96    0.66
   1   3  -2   27.18    0.82
   0  -3   2   94.91    1.88
   0   3  -2   96.40    1.95
   1  -3   2    6.12    0.51
   1   3   2    4.74    0.46
  -1   3  -2    4.41    0.32
   2  -3   2  231.00    4.33
   2  -3   2  229.54    4.09
   2   3   2  233.96    4.32
   3  -3   2   37.61    1.22
   3  -3   2   36.94    1.40
   3   3   2   35.59    1.36
   3   3   2   34.71    1.28
   4  -3   2    1.32    0.62
   4  -3   2    1.65    0.49
   4   3   2    3.46    0.63
   5  -3   2   18.71    1.25
   5  -3   2   16.51    1.35
   5   3   2   19.99    1.37
   6  -3   2    7.27    1.01
   6  -4  -2   16.30    1.23
   6   4  -2   15.29    1.17
   5  -4  -2   19.39    1.16
   5   4  -2   20.91    1.16
   4  -4  -2   25.04    1.08
   4   4  -2   22.49    0.98
   4   4  -2   23.46    1.06
   3  -4  -2    6.84    0.60
   3   4  -2    7.01    0.58
   3   4  -2    6.29    0.58
   2  -4  -2   20.27    0.76
   2   4  -2   19.55    0.68
   2   4  -2   19.36    0.76
   1  -4  -2  214.21    3.76
  -1  -4   2  213.40    3.65
   1  -4  -2  218.12    3.62
   1   4  -2  223.12    4.06
   1   4  -2  216.21    3.57
   0  -4  -2  407.36    6.58
   0  -4   2  393.14    6.63
   0   4  -2  399.11    7.01
   1  -4   2   16.86    0.74
  -1   4  -2   16.52    0.57
   2  -4   2   35.45    0.99
   2  -4   2   35.81    1.22
   3  -4   2   75.19    1.89
   3  -4   2   79.07    2.12
   3   4   2   80.13    2.03
  -4  -4  -2    5.96    0.72
   4  -4   2    6.13    0.71
   4  -4   2    6.58    0.87
   4   4   2    7.29    0.82
  -5  -4  -2    8.92    0.94
   5  -4   2   10.49    1.02
   5  -4   2   11.85    1.19
   5   4   2   11.14    1.10
   6  -4   2    0.87    0.62
   6  -5  -2    7.10    0.95
   6   5  -2    5.77    0.86
   5  -5  -2    0.41    0.48
   5   5  -2    1.49    0.55
   4  -5  -2   50.28    1.63
   4   5  -2   54.10    1.57
   4   5  -2   56.82    1.64
   3  -5  -2  256.57    4.74
   3   5  -2  257.92    4.96
   3   5  -2  264.93    4.66
   2  -5  -2    5.86    0.48
   2   5  -2    6.29    0.41
   2   5  -2    5.96    0.47
   1  -5  -2   24.09    0.76
   1  -5  -2   23.74    0.65
  -1  -5   2   23.55    0.67
   1   5  -2   22.89    0.58
   1   5  -2   23.44    0.81
   0  -5   2   68.09    1.51
   0  -5  -2   68.15    1.47
   0   5  -2   68.54    1.55
  -1  -5  -2    7.50    0.51
   1  -5   2    8.26    0.58
  -1   5  -2    7.88    0.43
   2  -5   2  345.16    5.76
  -2  -5  -2  338.81    5.99
   2  -5   2  343.70    6.10
   3  -5   2   37.56    1.22
  -3  -5  -2   38.95    1.33
   3  -5   2   39.86    1.46
   3   5   2   39.81    1.39
  -4  -5  -2    0.28    0.43
   4  -5   2    0.43    0.42
   4  -5   2    1.95    0.63
   4   5   2    0.74    0.49
  -5  -5  -2   16.41    1.20
   5  -5   2   16.43    1.34
   5  -5   2   14.84    1.12
   5   5   2   17.83    1.32
   6  -5   2   23.80    1.49
   6  -6  -2   14.33    1.27
   6   6  -2   14.13    1.15
   5  -6  -2    3.99    0.69
   5   6  -2    3.09    0.64
   4  -6  -2   56.59    1.73
   4   6  -2   59.36    1.67
   4   6  -2   59.39    1.70
   3  -6  -2    1.31    0.38
   3   6  -2    1.47    0.37
   3   6  -2    2.11    0.39
   2  -6  -2    6.34    0.50
   2   6  -2    6.03    0.41
   2   6  -2    5.86    0.48
   1  -6  -2  111.15    2.05
  -1  -6   2  110.55    2.09
   1  -6  -2  113.05    2.18
   1   6  -2  110.82    2.33
   1   6  -2  103.00    1.88
   0  -6   2  244.41    4.31
   0  -6  -2  242.15    4.23
   0   6  -2  246.62    4.51
  -1  -6  -2    9.45    0.57
   1  -6   2   10.17    0.64
  -1   6  -2    7.78    0.47
   2  -6   2   33.12    1.19
   2  -6   2   30.96    0.90
  -2  -6  -2   31.98    1.09
   3  -6   2  138.92    2.88
  -3  -6  -2  141.79    3.04
   3  -6   2  138.13    3.14
   4  -6   2    1.40    0.61
  -4  -6  -2    1.00    0.50
   4  -6   2    1.20    0.45
   4   6   2    0.50    0.48
   5  -6   2   16.08    1.16
  -5  -6  -2   15.32    1.17
   5  -6   2   15.87    1.34
   5   6   2   17.44    1.33
   6  -6   2    1.23    0.72
   6  -7  -2    6.87    0.94
   6   7  -2    6.20    0.86
   5  -7  -2    3.04    0.65
   5   7  -2    4.25    0.66
   4  -7  -2   33.73    1.30
   4   7  -2   32.13    1.18
   4   7  -2   32.42    1.25
   3  -7  -2  233.76    4.38
   3   7  -2  232.22    4.57
   3   7  -2  233.83    4.24
   2  -7  -2   16.97    0.72
  -2  -7   2   13.20    0.54
   2   7  -2   15.69    0.57
   2   7  -2   15.36    0.72
  -1  -7   2   30.39    0.88
   1  -7  -2   29.86    0.91
   1  -7  -2   30.29    0.84
   1   7  -2   30.05    0.98
   0  -7  -2  122.47    2.36
   0  -7   2  122.17    2.42
   0   7  -2  118.12    2.50
   1  -7   2   39.05    1.20
  -1  -7  -2   37.28    1.11
  -1   7  -2   38.04    1.06
   2  -7   2  247.27    4.68
   2  -7   2  243.23    4.26
  -2  -7  -2  250.41    4.58
   3  -7   2   53.00    1.73
   3  -7   2   52.99    1.46
  -3  -7  -2   49.49    1.58
  -4  -7  -2    5.82    0.76
   4  -7   2    4.98    0.65
   4  -7   2    5.87    0.83
  -5  -7  -2   24.51    1.38
   5  -7   2   27.07    1.38
   5  -7   2   23.14    1.53
   6  -8  -2   14.76    1.25
   6   8  -2   13.24    1.16
   5  -8  -2   22.19    1.24
   5   8  -2   20.27    1.15
   4  -8  -2   14.13    0.93
   4   8  -2   13.22    0.84
   4   8  -2   13.43    0.80
   3  -8  -2    8.35    0.69
   3   8  -2    8.56    0.65
   3   8  -2    8.41    0.61
   2  -8  -2   15.28    0.72
   2  -8  -2   13.83    0.58
  -2  -8   2   14.16    0.58
   2   8  -2   14.30    0.55
   2   8  -2   13.13    0.70
   1  -8  -2  188.19    3.47
   1  -8  -2  185.93    3.39
  -1  -8   2  184.96    3.44
   1   8  -2  198.23    3.74
   0  -8  -2  359.87    6.15
   0  -8   2  362.12    6.23
   0   8  -2  368.86    6.59
  -1  -8  -2   14.01    0.68
   1  -8   2   16.65    0.81
  -1   8  -2   14.44    0.66
   2  -8   2   46.05    1.47
   2  -8   2   44.91    1.12
  -2  -8  -2   46.58    1.38
   3  -8   2   58.31    1.84
   3  -8   2   58.84    1.56
  -3  -8  -2   57.31    1.73
  -4  -8  -2    1.65    0.54
   4  -8   2    2.22    0.51
   4  -8   2    1.80    0.65
  -5  -8  -2   15.79    1.18
   5  -8   2   16.03    1.36
   6  -9  -2    5.43    0.90
   6   9  -2    5.31    0.85
   5  -9  -2    3.51    0.67
   5   9  -2    3.88    0.66
   4  -9  -2   14.33    0.93
   4   9  -2   11.22    0.76
   4   9  -2   12.00    0.82
   3  -9  -2  153.01    3.18
   3   9  -2  154.46    3.00
   3   9  -2  155.39    3.32
  -2  -9   2    7.03    0.48
   2  -9  -2    7.84    0.58
   2  -9  -2    6.72    0.49
   2   9  -2    7.08    0.40
   2   9  -2    8.46    0.62
  -1  -9   2   25.55    0.86
   1  -9  -2   25.24    0.85
   1  -9  -2   25.60    0.88
   1   9  -2   26.05    0.95
   0  -9   2  102.06    2.20
   0  -9  -2  102.55    2.15
   0   9  -2  101.21    2.27
   1  -9   2    2.75    0.44
  -1  -9  -2    3.16    0.42
  -1   9  -2    2.43    0.36
   2  -9   2  145.92    2.72
   2  -9   2  148.81    3.23
  -2  -9  -2  150.06    3.09
   3  -9   2   14.11    1.02
  -3  -9  -2   14.69    0.92
   3  -9   2   15.28    0.77
   4  -9   2    8.50    0.78
   4  -9   2    9.60    1.00
  -4  -9  -2    9.08    0.94
  -5  -9  -2   19.62    1.31
   5  -9   2   19.93    1.48
   6 -10  -2   17.55    1.35
   6  10  -2   19.86    1.30
   5 -10  -2   13.34    1.05
   5  10  -2   12.22    0.96
   4 -10  -2    9.07    0.83
   4  10  -2    9.98    0.79
   4  10  -2    9.28    0.74
   3 -10  -2    2.46    0.45
  -3 -10   2    2.71    0.38
   3  10  -2    4.52    0.57
   3  10  -2    3.50    0.42
   2 -10  -2   10.64    0.65
   2 -10  -2    9.41    0.59
  -2 -10   2    9.92    0.57
   2  10  -2    9.68    0.67
   2  10  -2    9.09    0.45
   1 -10  -2  225.69    4.06
  -1 -10   2  222.64    4.08
   1 -10  -2  225.04    4.07
   1  10  -2  219.43    4.37
   0 -10  -2  276.55    4.86
   0 -10   2  282.83    4.96
   0  10  -2  261.70    5.17
   1 -10   2   22.76    1.00
  -1 -10  -2   23.03    0.92
   2 -10   2   12.87    0.89
   2 -10   2   11.43    0.53
  -2 -10  -2   12.84    0.77
   3 -10   2   64.14    1.67
  -3 -10  -2   56.82    1.77
   3 -10   2   56.46    1.90
   4 -10   2    1.92    0.67
  -4 -10  -2    2.35    0.60
  -5 -10  -2   20.25    1.31
   5 -10   2   23.64    1.54
   6 -11  -2    9.14    1.11
   6  11  -2   10.10    1.03
   5 -11  -2    1.16    0.54
   5  11  -2    0.89    0.50
   4 -11  -2   26.37    1.22
   4  11  -2   27.39    1.14
   4  11  -2   28.12    1.18
  -3 -11   2  105.92    2.36
   3 -11  -2  109.83    2.52
   3 -11  -2  106.04    2.31
   3  11  -2  113.41    2.63
   3  11  -2  111.21    2.31
   2 -11  -2   20.11    0.87
   2 -11  -2   17.91    0.79
  -2 -11   2   19.10    0.79
   2  11  -2   17.29    0.85
   2  11  -2   17.79    0.62
   1 -11  -2   25.58    0.94
  -1 -11   2   26.39    0.96
   1 -11  -2   25.38    0.95
   1  11  -2   26.96    1.03
   0 -11   2   67.57    1.76
   0 -11  -2   65.91    1.67
   0  11  -2   68.69    1.78
   1 -11   2   12.16    0.80
  -1 -11  -2   13.54    0.77
   2 -11   2   75.81    2.09
  -2 -11  -2   73.10    1.93
   3 -11   2   52.95    1.84
  -3 -11  -2   51.80    1.68
  -4 -11  -2    7.20    0.87
   4 -11   2    6.28    0.90
   5 -11   2   25.71    1.62
  -5 -11  -2   25.84    1.44
   6 -12  -2   15.93    1.32
   6  12  -2   16.05    1.22
   5 -12  -2   -0.01    0.46
   5  12  -2    0.18    0.41
   4 -12  -2   48.39    1.64
   4  12  -2   44.26    1.56
   4  12  -2   44.33    1.47
   3 -12  -2    0.27    0.34
  -3 -12   2    0.42    0.28
   3 -12  -2    0.03    0.33
   3  12  -2    0.33    0.25
   3  12  -2    0.62    0.32
  -2 -12   2   17.54    0.81
   2 -12  -2   19.32    0.88
   2 -12  -2   19.20    0.85
   2  12  -2   20.18    0.95
   2  12  -2   18.78    0.64
   1 -12  -2  194.40    3.70
  -1 -12   2  195.43    3.77
   1 -12  -2  193.90    3.73
   1  12  -2  194.99    3.99
   0 -12   2  187.63    3.68
   0 -12  -2  182.69    3.58
   0  12  -2  179.79    3.78
   1 -12   2   34.86    1.29
  -1 -12  -2   34.80    1.21
   2 -12   2   10.09    0.88
  -2 -12  -2   10.22    0.78
  -3 -12  -2   91.37    2.40
   3 -12   2   91.07    2.54
  -4 -12  -2    0.66    0.50
   4 -12   2    0.52    0.57
  -5 -12  -2   17.86    1.27
   5 -12   2   16.85    1.44
   6 -13  -2    4.45    0.89
   6  13  -2    4.10    0.75
   5 -13  -2    3.04    0.67
   5  13  -2    3.00    0.60
   4 -13  -2   24.76    1.21
   4  13  -2   25.93    1.10
   4  13  -2   24.56    1.16
  -3 -13   2   91.10    2.18
   3 -13  -2   90.20    2.14
   3 -13  -2   91.51    2.26
   3  13  -2   90.19    2.37
   3  13  -2   88.91    2.00
  -2 -13   2   19.76    0.89
   2 -13  -2   19.55    0.91
   2 -13  -2   20.48    0.92
   2  13  -2   17.62    0.64
   2  13  -2   19.59    0.96
   1 -13  -2   20.44    0.93
   1 -13  -2   20.00    0.87
  -1 -13   2   19.16    0.91
   1  13  -2   20.05    0.94
   0 -13   2   44.88    1.45
   0 -13  -2   43.52    1.37
   0  13  -2   46.47    1.46
   1 -13   2    9.33    0.78
  -1 -13  -2    8.95    0.76
  -2 -13  -2  101.88    2.49
   2 -13   2  101.37    2.62
   3 -13   2   30.45    1.46
  -3 -13  -2   29.06    1.32
  -4 -13  -2   14.56    1.10
   4 -13   2   16.09    1.24
  -5 -13  -2   11.56    1.13
   5 -13   2   11.58    1.22
   6 -14  -2    9.57    1.20
   6  14  -2   11.33    1.10
   5 -14  -2    3.48    0.71
   5  14  -2    3.87    0.65
   4 -14  -2   15.74    1.03
   4  14  -2   19.42    0.95
   4  14  -2   18.71    1.04
   3 -14  -2    8.42    0.78
  -3 -14   2    7.13    0.69
   3 -14  -2    7.05    0.70
   3  14  -2    8.54    0.74
   3  14  -2    7.43    0.57
  -2 -14   2   26.35    1.06
   2 -14  -2   25.51    1.05
   2 -14  -2   27.23    1.09
   2  14  -2   26.78    1.14
   1 -14  -2  116.26    2.53
   1 -14  -2  120.43    2.64
  -1 -14   2  117.60    2.65
   1  14  -2  110.68    2.74
   0 -14   2  124.98    2.84
   0 -14  -2  125.48    2.76
   0  14  -2  121.99    2.90
  -1 -14  -2   47.35    1.54
   1 -14   2   50.39    1.64
   2 -14   2   18.89    1.14
  -2 -14  -2   18.71    1.03
  -3 -14  -2   52.25    1.80
   3 -14   2   53.13    1.95
  -4 -14  -2    1.68    0.63
   4 -14   2    0.92    0.64
  -5 -14  -2    8.48    1.08
   5 -14   2    9.05    1.12
   6  15  -2    6.15    0.90
   5 -15  -2    4.30    0.75
   5  15  -2    3.72    0.66
   4 -15  -2   20.70    1.15
   4  15  -2   19.84    1.09
   4  15  -2   20.01    0.99
   3 -15  -2   97.97    2.40
  -3 -15   2   95.04    2.39
   3 -15  -2  102.06    2.46
   3  15  -2   98.22    2.59
   2 -15  -2   22.24    1.00
  -2 -15   2   21.71    1.01
   2 -15  -2   22.40    1.04
   2  15  -2   20.43    1.04
   1 -15  -2   37.02    1.24
  -1 -15   2   39.07    1.36
   1 -15  -2   35.29    1.33
   1  15  -2   37.94    1.39
   0 -15   2   21.73    1.10
   0 -15  -2   24.25    1.10
   1 -15   2    5.23    0.68
  -1 -15  -2    5.06    0.62
  -2 -15  -2   86.14    2.29
   2 -15   2   83.00    2.41
   3 -15   2   24.67    1.42
  -3 -15  -2   24.69    1.30
   4 -15   2    9.20    1.09
  -4 -15  -2   12.00    1.14
  -5 -15  -2    7.32    1.05
   5 -15   2    3.69    0.89
   5 -16  -2    3.13    0.69
   4 -16  -2   22.00    1.19
   4  16  -2   20.59    1.13
   3 -16  -2    8.07    0.77
   3 -16  -2    8.12    0.82
  -3 -16   2    8.68    0.73
   3  16  -2    9.94    0.96
  -2 -16   2   23.24    1.09
   2 -16  -2   24.29    1.07
   2 -16  -2   27.50    1.17
   2  16  -2   23.21    1.13
  -1 -16   2   64.32    1.88
   1 -16  -2   65.08    1.87
   1 -16  -2   63.97    1.75
   1  16  -2   64.96    1.95
   0 -16  -2   79.51    2.17
   0 -16   2   80.25    2.22
  -1 -16  -2   33.84    1.33
   1 -16   2   32.46    1.39
  -2 -16  -2   14.68    1.03
   2 -16   2   13.68    1.10
   3 -16   2   30.70    1.58
  -3 -16  -2   31.38    1.45
  -4 -16  -2    0.70    0.58
   4 -16   2    0.57    0.67
   5 -17  -2    1.97    0.61
   4 -17  -2   13.62    1.01
   4  17  -2   12.96    0.96
  -3 -17   2   66.49    1.96
   3 -17  -2   65.81    1.96
   3 -17  -2   65.85    1.94
   3  17  -2   68.36    2.12
   2 -17  -2   10.89    0.88
  -2 -17   2   11.43    0.85
   2 -17  -2   10.93    0.79
   2  17  -2   10.52    0.83
  -1 -17   2   27.42    1.24
   1 -17  -2   30.02    1.15
   1 -17  -2   29.38    1.28
   0 -17   2   49.98    1.76
   0 -17  -2   52.30    1.73
  -1 -17  -2    3.69    0.60
   1 -17   2    2.44    0.57
   2 -17   2   82.91    2.52
  -2 -17  -2   81.10    2.34
   3 -17   2   12.42    1.21
  -3 -17  -2   13.17    1.08
  -4 -17  -2    4.66    0.86
   4 -17   2    2.90    0.80
   5 -18  -2    4.38    0.79
   4 -18  -2   11.51    0.97
   4  18  -2   12.56    0.97
   3 -18  -2    2.34    0.53
   3 -18  -2    2.54    0.59
  -3 -18   2    3.58    0.61
   3  18  -2    2.41    0.56
   2 -18  -2   19.92    1.01
  -2 -18   2   19.42    1.07
   2 -18  -2   19.19    1.09
   2  18  -2   18.16    1.09
   1 -18  -2   56.03    1.68
   1 -18  -2   58.20    1.87
  -1 -18   2   58.62    1.88
   0 -18   2  130.50    3.22
   0 -18  -2  132.64    3.16
  -1 -18  -2   23.47    1.25
   1 -18   2   25.37    1.32
   2 -18   2    9.98    1.07
  -2 -18  -2   13.11    1.11
   3 -18   2   25.54    1.53
  -3 -18  -2   26.84    1.44
  -4 -18  -2    1.34    0.66
   4 -18   2    1.28    0.69
   4 -19  -2    9.56    0.94
   3 -19  -2   42.25    1.54
  -3 -19   2   41.46    1.58
   3 -19  -2   40.77    1.61
   2 -19  -2   10.56    1.03
  -2 -19   2    8.99    0.93
   2 -19  -2    9.59    0.79
   1 -19  -2   38.27    1.56
  -1 -19   2   34.57    1.49
   1 -19  -2   39.01    1.38
   0 -19   2   29.98    1.48
   0 -19  -2   32.61    1.46
   1 -19   2    9.24    0.99
  -1 -19  -2   10.95    1.02
  -2 -19  -2   43.17    1.75
   2 -19   2   47.16    1.95
   3 -19   2    8.63    1.10
  -3 -19  -2   11.04    1.11
   4 -19   2   17.27    1.48
  -4 -19  -2   19.02    1.37
   4 -20  -2   13.15    1.05
   3 -20  -2    0.63    0.43
  -3 -20   2    0.88    0.44
   3 -20  -2    0.83    0.54
   2 -20  -2   14.62    0.93
   2 -20  -2   16.18    1.13
  -2 -20   2   14.83    1.07
   1 -20  -2   54.17    1.91
   1 -20  -2   54.27    1.71
  -1 -20   2   52.35    1.89
   0 -20   2   66.61    2.20
   0 -20  -2   57.26    2.04
   1 -20   2   33.57    1.61
  -1 -20  -2   32.72    1.57
  -2 -20  -2   10.19    1.06
   2 -20   2    8.17    1.07
  -3 -20  -2   26.15    1.51
   3 -20   2   24.91    1.59
   3 -21  -2   37.98    1.49
  -3 -21   2   36.05    1.58
   3 -21  -2   36.35    1.65
   2 -21  -2   12.48    1.10
   2 -21  -2   12.66    0.90
  -2 -21   2   13.12    1.05
   1 -21  -2   25.87    1.19
  -1 -21   2   27.83    1.43
   1 -21  -2   25.10    1.38
   0 -21   2   22.77    1.40
   0 -21  -2   20.22    1.32
  -1 -21  -2    8.71    0.99
   1 -21   2    8.88    1.01
  -2 -21  -2   34.15    1.65
   2 -21   2   31.51    1.74
   3 -21   2    8.96    1.15
  -3 -21  -2   10.62    1.17
  -3 -22   2    0.68    0.49
   3 -22  -2    0.11    0.57
  -2 -22   2   15.23    1.14
   2 -22  -2   15.61    0.98
   2 -22  -2   14.39    1.17
  -1 -22   2   42.39    1.80
   1 -22  -2   42.98    1.56
   1 -22  -2   40.61    1.75
   0 -22  -2   40.68    1.78
   0 -22   2   39.30    1.81
  -1 -22  -2   30.15    1.61
   1 -22   2   30.11    1.62
  -2 -22  -2    1.63    0.68
   2 -22   2    2.62    0.83
   3 -22   2   14.44    1.41
  -3 -22  -2   16.14    1.36
   3 -23  -2   23.96    1.46
  -3 -23   2   22.38    1.37
   2 -23  -2    5.83    0.88
  -2 -23   2    5.96    0.87
   1 -23  -2   24.45    1.29
   1 -23  -2   23.22    1.44
  -1 -23   2   20.67    1.40
   0 -23   2    4.24    0.81
   0 -23  -2    4.66    0.87
   1 -23   2    5.95    0.95
  -1 -23  -2    8.12    1.01
   2 -23   2   19.21    1.55
  -2 -23  -2   23.16    1.49
   3 -24  -2    0.30    0.64
  -3 -24   2    0.07    0.50
   2 -24  -2    9.88    1.11
  -2 -24   2   10.98    1.17
   1 -24  -2   26.79    1.56
  -1 -24   2   24.75    1.56
   0 -24  -2   15.17    1.35
   0 -24   2   11.19    1.19
   1 -24   2   27.49    1.66
  -1 -24  -2   31.94    1.72
  -2 -24  -2    6.49    0.99
   2 -24   2    5.82    1.02
  -3 -25   2   24.10    1.54
   2 -25  -2    8.04    1.04
  -2 -25   2    9.49    1.12
   1 -25  -2   17.86    1.40
  -1 -25   2   16.59    1.43
   0 -25  -2    9.99    1.18
   0 -25   2    9.12    1.11
  -1 -25  -2    7.97    1.10
   1 -25   2    7.26    1.05
   2 -26  -2   14.29    1.36
  -2 -26   2   17.54    1.39
  -1 -26   2   20.51    1.56
   1 -26  -2   19.14    1.49
   0 -26   2   19.63    1.56
   0 -26  -2   24.30    1.60
  -1 -26  -2   27.91    1.90
   1 -26   2   30.76    1.89
   1 -27  -2   17.27    1.48
   6   0  -3    0.69    0.55
   5   0  -3    2.69    0.64
   4   0  -3   11.54    0.83
   3   0  -3   27.97    1.05
   2   0  -3  142.91    2.78
  -1   0   3    0.66    0.21
   1   0  -3    0.29    0.22
   0   0   3   33.26    1.00
   1   0   3  270.46    4.92
   2   0   3   41.21    1.44
   3   0   3   15.75    1.11
   4   0   3   20.25    1.39
   5   0   3   -0.13    0.67
   6  -1  -3    1.30    0.60
   6   1  -3    1.82    0.63
   5  -1  -3   44.31    1.63
   5   1  -3   43.14    1.64
   5   1  -3   43.37    1.56
   4  -1  -3    7.69    0.77
   4   1  -3    7.93    0.75
   3  -1  -3    5.13    0.57
   3   1  -3    4.73    0.53
   2  -1  -3  203.51    3.72
   2   1  -3  201.41    3.66
  -1  -1   3  121.36    2.24
   1  -1  -3  122.33    2.36
  -1   1   3  121.49    2.24
   1   1  -3  122.22    2.31
   0  -1   3   58.75    1.42
   0   1   3   57.86    1.41
   1  -1   3    9.74    0.72
   1   1   3   10.90    0.71
  -1   1  -3    9.32    0.53
   2  -1   3   14.26    0.91
   2   1   3   13.22    0.90
   3  -1   3  104.31    2.73
   3   1   3  105.12    2.74
   4  -1   3   83.19    2.64
   4   1   3   91.96    2.71
   5  -1   3    0.41    0.71
   6  -2  -3    0.81    0.59
   6   2  -3    1.90    0.65
   5  -2  -3   13.14    1.04
   5   2  -3   15.42    0.96
   5   2  -3   14.91    1.07
   4  -2  -3   42.07    1.45
   4   2  -3   41.78    1.42
   3  -2  -3   23.21    0.98
   3   2  -3   22.78    0.93
   2  -2  -3  113.73    2.38
   2   2  -3  116.40    2.29
   1  -2  -3    5.33    0.44
  -1  -2   3    4.94    0.38
   1   2  -3    5.40    0.40
   0  -2   3   94.59    2.03
   0   2   3   98.33    2.04
   0   2  -3   97.44    2.08
   1  -2   3  300.95    5.41
   1   2   3  297.77    5.40
  -1   2  -3  304.28    5.42
   2  -2   3   24.48    1.16
   2   2   3   27.93    1.19
   3  -2   3   12.29    1.03
   3   2   3   12.03    1.05
   4  -2   3   12.49    1.01
   4  -2   3   12.70    1.18
   4   2   3   11.85    1.14
   5  -2   3    1.89    0.71
   5  -2   3    2.70    0.88
   6  -3  -3   -0.50    0.47
   6   3  -3   -0.04    0.50
   5  -3  -3   38.12    1.56
   5   3  -3   36.69    1.45
   5   3  -3   38.01    1.52
   4  -3  -3   21.51    1.08
   4   3  -3   22.28    1.05
   4   3  -3   22.72    1.07
   3  -3  -3    5.14    0.56
   3   3  -3    5.66    0.56
   2  -3  -3  124.66    2.55
   2   3  -3  124.93    2.43
   1  -3  -3   44.82    1.20
   1  -3  -3   47.91    1.08
  -1  -3   3   45.06    1.09
   1   3  -3   45.91    1.07
   1   3  -3   46.67    1.29
   0  -3   3   59.80    1.46
   0   3  -3   57.11    1.46
   1  -3   3   12.66    0.77
   1   3   3   10.40    0.72
  -1   3  -3    9.15    0.57
   2  -3   3   10.33    0.85
   2   3   3   10.62    0.84
   3  -3   3   38.72    1.58
   3   3   3   36.04    1.53
   4  -3   3   38.72    1.53
   4  -3   3   35.72    1.72
   5  -3   3    0.06    0.69
  -5  -3  -3    0.27    0.58
   5  -3   3    0.27    0.58
   6  -4  -3    0.79    0.57
   6   4  -3    0.65    0.54
   5  -4  -3    6.10    0.81
   5   4  -3    5.94    0.69
   5   4  -3    5.88    0.77
   4  -4  -3   29.01    1.23
   4   4  -3   26.82    1.19
   4   4  -3   27.13    1.17
   3  -4  -3   36.55    1.24
   3   4  -3   35.51    1.27
   3   4  -3   36.28    1.16
   2  -4  -3   71.87    1.75
   2   4  -3   74.48    1.87
   2   4  -3   74.47    1.61
   1  -4  -3   12.97    0.54
   1  -4  -3   12.45    0.64
  -1  -4   3   11.47    0.55
   1   4  -3   12.88    0.69
   0  -4  -3   23.23    0.82
   0  -4   3   25.39    0.91
   0   4  -3   24.65    0.88
   1  -4   3  316.02    5.71
  -1   4  -3  319.17    5.74
   2  -4   3   14.83    0.95
   3  -4   3    2.00    0.65
   4  -4   3    8.93    1.04
   4  -4   3    9.53    0.89
  -4  -4  -3    6.60    0.79
   5  -4   3    0.11    0.70
   5  -4   3    0.47    0.61
  -5  -4  -3   -0.14    0.56
   6  -5  -3    2.35    0.69
   6   5  -3    2.34    0.68
   5  -5  -3   32.02    1.46
   5   5  -3   29.90    1.31
   5   5  -3   30.26    1.36
   4  -5  -3   10.79    0.87
   4   5  -3   11.15    0.83
   4   5  -3   10.30    0.84
   3  -5  -3    3.38    0.52
   3   5  -3    4.12    0.56
   3   5  -3    3.45    0.46
   2  -5  -3  132.14    2.74
   2   5  -3  133.95    2.53
   2   5  -3  137.10    2.94
  -1  -5   3  106.43    2.17
   1  -5  -3  109.27    2.11
   1   5  -3  111.33    2.43
   0  -5   3   59.80    1.52
   0  -5  -3   59.45    1.46
   0   5  -3   63.00    1.57
   1  -5   3   11.87    0.79
  -1  -5  -3   11.15    0.67
  -1   5  -3    8.91    0.60
   2  -5   3    7.53    0.77
  -3  -5  -3   46.34    1.59
   3  -5   3   43.42    1.37
   3  -5   3   42.61    1.69
   4  -5   3   58.23    1.85
   4  -5   3   53.60    2.12
  -4  -5  -3   62.55    2.06
   5  -5   3   -0.04    0.67
  -5  -5  -3    0.19    0.60
   6  -6  -3    0.80    0.58
   6   6  -3    0.97    0.58
   5  -6  -3   11.34    1.06
   5   6  -3    8.10    0.80
   5   6  -3   11.41    0.95
   4  -6  -3   39.95    1.48
   4   6  -3   39.19    1.43
   4   6  -3   37.63    1.36
   3  -6  -3   24.90    1.07
   3   6  -3   27.17    0.98
   3   6  -3   25.42    1.09
   2  -6  -3  105.62    2.33
   2   6  -3  106.67    2.08
   2   6  -3  106.80    2.47
   1  -6  -3    3.26    0.36
  -1  -6   3    3.58    0.39
   1   6  -3    3.09    0.43
   0  -6   3   72.93    1.78
   0  -6  -3   72.69    1.70
   0   6  -3   74.23    1.80
   1  -6   3  489.52    8.48
  -1  -6  -3  494.03    8.37
  -1   6  -3  497.02    8.72
   2  -6   3   18.13    1.06
  -2  -6  -3   18.27    0.93
   3  -6   3   10.11    0.69
  -3  -6  -3    9.18    0.87
   3  -6   3   10.01    0.97
   4  -6   3    5.25    0.69
   4  -6   3    7.63    1.00
  -4  -6  -3    7.96    0.89
  -5  -6  -3    2.22    0.72
   5  -6   3    1.72    0.80
   6  -7  -3    0.75    0.61
   6   7  -3    0.79    0.54
   5  -7  -3   28.03    1.39
   5   7  -3   24.90    1.21
   5   7  -3   26.32    1.28
   4  -7  -3   10.39    0.90
   4   7  -3    9.92    0.81
   4   7  -3   10.04    0.81
   3  -7  -3   30.68    1.20
   3   7  -3   30.76    1.06
   3   7  -3   31.94    1.22
   2  -7  -3  123.28    2.64
   2   7  -3  121.73    2.33
   2   7  -3  126.60    2.81
  -1  -7   3  100.13    2.12
   1  -7  -3  100.96    2.06
   1   7  -3  102.00    2.35
   0  -7  -3   85.52    1.94
   0  -7   3   89.23    2.05
   0   7  -3   86.44    2.06
  -1  -7  -3   11.53    0.76
   1  -7   3   13.61    0.84
  -1   7  -3   11.16    0.69
   2  -7   3   26.86    1.24
  -2  -7  -3   27.37    1.15
  -3  -7  -3   39.18    1.51
   3  -7   3   38.87    1.27
   3  -7   3   38.56    1.62
   4  -7   3   49.06    2.03
  -4  -7  -3   46.68    1.83
  -5  -7  -3    3.68    0.82
   5  -7   3    2.66    0.85
   6  -8  -3    0.39    0.55
   6   8  -3   -0.26    0.46
   5  -8  -3    3.71    0.70
   5   8  -3    2.95    0.61
   5   8  -3    2.47    0.53
   4  -8  -3   13.69    0.97
   4   8  -3   14.47    0.93
   4   8  -3   13.25    0.89
   3  -8  -3   13.23    0.85
   3   8  -3   14.15    0.72
   3   8  -3   14.18    0.87
   2  -8  -3   90.01    2.10
   2   8  -3   88.41    2.22
   2   8  -3   88.07    1.78
   1  -8  -3    7.21    0.52
  -1  -8   3    6.67    0.56
   1   8  -3    7.28    0.65
   0  -8  -3   47.67    1.31
   0  -8   3   46.05    1.39
   0   8  -3   44.07    1.36
  -1  -8  -3  135.93    2.92
   1  -8   3  140.74    3.05
  -1   8  -3  143.09    2.95
  -2  -8  -3   16.45    0.94
   2  -8   3   18.43    1.08
  -3  -8  -3   10.67    0.92
   3  -8   3   13.43    1.15
  -4  -8  -3   11.11    1.08
   4  -8   3   11.61    1.18
   5  -8   3    1.66    0.83
  -5  -8  -3    2.44    0.78
   6  -9  -3    3.56    0.75
   6   9  -3    1.67    0.61
   5  -9  -3   40.10    1.68
   5   9  -3   36.88    1.48
   5   9  -3   38.68    1.53
   4  -9  -3    3.77    0.65
   4   9  -3    3.92    0.56
   4   9  -3    5.06    0.69
   3  -9  -3   22.83    1.08
   3   9  -3   23.69    0.90
   3   9  -3   24.79    1.11
   2  -9  -3  142.14    2.97
  -2  -9   3  142.16    2.77
   2   9  -3  146.17    3.19
   2   9  -3  136.49    2.55
   1  -9  -3   84.03    1.88
  -1  -9   3   82.93    1.94
   1   9  -3   86.27    2.14
   0  -9   3   56.87    1.59
   0  -9  -3   51.47    1.45
   0   9  -3   54.41    1.56
   1  -9   3    1.62    0.49
  -1  -9  -3    1.58    0.43
  -1   9  -3    2.36    0.42
  -2  -9  -3   13.03    0.87
   2  -9   3   12.71    0.97
   3  -9   3   38.99    1.68
  -3  -9  -3   41.32    1.57
  -4  -9  -3   58.43    2.05
   4  -9   3   57.42    2.19
  -5  -9  -3    3.37    0.83
   5  -9   3    2.18    0.85
   6 -10  -3    2.65    0.72
   6  10  -3    2.54    0.67
   5 -10  -3    3.72    0.72
   5  10  -3    3.81    0.62
   5  10  -3    3.88    0.64
   4 -10  -3   12.28    0.97
   4  10  -3   12.68    0.83
   4  10  -3   13.57    0.94
   3 -10  -3   10.86    0.83
   3  10  -3    9.22    0.61
   3  10  -3    9.83    0.84
   2 -10  -3   77.38    1.78
  -2 -10   3   80.51    1.84
   2 -10  -3   78.89    1.98
   2  10  -3   72.80    1.55
   2  10  -3   79.74    2.11
  -1 -10   3   46.98    1.36
   1 -10  -3   45.63    1.31
   1  10  -3   45.49    1.47
   0 -10  -3   39.25    1.23
   0 -10   3   37.60    1.31
   0  10  -3   36.60    1.29
   1 -10   3   91.49    2.33
  -1 -10  -3   84.46    2.14
  -1  10  -3   91.70    2.19
  -2 -10  -3   11.45    0.87
   2 -10   3   12.55    0.99
   3 -10   3   12.61    1.15
  -3 -10  -3    9.29    0.91
   4 -10   3    7.65    1.04
  -4 -10  -3   11.03    1.12
  -5 -10  -3    2.09    0.75
   5 -10   3    1.48    0.82
   6 -11  -3    3.17    0.76
   6  11  -3    2.33    0.64
   5 -11  -3   21.54    1.33
   5  11  -3   20.89    1.14
   5  11  -3   22.18    1.23
   4 -11  -3    8.26    0.90
   4  11  -3    5.19    0.69
   4  11  -3    4.45    0.56
   3 -11  -3    3.79    0.59
   3  11  -3    2.88    0.38
   3  11  -3    3.91    0.60
   2 -11  -3  101.01    2.42
   2 -11  -3  103.61    2.26
  -2 -11   3  108.93    2.33
   2  11  -3  104.36    2.59
   1 -11  -3   51.12    1.44
  -1 -11   3   51.06    1.50
   1  11  -3   53.92    1.63
   0 -11   3   52.13    1.62
   0 -11  -3   52.90    1.53
   0  11  -3   52.28    1.60
   1 -11   3    6.72    0.73
  -1 -11  -3    7.57    0.70
  -1  11  -3    7.27    0.67
   2 -11   3    6.43    0.80
  -2 -11  -3    5.72    0.69
   3 -11   3   39.74    1.72
  -3 -11  -3   41.41    1.62
   4 -11   3   36.14    1.81
  -4 -11  -3   40.99    1.75
   6  12  -3    3.39    0.72
   5 -12  -3    7.60    0.96
   5  12  -3    9.37    0.94
   5  12  -3    7.52    0.80
   4 -12  -3   19.03    1.16
   4  12  -3   16.75    0.90
   4  12  -3   17.00    1.07
   3 -12  -3   14.21    0.95
   3  12  -3   15.32    1.00
  -2 -12   3   70.65    1.82
   2 -12  -3   68.90    1.90
   2 -12  -3   71.69    1.78
   2  12  -3   70.21    2.03
   1 -12  -3   13.37    0.81
  -1 -12   3   14.11    0.84
   1  12  -3   13.07    0.85
   0 -12   3   35.30    1.35
   0 -12  -3   33.38    1.22
   0  12  -3   35.83    1.31
   1 -12   3  203.59    4.25
  -1 -12  -3  203.58    4.10
  -1  12  -3  205.95    4.24
  -2 -12  -3   18.73    1.06
   2 -12   3   17.75    1.16
   3 -12   3   10.49    1.08
  -3 -12  -3    8.38    0.91
   4 -12   3   13.25    1.30
  -4 -12  -3   11.98    1.16
   5 -13  -3   23.87    1.40
   5  13  -3   24.51    1.34
   4 -13  -3    4.30    0.71
   4  13  -3    5.57    0.73
   3 -13  -3    6.13    0.74
   3  13  -3    7.26    0.78
   2 -13  -3   89.46    2.26
  -2 -13   3   90.38    2.21
   2 -13  -3   90.81    2.16
   2  13  -3   89.95    2.41
   1 -13  -3   37.97    1.32
  -1 -13   3   41.21    1.39
   1  13  -3   39.63    1.45
   0 -13  -3   52.46    1.61
   0 -13   3   55.00    1.74
   0  13  -3   53.72    1.72
  -1 -13  -3    7.49    0.78
   1 -13   3    7.45    0.81
  -2 -13  -3   24.94    1.24
   2 -13   3   26.23    1.39
  -3 -13  -3   37.48    1.58
   3 -13   3   36.42    1.71
  -4 -13  -3   40.24    1.78
   4 -13   3   40.16    1.94
   5 -14  -3    5.00    0.83
   5  14  -3    6.37    0.85
   4 -14  -3   14.29    1.06
   4  14  -3   15.80    1.10
   3 -14  -3   26.80    1.25
   3  14  -3   25.52    1.28
  -2 -14   3   35.43    1.29
   2 -14  -3   34.25    1.27
   2 -14  -3   35.27    1.34
   2  14  -3   32.33    1.39
   1 -14  -3   30.78    1.23
  -1 -14   3   29.89    1.23
   1  14  -3   29.30    1.27
   0 -14  -3   66.29    1.90
   0 -14   3   66.21    2.00
   0  14  -3   72.09    2.07
  -1 -14  -3  163.92    3.57
   1 -14   3  167.12    3.74
  -2 -14  -3   15.10    1.04
   2 -14   3   13.84    1.16
  -3 -14  -3   11.50    1.06
   3 -14   3   10.39    1.13
   4 -14   3    5.08    0.94
  -4 -14  -3    5.07    0.86
   5 -15  -3   18.92    1.30
   5  15  -3   16.94    1.19
   4 -15  -3    8.66    0.93
   4  15  -3    8.42    0.92
   3 -15  -3   17.33    1.06
   3  15  -3   15.74    1.11
   2 -15  -3   33.97    1.34
  -2 -15   3   32.16    1.29
   2 -15  -3   33.19    1.29
   2  15  -3   33.68    1.42
   1 -15  -3    9.63    0.83
  -1 -15   3   10.35    0.86
   1 -15  -3   10.49    0.83
   1  15  -3   11.91    0.90
   0 -15   3   19.45    1.13
   0 -15  -3   19.80    1.08
   0  15  -3   17.58    1.08
   1 -15   3    4.92    0.73
  -1 -15  -3    5.09    0.74
  -2 -15  -3   22.63    1.26
   2 -15   3   19.20    1.31
  -3 -15  -3    8.83    0.98
   3 -15   3    9.67    1.10
  -4 -15  -3    8.25    1.07
   4 -15   3    6.94    1.04
   5 -16  -3    5.56    0.84
   4 -16  -3   17.37    1.17
   4  16  -3   16.96    1.15
   3 -16  -3   21.05    1.17
   3  16  -3   21.60    1.22
   2 -16  -3   26.73    1.21
  -2 -16   3   28.38    1.24
   2 -16  -3   25.21    1.20
   2  16  -3   25.49    1.28
  -1 -16   3    0.42    0.44
   1 -16  -3    0.55    0.47
   1 -16  -3    0.65    0.43
   1  16  -3    1.02    0.48
   0 -16  -3   17.89    1.09
   0 -16   3   15.66    1.09
   0  16  -3   17.33    1.11
  -1 -16  -3  117.09    2.91
   1 -16   3  118.44    3.07
  -2 -16  -3   11.43    1.06
   2 -16   3   10.11    1.08
  -3 -16  -3    6.09    0.89
   3 -16   3    5.43    0.93
   4 -16   3    3.47    0.86
  -4 -16  -3    2.61    0.79
   5 -17  -3   20.31    1.34
   4 -17  -3    5.13    0.80
   4  17  -3    6.52    0.83
   3 -17  -3   26.01    1.29
   3  17  -3   25.46    1.36
   2 -17  -3   33.24    1.38
  -2 -17   3   34.89    1.42
   2 -17  -3   34.35    1.39
   2  17  -3   31.42    1.45
  -1 -17   3   27.09    1.33
   1 -17  -3   26.13    1.26
   1 -17  -3   28.02    1.24
   1  17  -3   28.61    1.37
   0 -17  -3   26.87    1.33
   0 -17   3   26.66    1.36
   1 -17   3    2.74    0.68
  -1 -17  -3    3.03    0.67
  -2 -17  -3   23.17    1.31
   2 -17   3   19.39    1.38
  -3 -17  -3   18.84    1.34
   3 -17   3   22.31    1.52
   5 -18  -3    1.68    0.65
   4 -18  -3    3.79    0.72
   4  18  -3    3.07    0.62
   3 -18  -3   12.18    0.99
   3  18  -3   12.48    1.03
  -2 -18   3   34.94    1.48
   2 -18  -3   31.70    1.38
   2 -18  -3   34.43    1.44
   2  18  -3   32.19    1.51
   1 -18  -3   10.41    1.02
  -1 -18   3    9.64    0.95
   1 -18  -3    9.33    0.90
   1  18  -3   10.89    1.01
   0 -18  -3   21.64    1.28
   0 -18   3   21.60    1.28
  -1 -18  -3   71.77    2.23
   1 -18   3   68.93    2.35
  -2 -18  -3   13.39    1.18
   2 -18   3   10.49    1.16
   3 -18   3    8.51    1.12
  -3 -18  -3   10.43    1.11
   4 -19  -3    1.36    0.60
   4  19  -3    1.20    0.51
   3 -19  -3   20.08    1.21
   3  19  -3   20.40    1.26
   2 -19  -3   50.71    1.75
   2 -19  -3   48.48    1.76
  -2 -19   3   47.73    1.81
   2  19  -3   49.38    1.90
   1 -19  -3   25.95    1.37
   1 -19  -3   27.16    1.29
  -1 -19   3   27.74    1.43
   1  19  -3   26.25    1.44
   0 -19  -3   27.60    1.46
   0 -19   3   28.87    1.49
   1 -19   3    2.21    0.71
  -1 -19  -3    2.05    0.65
   2 -19   3   22.39    1.52
  -2 -19  -3   23.66    1.42
  -3 -19  -3   20.94    1.44
   3 -19   3   19.24    1.52
   4 -20  -3    6.62    0.91
   4  20  -3    6.94    0.90
   3 -20  -3    6.75    0.87
   3  20  -3    6.30    0.84
  -2 -20   3   31.54    1.52
   2 -20  -3   30.99    1.48
   2 -20  -3   29.65    1.39
   2  20  -3   29.07    1.51
   1 -20  -3   31.42    1.40
   1 -20  -3   31.03    1.52
  -1 -20   3   28.65    1.52
   0 -20   3   29.69    1.56
   0 -20  -3   30.09    1.54
   1 -20   3   35.26    1.79
  -1 -20  -3   34.79    1.67
  -2 -20  -3   15.16    1.29
   2 -20   3   10.63    1.21
  -3 -20  -3   15.95    1.31
   3 -20   3   18.35    1.52
   4 -21  -3    4.22    0.80
   4  21  -3    3.57    0.71
   3 -21  -3   12.30    1.07
   3  21  -3   15.26    1.18
   2 -21  -3   28.09    1.39
   2 -21  -3   28.34    1.47
  -2 -21   3   28.19    1.52
   1 -21  -3    4.74    0.86
   1 -21  -3    6.60    0.83
  -1 -21   3    7.18    0.93
   0 -21  -3   33.66    1.65
   0 -21   3   33.31    1.68
  -1 -21  -3    1.01    0.66
   1 -21   3    1.37    0.70
  -2 -21  -3   18.99    1.40
   2 -21   3   19.78    1.55
   4 -22  -3    1.12    0.60
   3 -22  -3    4.14    0.75
   2 -22  -3   15.40    1.22
  -2 -22   3   15.65    1.30
   2 -22  -3   16.71    1.16
  -1 -22   3   24.04    1.49
   1 -22  -3   22.63    1.45
   1 -22  -3   22.99    1.30
   0 -22  -3   12.27    1.22
   0 -22   3   15.51    1.31
  -1 -22  -3   18.19    1.43
   1 -22   3   18.09    1.51
   2 -22   3    4.42    0.99
  -2 -22  -3    3.99    0.89
   3 -23  -3    7.30    0.91
  -2 -23   3   24.51    1.54
   2 -23  -3   25.03    1.49
   2 -23  -3   24.45    1.36
   1 -23  -3    4.59    0.92
   1 -23  -3    5.76    0.82
  -1 -23   3    5.15    0.90
   0 -23  -3   13.33    1.30
   0 -23   3   16.38    1.39
   1 -23   3    0.85    0.69
  -1 -23  -3    1.32    0.73
   2 -24  -3   17.13    1.34
   2 -24  -3   16.49    1.19
  -2 -24   3   14.98    1.39
  -1 -24   3   11.91    1.23
   1 -24  -3   12.38    1.31
   1 -24  -3   12.34    1.16
   0 -24  -3   18.22    1.49
   0 -24   3   16.88    1.45
   1 -24   3   63.34    2.57
  -1 -24  -3   61.68    2.46
  -2 -25   3   13.74    1.35
   2 -25  -3   10.99    1.21
   1 -25  -3    3.05    0.83
  -1 -25   3    3.37    0.84
   1 -25  -3    2.80    0.70
   0 -25   3   24.13    1.69
   0 -25  -3   25.18    1.67
  -2 -26   3    8.71    1.16
   2 -26  -3    7.77    1.15
   1 -26  -3    7.67    1.12
  -1 -26   3    9.00    1.20
   6   0  -4    7.92    0.97
   5   0  -4    0.67    0.49
   4   0  -4    0.19    0.45
   3   0  -4   18.14    0.97
   2   0  -4   29.22    1.06
   1   0  -4  323.36    5.60
  -1   0   4  322.52    5.56
   0   0   4   31.61    1.13
  -1   0  -4    0.77    0.29
   1   0   4    1.09    0.49
   2   0   4   79.96    2.32
   3   0   4   21.93    1.42
   4   0   4    7.83    1.11
   6  -1  -4   -0.50    0.49
   6   1  -4    0.25    0.55
   5  -1  -4    0.60    0.50
   5   1  -4   -0.01    0.44
   4  -1  -4   20.45    1.10
   4   1  -4   19.87    1.08
   3  -1  -4  103.22    2.41
   3   1  -4  103.52    2.39
   2  -1  -4    8.10    0.68
   2   1  -4    6.57    0.58
  -1  -1   4   13.75    0.69
   1  -1  -4   15.13    0.75
  -1   1   4   14.35    0.69
   1   1  -4   13.58    0.71
   0  -1   4   63.92    1.70
   0   1   4   64.77    1.70
   1  -1   4    7.42    0.75
  -1   1  -4    6.51    0.55
   1   1   4    8.61    0.83
   2  -1   4   75.59    2.27
   2   1   4   76.82    2.27
   3  -1   4    2.14    0.75
   3   1   4    2.86    0.78
   4  -1   4    3.92    0.95
   4   1   4    2.59    0.87
   6  -2  -4   10.75    1.11
   6   2  -4    9.50    1.06
   5  -2  -4    0.80    0.52
   5   2  -4    0.58    0.44
   5   2  -4    0.67    0.50
   4  -2  -4    6.08    0.75
   4   2  -4    6.03    0.73
   3  -2  -4   18.43    0.97
   3   2  -4   15.65    0.89
   2  -2  -4    5.67    0.60
   2   2  -4    4.96    0.53
  -1  -2   4  168.29    3.16
   1  -2  -4  165.20    3.25
   1   2  -4  168.71    3.15
   0  -2   4   35.45    1.22
   0   2   4   30.84    1.13
   0   2  -4   32.93    1.13
   1  -2   4    0.20    0.45
  -1   2  -4    0.80    0.31
   1   2   4    0.45    0.46
   2  -2   4   63.53    2.02
   2   2   4   57.84    1.95
   3  -2   4   34.17    1.66
   3   2   4   35.77    1.68
   4  -2   4    6.34    1.06
   6  -3  -4   -0.03    0.52
   6   3  -4   -0.03    0.53
   5  -3  -4    0.30    0.48
   5   3  -4    0.66    0.49
   5   3  -4    0.26    0.48
   4  -3  -4   34.57    1.42
   4   3  -4   33.23    1.43
   4   3  -4   35.73    1.35
   3  -3  -4   46.53    1.51
   3   3  -4   46.51    1.42
   2  -3  -4    9.22    0.70
   2   3  -4    8.99    0.62
  -1  -3   4   17.10    0.79
   1  -3  -4   18.46    0.75
   1  -3  -4   18.02    0.85
   1   3  -4   17.71    0.73
   1   3  -4   17.93    0.91
   0  -3   4   75.18    1.90
   0   3  -4   74.44    1.89
   1  -3   4    9.79    0.87
  -1   3  -4   10.48    0.66
   1   3   4   10.67    0.89
   2  -3   4   50.04    1.81
   2   3   4   50.63    1.78
   3  -3   4    1.64    0.67
   4  -3   4    5.73    1.03
   6  -4  -4    9.28    1.04
   6   4  -4    8.50    0.98
   5  -4  -4    0.70    0.53
   5   4  -4    1.09    0.49
   5   4  -4   -0.06    0.44
   4  -4  -4    1.50    0.57
   4   4  -4    2.67    0.56
   4   4  -4    0.98    0.48
   3  -4  -4   16.04    0.95
   3   4  -4   17.03    0.87
   3   4  -4   16.37    0.97
   2  -4  -4    0.84    0.38
   2   4  -4    0.51    0.35
   2   4  -4    0.33    0.29
  -1  -4   4  116.22    2.44
   1  -4  -4  119.65    2.58
   1  -4  -4  123.23    2.43
   1   4  -4  121.12    2.75
   0  -4   4   48.32    1.48
   0  -4  -4   49.97    1.40
   0   4  -4   49.26    1.48
   1  -4   4    2.41    0.56
  -1   4  -4    2.08    0.39
   2  -4   4   63.33    2.07
   3  -4   4   34.73    1.71
  -4  -4  -4    7.89    1.01
   4  -4   4    9.59    1.18
   6  -5  -4    0.93    0.64
   6   5  -4    0.38    0.56
   5  -5  -4   -0.44    0.45
   5   5  -4   -0.03    0.46
   5   5  -4    0.45    0.46
   4  -5  -4   91.85    2.46
   4   5  -4   88.33    2.25
   4   5  -4   92.32    2.55
   3  -5  -4   41.29    1.45
   3   5  -4   38.00    1.46
   3   5  -4   41.24    1.28
   2  -5  -4    0.71    0.37
   2   5  -4    1.29    0.33
   2   5  -4    1.28    0.44
  -1  -5   4    7.24    0.63
   1  -5  -4    7.60    0.59
   1   5  -4    8.76    0.76
   0  -5  -4   78.04    1.87
   0  -5   4   74.10    1.95
   0   5  -4   76.35    1.97
   1  -5   4   43.33    1.53
  -1  -5  -4   42.82    1.41
  -1   5  -4   39.84    1.27
   2  -5   4   59.71    2.01
   3  -5   4    2.09    0.71
  -3  -5  -4    1.01    0.55
  -4  -5  -4    0.94    0.64
   4  -5   4    2.70    0.88
   6  -6  -4   18.20    1.37
   6   6  -4   17.54    1.25
   5  -6  -4    1.13    0.56
   5   6  -4    0.82    0.50
   5   6  -4    0.77    0.48
   4  -6  -4   15.55    1.10
   4   6  -4   17.42    1.09
   4   6  -4   17.58    1.01
   3  -6  -4    5.51    0.68
   3   6  -4    5.51    0.56
   3   6  -4    5.90    0.70
   2  -6  -4    1.01    0.39
   2   6  -4    1.33    0.32
   2   6  -4    1.87    0.43
   1  -6  -4  142.67    2.79
  -1  -6   4  141.56    2.85
   1   6  -4  137.51    3.14
   0  -6   4   45.91    1.50
   0  -6  -4   49.86    1.44
   0   6  -4   47.87    1.50
  -1  -6  -4    2.80    0.53
   1  -6   4    1.80    0.55
  -1   6  -4    2.54    0.44
   2  -6   4   62.17    2.04
  -2  -6  -4   57.11    1.84
   3  -6   4   29.73    1.63
  -3  -6  -4   29.48    1.45
   4  -6   4    5.59    1.04
  -4  -6  -4    4.74    0.88
   6  -7  -4    0.65    0.61
   6   7  -4    0.41    0.52
   5  -7  -4    2.09    0.66
   5   7  -4    1.97    0.59
   5   7  -4    2.05    0.57
   4  -7  -4   62.20    2.00
   4   7  -4   61.25    2.02
   4   7  -4   61.83    1.80
   3  -7  -4   32.95    1.32
   3   7  -4   31.94    1.35
   3   7  -4   30.64    1.07
   2  -7  -4    7.83    0.73
   2   7  -4    8.76    0.76
  -1  -7   4   15.19    0.82
   1  -7  -4   14.45    0.77
   1   7  -4   13.10    0.88
   0  -7  -4   95.11    2.22
   0  -7   4   95.92    2.31
   0   7  -4   91.10    2.32
  -1  -7  -4   23.31    1.09
   1  -7   4   24.56    1.24
  -1   7  -4   23.33    0.98
   2  -7   4   69.37    2.19
  -2  -7  -4   65.35    2.01
  -3  -7  -4    1.95    0.63
   3  -7   4    1.68    0.70
   4  -7   4    5.09    1.02
  -4  -7  -4    4.51    0.90
   6  -8  -4   11.25    1.17
   6   8  -4    9.72    0.99
   5  -8  -4    1.69    0.61
   5   8  -4    1.51    0.54
   5   8  -4    1.54    0.55
   4  -8  -4    5.45    0.77
   4   8  -4    4.22    0.68
   4   8  -4    4.41    0.61
   3  -8  -4    9.05    0.84
   3   8  -4    7.23    0.62
   3   8  -4    8.84    0.82
   2  -8  -4    7.69    0.73
   2   8  -4    6.38    0.70
  -1  -8   4  100.08    2.31
   1  -8  -4  100.83    2.23
   1   8  -4  101.34    2.53
   0  -8  -4   58.10    1.66
   0  -8   4   61.48    1.79
   0   8  -4   62.32    1.80
  -1  -8  -4   10.37    0.85
   1  -8   4   13.16    1.02
  -1   8  -4   11.32    0.77
  -2  -8  -4   51.06    1.75
   2  -8   4   49.80    1.88
  -3  -8  -4   18.04    1.23
   3  -8   4   18.38    1.37
  -4  -8  -4    5.76    0.97
   4  -8   4    5.80    1.04
   6   9  -4    1.21    0.57
   5  -9  -4    1.59    0.61
   5   9  -4    1.58    0.54
   5   9  -4    1.52    0.53
   4  -9  -4   19.81    1.20
   4   9  -4   18.57    1.14
   4   9  -4   17.73    0.96
   3  -9  -4   44.23    1.58
   3   9  -4   43.29    1.61
   2  -9  -4    5.40    0.65
   2   9  -4    6.59    0.74
  -1  -9   4    6.48    0.66
   1  -9  -4    7.29    0.63
   1   9  -4    7.74    0.75
   0  -9   4   57.67    1.77
   0  -9  -4   57.72    1.66
   0   9  -4   57.66    1.76
  -1  -9  -4    0.16    0.39
   1  -9   4    0.28    0.47
  -1   9  -4    0.06    0.34
   2  -9   4   53.24    1.97
  -2  -9  -4   53.68    1.82
  -3  -9  -4    6.30    0.88
   3  -9   4    5.98    0.94
   4  -9   4    2.14    0.83
  -4  -9  -4    1.84    0.73
   5 -10  -4    0.90    0.57
   5  10  -4    1.20    0.52
   4 -10  -4    3.62    0.68
   4  10  -4    2.78    0.60
   3 -10  -4    7.70    0.83
   3  10  -4    7.28    0.83
   2 -10  -4    7.84    0.64
   2 -10  -4    7.94    0.78
  -2 -10   4    7.56    0.66
   2  10  -4    9.10    0.85
   1 -10  -4   96.51    2.21
  -1 -10   4   97.44    2.34
   1  10  -4   90.38    2.45
   0 -10   4   24.33    1.20
   0 -10  -4   24.06    1.09
   0  10  -4   22.32    1.12
  -1 -10  -4   15.63    0.98
   1 -10   4   15.69    1.12
  -1  10  -4   15.23    0.91
  -2 -10  -4   45.15    1.67
   2 -10   4   44.81    1.81
   3 -10   4   17.36    1.37
  -3 -10  -4   17.36    1.23
   4 -10   4    4.57    1.00
  -4 -10  -4    5.09    0.91
   5 -11  -4    0.59    0.55
   5  11  -4    0.86    0.53
   4 -11  -4   15.84    1.14
   4  11  -4   15.15    1.10
   3 -11  -4   47.07    1.68
   3  11  -4   45.26    1.72
  -2 -11   4    7.43    0.67
   2 -11  -4    4.84    0.54
   2 -11  -4    5.05    0.65
   2  11  -4    6.62    0.78
   1 -11  -4   24.48    1.05
  -1 -11   4   22.39    1.11
   1  11  -4   24.08    1.20
   0 -11  -4   45.11    1.54
   0 -11   4   48.84    1.70
   0  11  -4   49.53    1.68
  -1 -11  -4    3.89    0.63
  -1  11  -4    3.13    0.55
  -2 -11  -4   45.17    1.69
   2 -11   4   43.53    1.81
  -3 -11  -4   11.64    1.17
   3 -11   4    9.87    1.17
  -4 -11  -4    6.98    1.04
   4 -11   4    4.53    1.00
   5 -12  -4    1.98    0.66
   5  12  -4    1.16    0.55
   4 -12  -4    9.22    0.97
   4  12  -4   10.96    1.04
   3 -12  -4    7.91    0.87
   3  12  -4    8.65    0.92
   2 -12  -4    5.98    0.61
   2 -12  -4    6.60    0.73
  -2 -12   4    6.01    0.64
   2  12  -4    6.19    0.76
   1 -12  -4  148.51    3.10
  -1 -12   4  140.36    3.17
   1  12  -4  137.97    3.36
   0 -12  -4   16.30    1.01
   0 -12   4   16.10    1.09
   0  12  -4   15.67    1.05
  -1 -12  -4   20.94    1.13
   1 -12   4   20.22    1.26
  -1  12  -4   19.57    1.08
  -2 -12  -4   39.63    1.63
   2 -12   4   39.36    1.75
  -3 -12  -4   18.39    1.31
   3 -12   4   17.41    1.49
  -4 -12  -4    7.17    1.05
   4 -12   4    7.28    1.15
   5 -13  -4    5.87    0.87
   5  13  -4    5.49    0.82
   4 -13  -4   36.46    1.62
   4  13  -4   38.23    1.67
   3 -13  -4   42.51    1.65
   3  13  -4   43.94    1.74
   2 -13  -4   11.44    0.83
   2 -13  -4   11.39    0.91
  -2 -13   4   13.17    0.87
   2  13  -4   11.97    0.99
   1 -13  -4    4.77    0.63
  -1 -13   4    6.33    0.74
   1  13  -4    5.97    0.76
   0 -13   4   28.36    1.38
   0 -13  -4   27.37    1.27
   0  13  -4   28.52    1.34
  -1 -13  -4   12.78    1.00
   1 -13   4   12.10    1.08
  -1  13  -4   12.80    0.97
   2 -13   4   37.40    1.76
  -2 -13  -4   37.62    1.59
  -3 -13  -4    8.85    1.03
   3 -13   4    8.80    1.17
   5 -14  -4    1.64    0.65
   5  14  -4    2.46    0.66
   4 -14  -4    3.47    0.71
   4  14  -4    2.80    0.67
   3 -14  -4   13.93    1.06
   3  14  -4   13.71    1.12
  -2 -14   4    6.84    0.75
   2 -14  -4    4.95    0.66
   2 -14  -4    5.40    0.73
   2  14  -4    7.52    0.84
  -1 -14   4   75.56    2.18
   1 -14  -4   76.71    2.09
   1  14  -4   73.68    2.30
   0 -14   4   15.50    1.14
   0 -14  -4   14.98    1.03
   0  14  -4   14.26    1.07
  -1 -14  -4   18.83    1.18
   1 -14   4   21.10    1.36
  -1  14  -4   22.14    1.21
   2 -14   4   26.34    1.55
  -2 -14  -4   27.19    1.44
   3 -14   4   24.64    1.63
  -3 -14  -4   27.83    1.56
   5 -15  -4    2.84    0.74
   5  15  -4    3.17    0.72
   4 -15  -4   21.22    1.33
   4  15  -4   22.05    1.38
   3 -15  -4   15.54    1.12
   3  15  -4   15.23    1.20
   2 -15  -4   10.84    0.90
  -2 -15   4   12.32    0.92
   2 -15  -4   12.69    1.09
   2  15  -4   11.46    1.08
  -1 -15   4   13.23    1.05
   1 -15  -4   13.70    0.99
   1 -15  -4   14.54    1.03
   1  15  -4   14.23    1.12
   0 -15   4   28.09    1.47
   0 -15  -4   29.66    1.38
   0  15  -4   29.17    1.43
  -1 -15  -4    8.89    0.98
   1 -15   4   10.08    1.09
   2 -15   4   15.25    1.29
  -2 -15  -4   17.00    1.23
   3 -15   4    9.14    1.20
  -3 -15  -4    8.67    1.09
   5 -16  -4    1.73    0.72
   5  16  -4    2.22    0.66
   4 -16  -4    6.79    0.89
   4  16  -4    8.70    1.04
   3 -16  -4    5.14    0.78
   3  16  -4    4.65    0.81
  -2 -16   4    0.83    0.46
   2 -16  -4    0.80    0.48
   2 -16  -4    0.74    0.49
   2  16  -4    2.05    0.64
   1 -16  -4   47.15    1.74
   1 -16  -4   47.69    1.72
  -1 -16   4   46.61    1.80
   1  16  -4   47.93    1.87
   0 -16   4   21.84    1.38
   0 -16  -4   23.08    1.33
   0  16  -4   23.97    1.34
   1 -16   4   10.79    1.13
  -1 -16  -4   12.54    1.13
   2 -16   4   20.71    1.46
  -2 -16  -4   20.49    1.35
   3 -16   4   16.44    1.50
  -3 -16  -4   14.30    1.32
   5  17  -4    0.87    0.57
   4 -17  -4   16.80    1.26
   4  17  -4   20.53    1.38
   3 -17  -4   17.94    1.22
   3  17  -4   17.98    1.30
  -2 -17   4    8.52    0.88
   2 -17  -4    9.53    0.99
   2  17  -4   10.89    1.10
   1 -17  -4   10.44    1.03
  -1 -17   4    9.62    1.01
   1 -17  -4    9.25    0.96
   1  17  -4    9.84    1.02
   0 -17  -4   25.93    1.41
   0 -17   4   27.67    1.51
   0  17  -4   26.37    1.45
  -1 -17  -4   12.07    1.15
   1 -17   4   12.19    1.22
  -2 -17  -4   25.93    1.50
   2 -17   4   21.97    1.54
  -3 -17  -4    2.75    0.75
   3 -17   4    1.91    0.80
   4 -18  -4    5.21    0.85
   4  18  -4    6.94    0.94
   3 -18  -4    2.17    0.66
   3  18  -4    3.43    0.77
  -2 -18   4   11.68    1.02
   2 -18  -4   11.21    1.08
   2  18  -4   10.22    1.13
  -1 -18   4   69.42    2.30
   1 -18  -4   65.78    2.20
   1 -18  -4   67.39    2.18
   1  18  -4   67.69    2.36
   0 -18  -4   17.44    1.26
   0 -18   4   18.81    1.36
   0  18  -4   18.76    1.31
   1 -18   4   13.00    1.28
  -1 -18  -4    9.15    1.05
   2 -18   4   25.93    1.66
  -2 -18  -4   24.44    1.50
   4 -19  -4   10.93    1.12
   4  19  -4   16.33    1.35
   3 -19  -4   11.77    1.13
   3  19  -4   13.48    1.26
   2 -19  -4   22.78    1.34
  -2 -19   4   23.32    1.35
   2  19  -4   25.43    1.53
   1 -19  -4    6.85    0.93
  -1 -19   4    5.25    0.84
   1 -19  -4    5.45    0.84
   1  19  -4    5.84    0.90
   0 -19   4   24.65    1.56
   0 -19  -4   23.41    1.48
  -1 -19  -4    5.49    0.92
   1 -19   4    6.18    1.01
  -2 -19  -4   22.80    1.50
   2 -19   4   23.64    1.65
   4 -20  -4    8.70    1.08
   4  20  -4    7.76    1.14
   3 -20  -4    4.18    0.78
   3  20  -4    4.67    0.87
  -2 -20   4    9.40    1.04
   2 -20  -4   10.44    1.07
   2  20  -4   11.85    1.19
  -1 -20   4   36.89    1.79
   1 -20  -4   36.16    1.64
   1 -20  -4   35.55    1.68
   1  20  -4   36.16    1.78
   0 -20  -4   15.00    1.30
   0 -20   4   16.66    1.40
   1 -20   4   20.21    1.57
  -1 -20  -4   20.46    1.45
   2 -20   4   10.08    1.23
  -2 -20  -4   11.49    1.26
   3 -21  -4    8.03    0.97
   3  21  -4    9.19    1.09
   2 -21  -4   18.75    1.27
   2  21  -4   17.14    1.37
   1 -21  -4    6.37    0.91
   1 -21  -4    6.16    0.94
  -1 -21   4    6.49    0.95
   0 -21  -4   15.97    1.38
   0 -21   4   16.03    1.43
  -1 -21  -4    0.64    0.67
   1 -21   4    0.11    0.64
   3 -22  -4    1.64    0.66
   2 -22  -4    2.64    0.69
   2  22  -4    3.06    0.76
   1 -22  -4   21.77    1.40
   1 -22  -4   21.16    1.48
  -1 -22   4   23.80    1.59
   0 -22   4    4.79    0.97
   0 -22  -4    6.23    1.09
  -1 -22  -4   19.60    1.54
   1 -22   4   19.57    1.63
   2 -23  -4    7.97    1.03
   1 -23  -4   11.85    1.23
   1 -23  -4   11.57    1.27
  -1 -23   4    9.19    1.17
   0 -23  -4    8.20    1.17
   0 -23   4    6.81    1.10
   2 -24  -4    2.10    0.69
  -1 -24   4   29.03    1.80
   1 -24  -4   26.30    1.58
   1 -24  -4   24.92    1.66
   0 -24  -4    4.12    0.96
   6   0  -5   -0.17    0.53
   6   0  -5   -0.14    0.56
   5   0  -5   10.75    1.07
   4   0  -5    0.34    0.47
   3   0  -5   46.49    1.57
   2   0  -5    1.02    0.43
   1   0  -5    3.12    0.50
  -1   0   5    2.17    0.43
   0   0   5   50.77    1.65
   1   0   5   61.52    2.04
   2   0   5    0.43    0.62
   3   0   5    1.37    0.72
   6  -1  -5    2.12    0.71
   6  -1  -5    1.50    0.66
   6   1  -5    4.15    0.81
   6   1  -5    1.94    0.72
   5  -1  -5    9.26    0.97
   5   1  -5    9.64    0.98
   5   1  -5    8.88    0.98
   4  -1  -5    1.23    0.53
   4   1  -5    0.57    0.48
   3  -1  -5   27.44    1.24
   3   1  -5   24.81    1.17
   2  -1  -5   62.66    1.78
   2   1  -5   61.22    1.72
  -1  -1   5    9.10    0.71
   1  -1  -5    9.74    0.76
   1   1  -5    7.92    0.68
   0  -1   5    9.94    0.89
   0   1  -5    9.25    0.78
   0   1   5    9.88    0.91
   1  -1   5    8.41    0.94
   1   1   5   10.60    1.05
   2  -1   5    0.53    0.63
   2   1   5    0.38    0.62
   3  -1   5   48.70    2.15
   3   1   5   47.62    2.11
   6  -2  -5    1.61    0.69
   6   2  -5    0.83    0.66
   6   2  -5    0.53    0.58
   5  -2  -5   15.34    1.21
   5   2  -5   16.04    1.16
   5   2  -5   15.93    1.26
   4  -2  -5   10.36    0.97
   4   2  -5    8.14    0.82
   3  -2  -5   14.25    1.02
   3   2  -5   15.92    0.98
   2  -2  -5    7.63    0.77
   2   2  -5    6.51    0.66
  -1  -2   5    2.71    0.47
   1  -2  -5    2.37    0.50
   1   2  -5    2.45    0.52
   1   2  -5    2.18    0.42
   0  -2   5   55.97    1.75
   0   2   5   56.86    1.73
   0   2  -5   54.11    1.69
   1  -2   5   80.10    2.38
   1   2   5   83.64    2.37
   2  -2   5    0.85    0.64
   2   2   5    0.96    0.63
   3  -2   5    3.44    0.91
   6   3  -5    1.38    0.65
   6   3  -5    2.75    0.71
   5  -3  -5    7.23    0.91
   5   3  -5    8.81    1.01
   5   3  -5    6.61    0.86
   4  -3  -5    3.09    0.69
   4   3  -5    2.07    0.55
   4   3  -5    2.38    0.66
   3  -3  -5   15.69    1.05
   3   3  -5   14.43    0.92
   3   3  -5   15.97    1.11
   2  -3  -5   70.49    1.97
   2   3  -5   69.95    1.80
   2   3  -5   70.38    2.11
   1  -3  -5    3.24    0.47
   1  -3  -5    3.67    0.57
  -1  -3   5    3.73    0.52
   1   3  -5    3.09    0.45
   1   3  -5    3.91    0.62
   0  -3   5   18.09    1.07
   0   3  -5   15.96    0.97
   1  -3   5   10.31    1.01
   2  -3   5    0.54    0.62
   3  -3   5   35.94    1.89
   6   4  -5    1.91    0.64
   6   4  -5    2.08    0.69
   5  -4  -5    7.77    0.97
   5   4  -5    7.63    0.86
   5   4  -5    9.23    0.99
   4  -4  -5    1.54    0.59
   4   4  -5    1.99    0.52
   4   4  -5    1.44    0.60
   3  -4  -5   12.22    0.96
   3   4  -5   13.04    0.86
   3   4  -5   13.44    1.03
   2  -4  -5    7.07    0.74
   2   4  -5    5.96    0.58
   2   4  -5    6.98    0.81
   1  -4  -5    1.08    0.45
   1  -4  -5    0.92    0.38
  -1  -4   5    1.23    0.44
   1   4  -5    1.70    0.52
   1   4  -5    0.72    0.32
   0  -4   5   65.96    1.97
   0  -4  -5   66.73    1.86
   0   4  -5   67.68    1.95
   1  -4   5   87.36    2.52
   2  -4   5   -0.60    0.56
   3  -4   5    0.48    0.68
  -3  -4  -5    0.60    0.62
   6   5  -5    6.31    0.85
   6   5  -5    4.64    0.85
   5  -5  -5    8.56    1.00
   5   5  -5    9.46    1.07
   5   5  -5    6.03    0.81
   4  -5  -5    0.79    0.55
   4   5  -5    1.02    0.57
   4   5  -5    0.62    0.44
   3  -5  -5    8.53    0.89
   3   5  -5    7.31    0.69
   3   5  -5    7.38    0.87
   2  -5  -5   73.59    2.05
   2   5  -5   73.31    2.18
  -1  -5   5    0.73    0.40
   1  -5  -5    0.11    0.34
   1  -5  -5    0.49    0.42
   1   5  -5    0.92    0.45
   0  -5   5    8.64    0.87
   0  -5  -5    7.76    0.79
   0   5  -5    7.61    0.78
   1  -5   5   10.31    1.04
  -1  -5  -5   10.55    0.93
   2  -5   5    0.17    0.59
  -2  -5  -5    0.62    0.56
  -3  -5  -5   32.17    1.67
   3  -5   5   28.77    1.78
   6   6  -5    0.56    0.57
   6   6  -5    0.88    0.59
   5  -6  -5   10.82    1.11
   5   6  -5    9.42    0.94
   5   6  -5   11.21    1.17
   4  -6  -5    1.47    0.56
   4   6  -5    2.56    0.65
   4   6  -5    1.81    0.51
   3  -6  -5   19.29    1.14
   3   6  -5   16.13    1.12
   2  -6  -5    4.50    0.67
   2   6  -5    3.93    0.65
  -1  -6   5    1.06    0.41
   1  -6  -5    0.57    0.43
   1  -6  -5    0.83    0.41
   1   6  -5   -0.23    0.38
   0  -6  -5   64.74    1.87
   0  -6   5   66.85    2.00
   0   6  -5   67.17    1.99
   1  -6   5   71.53    2.27
  -1  -6  -5   73.45    2.15
   2  -6   5    4.79    0.90
  -2  -6  -5    6.14    0.91
   3  -6   5    1.21    0.75
  -3  -6  -5    2.03    0.73
   6   7  -5    5.17    0.90
   5  -7  -5    6.45    0.92
   5   7  -5    5.83    0.87
   4  -7  -5    1.10    0.55
   4   7  -5    1.21    0.56
   3  -7  -5   17.86    1.13
   3   7  -5   16.26    1.13
   2  -7  -5   66.58    1.99
   2   7  -5   64.25    2.08
  -1  -7   5    0.30    0.40
   1  -7  -5    0.34    0.36
   1  -7  -5    0.81    0.46
   1   7  -5    1.11    0.48
   0  -7   5   12.20    1.00
   0  -7  -5   11.42    0.90
   0   7  -5   11.97    0.95
  -1  -7  -5    7.98    0.92
   1  -7   5    9.01    0.98
  -2  -7  -5    4.89    0.81
   2  -7   5    4.32    0.92
  -3  -7  -5   33.45    1.70
   3  -7   5   26.68    1.76
   6   8  -5    0.88    0.58
   5  -8  -5    8.08    1.01
   5   8  -5    6.97    0.94
   4  -8  -5    3.43    0.70
   4   8  -5    2.72    0.67
   3  -8  -5   18.42    1.17
   3   8  -5   16.68    1.15
   2  -8  -5    8.17    0.85
   2   8  -5   10.10    1.02
   1  -8  -5    0.42    0.46
   1  -8  -5    0.39    0.40
  -1  -8   5    1.66    0.47
   1   8  -5    1.06    0.48
   0  -8   5   56.27    1.86
   0  -8  -5   50.27    1.67
   0   8  -5   50.99    1.77
  -1  -8  -5   38.80    1.56
   1  -8   5   37.67    1.67
   2  -8   5    5.67    0.99
  -2  -8  -5    9.14    1.09
  -3  -8  -5    1.46    0.69
   3  -8   5    2.71    0.86
   5  -9  -5    7.53    0.98
   5   9  -5    6.55    0.91
   4  -9  -5    1.06    0.59
   4   9  -5    1.71    0.58
   3  -9  -5   14.52    1.10
   3   9  -5   15.79    1.16
   2  -9  -5   71.01    2.12
   2   9  -5   69.63    2.21
  -1  -9   5   12.94    0.93
   1  -9  -5   15.42    0.93
   1  -9  -5   12.20    0.94
   1   9  -5   14.50    1.03
   0  -9  -5    7.35    0.81
   0  -9   5    7.71    0.88
   0   9  -5    7.70    0.82
   1  -9   5    4.45    0.81
  -1  -9  -5    3.87    0.74
   2  -9   5    3.09    0.81
  -2  -9  -5    2.60    0.69
  -3  -9  -5   36.14    1.83
   3  -9   5   30.84    1.86
   5 -10  -5    9.24    1.09
   5  10  -5    8.85    1.02
   4 -10  -5    5.75    0.83
   4  10  -5    4.62    0.80
   3 -10  -5   17.01    1.17
   3  10  -5   16.65    1.19
   2 -10  -5    4.45    0.71
   2  10  -5    3.67    0.72
  -1 -10   5    5.78    0.70
   1 -10  -5    6.42    0.73
   1 -10  -5    6.91    0.85
   1  10  -5    6.10    0.76
   0 -10  -5   41.94    1.55
   0 -10   5   41.88    1.67
   0  10  -5   44.54    1.68
   1 -10   5   30.55    1.60
  -1 -10  -5   30.99    1.45
  -2 -10  -5    3.61    0.76
   2 -10   5    2.00    0.77
  -3 -10  -5    0.63    0.64
   3 -10   5    2.64    0.88
   5 -11  -5    4.77    0.84
   5  11  -5    4.26    0.80
   4 -11  -5    0.53    0.54
   4  11  -5    0.63    0.56
   3 -11  -5   20.05    1.26
   3  11  -5   20.51    1.32
   2 -11  -5   45.10    1.70
   2  11  -5   40.35    1.69
   1 -11  -5    2.21    0.54
  -1 -11   5    2.57    0.57
   1 -11  -5    2.53    0.61
   1  11  -5    2.50    0.62
   0 -11   5   13.05    1.11
   0 -11  -5   13.94    1.03
   0  11  -5   13.74    1.06
   1 -11   5    5.32    0.88
  -1 -11  -5    5.75    0.85
  -2 -11  -5    1.23    0.63
   2 -11   5    0.03    0.64
  -3 -11  -5   28.67    1.68
   3 -11   5   26.49    1.81
   5 -12  -5    6.51    0.95
   5  12  -5    7.92    0.99
   4 -12  -5    0.47    0.55
   4  12  -5    0.07    0.54
   3 -12  -5   20.44    1.30
   3  12  -5   19.55    1.30
   2 -12  -5    1.25    0.56
   2  12  -5    2.05    0.68
  -1 -12   5    9.56    0.90
   1 -12  -5    9.44    0.86
   1 -12  -5    8.86    0.95
   1  12  -5    8.96    0.96
   0 -12  -5   32.05    1.43
   0 -12   5   32.38    1.56
   0  12  -5   34.17    1.57
   1 -12   5   42.87    1.91
  -1 -12  -5   40.60    1.66
   2 -12   5    0.97    0.69
  -2 -12  -5    0.74    0.63
  -3 -12  -5    2.28    0.78
   3 -12   5    2.57    0.88
   5  13  -5    4.58    0.83
   4 -13  -5    0.72    0.61
   4  13  -5    1.88    0.66
   3 -13  -5    5.47    0.84
   3  13  -5    5.52    0.86
   2 -13  -5   33.79    1.55
   2  13  -5   34.34    1.60
  -1 -13   5    4.56    0.70
   1 -13  -5    4.30    0.76
   1 -13  -5    4.13    0.70
   1  13  -5    4.37    0.76
   0 -13  -5   10.46    1.06
   0 -13   5   11.39    1.10
   0  13  -5   12.96    1.12
   1 -13   5    6.96    1.00
  -1 -13  -5    6.28    0.92
   2 -13   5    1.34    0.74
  -2 -13  -5    0.63    0.61
   4 -14  -5    0.68    0.55
   4  14  -5    0.03    0.57
   3 -14  -5    9.70    1.05
   3  14  -5    9.20    1.07
   2 -14  -5    3.26    0.70
   2  14  -5    2.26    0.69
   1 -14  -5   13.54    1.18
   1 -14  -5   11.99    1.06
  -1 -14   5   10.35    1.00
   1  14  -5   11.97    1.10
   0 -14   5   33.58    1.65
   0 -14  -5   33.40    1.52
   0  14  -5   37.77    1.68
   1 -14   5   52.19    2.14
  -1 -14  -5   54.63    2.07
  -2 -14  -5    3.01    0.79
   2 -14   5    3.10    0.87
   4 -15  -5    2.74    0.75
   4  15  -5    2.37    0.73
   3 -15  -5    6.25    0.91
   3  15  -5    6.99    0.97
   2 -15  -5   26.95    1.44
   2  15  -5   28.81    1.59
   1 -15  -5    2.36    0.65
  -1 -15   5    1.80    0.61
   1 -15  -5    1.05    0.57
   1  15  -5    1.74    0.63
   0 -15   5    9.27    1.06
   0 -15  -5    9.94    1.05
   0  15  -5   10.01    1.05
  -1 -15  -5    7.31    1.03
   1 -15   5    7.47    1.03
   2 -15   5    1.89    0.78
  -2 -15  -5    2.21    0.75
   4 -16  -5    2.32    0.71
   4  16  -5    1.03    0.68
   3 -16  -5    9.63    1.06
   3  16  -5    7.82    1.04
   2 -16  -5    4.22    0.77
   2  16  -5    2.43    0.71
  -1 -16   5    5.35    0.87
   1 -16  -5    5.39    0.86
   1 -16  -5    6.07    0.89
   1  16  -5    5.10    0.83
   0 -16  -5   25.95    1.47
   0 -16   5   26.74    1.57
   0  16  -5   29.25    1.59
   1 -16   5   34.66    1.85
  -1 -16  -5   34.13    1.69
  -2 -16  -5    9.73    1.19
   2 -16   5    8.22    1.15
   4  17  -5    1.64    0.75
   3 -17  -5   15.70    1.29
   3  17  -5   15.32    1.34
   2 -17  -5   23.12    1.44
   2  17  -5   26.00    1.56
   1 -17  -5    1.56    0.66
  -1 -17   5    2.38    0.71
   1 -17  -5    3.02    0.73
   1  17  -5    1.20    0.67
   0 -17   5    7.60    1.03
   0 -17  -5    9.42    1.09
   0  17  -5    8.38    1.04
  -1 -17  -5    3.45    0.86
   1 -17   5    1.53    0.74
  -2 -17  -5    4.79    0.97
   3 -18  -5   19.50    1.42
   3  18  -5   19.83    1.47
   2 -18  -5    0.33    0.56
   2  18  -5   -0.14    0.55
   1 -18  -5    3.69    0.85
   1 -18  -5    4.73    0.84
  -1 -18   5    4.27    0.88
   1  18  -5    5.69    0.95
   0 -18  -5   25.50    1.53
   0 -18   5   24.83    1.66
   0  18  -5   27.29    1.66
   1 -18   5   10.47    1.25
  -1 -18  -5   14.61    1.40
   3 -19  -5    5.00    0.89
   3  19  -5    7.31    1.07
   2 -19  -5   23.10    1.48
   2  19  -5   21.33    1.53
   1 -19  -5    1.66    0.64
  -1 -19   5    2.11    0.75
   1 -19  -5    0.49    0.68
   1  19  -5    2.02    0.72
   0 -19   5    7.43    1.11
   0 -19  -5    7.78    1.10
   0  19  -5    7.76    1.03
   1 -19   5    2.52    0.89
  -1 -19  -5    2.33    0.80
   2 -20  -5    2.35    0.75
   2  20  -5    2.18    0.75
  -1 -20   5    6.52    1.02
   1 -20  -5    5.47    0.93
   1 -20  -5    4.83    1.02
   1  20  -5    5.81    1.00
   0 -20  -5   13.24    1.33
   0 -20   5   13.15    1.36
  -1 -21   5    2.60    0.86
   1 -21  -5    2.80    0.78
   1  21  -5    3.59    0.88
   0 -21   5   13.54    1.43
   0 -21  -5   17.74    1.61
  -1 -22   5    8.69    1.19
   5   0  -6   -0.06    0.53
   5   0  -6    0.20    0.63
   4   0  -6    3.09    0.69
   3   0  -6    9.83    0.92
   2   0  -6   28.71    1.29
   1   0  -6   34.66    1.37
   0   0  -6    0.64    0.48
   0   0   6    1.76    0.58
   1   0   6    5.59    0.97
   2   0   6   60.18    2.40
   5  -1  -6    1.81    0.67
   5   1  -6    0.89    0.72
   4  -1  -6   15.37    1.19
   3  -1  -6    6.48    0.84
   3   1  -6    5.26    0.75
   2  -1  -6    3.69    0.65
   2   1  -6    1.94    0.54
   1  -1  -6   24.63    1.21
   1   1  -6   23.80    1.34
   1   1  -6   21.55    1.13
   0  -1  -6   10.70    0.94
   0  -1   6    9.30    0.99
   0   1  -6    9.42    0.90
   1  -1   6    8.01    1.09
   1   1   6    7.32    1.01
   2  -1   6    7.13    1.12
   2   1   6    8.72    1.18
   5  -2  -6    1.07    0.62
   5   2  -6    0.15    0.56
   5   2  -6   -0.06    0.62
   4  -2  -6    1.37    0.63
   4   2  -6    0.04    0.58
   4   2  -6    0.88    0.54
   3  -2  -6    4.95    0.79
   3   2  -6    4.30    0.69
   3   2  -6    5.28    0.90
   2  -2  -6   13.39    1.02
   2   2  -6   15.44    1.16
   1  -2  -6   23.56    1.22
   1   2  -6   25.63    1.35
   0  -2   6    0.69    0.55
   0   2  -6    0.20    0.46
   1  -2   6    5.95    0.96
   2  -2   6   29.06    1.89
   5  -3  -6    1.58    0.65
   5   3  -6    0.96    0.76
   5   3  -6    1.46    0.65
   4  -3  -6   22.01    1.39
   4   3  -6   24.25    1.54
   3  -3  -6    4.91    0.78
   3   3  -6    4.31    0.78
   2  -3  -6    3.24    0.66
   2   3  -6    6.10    0.88
   1  -3  -6   25.24    1.27
   1   3  -6   25.71    1.37
   0  -3  -6    9.63    0.94
   0  -3   6    9.58    1.02
   0   3  -6    9.41    0.93
   1  -3   6    9.80    1.14
   2  -3   6    1.92    0.82
   5  -4  -6    0.27    0.57
   5   4  -6   -0.40    0.58
   4  -4  -6    3.85    0.78
   4   4  -6    2.38    0.74
   3  -4  -6    5.63    0.84
   3   4  -6    6.85    0.92
   2  -4  -6    5.14    0.76
   2   4  -6    4.02    0.75
   1  -4  -6   27.70    1.34
   1   4  -6   30.17    1.45
   0  -4   6    0.51    0.57
   0  -4  -6    1.49    0.55
   0   4  -6    1.00    0.52
  -1  -4  -6    6.67    0.89
   1  -4   6    8.37    1.11
   2  -4   6   25.23    1.70
  -2  -4  -6   26.52    1.65
   5  -5  -6    3.18    0.79
   5   5  -6    3.39    0.85
   4  -5  -6   21.05    1.36
   4   5  -6   17.96    1.41
   3  -5  -6    3.31    0.70
   3   5  -6    4.56    0.83
   2  -5  -6    1.67    0.57
   2   5  -6    2.61    0.71
   1  -5  -6   18.17    1.14
   1   5  -6   17.20    1.20
   0  -5  -6   10.21    0.99
   0  -5   6   10.97    1.06
   0   5  -6   10.71    0.99
   1  -5   6   20.77    1.44
  -1  -5  -6   21.55    1.41
  -2  -5  -6    3.33    0.80
   2  -5   6    3.99    0.98
   5  -6  -6    0.95    0.66
   5   6  -6    1.40    0.70
   4  -6  -6    3.08    0.76
   4   6  -6    1.63    0.70
   3  -6  -6    2.82    0.69
   3   6  -6    3.13    0.78
   2  -6  -6    3.14    0.70
   2   6  -6    2.98    0.72
   1  -6  -6   31.10    1.43
   1   6  -6   33.61    1.60
   0  -6  -6    2.41    0.62
   0  -6   6    2.07    0.66
   0   6  -6    3.04    0.63
   1  -6   6    7.21    1.03
  -1  -6  -6    7.43    0.94
  -2  -6  -6   30.28    1.68
   2  -6   6   36.56    1.95
   5  -7  -6    3.08    0.81
   5   7  -6    3.30    0.81
   4  -7  -6   12.76    1.18
   4   7  -6   14.99    1.36
   3  -7  -6    1.86    0.67
   3   7  -6    1.22    0.65
   2  -7  -6    0.31    0.52
   2   7  -6    0.56    0.55
   1  -7  -6   27.88    1.38
   1   7  -6   28.68    1.49
   0  -7   6   12.42    1.16
   0  -7  -6   15.05    1.09
   0   7  -6   14.46    1.13
  -1  -7  -6   17.66    1.26
   1  -7   6   19.50    1.42
  -2  -7  -6    6.21    0.97
   2  -7   6    5.51    1.02
   4  -8  -6    0.83    0.62
   4   8  -6    0.82    0.66
   3  -8  -6    2.67    0.69
   3   8  -6    4.91    0.84
   2  -8  -6    9.47    0.99
   2   8  -6    7.95    0.96
   1  -8  -6   23.77    1.31
   1   8  -6   23.19    1.36
   0  -8   6    9.96    1.04
   0  -8  -6    8.83    1.00
   0   8  -6    9.34    0.94
   1  -8   6    9.55    1.15
  -1  -8  -6   11.47    1.21
  -2  -8  -6   27.96    1.64
   2  -8   6   22.13    1.76
   4  -9  -6   13.05    1.23
   4   9  -6   14.17    1.32
   3  -9  -6    5.51    0.83
   3   9  -6    5.30    0.87
   2  -9  -6    1.20    0.59
   2   9  -6    0.60    0.55
   1  -9  -6   11.25    1.03
   1   9  -6   12.78    1.14
   0  -9   6    3.46    0.78
   0  -9  -6    4.52    0.80
   0   9  -6    4.56    0.75
  -1  -9  -6    5.55    0.90
   1  -9   6    4.56    0.89
   2  -9   6    1.22    0.76
  -2  -9  -6    1.58    0.71
   4 -10  -6    0.33    0.61
   4  10  -6    0.53    0.59
   3 -10  -6    2.32    0.68
   3  10  -6    1.87    0.67
   2 -10  -6   14.73    1.27
   2  10  -6   14.94    1.20
   1 -10  -6   15.15    1.16
   1  10  -6   13.78    1.17
   0 -10   6    0.72    0.63
   0 -10  -6   -0.21    0.51
   0  10  -6    0.37    0.53
  -1 -10  -6    2.03    0.71
   1 -10   6    3.51    0.90
   2 -10   6   21.88    1.71
  -2 -10  -6   25.94    1.64
   4 -11  -6   12.30    1.25
   4  11  -6   13.53    1.34
   3 -11  -6    1.88    0.68
   3  11  -6    2.00    0.68
   2 -11  -6    5.57    0.87
   2  11  -6    5.04    0.86
   1 -11  -6   20.50    1.30
   1  11  -6   16.51    1.25
   0 -11   6    9.98    1.11
   0 -11  -6   10.16    1.12
   0  11  -6    9.31    1.01
   1 -11   6    5.88    0.99
  -1 -11  -6    7.32    1.05
   2 -11   6    5.05    1.05
  -2 -11  -6    4.95    0.97
   4 -12  -6    1.32    0.68
   4  12  -6    0.39    0.61
   3 -12  -6    3.02    0.79
   3  12  -6    3.04    0.76
   2 -12  -6   13.88    1.25
   2  12  -6   11.55    1.15
   1 -12  -6   18.64    1.29
   1  12  -6   16.06    1.29
   0 -12  -6    2.60    0.71
   0 -12   6    2.48    0.75
   0  12  -6    2.10    0.70
   1 -12   6    4.58    0.95
  -1 -12  -6    7.71    1.11
   3 -13  -6    2.71    0.77
   3  13  -6    1.87    0.71
   2 -13  -6    6.39    0.95
   2  13  -6    8.31    1.03
   1 -13  -6    9.84    1.09
   1  13  -6   10.83    1.14
   0 -13   6    6.23    0.97
   0 -13  -6    5.13    0.89
   0  13  -6    4.36    0.83
  -1 -13  -6   11.36    1.33
   1 -13   6    8.54    1.12
   3 -14  -6    4.21    0.86
   3  14  -6    4.88    0.91
   2 -14  -6    7.18    1.00
   2  14  -6    7.77    1.05
   1 -14  -6   13.15    1.22
   1  14  -6   15.17    1.33
   0 -14   6    2.77    0.81
   0 -14  -6    4.91    0.92
   0  14  -6    3.58    0.80
  -1 -14  -6   11.73    1.33
   1 -14   6    6.29    1.06
   3 -15  -6    2.63    0.77
   3  15  -6    2.79    0.81
   2 -15  -6    4.56    0.89
   2  15  -6    4.99    0.93
   1 -15  -6   14.32    1.32
   1  15  -6   14.92    1.35
   0 -15   6    2.10    0.80
   0 -15  -6    3.75    0.87
   0  15  -6    3.47    0.83
  -1 -15  -6    6.66    1.08
   1 -15   6    7.07    1.14
   2 -16  -6    1.91    0.76
   2  16  -6    4.20    0.88
   1 -16  -6   13.48    1.29
   1  16  -6   11.14    1.21
   0 -16   6    6.58    1.05
   0 -16  -6    5.97    1.00
   0  16  -6    6.95    1.04
  -1 -16  -6    4.34    0.99
   2  17  -6    2.07    0.78
   1 -17  -6    8.92    1.12
   1  17  -6    8.55    1.13
   0 -17   6    1.08    0.74
   0 -17  -6   -0.17    0.67
   0  17  -6    0.73    0.68
   1  18  -6   18.59    1.58
   0 -18   6    2.82    0.92
   0 -18  -6    2.35    0.83
   0  18  -6    4.07    0.89
   4   0  -7    1.45    0.79
   3   0  -7    5.71    1.03
   2   0  -7    0.38    0.67
   1   0  -7    0.07    0.55
   4  -1  -7    1.00    0.68
   4   1  -7    1.54    0.76
   3   1  -7   15.38    1.45
   2   1  -7    8.73    1.12
   1  -1  -7   -0.20    0.52
   1   1  -7   -0.58    0.53
   1  -1   7    6.30    1.08
   4  -2  -7    0.80    0.66
   3  -2  -7    1.02    0.64
   3   2  -7    1.30    0.73
   2  -2  -7    0.71    0.59
   2   2  -7    0.89    0.69
   1   2  -7    0.93    0.62
  -1  -2  -7    7.33    1.10
   1  -2   7    5.55    1.09
   4  -3  -7    0.36    0.64
   3  -3  -7    7.62    1.01
   3   3  -7    8.20    1.14
   2  -3  -7    9.45    1.02
   2   3  -7   11.15    1.24
   1  -3  -7   -0.10    0.54
   1   3  -7    0.33    0.57
  -1  -3  -7    6.32    1.05
   1  -3   7    5.40    1.05
   4  -4  -7    0.22    0.61
   3  -4  -7    0.56    0.61
   3   4  -7    1.48    0.76
   2  -4  -7    1.16    0.62
   2   4  -7    1.38    0.70
   1  -4  -7    1.42    0.63
   1   4  -7    2.11    0.70
   1  -4   7    6.03    1.10
  -1  -4  -7    5.33    0.90
   4  -5  -7    0.37    0.61
   3  -5  -7    6.12    0.93
   3   5  -7    7.89    1.16
   2  -5  -7   10.24    1.06
   2   5  -7   12.60    1.32
   1  -5  -7    0.30    0.59
   1   5  -7    1.70    0.66
  -1  -5  -7    4.91    0.91
   1  -5   7    6.19    1.17
   4  -6  -7    0.00    0.59
   3  -6  -7    1.42    0.68
   3   6  -7    3.37    0.87
   2  -6  -7    0.09    0.54
   2   6  -7    0.56    0.63
   1  -6  -7    5.27    0.87
   1   6  -7    5.47    0.89
  -1  -6  -7    5.46    0.97
   1  -6   7    5.20    1.06
   3  -7  -7   11.47    1.15
   3   7  -7   12.02    1.25
   2  -7  -7    9.61    1.07
   2   7  -7   10.79    1.25
   1  -7  -7    2.39    0.72
   1   7  -7    3.24    0.75
   1  -7   7    4.11    1.01
  -1  -7  -7    3.44    0.91
   3  -8  -7    2.39    0.76
   3   8  -7    3.89    0.92
   2  -8  -7    1.52    0.65
   2   8  -7    1.77    0.72
   1  -8  -7    0.82    0.61
   1   8  -7    1.71    0.64
   1  -8   7    5.38    1.02
  -1  -8  -7    5.21    0.99
   3  -9  -7   10.67    1.21
   3   9  -7   10.95    1.26
   2  -9  -7    5.35    0.89
   2   9  -7    6.01    0.94
   1  -9  -7    2.08    0.70
   1   9  -7    1.21    0.63
   1  -9   7    3.39    0.98
  -1  -9  -7    2.20    0.78
   3 -10  -7    2.13    0.77
   2 -10  -7   -0.10    0.57
   2  10  -7    0.19    0.59
   1 -10  -7    0.01    0.57
   1  10  -7   -0.04    0.51
   2 -11  -7    6.24    0.98
   2  11  -7    7.53    1.11
   1 -11  -7    0.74    0.65
   1  11  -7    1.69    0.68
   2  12  -7    0.83    0.64
   1 -12  -7    1.81    0.81
   1  12  -7    1.90    0.71
   1  13  -7    2.17    0.78
   0   0   0    0.00    0.00
;
_shelx_hkl_checksum              6896
#END Tags that were not found in dictionaries
loop_
_space_group_symop_operation_xyz
'x, y, z'
'-x, y+1/2, -z'
loop_
_atom_site_type_symbol
_atom_site_label
_atom_site_fract_x
_atom_site_fract_y
_atom_site_fract_z
_atom_site_U_iso_or_equiv
_atom_site_adp_type
_atom_site_calc_flag
_atom_site_refinement_flags_adp
_atom_site_refinement_flags_posn
_atom_site_occupancy
Ag Ag1 0.21171(10) 0.85758(2) 0.43233(9) 0.02751(13) Uani d . . 1
Ag Ag2 -0.43474(10) 0.86714(2) -0.00795(9) 0.02832(13) Uani d . . 1
C C1 -0.0222(13) 0.7561(3) 0.0275(12) 0.0204(13) Uani d . . 1
C C2 0.1416(14) 0.6947(3) 0.1464(13) 0.0213(13) Uani d . . 1
H H2A 0.0201 0.6551 0.1055 0.026 Uiso calc U R 1
H H2B 0.3085 0.6883 0.0759 0.026 Uiso calc U R 1
C C3 0.2389(12) 0.7004(3) 0.4270(11) 0.0144(12) Uani d . . 1
H H3 0.0698 0.7043 0.4992 0.017 Uiso calc U R 1
C C4 0.4027(12) 0.6371(3) 0.5271(11) 0.0169(11) Uani d . . 1
C C5 0.3868(13) 0.5247(3) 0.6929(12) 0.0169(12) Uani d . . 1
H H5 0.5638 0.5201 0.6324 0.02 Uiso calc U R 1
C C6 0.4691(15) 0.5259(4) 0.9757(13) 0.0223(14) Uani d . . 1
H H6A 0.582 0.5661 1.0313 0.027 Uiso calc U R 1
H H6B 0.2965 0.5279 1.0405 0.027 Uiso calc U R 1
C C7 0.1937(13) 0.4656(3) 0.5916(12) 0.0173(12) Uani d . . 1
N N1 0.4178(11) 0.7602(3) 0.4931(10) 0.0197(11) Uani d . . 1
H H1A 0.5669 0.7589 0.399 0.024 Uiso calc U R 1
H H1B 0.5123 0.7569 0.6693 0.024 Uiso calc U R 1
N N2 0.2507(10) 0.5879(3) 0.5957(10) 0.0195(11) Uani d . . 1
H H2 0.0691 0.5933 0.5828 0.023 Uiso calc U R 1
N N3 0.6347(13) 0.4660(3) 1.0751(11) 0.0230(12) Uani d . . 1
H H3A 0.6978 0.4718 1.2551 0.028 Uiso calc U R 1
H H3B 0.806 0.4654 1.008 0.028 Uiso calc U R 1
O O1 0.0601(12) 0.7888(3) -0.1300(10) 0.0417(15) Uani d . . 1
O O2 -0.2426(11) 0.7715(3) 0.1089(11) 0.0351(13) Uani d . . 1
O O3 0.6607(9) 0.6325(3) 0.5382(12) 0.0363(14) Uani d . . 1
O O4 0.2622(13) 0.4288(4) 0.4336(12) 0.0504(18) Uani d . . 1
O O5 -0.0220(10) 0.4563(3) 0.6783(10) 0.0306(12) Uani d . . 1
loop_
_atom_site_aniso_label
_atom_site_aniso_U_11
_atom_site_aniso_U_22
_atom_site_aniso_U_33
_atom_site_aniso_U_12
_atom_site_aniso_U_13
_atom_site_aniso_U_23
Ag1 0.0301(2) 0.0139(2) 0.0340(3) 0.0062(2) -0.00206(19) -0.0033(2)
Ag2 0.0321(2) 0.0188(3) 0.0304(3) 0.0066(2) -0.00046(19) -0.0037(2)
C1 0.020(3) 0.020(3) 0.017(3) 0.002(2) -0.004(3) -0.004(2)
C2 0.020(3) 0.018(3) 0.024(3) 0.001(2) 0.003(3) -0.003(3)
C3 0.012(2) 0.012(3) 0.020(3) 0.002(2) 0.005(2) 0.003(2)
C4 0.014(2) 0.014(3) 0.024(3) 0.004(2) 0.005(2) 0.004(2)
C5 0.015(2) 0.011(3) 0.026(3) 0.000(2) 0.006(2) 0.003(2)
C6 0.026(3) 0.013(3) 0.027(4) 0.000(3) 0.005(3) -0.001(2)
C7 0.015(3) 0.015(3) 0.020(3) 0.001(2) 0.000(2) 0.000(2)
N1 0.019(3) 0.013(3) 0.024(3) 0.000(2) -0.001(2) 0.001(2)
N2 0.012(2) 0.016(3) 0.032(3) 0.0040(18) 0.008(2) 0.009(2)
N3 0.025(3) 0.021(3) 0.021(3) 0.001(2) 0.001(2) 0.004(2)
O1 0.043(3) 0.054(4) 0.032(3) 0.015(3) 0.018(3) 0.023(3)
O2 0.028(3) 0.030(3) 0.054(3) 0.012(2) 0.023(3) 0.017(3)
O3 0.013(2) 0.020(3) 0.078(4) 0.0053(18) 0.015(2) 0.021(3)
O4 0.042(3) 0.060(5) 0.054(4) -0.016(3) 0.022(3) -0.032(3)
O5 0.019(2) 0.027(3) 0.049(3) -0.009(2) 0.013(2) -0.009(2)
loop_
_atom_type_symbol
_atom_type_description
_atom_type_scat_dispersion_real
_atom_type_scat_dispersion_imag
_atom_type_scat_source
C C 0.0033 0.0016 'International Tables Vol C Tables 4.2.6.8 and 6.1.1.4'
H H 0.0000 0.0000 'International Tables Vol C Tables 4.2.6.8 and 6.1.1.4'
N N 0.0061 0.0033 'International Tables Vol C Tables 4.2.6.8 and 6.1.1.4'
O O 0.0106 0.0060 'International Tables Vol C Tables 4.2.6.8 and 6.1.1.4'
Ag Ag -0.8971 1.1015 'International Tables Vol C Tables 4.2.6.8 and 6.1.1.4'
loop_
_geom_angle_atom_site_label_1
_geom_angle_atom_site_label_2
_geom_angle_atom_site_label_3
_geom_angle_site_symmetry_1
_geom_angle_site_symmetry_3
_geom_angle
N1 Ag1 O5 . 2_556 172.0(2)
N1 Ag1 Ag2 . 1_656 77.17(15)
O5 Ag1 Ag2 2_556 1_656 108.31(15)
N1 Ag1 Ag2 . 1_655 82.53(15)
O5 Ag1 Ag2 2_556 1_655 89.71(13)
Ag2 Ag1 Ag2 1_656 1_655 117.68(2)
O2 Ag2 N3 . 2_556 172.3(2)
O2 Ag2 Ag1 . 1_454 109.72(17)
N3 Ag2 Ag1 2_556 1_454 76.77(15)
O2 Ag2 Ag1 . 1_455 89.23(13)
N3 Ag2 Ag1 2_556 1_455 83.98(16)
Ag1 Ag2 Ag1 1_454 1_455 117.69(2)
O1 C1 O2 . . 123.4(7)
O1 C1 C2 . . 121.1(6)
O2 C1 C2 . . 115.5(6)
C3 C2 C1 . . 113.0(5)
C3 C2 H2A . . 109.0
C1 C2 H2A . . 109.0
C3 C2 H2B . . 109.0
C1 C2 H2B . . 109.0
H2A C2 H2B . . 107.8
N1 C3 C2 . . 110.0(5)
N1 C3 C4 . . 110.8(5)
C2 C3 C4 . . 108.9(5)
N1 C3 H3 . . 109.0
C2 C3 H3 . . 109.0
C4 C3 H3 . . 109.0
O3 C4 N2 . . 123.0(6)
O3 C4 C3 . . 120.9(5)
N2 C4 C3 . . 116.1(5)
N2 C5 C6 . . 110.7(5)
N2 C5 C7 . . 110.2(5)
C6 C5 C7 . . 112.5(5)
N2 C5 H5 . . 107.8
C6 C5 H5 . . 107.8
C7 C5 H5 . . 107.8
N3 C6 C5 . . 111.3(6)
N3 C6 H6A . . 109.4
C5 C6 H6A . . 109.4
N3 C6 H6B . . 109.4
C5 C6 H6B . . 109.4
H6A C6 H6B . . 108.0
O4 C7 O5 . . 123.9(7)
O4 C7 C5 . . 118.5(6)
O5 C7 C5 . . 117.6(6)
C3 N1 Ag1 . . 117.7(4)
C3 N1 H1A . . 107.9
Ag1 N1 H1A . . 107.9
C3 N1 H1B . . 107.9
Ag1 N1 H1B . . 107.9
H1A N1 H1B . . 107.2
C4 N2 C5 . . 120.6(5)
C4 N2 H2 . . 119.7
C5 N2 H2 . . 119.7
C6 N3 Ag2 . 2_546 119.1(4)
C6 N3 H3A . . 107.5
Ag2 N3 H3A 2_546 . 107.5
C6 N3 H3B . . 107.5
Ag2 N3 H3B 2_546 . 107.5
H3A N3 H3B . . 107.0
C1 O2 Ag2 . . 116.2(5)
C7 O5 Ag1 . 2_546 110.8(4)
loop_
_geom_bond_atom_site_label_1
_geom_bond_atom_site_label_2
_geom_bond_site_symmetry_2
_geom_bond_distance
Ag1 N1 . 2.174(5)
Ag1 O5 2_556 2.200(5)
Ag1 Ag2 1_656 3.1840(7)
Ag1 Ag2 1_655 3.2821(7)
Ag2 O2 . 2.156(6)
Ag2 N3 2_556 2.192(6)
Ag2 Ag1 1_454 3.1840(7)
Ag2 Ag1 1_455 3.2821(7)
C1 O1 . 1.225(8)
C1 O2 . 1.283(8)
C1 C2 . 1.524(9)
C2 C3 . 1.521(9)
C2 H2A . 0.98
C2 H2B . 0.98
C3 N1 . 1.470(8)
C3 C4 . 1.525(8)
C3 H3 . 0.99
C4 O3 . 1.236(7)
C4 N2 . 1.332(8)
C5 N2 . 1.467(8)
C5 C6 . 1.525(9)
C5 C7 . 1.529(9)
C5 H5 . 0.99
C6 N3 . 1.472(9)
C6 H6A . 0.98
C6 H6B . 0.98
C7 O4 . 1.242(8)
C7 O5 . 1.255(8)
N1 H1A . 0.98
N1 H1B . 0.98
N2 H2 . 0.87
N3 Ag2 2_546 2.192(6)
N3 H3A . 0.98
N3 H3B . 0.98
O5 Ag1 2_546 2.200(5)
