#------------------------------------------------------------------------------
#$Date: 2016-03-24 14:28:49 +0200 (Thu, 24 Mar 2016) $
#$Revision: 179665 $
#$URL: svn://www.crystallography.net/cod/cif/4/51/18/4511822.cif $
#------------------------------------------------------------------------------
#
# This file is available in the Crystallography Open Database (COD),
# http://www.crystallography.net/
#
# All data on this site have been placed in the public domain by the
# contributors.
#
data_4511822
loop_
_publ_author_name
'Nauha, Elisa'
'Bernstein, Joel'
_publ_section_title
;
 &#x201C;Predicting&#x201D; Crystal Forms of Pharmaceuticals Using
 Hydrogen Bond Propensities: Two Test Cases
;
_journal_issue                   9
_journal_name_full               'Crystal Growth &amp; Design'
_journal_page_first              4364
_journal_paper_doi               10.1021/cg500478p
_journal_volume                  14
_journal_year                    2014
_chemical_absolute_configuration syn
_chemical_formula_moiety         'C7 H17 N O5'
_chemical_formula_sum            'C7 H17 N O5'
_chemical_formula_weight         195.21
_chemical_name_systematic
;
 ?
;
_space_group_crystal_system      triclinic
_space_group_IT_number           1
_space_group_name_Hall           'P 1'
_space_group_name_H-M_alt        'P 1'
_symmetry_space_group_name_Hall  'P 1'
_symmetry_space_group_name_H-M   'P 1'
_atom_sites_solution_hydrogens   mixed
_audit_creation_method           SHELXL-2013
_cell_angle_alpha                104.662(13)
_cell_angle_beta                 93.985(14)
_cell_angle_gamma                92.586(14)
_cell_formula_units_Z            1
_cell_length_a                   4.819(6)
_cell_length_b                   5.131(6)
_cell_length_c                   9.627(11)
_cell_measurement_temperature    100(2)
_cell_volume                     229.2(5)
_computing_structure_refinement  'SHELXL-2013 (Sheldrick, 2013)'
_diffrn_ambient_temperature      100(2)
_diffrn_measured_fraction_theta_full 0.994
_diffrn_measured_fraction_theta_max 0.927
_diffrn_radiation_type           MoK\a
_diffrn_radiation_wavelength     0.71073
_diffrn_reflns_av_R_equivalents  0.0294
_diffrn_reflns_av_unetI/netI     0.0419
_diffrn_reflns_Laue_measured_fraction_full 0.994
_diffrn_reflns_Laue_measured_fraction_max 0.927
_diffrn_reflns_limit_h_max       6
_diffrn_reflns_limit_h_min       -6
_diffrn_reflns_limit_k_max       6
_diffrn_reflns_limit_k_min       -6
_diffrn_reflns_limit_l_max       12
_diffrn_reflns_limit_l_min       -11
_diffrn_reflns_number            3423
_diffrn_reflns_point_group_measured_fraction_full 0.970
_diffrn_reflns_point_group_measured_fraction_max 0.871
_diffrn_reflns_theta_full        25.000
_diffrn_reflns_theta_max         27.083
_diffrn_reflns_theta_min         2.195
_exptl_absorpt_coefficient_mu    0.119
_exptl_absorpt_correction_T_max  0.7455
_exptl_absorpt_correction_T_min  0.6269
_exptl_absorpt_correction_type   multi-scan
_exptl_absorpt_process_details   sadabs
_exptl_crystal_colour            colorless
_exptl_crystal_density_diffrn    1.414
_exptl_crystal_description       plate
_exptl_crystal_F_000             106
_exptl_crystal_size_max          0.180
_exptl_crystal_size_mid          0.120
_exptl_crystal_size_min          0.060
_refine_diff_density_max         0.298
_refine_diff_density_min         -0.244
_refine_diff_density_rms         0.056
_refine_ls_abs_structure_details
;
 Flack x determined using 757 quotients [(I+)-(I-)]/[(I+)+(I-)]
 (Parsons and Flack (2004), Acta Cryst. A60, s61).
;
_refine_ls_abs_structure_Flack   0.2(7)
_refine_ls_extinction_method     none
_refine_ls_goodness_of_fit_ref   1.108
_refine_ls_hydrogen_treatment    mixed
_refine_ls_matrix_type           full
_refine_ls_number_parameters     137
_refine_ls_number_reflns         1762
_refine_ls_number_restraints     3
_refine_ls_restrained_S_all      1.107
_refine_ls_R_factor_all          0.0365
_refine_ls_R_factor_gt           0.0345
_refine_ls_shift/su_max          0.000
_refine_ls_shift/su_mean         0.000
_refine_ls_structure_factor_coef Fsqd
_refine_ls_weighting_details
'w=1/[\s^2^(Fo^2^)+(0.0440P)^2^+0.0982P] where P=(Fo^2^+2Fc^2^)/3'
_refine_ls_weighting_scheme      calc
_refine_ls_wR_factor_gt          0.0922
_refine_ls_wR_factor_ref         0.0984
_reflns_Friedel_coverage         0.878
_reflns_Friedel_fraction_full    0.946
_reflns_Friedel_fraction_max     0.814
_reflns_number_gt                1693
_reflns_number_total             1762
_reflns_threshold_expression     'I > 2\s(I)'
_cod_data_source_file            cg500478p_si_001.cif
_cod_data_source_block           MEG_II
_cod_depositor_comments
'Adding full bibliography for 4511819--4511822.cif.'
_cod_database_code               4511822
#BEGIN Tags that were not found in dictionaries:
_shelx_space_group_comment
;
The symmetry employed for this shelxl refinement is uniquely defined
by the following loop, which should always be used as a source of
symmetry information in preference to the above space-group names.
They are only intended as comments.
;
_shelx_estimated_absorpt_t_min   0.979
_shelx_estimated_absorpt_t_max   0.993
_shelxl_version_number           2013-4
_shelx_res_file
;
TITL ekn028 in P1
CELL 0.71073   4.8186   5.1308   9.6265 104.662  93.985  92.586
ZERR    1.00   0.0055   0.0058   0.0109   0.013   0.014   0.014
LATT -1
SFAC C H N O
UNIT 7 17 1 5
LIST 4
TEMP -173.140
SIZE 0.06 0.12 0.18
ACTA
CONF
L.S. 4
BOND $H
EQIV $1 x, y-1, z
HTAB O1 O3_$1
EQIV $2 x+1, y, z
HTAB O2 O1_$2
EQIV $3 x-1, y, z
HTAB O3 O4_$3
EQIV $4 x, y+1, z
HTAB O4 O2_$4
HTAB O5 N1_$2
EQIV $5 x, y, z-1
HTAB N1 O1_$5
EQIV $6 x-1, y-1, z
HTAB C7 O5_$6
ACTA 50
FMAP 2
PLAN 10
WGHT    0.044000    0.098200
FVAR       0.88026
O1    4   -0.080695    0.253844    0.380885    11.00000    0.01442    0.01216 =
         0.01631    0.00209    0.00125    0.00003
H1    2   -0.031463    0.118333    0.335280    11.00000   -1.20000
O2    4    0.420838    0.243276    0.227366    11.00000    0.01346    0.01413 =
         0.01651    0.00164   -0.00441    0.00335
H2    2    0.544053    0.260774    0.278208    11.00000   -1.20000
O3    4   -0.060521    0.748691    0.193687    11.00000    0.01006    0.01526 =
         0.01514    0.00030   -0.00184    0.00369
H3    2   -0.212267    0.721242    0.148347    11.00000   -1.20000
O4    4    0.440015    0.738566    0.047902    11.00000    0.01052    0.01081 =
         0.01837    0.00207    0.00037   -0.00086
H4    2    0.374797    0.880464    0.085165    11.00000   -1.20000
O5    4    0.190824    0.586576   -0.229900    11.00000    0.01427    0.01726 =
         0.01565    0.00746    0.00218    0.00165
H5    2    0.314990    0.513643   -0.239751    11.00000   -1.20000
N1    3   -0.330232    0.281817   -0.297899    11.00000    0.01356    0.01416 =
         0.01269    0.00441   -0.00147   -0.00238
H1N   2   -0.235238    0.349586   -0.356775    11.00000   -1.20000
C1    1    0.126952    0.475003    0.407080    11.00000    0.01644    0.01420 =
         0.01245    0.00302   -0.00132    0.00037
AFIX  23
H1A   2    0.266017    0.459290    0.484733    11.00000   -1.20000
H1B   2    0.036640    0.646620    0.440992    11.00000   -1.20000
AFIX   0
C2    1    0.276604    0.484382    0.273872    11.00000    0.01152    0.01135 =
         0.01119    0.00222   -0.00096    0.00015
AFIX  13
H2A   2    0.415618    0.643251    0.299133    11.00000   -1.20000
AFIX   0
C3    1    0.079256    0.506058    0.146253    11.00000    0.01305    0.01044 =
         0.01449    0.00139   -0.00085    0.00262
AFIX  13
H3A   2   -0.060927    0.348126    0.120588    11.00000   -1.20000
AFIX   0
C4    1    0.235814    0.514864    0.013471    11.00000    0.00985    0.01272 =
         0.01270    0.00265    0.00033   -0.00045
AFIX  13
H4A   2    0.337193    0.345786   -0.013167    11.00000   -1.20000
AFIX   0
C5    1    0.040466    0.524705   -0.118380    11.00000    0.01256    0.01180 =
         0.01384    0.00180   -0.00062    0.00130
AFIX  13
H5A   2   -0.089816    0.670519   -0.086804    11.00000   -1.20000
AFIX   0
C6    1   -0.134033    0.258357   -0.178734    11.00000    0.01511    0.01535 =
         0.01037    0.00404   -0.00021    0.00142
AFIX  23
H6A   2   -0.010100    0.111107   -0.213550    11.00000   -1.20000
H6B   2   -0.238203    0.213707   -0.101801    11.00000   -1.20000
AFIX   0
C7    1   -0.457304    0.016293   -0.378903    11.00000    0.01990    0.01641 =
         0.01558    0.00088   -0.00268   -0.00104
AFIX 137
H7A   2   -0.567958   -0.061422   -0.315825    11.00000   -1.50000
H7B   2   -0.310385   -0.103611   -0.413834    11.00000   -1.50000
H7C   2   -0.578309    0.036843   -0.461070    11.00000   -1.50000
AFIX   0
HKLF 4

REM  ekn028 in P1
REM R1 =  0.0345 for    1693 Fo > 4sig(Fo)  and  0.0365 for all    1762 data
REM    137 parameters refined using      3 restraints

END

WGHT      0.0440      0.0982

REM Highest difference peak  0.298,  deepest hole -0.244,  1-sigma level  0.056
Q1    1   0.1263  0.4945 -0.0552  11.00000  0.05    0.30
Q2    1   0.1780  0.5118  0.2161  11.00000  0.05    0.28
Q3    1   0.1581  0.4742  0.3160  11.00000  0.05    0.27
Q4    1   0.1449  0.4987  0.0671  11.00000  0.05    0.25
Q5    1   0.2227  0.5184  0.4972  11.00000  0.05    0.21
Q6    1  -0.1193  0.7218  0.2730  11.00000  0.05    0.21
Q7    1   0.1481  0.5507 -0.1679  11.00000  0.05    0.19
Q8    1  -0.0859  0.7468  0.0315  11.00000  0.05    0.18
Q9    1   0.1278  0.6482 -0.3053  11.00000  0.05    0.18
Q10   1  -0.2211  0.2651 -0.4223  11.00000  0.05    0.18
;
_shelx_res_checksum              35235
_shelx_hkl_file
;
  -1   0   0  206.10    7.02
  -1   0   0  190.82   10.09
  -1   0   0  206.43    7.02
  -1   0   0  228.86   11.58
   1   0   0  204.29    7.02
   1   0   0  206.11   10.92
   1   0   0  195.69    8.51
  -2   0   0   92.80    3.27
  -2   0   0   90.41    4.69
  -2   0   0   95.15    5.41
   2   0   0   88.56    3.26
   2   0   0   91.04    3.92
   2   0   0  102.56    5.11
  -3   0   0    6.51    0.54
  -3   0   0    6.85    0.38
  -3   0   0    6.95    0.68
   3   0   0    6.77    0.63
   3   0   0    6.72    0.37
   3   0   0    6.69    0.38
  -4   0   0   58.82    2.30
  -4   0   0   62.46    3.85
  -4   0   0   59.30    3.31
   4   0   0   68.12    3.67
  -5   0   0   14.55    1.09
  -5   0   0   13.19    0.73
  -5   0   0   13.70    1.30
   5   0   0   13.95    1.21
  -6   0   0   19.82    1.02
   5  -1   0    7.97    0.89
  -5   1   0    5.65    0.87
   4  -1   0   17.52    1.29
  -4   1   0   18.21    0.82
  -4   1   0   16.32    1.36
  -4   1   0   17.30    1.11
   3  -1   0    5.30    0.36
   3  -1   0    5.37    0.34
   3  -1   0    5.30    0.57
  -3   1   0    5.67    0.35
  -3   1   0    5.24    0.44
  -3   1   0    5.38    0.59
   2  -1   0   52.42    2.30
   2  -1   0   49.92    2.97
   2  -1   0   52.52    1.91
   2  -1   0   51.82    2.76
  -2   1   0   58.45    3.20
  -2   1   0   53.03    2.68
  -2   1   0   53.00    1.92
   1  -1   0  986.36   51.14
   1  -1   0 1000.00   32.87
   1  -1   0  990.86   48.57
  -1   1   0  865.96   32.76
  -1   1   0  968.50   54.15
   0  -1   0  683.24   34.19
   0  -1   0  680.73   33.21
   0  -1   0  679.65   23.08
   0  -1   0  673.94   23.07
   0  -1   0  687.36   36.02
   0   1   0  664.05   38.11
  -1  -1   0  395.36   19.65
  -1  -1   0  411.49   22.49
  -1  -1   0  393.07   13.63
  -1  -1   0  423.83   21.26
  -1  -1   0  382.98   13.63
   1   1   0  395.46   21.23
  -2  -1   0  188.76    6.47
  -2  -1   0  192.13    9.35
  -2  -1   0  187.43   10.69
  -2  -1   0  189.15    6.47
   2   1   0  181.93   10.08
  -3  -1   0    3.97    0.43
  -3  -1   0    3.98    0.55
  -3  -1   0    3.27    0.24
   3   1   0    3.69    0.45
   3   1   0    3.32    0.24
  -4  -1   0   13.11    0.66
  -4  -1   0   15.28    1.24
  -4  -1   0   14.30    1.04
   4   1   0   14.76    1.15
  -5  -1   0   35.05    1.41
  -5  -1   0   35.85    2.13
  -5  -1   0   36.18    2.45
   5   1   0   29.80    2.28
  -5   2   0    2.14    0.60
   4  -2   0  102.96    5.57
  -4   2   0   94.05    5.94
   3  -2   0   11.57    0.58
   3  -2   0   12.57    0.92
  -3   2   0   12.00    1.04
  -3   2   0   11.67    0.80
   2  -2   0  318.14   11.63
   2  -2   0  344.90   17.16
   2  -2   0  329.20   18.05
  -2   2   0  349.41   19.16
  -2   2   0  353.08   11.64
   1  -2   0  330.40   11.46
   1  -2   0  332.62   17.82
   1  -2   0  338.84   11.46
   1  -2   0  329.91   16.95
  -1   2   0  339.22   18.88
  -1   2   0  340.27   11.47
   0  -2   0   54.21    2.92
   0  -2   0   53.32    1.91
   0  -2   0   60.22    3.26
   0  -2   0   52.76    2.78
   0  -2   0   55.00    1.91
   0  -2   0   56.98    3.06
   0   2   0   51.98    3.21
  -1  -2   0  376.27   19.54
  -1  -2   0  441.60   21.21
  -1  -2   0  393.65   20.06
  -1  -2   0  405.88   22.38
   1   2   0  372.29   21.12
  -2  -2   0  358.98   12.60
  -2  -2   0  371.66   20.86
  -2  -2   0  375.31   12.60
  -2  -2   0  386.74   18.25
   2   2   0  368.96   19.70
   2   2   0  356.00   18.63
  -3  -2   0    9.02    0.72
  -3  -2   0    8.42    0.83
  -3  -2   0    8.60    0.41
   3   2   0    8.89    0.75
  -4  -2   0  156.96    5.45
  -4  -2   0  149.43    7.99
  -4  -2   0  156.57    9.12
   4   2   0  160.81    8.63
  -5  -2   0    3.42    0.63
  -5  -2   0    3.68    0.75
  -5  -2   0    3.14    0.33
  -5   3   0    2.31    0.66
   4  -3   0   24.14    1.04
   4  -3   0   21.40    1.56
  -4   3   0   21.88    1.78
   3  -3   0    5.71    0.65
   3  -3   0    6.45    0.63
   3  -3   0    5.98    0.41
  -3   3   0    6.13    0.79
  -3   3   0    6.41    0.60
   2  -3   0   49.29    1.83
   2  -3   0   49.59    2.74
   2  -3   0   50.07    2.87
  -2   3   0   49.62    3.06
  -2   3   0   49.22    2.74
   1  -3   0   85.98    4.61
   1  -3   0   83.39    3.06
   1  -3   0   92.80    4.85
   1  -3   0   87.82    3.07
  -1   3   0   87.64    5.11
   0  -3   0   67.28    3.60
   0  -3   0   70.60    3.43
   0  -3   0   68.80    3.77
   0  -3   0   66.95    2.34
   0  -3   0   65.93    2.34
   0   3   0   65.74    3.95
  -1  -3   0  148.95    8.31
  -1  -3   0  157.76    7.81
  -1  -3   0  150.14    7.59
   1   3   0  148.83    8.22
   1   3   0  152.83    8.66
  -2  -3   0   11.65    0.84
  -2  -3   0   10.91    0.91
   2   3   0   11.19    0.87
   2   3   0   11.51    0.79
  -3  -3   0    1.54    0.50
  -3  -3   0    2.54    0.17
  -3  -3   0    2.65    0.47
   3   3   0    2.97    0.49
  -4  -3   0    7.28    0.79
  -4  -3   0    6.55    0.37
   4   3   0    8.19    0.82
   5   3   0   18.62    1.56
   4  -4   0   10.53    0.64
   4  -4   0    9.64    0.94
   3  -4   0    3.54    0.35
   3  -4   0    3.53    0.57
  -3   4   0    4.12    0.59
  -3   4   0    3.11    0.61
   2  -4   0   57.54    2.15
   2  -4   0   58.14    3.27
   2  -4   0   58.78    3.40
  -2   4   0   58.95    3.27
  -2   4   0   57.63    3.61
   1  -4   0    1.35    0.36
   1  -4   0    1.32    0.16
   1  -4   0    1.62    0.39
  -1   4   0    1.45    0.38
  -1   4   0    1.54    0.37
   0  -4   0  326.01   17.57
   0  -4   0  323.26   16.73
   0   4   0  339.14   16.75
   0   4   0  323.10   18.57
  -1  -4   0    8.61    0.69
  -1  -4   0    6.22    0.84
  -1  -4   0    8.90    0.75
   1   4   0   10.02    0.79
   1   4   0    8.53    0.77
   1   4   0    8.57    0.75
  -2  -4   0   20.11    1.22
   2   4   0   17.54    1.18
   2   4   0   15.56    1.21
   2   4   0   15.60    1.21
  -3  -4   0    0.19    0.44
  -3  -4   0    1.05    0.40
   3   4   0    0.74    0.34
  -4  -4   0    1.91    0.52
   4   4   0    1.60    0.47
   4  -5   0    3.10    0.66
  -4   5   0    0.95    0.42
  -4   5   0    1.65    0.73
   3  -5   0    6.78    0.80
   3  -5   0    8.26    0.52
  -3   5   0    7.48    0.97
  -3   5   0    8.81    0.89
   2  -5   0    0.28    0.31
   2  -5   0    0.26    0.15
  -2   5   0   -0.05    0.29
  -2   5   0    0.20    0.33
   1  -5   0   17.58    0.73
   1  -5   0   16.98    1.33
   1  -5   0   18.44    1.35
  -1   5   0   17.42    1.33
  -1   5   0   17.70    1.37
   0  -5   0   27.30    1.80
   0  -5   0   25.08    1.72
   0   5   0   26.44    1.76
   1   5   0    5.48    0.73
   1   5   0    5.41    0.68
  -3  -5   0    5.20    0.75
   3   5   0    5.35    0.74
   0   6   0    6.77    0.88
   1   6   0    4.21    0.71
   1   6  -1    5.98    0.87
   0   6  -1    7.54    0.89
   0  -6   1    6.44    0.83
  -1   6  -1    1.78    0.53
   1  -6   1    1.76    0.18
   1  -6   1    1.28    0.52
  -3  -5   1    2.29    0.59
   2   5  -1   11.71    1.00
   2   5  -1   11.87    0.91
   1   5  -1   13.55    1.13
   1   5  -1   13.43    1.09
   1   5  -1   15.67    1.15
  -1  -5   1   15.20    1.12
   0   5  -1    9.94    0.94
   0  -5   1   10.99    0.95
   0  -5   1    9.99    0.93
  -1   5  -1   10.13    0.96
   1  -5   1    9.89    0.89
   1  -5   1    9.60    0.46
   1  -5   1    9.31    0.92
  -2   5  -1    9.32    0.88
  -2   5  -1    8.40    0.94
   2  -5   1    9.50    0.50
   2  -5   1    9.16    0.86
   2  -5   1    8.74    0.89
  -3   5  -1   17.51    1.50
  -3   5  -1   17.56    1.32
   3  -5   1   17.64    1.35
   3  -5   1   16.67    1.31
   3  -5   1   17.07    0.83
  -4   5  -1    2.41    0.53
   4  -5   1    4.46    0.70
   4   4  -1    6.69    0.79
  -4  -4   1    6.45    0.92
  -4  -4   1    7.12    0.86
   3   4  -1    9.11    0.83
   3   4  -1    8.85    0.85
  -3  -4   1    7.56    0.90
  -3  -4   1    8.16    0.84
   2   4  -1   27.40    1.72
   2   4  -1   26.07    1.78
   2   4  -1   25.73    1.61
  -2  -4   1   27.74    1.66
   1   4  -1    8.12    0.72
   1   4  -1    7.49    0.68
  -1  -4   1    8.91    0.73
  -1  -4   1    5.55    0.77
  -1  -4   1    8.87    0.69
   0   4  -1   44.79    2.71
   0  -4   1   38.70    2.45
   0  -4   1   46.23    2.56
  -1   4  -1    9.67    0.87
   1  -4   1   10.50    0.81
   1  -4   1    8.82    0.81
   1  -4   1    9.21    0.44
  -2   4  -1   39.33    2.57
   2  -4   1   40.72    1.52
   2  -4   1   38.65    2.38
   2  -4   1   39.26    2.32
  -3   4  -1    6.68    0.84
  -3   4  -1    6.21    0.67
   3  -4   1    6.26    0.44
   3  -4   1    6.86    0.71
   3  -4   1    6.13    0.69
   4  -4   1   34.40    2.22
   4  -4   1   33.99    1.45
   5   3  -1   12.22    1.16
  -5  -3   1    9.49    1.18
   4   3  -1   15.09    1.22
  -4  -3   1   15.59    1.21
   3   3  -1    2.00    0.39
  -3  -3   1    1.73    0.15
  -3  -3   1    2.03    0.44
  -3  -3   1    1.21    0.50
   2   3  -1   14.46    1.02
  -2  -3   1   14.96    1.13
  -2  -3   1   14.49    1.00
   1   3  -1   39.24    2.19
   1   3  -1   39.41    2.32
  -1  -3   1   36.07    2.25
  -1  -3   1   32.88    2.36
  -1  -3   1   38.99    2.11
  -1  -3   1   39.33    2.05
   0   3  -1   95.84    5.67
   0   3  -1   95.12    4.89
   0  -3   1  100.26    5.35
   0  -3   1   99.01    5.14
   0  -3   1   98.51    3.37
   0  -3   1   99.61    3.37
  -1   3  -1   20.76    1.32
   1  -3   1   18.42    0.74
   1  -3   1   18.05    1.18
   1  -3   1   18.30    0.74
   1  -3   1   19.08    1.21
  -2   3  -1   39.41    2.41
   2  -3   1   38.05    1.43
   2  -3   1   36.72    2.13
   2  -3   1   36.10    2.20
  -3   3  -1   13.46    1.19
   3  -3   1   14.86    1.01
   3  -3   1   15.27    0.70
   3  -3   1   13.32    1.04
   4  -3   1   30.83    2.06
   4  -3   1   32.91    1.36
  -5   3  -1    1.77    0.60
   5  -3   1    3.33    0.67
   5   2  -1   28.34    2.26
  -5  -2   1   34.85    1.37
  -5  -2   1   35.40    2.45
  -5  -2   1   36.67    2.18
   4   2  -1   47.35    2.85
  -4  -2   1   48.52    2.69
  -4  -2   1   45.69    1.74
  -4  -2   1   44.65    3.02
   3   2  -1   47.13    2.68
  -3  -2   1   43.34    2.87
  -3  -2   1   47.02    2.54
  -3  -2   1   44.98    1.65
   2   2  -1  133.66    6.97
  -2  -2   1  127.18    4.42
  -2  -2   1  119.09    6.48
  -2  -2   1  134.14    7.43
   1   2  -1   47.49    2.78
  -1  -2   1   52.82    3.01
  -1  -2   1   52.16    2.84
  -1  -2   1   49.03    2.61
   0   2  -1  173.69    9.70
   0   2  -1  162.33    8.42
   0  -2   1  174.52    5.85
   0  -2   1  170.15    5.84
   0  -2   1  172.57    9.12
   0  -2   1  170.04    8.72
   0  -2   1  174.93    9.73
  -1   2  -1   82.41    4.12
  -1   2  -1   83.64    2.93
  -1   2  -1   85.15    4.86
   1  -2   1   83.86    2.93
   1  -2   1   78.48    2.92
   1  -2   1   86.87    4.36
   1  -2   1   85.11    4.55
  -2   2  -1  143.54    8.15
  -2   2  -1  154.16    4.95
  -2   2  -1  137.70    6.97
   2  -2   1  133.04    6.00
   2  -2   1  138.36    7.64
   2  -2   1  147.76    7.27
   2  -2   1  136.82    4.94
  -3   2  -1   31.62    2.31
   3  -2   1   35.70    1.96
   3  -2   1   35.28    1.65
   3  -2   1   35.43    1.38
   3  -2   1   38.11    2.16
  -4   2  -1   26.54    2.09
   4  -2   1   29.54    1.46
   4  -2   1   33.67    2.01
  -5   2  -1    9.37    1.08
  -6  -1   1    8.67    0.98
   5   1  -1   34.79    2.25
  -5  -1   1   30.99    1.36
  -5  -1   1   34.31    2.08
  -5  -1   1   32.75    2.36
   4   1  -1  109.28    5.99
  -4  -1   1  101.49    5.52
  -4  -1   1  106.36    6.33
  -4  -1   1  108.17    3.80
   3   1  -1   25.73    1.59
  -3  -1   1   25.00    0.98
  -3  -1   1   24.68    1.70
  -3  -1   1   25.13    1.48
   2   1  -1   45.59    2.58
  -2  -1   1   45.69    2.42
  -2  -1   1   44.95    1.64
  -2  -1   1   46.85    2.77
  -2  -1   1   46.15    1.64
   1   1  -1   70.22    3.82
  -1  -1   1   68.53    2.44
  -1  -1   1   68.56    3.57
  -1  -1   1   73.51    4.09
  -1  -1   1   73.32    3.61
   0   1  -1  247.23   14.33
   0   1  -1  247.34   12.50
   0  -1   1  266.62   10.60
   0  -1   1  259.81    8.70
   0  -1   1  281.27   14.35
   0  -1   1  249.40   12.86
   0  -1   1  249.35    8.69
   0  -1   1  241.45   13.49
  -1   1  -1  159.46    5.59
  -1   1  -1  160.65    7.99
  -1   1  -1  165.87    9.21
   1  -1   1  165.73    5.60
   1  -1   1  167.41    8.67
   1  -1   1  161.92    8.24
   1  -1   1  158.62    6.80
  -2   1  -1    3.09    0.30
  -2   1  -1    3.83    0.46
  -2   1  -1    3.23    0.25
   2  -1   1    2.94    0.23
   2  -1   1    3.50    0.41
   2  -1   1    2.98    0.30
   2  -1   1    3.30    0.27
  -3   1  -1   16.04    0.72
  -3   1  -1   16.83    1.21
  -3   1  -1   15.24    0.96
   3  -1   1   16.01    0.81
   3  -1   1   15.50    1.11
   3  -1   1   17.01    0.72
  -4   1  -1   31.43    1.30
  -4   1  -1   28.99    2.13
  -4   1  -1   30.98    1.78
   4  -1   1   31.13    2.02
   4  -1   1   33.49    1.50
  -5   1  -1    0.65    0.49
   5  -1   1    2.90    0.63
  -6   0   1  104.97    3.91
   5   0  -1   53.75    3.39
  -5   0   1   56.90    3.14
  -5   0   1   57.95    3.65
  -5   0   1   55.00    2.17
   4   0  -1    0.58    0.36
  -4   0   1    0.50    0.27
  -4   0   1    0.15    0.14
  -4   0   1    0.53    0.33
   3   0  -1    3.75    0.46
   3   0  -1    2.99    0.24
  -3   0   1    2.94    0.38
  -3   0   1    2.64    0.44
  -3   0   1    2.90    0.25
   2   0  -1  347.48   18.81
   2   0  -1  348.69   12.11
  -2   0   1  329.03   17.39
  -2   0   1  365.85   12.11
  -2   0   1  378.81   19.96
   1   0  -1  110.44    5.48
   1   0  -1  105.53    3.82
   1   0  -1  110.08    5.93
  -1   0   1  108.77    3.82
  -1   0   1  112.59    6.30
  -1   0   1  118.98    5.61
   0   0  -1  125.17    7.43
   0   0  -1  120.44    4.53
   0   0  -1  137.20    6.51
   0   0  -1  123.81    4.53
   0   0   1  131.04    4.53
   0   0   1  147.91    7.44
   0   0   1  140.79    6.69
  -1   0  -1  188.38    6.44
  -1   0  -1  196.07   10.60
  -1   0  -1  203.49    9.26
  -1   0  -1  184.30    6.44
   1   0   1  182.92    6.44
   1   0   1  181.40   10.00
   1   0   1  180.43    9.46
  -2   0  -1  232.84   12.45
  -2   0  -1  222.30   10.86
  -2   0  -1  222.66    7.56
   2   0   1  211.27    9.15
   2   0   1  214.11    7.55
   2   0   1  215.05   11.74
  -3   0  -1   41.03    1.59
  -3   0  -1   45.88    2.69
  -3   0  -1   40.53    2.29
   3   0   1   41.08    1.88
   3   0   1   45.60    2.54
  -4   0  -1   22.19    1.67
  -4   0  -1   21.93    0.98
  -4   0  -1   22.67    1.41
   4   0   1   24.20    1.61
  -5   0  -1   22.61    1.50
  -5   0  -1   22.75    1.04
  -5   0  -1   24.08    1.79
   5   0   1   21.76    1.68
  -5   1   1   27.82    2.08
   4  -1  -1    4.92    0.69
  -4   1   1    5.20    0.54
  -4   1   1    3.80    0.65
  -4   1   1    5.04    0.40
   3  -1  -1   14.35    0.65
   3  -1  -1   14.73    1.05
  -3   1   1   15.69    0.91
  -3   1   1   13.81    1.09
  -3   1   1   13.94    0.86
  -3   1   1   14.64    0.66
   2  -1  -1   34.45    1.84
   2  -1  -1   35.33    2.08
   2  -1  -1   34.83    1.34
  -2   1   1   36.00    1.35
  -2   1   1   35.09    1.93
  -2   1   1   41.10    2.24
   1  -1  -1  300.34   10.31
   1  -1  -1  302.17   14.74
   1  -1  -1  320.28   16.03
  -1   1   1  307.87   16.96
  -1   1   1  292.51   15.22
  -1   1   1  286.92   10.31
   0  -1  -1  318.34   11.44
   0  -1  -1  326.97   11.45
   0  -1  -1  355.69   16.44
   0  -1  -1  343.71   17.79
   0   1   1  342.85   16.92
   0   1   1  326.53   18.79
  -1  -1  -1  136.41    6.24
  -1  -1  -1  126.92    4.30
  -1  -1  -1  115.28    7.08
  -1  -1  -1  129.12    4.30
   1   1   1  136.08    6.74
   1   1   1  108.54    6.35
  -2  -1  -1   89.35    3.17
  -2  -1  -1   90.86    3.17
  -2  -1  -1   91.40    5.26
  -2  -1  -1   92.66    4.62
   2   1   1   89.90    4.98
  -3  -1  -1    4.01    0.56
  -3  -1  -1    4.07    0.46
  -3  -1  -1    4.28    0.27
   3   1   1    3.55    0.46
  -4  -1  -1   14.72    0.69
  -4  -1  -1   15.04    1.07
  -4  -1  -1   15.00    1.24
   4   1   1   14.42    1.17
  -5  -1  -1   17.36    0.84
  -5  -1  -1   17.67    1.30
  -5  -1  -1   18.05    1.52
  -5   2   1   25.43    1.99
   4  -2  -1   47.08    2.79
  -4   2   1   44.82    3.00
   3  -2  -1   31.24    2.00
   3  -2  -1   32.02    1.30
  -3   2   1   35.17    1.88
  -3   2   1   32.82    2.17
   2  -2  -1  319.30   18.38
   2  -2  -1  336.22   11.84
  -2   2   1  363.81   19.52
  -2   2   1  351.17   17.48
  -2   2   1  354.47   11.86
   1  -2  -1  140.05    4.92
   1  -2  -1  146.22    7.68
   1  -2  -1  142.33    4.92
  -1   2   1  142.54    8.09
  -1   2   1  139.78    7.31
  -1   2   1  142.93    4.93
   0  -2  -1   21.71    1.14
   0  -2  -1   21.59    0.77
   0  -2  -1   20.86    0.77
   0  -2  -1   21.83    1.30
   0   2   1   21.40    1.30
   0   2   1   19.85    1.23
  -1  -2  -1  225.59   10.79
  -1  -2  -1  210.34   11.26
  -1  -2  -1  192.27    9.85
   1   2   1  187.18   11.22
   1   2   1  185.78   10.11
   1   2   1  193.59   10.67
  -2  -2  -1  186.32    6.39
  -2  -2  -1  198.00    9.33
  -2  -2  -1  191.78   10.62
  -2  -2  -1  187.60    6.39
   2   2   1  188.13   10.06
   2   2   1  166.49    9.45
  -3  -2  -1   13.32    0.96
  -3  -2  -1   13.53    0.57
  -3  -2  -1   13.23    1.06
   3   2   1   12.94    1.01
  -4  -2  -1    4.72    0.73
  -4  -2  -1    3.80    0.30
  -4  -2  -1    3.81    0.57
   4   2   1    3.98    0.61
  -5  -2  -1   16.04    1.27
  -5  -2  -1   16.36    1.44
  -5  -2  -1   15.39    0.75
   5   2   1   14.45    1.36
   5  -3  -1    9.40    0.96
  -5   3   1    7.35    1.03
   4  -3  -1   41.31    1.64
   4  -3  -1   39.33    2.51
  -4   3   1   39.48    2.75
   3  -3  -1    3.91    0.35
   3  -3  -1    3.61    0.54
  -3   3   1    4.71    0.73
  -3   3   1    3.87    0.51
   2  -3  -1  113.49    3.92
   2  -3  -1  107.54    6.11
  -2   3   1  108.83    6.46
  -2   3   1  113.52    5.84
   1  -3  -1   96.78    5.19
   1  -3  -1   91.78    3.28
  -1   3   1   92.22    4.95
  -1   3   1   93.77    5.43
   0  -3  -1  103.41    3.62
   0  -3  -1  105.33    5.25
   0  -3  -1  107.87    5.78
   0  -3  -1  103.65    3.62
   0   3   1  103.45    5.50
   0   3   1  106.10    6.04
  -1  -3  -1    0.15    0.29
  -1  -3  -1    1.15    0.25
  -1  -3  -1    0.77    0.29
   1   3   1    1.33    0.30
   1   3   1    1.14    0.31
   1   3   1    1.10    0.23
  -2  -3  -1   66.19    3.93
  -2  -3  -1   67.53    3.50
   2   3   1   67.53    3.53
   2   3   1   62.35    3.75
  -3  -3  -1   13.59    1.15
  -4  -3  -1    5.56    0.71
  -4  -3  -1    4.31    0.30
   4   3   1    5.10    0.70
   4  -4  -1    5.60    0.48
   4  -4  -1    5.72    0.73
  -4   4   1    4.59    0.84
  -4   4   1    5.98    0.73
   3  -4  -1    8.22    0.83
   3  -4  -1    8.94    0.53
  -3   4   1    7.90    0.99
  -3   4   1    8.95    0.84
   2  -4  -1    4.36    0.58
   2  -4  -1    4.06    0.32
  -2   4   1    4.47    0.63
  -2   4   1    4.41    0.61
   1  -4  -1   46.27    2.71
   1  -4  -1   42.89    1.64
  -1   4   1   44.61    2.78
  -1   4   1   45.80    2.62
   0  -4  -1  112.65    6.05
   0   4   1  103.39    6.29
   0   4   1  109.19    5.78
  -1  -4  -1  100.16    4.98
   1   4   1   97.70    5.18
   1   4   1   92.23    5.42
  -2  -4  -1    1.38    0.36
  -2  -4  -1    0.01    0.41
   2   4   1    1.08    0.38
  -3  -4  -1    1.94    0.48
   3   4   1    2.38    0.52
  -4  -4  -1   18.79    1.40
   4   4   1   15.48    1.38
   3  -5  -1   19.35    1.50
   3  -5  -1   20.25    0.94
  -3   5   1   20.68    1.53
   2  -5  -1    4.76    0.70
   2  -5  -1    4.74    0.36
  -2   5   1    5.01    0.76
   1  -5  -1   23.72    0.97
   1  -5  -1   25.64    1.75
  -1   5   1   25.14    1.73
   0  -5  -1   70.56    4.11
   0   5   1   67.67    3.92
   1   5   1   62.38    3.53
   1   5   1   60.30    3.66
  -2  -5  -1   -0.20    0.40
   2   5   1    2.44    0.53
  -3  -5  -1    1.59    0.49
   3   5   1    1.69    0.51
   1  -6  -1   39.23    2.61
   0  -6  -1    6.51    1.00
   1   6   1   14.44    1.29
   1   6  -2    0.33    0.38
  -1  -6   2    0.47    0.40
   0   6  -2   15.98    1.48
   0  -6   2   20.54    1.45
  -1   6  -2   15.73    1.37
   1  -6   2   14.86    1.29
   1  -6   2   15.21    0.64
  -2   6  -2    0.62    0.41
   2   5  -2    8.70    0.75
   2   5  -2    8.68    0.86
  -1  -5   2    5.24    0.67
   0   5  -2   31.84    2.11
   0  -5   2   29.10    1.92
  -1   5  -2   52.71    3.35
   1  -5   2   51.83    1.90
   1  -5   2   51.74    3.03
  -2   5  -2   18.91    1.53
   2  -5   2   18.94    1.40
   2  -5   2   19.57    0.84
  -3   5  -2    9.12    1.06
   3  -5   2   10.47    0.59
   3  -5   2    9.90    0.96
   4  -5   2   21.38    1.57
   4   4  -2    3.12    0.56
  -4  -4   2    3.47    0.76
  -4  -4   2    3.16    0.67
   3   4  -2    1.17    0.38
   3   4  -2    1.67    0.39
   3   4  -2    1.69    0.39
  -3  -4   2    2.05    0.58
  -3  -4   2    1.38    0.45
   2   4  -2   12.41    0.88
   2   4  -2   12.45    0.92
   2   4  -2   12.37    1.00
  -2  -4   2   12.16    0.96
  -2  -4   2   11.62    0.91
   1   4  -2   46.45    2.68
   1   4  -2   43.34    2.29
   1   4  -2   43.80    2.46
  -1  -4   2   35.93    2.39
   0   4  -2   16.11    0.99
   0   4  -2   17.55    1.26
   0  -4   2   17.67    1.18
   0  -4   2   17.48    1.14
  -1   4  -2    7.18    0.74
   1  -4   2    6.71    0.67
   1  -4   2    6.08    0.34
   1  -4   2    7.14    0.62
  -2   4  -2   64.61    3.94
   2  -4   2   61.90    2.33
   2  -4   2   67.28    3.54
   2  -4   2   61.34    3.62
  -3   4  -2   27.32    1.96
   3  -4   2   26.22    1.13
   3  -4   2   26.19    1.73
   3  -4   2   27.24    1.71
   4  -4   2   13.79    1.15
   4  -4   2   13.39    0.75
   5   3  -2   12.98    1.28
  -5  -3   2   16.44    1.51
   4   3  -2   26.94    1.68
  -4  -3   2   19.11    1.80
  -4  -3   2   25.79    0.94
  -4  -3   2   21.50    1.61
   3   3  -2   62.17    3.42
  -3  -3   2   62.87    2.10
  -3  -3   2   52.14    3.25
   2   3  -2  143.48    7.63
  -2  -3   2  136.59    7.24
  -2  -3   2  144.68    7.17
  -2  -3   2  138.24    8.16
   1   3  -2   43.33    2.46
   1   3  -2   43.21    2.31
   1   3  -2   44.31    2.67
  -1  -3   2   44.39    2.41
   0   3  -2   69.24    3.54
   0   3  -2   69.95    4.13
   0  -3   2   72.58    2.44
   0  -3   2   67.84    3.72
   0  -3   2   71.25    3.84
   0  -3   2   69.02    2.43
  -1   3  -2   87.36    5.07
  -1   3  -2   84.40    4.28
   1  -3   2   85.48    3.02
   1  -3   2   86.07    4.54
   1  -3   2   86.67    4.70
  -2   3  -2   57.42    3.54
   2  -3   2   59.64    3.16
   2  -3   2   56.99    2.60
   2  -3   2   58.06    2.13
   2  -3   2   58.05    3.28
  -3   3  -2   18.03    1.41
   3  -3   2   17.63    0.99
   3  -3   2   17.93    1.19
   3  -3   2   17.68    1.25
   3  -3   2   19.43    0.83
  -4   3  -2   17.29    1.71
   4  -3   2   22.45    1.17
   4  -3   2   22.97    1.52
  -5   3  -2   11.25    1.33
   5  -3   2   14.26    1.22
   5   2  -2    7.99    0.96
  -5  -2   2    7.80    0.90
  -5  -2   2    9.00    1.09
  -5  -2   2    9.35    0.52
   4   2  -2    0.60    0.33
  -4  -2   2    0.87    0.38
  -4  -2   2    1.22    0.49
  -4  -2   2    0.82    0.17
   3   2  -2   42.22    2.33
  -3  -2   2   35.60    2.49
  -3  -2   2   38.56    2.22
   2   2  -2    0.76    0.21
  -2  -2   2    0.75    0.19
  -2  -2   2    0.90    0.11
  -2  -2   2    0.49    0.26
  -2  -2   2    0.42    0.24
  -2  -2   2    0.72    0.10
   1   2  -2   66.39    3.51
   1   2  -2   69.70    3.76
  -1  -2   2   75.76    3.62
  -1  -2   2   58.33    3.77
  -1  -2   2   72.73    4.08
  -1  -2   2   71.61    2.39
  -1  -2   2   69.82    2.39
   0   2  -2   19.68    1.28
   0   2  -2   19.47    1.07
   0  -2   2   20.71    1.14
   0  -2   2   20.19    1.16
   0  -2   2   18.60    1.31
   0  -2   2   20.07    0.94
   0  -2   2   20.07    0.73
   0  -2   2   20.20    0.73
  -1   2  -2    1.25    0.17
  -1   2  -2    1.61    0.31
  -1   2  -2    1.44    0.15
   1  -2   2    1.12    0.14
   1  -2   2    1.56    0.24
   1  -2   2    1.47    0.21
   1  -2   2    1.33    0.14
   1  -2   2    1.11    0.25
  -2   2  -2   12.05    0.99
  -2   2  -2   15.00    0.78
  -2   2  -2   13.41    0.59
   2  -2   2   14.02    0.92
   2  -2   2   12.93    0.85
   2  -2   2   12.10    0.71
   2  -2   2   13.05    0.59
  -3   2  -2   67.58    3.43
  -3   2  -2   63.64    4.11
   3  -2   2   65.60    2.97
   3  -2   2   66.23    3.54
   3  -2   2   70.24    2.47
   3  -2   2   68.88    3.82
  -4   2  -2   28.86    2.28
   4  -2   2   36.81    2.17
   4  -2   2   32.49    1.60
  -5   2  -2    2.44    0.64
   6   1  -2   14.33    1.10
  -6  -1   2   11.45    1.14
   5   1  -2   25.60    1.84
   5   1  -2   25.41    1.65
  -5  -1   2   26.03    2.00
  -5  -1   2   29.48    1.80
  -5  -1   2   26.35    1.15
   4   1  -2   14.56    1.12
  -4  -1   2   13.65    1.19
  -4  -1   2   14.01    0.66
  -4  -1   2   12.36    1.03
   3   1  -2   73.65    3.90
  -3  -1   2   70.12    4.15
  -3  -1   2   65.58    2.47
  -3  -1   2   66.09    3.63
   2   1  -2  125.08    6.00
   2   1  -2  109.69    5.54
  -2  -1   2  110.01    5.60
  -2  -1   2  104.47    3.82
  -2  -1   2  116.44    3.84
  -2  -1   2  112.45    6.37
  -2  -1   2   92.88    5.55
   1   1  -2  469.57   24.62
   1   1  -2  525.76   26.58
  -1  -1   2  493.60   17.12
  -1  -1   2  473.50   25.27
  -1  -1   2  551.32   28.24
  -1  -1   2  479.98   17.15
  -1  -1   2  525.50   20.80
   0   1  -2  456.40   15.05
   0   1  -2  418.08   21.63
   0   1  -2  442.35   24.92
   0  -1   2  433.10   15.07
   0  -1   2  441.24   15.05
   0  -1   2  441.02   18.31
   0  -1   2  443.26   22.24
   0  -1   2  461.30   24.89
  -1   1  -2  213.14    9.49
  -1   1  -2  182.08   10.86
  -1   1  -2  197.19    6.60
   1  -1   2  183.29    8.03
   1  -1   2  194.92    6.60
   1  -1   2  182.51    9.73
  -2   1  -2  266.15    9.13
  -2   1  -2  278.82   15.05
  -2   1  -2  249.66   13.08
   2  -1   2  268.31   14.17
   2  -1   2  278.50   11.09
   2  -1   2  255.57   13.41
   2  -1   2  261.78    9.14
  -3   1  -2   19.52    0.84
  -3   1  -2   20.51    1.16
  -3   1  -2   20.51    1.43
   3  -1   2   16.97    1.09
   3  -1   2   21.29    1.33
   3  -1   2   19.80    0.98
   3  -1   2   19.67    0.84
  -4   1  -2    4.69    0.52
  -4   1  -2    4.25    0.69
  -4   1  -2    4.16    0.38
   4  -1   2    5.07    0.67
   4  -1   2    5.14    0.42
  -5   1  -2    6.60    0.98
   5  -1   2    8.87    0.94
  -6   0   2    3.42    0.41
   5   0  -2    0.40    0.26
   5   0  -2    0.42    0.39
  -5   0   2    0.40    0.33
  -5   0   2    0.44    0.19
  -5   0   2    0.36    0.40
   4   0  -2    2.55    0.38
   4   0  -2    2.83    0.53
  -4   0   2    2.82    0.31
  -4   0   2    2.65    0.45
  -4   0   2    2.51    0.52
   3   0  -2    6.39    0.51
   3   0  -2    6.85    0.38
   3   0  -2    6.82    0.63
  -3   0   2    6.31    0.66
  -3   0   2    7.24    0.59
  -3   0   2    6.40    0.38
   2   0  -2   14.86    0.65
   2   0  -2   16.42    0.92
   2   0  -2   17.82    1.05
  -2   0   2   15.54    1.11
  -2   0   2   16.08    0.66
  -2   0   2   15.43    0.91
   1   0  -2  379.92   13.29
   1   0  -2  387.68   20.63
   1   0  -2  413.05   19.09
  -1   0   2  402.45   19.62
  -1   0   2  364.48   13.29
   0   0  -2  238.22   13.10
   0   0  -2  279.50    9.12
   0   0  -2  265.68   14.95
   0   0   2  294.83   14.97
   0   0   2  257.13    9.12
  -1   0  -2  245.48   12.72
  -1   0  -2  254.36   13.43
  -1   0  -2  245.45   11.76
  -1   0  -2  235.88    8.17
   1   0   2  227.09   12.69
   1   0   2  216.67    8.17
   1   0   2  245.87   12.04
  -2   0  -2   17.57    0.72
  -2   0  -2   18.77    1.22
  -2   0  -2   18.20    1.04
   2   0   2   16.69    1.10
   2   0   2   16.63    0.96
   2   0   2   18.49    0.85
   2   0   2   17.61    0.72
  -3   0  -2   41.74    1.61
  -3   0  -2   44.99    2.69
  -3   0  -2   42.63    2.32
   3   0   2   42.07    2.53
   3   0   2   42.79    1.91
  -4   0  -2   28.75    1.99
  -4   0  -2   28.38    1.17
  -4   0  -2   28.67    1.71
   4   0   2   27.11    1.88
  -5   0  -2    0.95    0.37
  -5   0  -2    1.30    0.49
  -5   0  -2    0.92    0.24
   5   0   2    0.33    0.45
   5  -1  -2   72.48    4.40
  -5   1   2   76.91    4.70
   4  -1  -2   24.70    1.67
  -4   1   2   26.70    1.09
  -4   1   2   22.75    1.77
   3  -1  -2   96.88    3.49
   3  -1  -2   95.25    4.90
   3  -1  -2   99.63    5.40
  -3   1   2  108.20    5.78
  -3   1   2  105.13    3.51
  -3   1   2   82.12    5.02
   2  -1  -2  100.98    5.14
   2  -1  -2   96.29    5.64
   2  -1  -2  105.43    3.64
  -2   1   2  101.22    5.33
  -2   1   2  109.86    3.65
  -2   1   2  108.43    5.99
   1  -1  -2  294.79   10.13
   1  -1  -2  308.62   14.50
   1  -1  -2  302.80   15.74
  -1   1   2  288.73   16.64
  -1   1   2  290.04   14.95
  -1   1   2  290.40   10.13
   0  -1  -2  187.33    6.70
   0  -1  -2  191.38   10.44
   0  -1  -2  203.78    6.70
   0  -1  -2  197.16    9.63
   0   1   2  199.87    9.92
   0   1   2  194.68    6.70
  -1  -1  -2   83.60    4.46
  -1  -1  -2   77.36    4.05
  -1  -1  -2   80.10    2.79
  -1  -1  -2   74.78    2.78
   1   1   2   80.38    4.38
   1   1   2   84.29    4.13
  -2  -1  -2   62.68    2.29
  -2  -1  -2   65.70    2.30
  -2  -1  -2   61.63    3.35
  -2  -1  -2   67.74    3.80
   2   1   2   66.59    3.34
   2   1   2   63.88    3.63
  -3  -1  -2   60.58    3.29
  -3  -1  -2   62.12    2.25
  -3  -1  -2   63.23    3.74
   3   1   2   61.80    3.56
  -4  -1  -2   15.52    0.74
  -4  -1  -2   17.11    1.34
  -4  -1  -2   15.84    1.16
   4   1   2   16.36    1.26
  -5  -1  -2   18.05    0.84
  -5  -1  -2   17.74    1.30
  -5  -1  -2   18.05    1.48
   5   1   2   13.79    1.39
   5  -2  -2   15.10    1.21
  -5   2   2   11.12    1.26
   4  -2  -2   12.92    1.05
  -4   2   2   12.47    1.14
   3  -2  -2    2.58    0.26
   3  -2  -2    1.93    0.38
  -3   2   2    2.89    0.50
  -3   2   2    2.33    0.37
   2  -2  -2   12.04    0.87
   2  -2  -2   12.38    0.56
  -2   2   2   12.79    0.85
  -2   2   2   11.99    0.94
  -2   2   2   11.52    0.56
   1  -2  -2   53.35    1.94
   1  -2  -2   56.57    3.08
   1  -2  -2   54.34    2.72
   1  -2  -2   55.40    1.95
  -1   2   2   53.43    1.95
  -1   2   2   55.39    3.17
  -1   2   2   51.53    2.92
   0  -2  -2   81.22    2.96
   0  -2  -2   87.12    4.27
   0  -2  -2   85.64    2.96
   0  -2  -2   88.15    4.69
   0   2   2   92.00    4.47
   0   2   2   77.81    4.84
  -1  -2  -2  138.03    7.39
  -1  -2  -2  128.08    4.47
  -1  -2  -2  119.78    7.15
  -1  -2  -2  130.96    4.48
  -1  -2  -2  130.10    6.52
   1   2   2  127.22    7.07
   1   2   2  131.85    7.36
   1   2   2  133.36    6.69
  -2  -2  -2   11.11    0.47
  -2  -2  -2   10.25    0.84
  -2  -2  -2   11.01    0.79
  -2  -2  -2   11.42    0.47
   2   2   2   12.58    0.74
   2   2   2   11.48    0.87
  -3  -2  -2   41.50    2.59
  -3  -2  -2   41.77    1.52
  -3  -2  -2   41.20    2.33
   3   2   2   39.84    2.50
  -4  -2  -2   39.16    1.41
  -4  -2  -2   30.91    2.40
  -4  -2  -2   36.61    2.16
   4   2   2   36.05    2.32
  -5  -2  -2    5.90    0.77
   5   2   2    6.45    0.90
  -5   3   2    2.81    0.68
   4  -3  -2   26.64    1.15
   4  -3  -2   24.52    1.74
  -4   3   2   25.21    1.93
   3  -3  -2   96.22    3.46
   3  -3  -2   87.89    5.34
  -3   3   2   98.76    5.73
  -3   3   2   98.96    5.12
   2  -3  -2    5.30    0.58
   2  -3  -2    5.45    0.35
  -2   3   2    5.75    0.64
  -2   3   2    4.98    0.58
   1  -3  -2  127.02    6.87
   1  -3  -2  118.67    4.35
  -1   3   2  127.53    7.17
  -1   3   2  126.63    6.55
   0  -3  -2  169.42    8.66
   0  -3  -2  160.87    5.47
   0  -3  -2  166.88    7.90
   0  -3  -2  158.19    5.47
   0   3   2  148.70    8.21
   0   3   2  148.67    9.01
  -1  -3  -2   58.23    2.05
  -1  -3  -2   56.25    3.51
  -1  -3  -2   63.79    3.11
   1   3   2   59.25    3.39
   1   3   2   56.80    3.20
  -2  -3  -2   24.97    1.43
   2   3   2   22.18    1.51
   2   3   2   20.90    1.35
  -3  -3  -2    3.34    0.23
  -3  -3  -2    3.33    0.53
   3   3   2    3.35    0.56
  -4  -3  -2   12.39    1.03
  -4  -3  -2   11.82    0.53
   4   3   2    9.99    1.05
   4  -4  -2   13.06    1.16
   4  -4  -2   12.84    0.74
  -4   4   2   12.95    1.31
  -4   4   2   14.40    1.14
   3  -4  -2    2.46    0.52
   3  -4  -2    1.73    0.26
  -3   4   2    1.13    0.46
  -3   4   2    2.92    0.53
   2  -4  -2    1.06    0.19
   2  -4  -2    1.58    0.42
  -2   4   2    1.39    0.42
   1  -4  -2   61.37    3.63
   1  -4  -2   58.03    2.23
  -1   4   2   66.88    3.52
   0  -4  -2    7.91    0.36
   0  -4  -2    8.06    0.79
   0   4   2    6.44    0.74
   1   4   2    3.83    0.61
   1   4   2    2.91    0.50
  -2  -4  -2    9.91    0.82
   2   4   2    8.87    0.88
  -3  -4  -2   12.24    1.02
   3   4   2   11.73    1.09
   3  -5  -2    5.32    0.76
  -3   5   2    6.42    0.82
   2  -5  -2   24.45    1.76
   2  -5  -2   22.65    1.00
  -2   5   2   25.44    1.74
   1  -5  -2   48.94    2.87
   1  -5  -2   46.64    1.67
  -1   5   2   38.25    2.69
   0  -5  -2    9.68    1.01
   0   5   2    9.67    0.97
   1   5   2    9.25    0.96
   1   5   2    8.67    0.91
   2   5   2    3.81    0.67
  -2  -6   3    0.57    0.57
   1   6  -3    2.90    0.57
  -1  -6   3    2.94    0.60
   0   6  -3    1.80    0.50
   0  -6   3    3.35    0.69
  -1   6  -3    3.52    0.70
   1  -6   3    3.35    0.27
   1  -6   3    3.99    0.72
  -2   6  -3   18.63    1.61
   3   5  -3    4.50    0.62
   3   5  -3    4.70    0.68
   2   5  -3   18.44    1.41
   2   5  -3   17.56    1.20
   1   5  -3   99.08    5.39
  -1  -5   3   78.48    4.79
   0   5  -3    8.31    0.87
   0  -5   3    8.37    0.85
  -1   5  -3   46.97    3.09
   1  -5   3   46.59    1.73
   1  -5   3   47.28    2.78
  -2   5  -3   33.72    2.36
   2  -5   3   34.04    2.12
   2  -5   3   32.87    1.33
  -3   5  -3    3.65    0.72
   3  -5   3    5.70    0.77
   3  -5   3    4.63    0.40
   4   4  -3    3.09    0.54
  -4  -4   3    3.41    0.77
   3   4  -3    8.42    0.86
   3   4  -3    8.80    0.77
  -3  -4   3    7.52    0.92
   2   4  -3   31.96    2.10
   2   4  -3   30.75    1.82
  -2  -4   3   32.09    1.89
   1   4  -3   24.96    1.50
   1   4  -3   27.08    1.79
  -1  -4   3   27.26    1.64
   0   4  -3    4.68    0.56
   0   4  -3    4.34    0.41
   0  -4   3    4.96    0.58
   0  -4   3    4.74    0.25
  -1   4  -3   38.34    2.48
   1  -4   3   38.14    1.42
   1  -4   3   37.20    2.22
  -2   4  -3   41.31    2.64
   2  -4   3   38.24    1.54
   2  -4   3   40.49    2.35
  -3   4  -3   37.42    2.68
   3  -4   3   42.74    2.37
   3  -4   3   40.53    1.58
   3  -4   3   37.78    2.39
   4  -4   3   41.33    2.65
   4  -4   3   44.21    1.75
  -5  -3   3    9.08    1.20
   4   3  -3   14.25    0.99
   4   3  -3    9.92    0.99
  -4  -3   3    9.31    1.15
  -4  -3   3   12.79    1.08
  -4  -3   3   12.45    0.55
   3   3  -3   27.53    1.69
   3   3  -3   25.31    1.59
  -3  -3   3   27.22    1.01
  -3  -3   3   26.38    1.69
   2   3  -3   40.84    2.20
   2   3  -3   37.87    2.09
  -2  -3   3   33.33    2.40
  -2  -3   3   38.11    1.35
  -2  -3   3   37.40    2.10
  -2  -3   3   39.10    1.35
   1   3  -3  151.65    8.07
   1   3  -3  148.35    8.65
   1   3  -3  144.41    7.53
  -1  -3   3  153.71    5.17
  -1  -3   3  153.64    7.77
  -1  -3   3  152.42    5.17
   0   3  -3    0.18    0.18
   0   3  -3    0.12    0.13
   0  -3   3    0.11    0.07
   0  -3   3    0.12    0.28
   0  -3   3    0.14    0.14
   0  -3   3    0.15    0.18
   0  -3   3    0.13    0.08
  -1   3  -3   25.17    1.35
  -1   3  -3   24.40    1.67
   1  -3   3   26.65    1.48
   1  -3   3   24.38    1.22
   1  -3   3   25.14    1.50
   1  -3   3   24.36    0.97
  -2   3  -3   79.69    4.94
   2  -3   3   83.92    4.57
   2  -3   3   78.84    3.64
   2  -3   3   87.05    4.42
   2  -3   3   84.78    2.98
  -3   3  -3  340.56   19.87
   3  -3   3  351.42   17.75
   3  -3   3  343.89   18.65
   3  -3   3  349.90   14.66
   3  -3   3  357.77   12.06
  -4   3  -3   13.83    1.39
  -5   3  -3    2.11    0.75
   5  -3   3    2.56    0.64
   5   2  -3    9.08    1.06
   5   2  -3   11.93    0.98
  -5  -2   3   14.81    1.35
  -5  -2   3   12.04    0.62
   4   2  -3    1.81    0.38
  -4  -2   3    1.15    0.42
  -4  -2   3    2.57    0.62
  -4  -2   3    2.06    0.23
   3   2  -3   21.42    1.48
   3   2  -3   24.85    1.40
  -3  -2   3   24.53    1.48
  -3  -2   3   22.96    0.90
  -3  -2   3   21.60    1.63
   2   2  -3    1.72    0.29
   2   2  -3    2.10    0.31
  -2  -2   3    1.68    0.16
  -2  -2   3    1.93    0.16
  -2  -2   3    1.45    0.34
  -2  -2   3    1.96    0.27
   1   2  -3   53.59    2.85
   1   2  -3   49.65    2.71
   1   2  -3   52.77    3.13
  -1  -2   3   51.59    1.85
  -1  -2   3   54.22    1.86
  -1  -2   3   54.13    2.79
  -1  -2   3   54.72    2.27
  -1  -2   3   49.71    3.15
   0   2  -3    4.41    0.45
   0   2  -3    4.57    0.37
   0  -2   3    3.68    0.50
   0  -2   3    4.05    0.42
   0  -2   3    4.30    0.23
   0  -2   3    4.77    0.25
   0  -2   3    4.56    0.32
  -1   2  -3   79.38    3.79
  -1   2  -3   79.13    4.41
  -1   2  -3   76.14    2.66
   1  -2   3   72.18    2.65
   1  -2   3   68.83    3.23
   1  -2   3   72.47    2.65
   1  -2   3   74.71    3.93
   1  -2   3   77.79    4.06
  -2   2  -3  116.12    5.68
  -2   2  -3  115.98    6.61
  -2   2  -3  108.15    4.00
   2  -2   3  116.05    4.01
   2  -2   3  111.16    5.87
   2  -2   3  111.19    4.86
   2  -2   3  114.87    6.16
  -3   2  -3  147.98    8.86
  -3   2  -3  163.46    7.61
   3  -2   3  145.47    7.80
   3  -2   3  150.44    5.36
   3  -2   3  154.03    8.28
   3  -2   3  150.21    6.49
   4  -2   3   32.82    2.14
   4  -2   3   33.59    1.64
  -5   2  -3   13.03    1.46
   5  -2   3   18.23    1.40
   6   1  -3    6.63    0.79
   5   1  -3   20.45    1.37
   5   1  -3   17.43    1.52
  -5  -1   3   23.33    1.75
  -5  -1   3   21.73    0.96
   4   1  -3    6.42    0.73
   4   1  -3    6.73    0.61
  -4  -1   3    7.08    0.84
  -4  -1   3    6.80    0.43
   3   1  -3  106.77    5.49
   3   1  -3  112.06    5.93
  -3  -1   3  104.55    6.32
   2   1  -3   21.11    1.22
   2   1  -3   20.70    0.82
   2   1  -3   23.49    1.30
  -2  -1   3   19.98    1.19
  -2  -1   3   23.49    0.85
  -2  -1   3   20.25    0.82
  -2  -1   3   20.90    1.44
   1   1  -3  369.04   12.72
   1   1  -3  375.62   18.32
  -1  -1   3  360.06   12.73
  -1  -1   3  385.88   12.73
  -1  -1   3  400.60   21.01
  -1  -1   3  373.84   15.44
  -1  -1   3  345.09   18.79
   0   1  -3  168.02    9.49
   0   1  -3  174.51    8.30
   0   1  -3  168.11    5.77
   0  -1   3  159.52    7.01
   0  -1   3  171.65    9.51
   0  -1   3  165.96    8.52
   0  -1   3  166.06    5.77
  -1   1  -3  600.38   32.90
  -1   1  -3  645.35   28.75
  -1   1  -3  542.88   19.99
   1  -1   3  540.61   30.99
   1  -1   3  615.30   20.01
   1  -1   3  577.98   29.50
   1  -1   3  582.30   24.32
  -2   1  -3  293.49   15.82
  -2   1  -3  286.35   13.80
  -2   1  -3  279.25    9.62
   2  -1   3  276.64   11.68
   2  -1   3  274.08   14.90
   2  -1   3  279.76   14.12
   2  -1   3  265.49    9.62
  -3   1  -3   17.39    1.10
  -3   1  -3   18.30    1.36
  -3   1  -3   18.33    0.80
   3  -1   3   17.60    1.04
   3  -1   3   18.77    1.25
   3  -1   3   17.34    0.93
  -4   1  -3   52.05    2.08
  -4   1  -3   57.67    2.96
  -4   1  -3   51.00    3.45
   4  -1   3   54.84    2.48
   4  -1   3   55.31    3.26
  -5   1  -3   76.81    5.28
   5  -1   3   94.01    5.04
   5   0  -3    1.65    0.58
   5   0  -3    2.00    0.43
  -5   0   3    2.06    0.56
  -5   0   3    1.87    0.29
   4   0  -3   10.00    0.77
   4   0  -3   10.62    0.97
  -4   0   3   11.31    0.59
  -4   0   3   11.41    1.04
   3   0  -3    3.52    0.47
   3   0  -3    3.53    0.35
  -3   0   3    3.19    0.27
  -3   0   3    2.77    0.33
  -3   0   3    3.69    0.52
   2   0  -3   32.59    1.73
   2   0  -3   32.27    1.89
   2   0  -3   32.31    1.23
  -2   0   3   30.36    1.76
  -2   0   3   33.91    2.04
  -2   0   3   34.08    1.23
   1   0  -3  189.14    9.58
   1   0  -3  176.22    6.18
   1   0  -3  175.38    8.88
  -1   0   3  174.19    6.19
  -1   0   3  183.18    9.13
   0   0  -3   37.94    2.26
   0   0  -3   39.23    1.42
   0   0  -3   37.08    2.18
   0   0  -3   40.51    2.05
   0   0   3   39.05    1.42
   0   0   3   42.32    2.13
   0   0   3   40.41    2.28
  -1   0  -3  308.10   16.87
  -1   0  -3  278.32   10.29
  -1   0  -3  315.80   16.01
  -1   0  -3  314.14   14.80
   1   0   3  283.88   10.28
   1   0   3  301.83   15.17
   1   0   3  301.11   15.97
  -2   0  -3   86.52    4.46
  -2   0  -3   84.36    3.09
  -2   0  -3   89.85    5.06
   2   0   3   87.87    3.09
   2   0   3   84.58    4.79
   2   0   3   90.11    4.49
  -3   0  -3   38.53    1.46
  -3   0  -3   38.12    2.11
  -3   0  -3   38.73    2.40
   3   0   3   37.82    1.75
   3   0   3   36.50    2.28
  -4   0  -3   70.27    2.60
  -4   0  -3   69.74    4.29
  -4   0  -3   69.75    3.73
   4   0   3   68.83    4.08
   4   0   3   69.23    3.09
  -5   0  -3    0.34    0.20
  -5   0  -3    0.31    0.45
  -5   0  -3    0.22    0.32
   5   0   3   -0.05    0.36
   5  -1  -3   18.19    1.48
  -5   1   3   21.64    1.68
   4  -1  -3    1.07    0.40
  -4   1   3    1.03    0.45
   3  -1  -3   97.95    3.39
   3  -1  -3   91.30    4.75
   3  -1  -3   97.71    5.24
  -3   1   3   97.58    5.58
  -3   1   3   80.86    4.89
  -3   1   3  101.52    3.40
   2  -1  -3   14.50    1.02
   2  -1  -3   15.44    0.66
   2  -1  -3   15.56    0.87
  -2   1   3   15.22    0.66
  -2   1   3   13.72    0.94
  -2   1   3   17.39    1.11
   1  -1  -3  257.95   12.12
   1  -1  -3  243.38    8.46
   1  -1  -3  246.21   13.15
  -1   1   3  239.13   12.50
  -1   1   3  244.65    8.46
   0  -1  -3   22.39    0.89
   0  -1  -3   26.11    1.32
   0  -1  -3   23.17    1.42
   0  -1  -3   23.41    0.89
   0   1   3   23.84    1.36
   0   1   3   22.92    0.89
  -1  -1  -3  226.05   12.52
  -1  -1  -3  233.80    7.99
  -1  -1  -3  230.10    7.99
  -1  -1  -3  232.91   11.53
   1   1   3  238.61   11.80
   1   1   3  235.00   12.46
  -2  -1  -3   55.49    2.03
  -2  -1  -3   54.28    3.32
  -2  -1  -3   54.59    2.98
   2   1   3   56.05    3.23
   2   1   3   62.18    2.98
  -3  -1  -3  275.01   14.30
  -3  -1  -3  299.18    9.92
   3   1   3  287.78   15.47
  -4  -1  -3   18.73    0.84
  -4  -1  -3   17.30    1.27
  -4  -1  -3   19.55    1.45
   4   1   3   18.64    1.40
  -5  -1  -3   15.77    0.79
  -5  -1  -3   14.86    1.21
   5   1   3   14.26    1.35
   5  -2  -3   16.35    1.24
  -5   2   3   11.27    1.28
   4  -2  -3    9.04    0.85
  -4   2   3    8.24    0.91
   3  -2  -3    4.72    0.58
   3  -2  -3    4.59    0.36
  -3   2   3    5.47    0.66
  -3   2   3    5.01    0.50
   2  -2  -3   24.34    1.00
   2  -2  -3   24.80    1.57
  -2   2   3   23.82    1.47
  -2   2   3   26.30    1.64
   1  -2  -3   24.23    1.34
   1  -2  -3   26.25    1.58
   1  -2  -3   25.66    0.98
  -1   2   3   24.28    1.57
  -1   2   3   25.75    1.00
  -1   2   3   26.84    1.52
   0  -2  -3   21.27    0.80
   0  -2  -3   20.58    1.33
   0  -2  -3   21.42    1.17
   0  -2  -3   19.17    0.79
   0   2   3   20.66    1.25
  -1  -2  -3   18.74    1.13
  -1  -2  -3   20.15    0.75
  -1  -2  -3   18.11    1.38
  -1  -2  -3   18.47    0.74
   1   2   3   18.91    1.26
   1   2   3   20.17    1.17
  -2  -2  -3   24.90    0.97
  -2  -2  -3   25.35    1.51
   2   2   3   24.08    1.63
   2   2   3   27.97    1.49
  -3  -2  -3   52.21    1.94
  -3  -2  -3   52.94    2.92
   3   2   3   53.45    3.16
  -4  -2  -3    2.71    0.27
  -4  -2  -3    1.81    0.47
   4   2   3    2.37    0.52
  -5   3   3   14.62    1.44
   4  -3  -3    0.62    0.23
   4  -3  -3    1.30    0.44
  -4   3   3    0.63    0.39
   3  -3  -3   29.65    2.02
   3  -3  -3   33.24    1.32
  -3   3   3   32.35    2.18
  -3   3   3   32.02    1.94
   2  -3  -3   19.20    0.80
   2  -3  -3   19.19    1.31
  -2   3   3   15.08    1.29
  -2   3   3   19.90    1.28
   1  -3  -3   65.98    2.44
   1  -3  -3   67.33    3.90
  -1   3   3   70.36    3.73
   0  -3  -3   16.95    1.00
   0  -3  -3   16.41    0.67
   0  -3  -3   16.59    1.20
   0   3   3   16.83    1.14
  -1  -3  -3   48.12    1.73
  -1  -3  -3   49.41    2.61
   1   3   3   50.22    2.71
   1   3   3   46.39    2.87
  -2  -3  -3   10.95    0.86
  -2  -3  -3   11.76    0.49
   2   3   3   12.03    0.85
   2   3   3   10.38    0.93
  -3  -3  -3   15.26    0.66
  -3  -3  -3   16.04    1.17
   3   3   3   16.35    1.27
  -4  -3  -3    6.86    0.82
  -4  -3  -3    6.23    0.39
   4   3   3    7.00    0.85
   4  -4  -3    4.08    0.69
   4  -4  -3    3.74    0.43
  -4   4   3    4.47    0.64
   3  -4  -3    1.00    0.23
   3  -4  -3    1.04    0.41
  -3   4   3    0.85    0.36
   2  -4  -3    6.43    0.41
   2  -4  -3    5.63    0.72
  -2   4   3    6.59    0.75
   1  -4  -3   48.54    1.83
   1  -4  -3   48.87    3.02
  -1   4   3   51.69    2.93
   0  -4  -3    1.71    0.47
   0  -4  -3    1.34    0.16
   0   4   3    0.46    0.31
  -1  -4  -3    1.24    0.53
   1   4   3    0.80    0.32
  -2  -4  -3    0.81    0.34
  -2  -4  -3    0.67    0.53
   2   4   3    0.92    0.39
  -3  -4  -3    1.37    0.44
  -3  -4  -3    0.74    0.59
   3   4   3    1.75    0.51
   2  -5  -3   11.71    0.62
   2  -5  -3   13.07    1.16
  -2   5   3   11.08    1.11
   1  -5  -3   14.09    0.65
   1  -5  -3   15.83    1.30
  -1   5   3   12.75    1.21
   0  -5  -3    0.57    0.45
   0   5   3    0.43    0.38
  -2  -5  -3    0.19    0.60
   1   6  -4    2.14    0.54
  -1  -6   4    2.27    0.58
   0   6  -4    1.67    0.51
   0  -6   4    2.02    0.58
  -1   6  -4    3.92    0.77
   1  -6   4    5.12    0.79
   1  -6   4    4.57    0.31
   3   5  -4    7.99    0.89
   3   5  -4    8.36    0.80
   2   5  -4   15.26    1.07
   2   5  -4   14.93    1.26
   1   5  -4   49.34    3.20
  -1  -5   4   50.54    2.90
   0   5  -4    7.90    0.85
   0  -5   4    7.19    0.78
   0  -5   4    7.43    0.36
  -1   5  -4   71.80    4.57
   1  -5   4   72.52    2.65
   1  -5   4   76.15    4.11
  -2   5  -4    1.35    0.50
   2  -5   4    1.33    0.22
   2  -5   4    1.72    0.47
  -3   5  -4    8.50    1.04
   3  -5   4    8.10    0.88
   3  -5   4    8.61    0.54
   4   4  -4   40.50    2.34
  -4  -4   4   36.40    2.71
   3   4  -4    0.08    0.29
   3   4  -4    0.38    0.24
  -3  -4   4    0.42    0.44
   2   4  -4   74.94    4.67
   2   4  -4   77.50    4.08
  -2  -4   4   80.09    4.18
   1   4  -4   71.83    3.71
   1   4  -4   70.94    4.31
  -1  -4   4   74.52    2.49
  -1  -4   4   66.95    3.85
   0   4  -4   10.94    0.76
   0   4  -4   11.65    0.96
   0  -4   4   11.72    0.50
   0  -4   4   10.33    0.86
  -1   4  -4   15.24    1.23
   1  -4   4   15.43    1.08
   1  -4   4   14.53    0.66
  -2   4  -4    4.75    0.68
   2  -4   4    4.59    0.60
   2  -4   4    4.17    0.46
   2  -4   4    4.81    0.36
  -3   4  -4    1.26    0.47
   3  -4   4    1.88    0.44
   3  -4   4    1.47    0.24
   3  -4   4    1.97    0.36
   4  -4   4    7.14    0.66
   4  -4   4    6.94    0.56
   4   3  -4    6.13    0.66
  -4  -3   4    6.53    0.37
  -4  -3   4    4.47    0.89
   3   3  -4  256.57   12.73
  -3  -3   4  252.46    8.75
   2   3  -4   90.27    4.70
  -2  -3   4   92.36    3.19
  -2  -3   4   96.30    4.80
  -2  -3   4   85.81    5.42
   1   3  -4   10.22    0.85
   1   3  -4   10.46    0.73
  -1  -3   4   11.62    0.79
  -1  -3   4   10.64    0.46
  -1  -3   4   11.36    0.46
   0   3  -4    1.24    0.22
   0   3  -4    1.56    0.31
   0  -3   4    1.65    0.17
   0  -3   4    0.70    0.36
   0  -3   4    1.65    0.32
   0  -3   4    1.51    0.22
  -1   3  -4   80.24    5.15
  -1   3  -4   91.39    4.43
   1  -3   4   86.10    4.62
   1  -3   4   91.32    3.11
   1  -3   4   86.02    4.75
   1  -3   4   88.15    3.81
  -2   3  -4    9.09    0.63
  -2   3  -4    8.16    0.81
   2  -3   4    8.76    0.71
   2  -3   4    7.15    0.56
   2  -3   4    8.19    0.47
   2  -3   4    8.33    0.65
  -3   3  -4   41.03    2.81
   3  -3   4   43.43    1.69
   3  -3   4   43.18    2.54
   3  -3   4   43.54    2.06
   3  -3   4   42.31    2.43
  -4   3  -4    3.21    0.79
   4  -3   4    5.89    0.75
   4  -3   4    4.92    0.53
   5  -3   4   36.62    1.91
   5  -3   4   35.45    2.43
   5   2  -4    0.81    0.48
   5   2  -4    1.40    0.41
  -5  -2   4    1.50    0.24
  -5  -2   4    1.14    0.59
   4   2  -4   40.20    2.17
   4   2  -4   32.22    2.26
  -4  -2   4   36.84    2.55
  -4  -2   4   38.59    1.44
   3   2  -4  276.61   13.18
   3   2  -4  258.92   14.17
  -3  -2   4  257.70   15.14
   2   2  -4  115.01    5.54
  -2  -2   4  107.42    3.80
  -2  -2   4  117.60    5.63
  -2  -2   4   95.52    6.35
   1   2  -4    8.45    0.61
   1   2  -4    8.51    0.69
  -1  -2   4    8.81    0.75
  -1  -2   4    8.67    0.40
  -1  -2   4    8.53    0.46
  -1  -2   4    8.23    0.62
  -1  -2   4    8.85    0.39
   0   2  -4    0.81    0.12
   0   2  -4    0.94    0.25
   0   2  -4    0.65    0.19
   0  -2   4    0.81    0.14
   0  -2   4    0.61    0.27
   0  -2   4    0.59    0.10
   0  -2   4    0.80    0.22
   0  -2   4    0.71    0.15
  -1   2  -4   86.33    4.70
  -1   2  -4   78.71    4.05
  -1   2  -4   81.55    2.84
   1  -2   4   72.25    4.30
   1  -2   4   79.78    4.19
   1  -2   4   82.81    2.85
   1  -2   4   77.77    3.45
  -2   2  -4   81.46    2.95
  -2   2  -4   82.59    4.86
  -2   2  -4   90.85    4.21
   2  -2   4   83.09    2.96
   2  -2   4   78.95    4.50
   2  -2   4   78.61    3.58
   2  -2   4   78.84    4.31
  -3   2  -4   15.70    1.26
  -3   2  -4   15.81    1.00
   3  -2   4   14.43    0.99
   3  -2   4   15.81    1.11
   3  -2   4   14.26    0.86
   3  -2   4   15.13    0.73
  -4   2  -4    5.89    1.01
   4  -2   4    9.18    0.88
   4  -2   4    8.72    0.64
  -5   2  -4    1.94    0.70
   5  -2   4    4.48    0.77
   5   1  -4   28.39    1.78
  -5  -1   4   27.41    1.24
  -5  -1   4   31.31    2.21
   4   1  -4   63.72    3.86
   4   1  -4   65.44    3.55
  -4  -1   4   70.52    2.48
  -4  -1   4   66.88    4.17
   3   1  -4    7.85    0.70
   3   1  -4    8.41    0.64
  -3  -1   4    8.86    0.85
  -3  -1   4    8.40    0.44
   2   1  -4  134.58    6.81
   2   1  -4  137.29    4.73
  -2  -1   4  138.90    7.83
  -2  -1   4  133.62    4.73
  -2  -1   4  134.65    6.97
   1   1  -4  640.66   22.19
   1   1  -4  651.79   34.38
   1   1  -4  650.97   31.91
  -1  -1   4  651.38   22.20
  -1  -1   4  604.81   32.77
  -1  -1   4  671.91   26.95
  -1  -1   4  685.54   36.55
   0   1  -4  105.70    6.24
   0   1  -4  110.27    5.49
   0   1  -4  110.39    3.81
   0  -1   4  107.82    4.63
   0  -1   4  114.54    5.65
   0  -1   4  104.47    3.81
   0  -1   4  111.37    6.27
  -1   1  -4  615.63   20.75
  -1   1  -4  585.07   34.11
  -1   1  -4  633.20   29.83
   1  -1   4  646.28   25.25
   1  -1   4  572.75   30.60
   1  -1   4  609.78   20.75
   1  -1   4  592.84   32.14
  -2   1  -4   59.38    3.37
  -2   1  -4   53.00    2.05
  -2   1  -4   55.84    2.95
   2  -1   4   56.39    3.15
   2  -1   4   52.64    2.05
   2  -1   4   56.62    2.49
   2  -1   4   58.29    2.97
  -3   1  -4   14.17    1.17
  -3   1  -4   13.72    0.94
  -3   1  -4   13.74    0.67
   3  -1   4   14.37    0.79
   3  -1   4   12.03    1.00
  -4   1  -4   14.19    1.02
  -4   1  -4   13.91    1.27
  -4   1  -4   13.71    0.73
   4  -1   4   13.29    1.15
   4  -1   4   13.94    0.84
  -5   1  -4   22.68    1.45
  -5   1  -4   16.07    1.60
   5  -1   4   19.54    1.56
   5   0  -4   46.14    2.93
  -5   0   4   47.28    3.15
   4   0  -4   68.21    3.63
   4   0  -4   69.55    3.99
  -4   0   4   70.52    4.28
  -4   0   4   67.93    2.58
   3   0  -4   20.00    1.34
   3   0  -4   20.86    1.21
  -3   0   4   20.00    1.46
  -3   0   4   21.77    0.89
   2   0  -4  178.23    6.31
   2   0  -4  201.28    9.80
   2   0  -4  184.54    9.06
  -2   0   4  167.55    9.30
  -2   0   4  183.88    6.32
  -2   0   4  178.53   10.38
   1   0  -4  340.95   18.47
   1   0  -4  354.79   17.12
   1   0  -4  348.77   11.92
  -1   0   4  367.47   19.57
  -1   0   4  316.62   11.91
  -1   0   4  359.30   17.61
   0   0  -4    7.95    0.56
   0   0  -4    7.69    0.38
   0   0  -4    7.61    0.58
   0   0  -4    7.75    0.53
   0   0   4    8.01    0.57
   0   0   4    9.19    0.63
   0   0   4    7.56    0.38
  -1   0  -4  287.78   10.42
  -1   0  -4  318.10   15.02
  -1   0  -4  310.04   17.05
  -1   0  -4  306.12   16.21
   1   0   4  308.41   16.16
   1   0   4  293.55   15.37
   1   0   4  301.74   10.42
  -2   0  -4   59.59    3.26
  -2   0  -4   66.01    3.66
  -2   0  -4   61.00    2.25
   2   0   4   61.61    3.48
   2   0   4   66.78    3.27
   2   0   4   56.33    2.24
  -3   0  -4   29.90    1.74
  -3   0  -4   28.46    1.19
  -3   0  -4   30.39    1.95
   3   0   4   28.78    1.43
   3   0   4   30.37    1.86
  -4   0  -4   12.15    0.97
  -4   0  -4   12.55    1.12
  -4   0  -4   11.85    0.66
   4   0   4   12.16    1.07
   4   0   4   11.71    0.75
  -5   0  -4   23.43    1.08
  -5   0  -4   23.26    1.59
  -5   0  -4   22.16    1.80
   5  -1  -4   12.41    1.12
  -5   1   4   12.08    1.25
   4  -1  -4    1.10    0.40
  -4   1   4    1.00    0.43
   3  -1  -4  198.73   11.02
   3  -1  -4  201.75   10.11
   3  -1  -4  201.14    7.11
  -3   1   4  212.43   11.70
  -3   1   4  202.18   10.43
  -3   1   4  206.97    7.12
   2  -1  -4   74.39    4.25
   2  -1  -4   79.12    2.75
   2  -1  -4   79.52    3.88
  -2   1   4   76.55    2.75
  -2   1   4   74.34    4.48
  -2   1   4   75.42    4.05
   1  -1  -4   36.08    2.23
   1  -1  -4   39.90    1.44
   1  -1  -4   39.26    2.04
  -1   1   4   39.91    2.16
  -1   1   4   38.89    1.45
   0  -1  -4    6.85    0.52
   0  -1  -4    5.73    0.55
   0  -1  -4    5.34    0.32
   0  -1  -4    5.91    0.32
   0   1   4    6.10    0.53
   0   1   4    6.07    0.33
  -1  -1  -4   25.53    0.97
  -1  -1  -4   25.28    0.97
  -1  -1  -4   22.46    1.63
  -1  -1  -4   25.53    1.44
   1   1   4   25.38    1.55
   1   1   4   26.82    1.45
   1   1   4   23.83    0.96
  -2  -1  -4   34.05    1.28
  -2  -1  -4   29.95    2.02
  -2  -1  -4   34.83    1.91
   2   1   4   35.54    2.05
  -3  -1  -4  232.99   11.78
  -3  -1  -4  237.63    8.15
   3   1   4  233.62   12.73
  -4  -1  -4   38.13    1.49
  -4  -1  -4   33.85    2.18
   4   1   4   38.20    2.40
  -5  -1  -4    9.99    1.00
  -5  -1  -4   10.76    0.65
   5   1   4    8.39    1.07
   5  -2  -4   11.73    1.14
  -5   2   4   13.43    1.28
   4  -2  -4   13.05    1.06
  -4   2   4   11.26    1.12
   3  -2  -4  132.82    7.20
   3  -2  -4  134.07    4.65
  -3   2   4  124.09    6.80
   2  -2  -4   43.89    1.64
   2  -2  -4   43.98    2.58
  -2   2   4   42.73    2.44
   1  -2  -4   34.35    2.09
   1  -2  -4   34.84    1.31
   1  -2  -4   36.72    1.85
  -1   2   4   32.26    1.97
   0  -2  -4   45.44    2.73
   0  -2  -4   45.86    1.71
   0  -2  -4   47.93    2.47
   0   2   4   47.93    2.59
  -1  -2  -4   13.15    0.88
  -1  -2  -4   13.02    0.56
  -1  -2  -4   12.04    1.11
   1   2   4   12.97    0.98
   1   2   4   14.24    0.93
  -2  -2  -4  101.31    5.34
  -2  -2  -4  107.25    3.66
   2   2   4  106.28    5.41
   2   2   4   99.74    5.78
  -3  -2  -4   53.03    2.99
  -3  -2  -4   53.68    2.00
   3   2   4   54.96    3.26
  -4  -2  -4   42.05    2.51
  -4  -2  -4   41.66    1.64
   4   2   4   42.45    2.72
  -5   3   4    0.87    0.57
   4  -3  -4   10.96    1.01
  -4   3   4   10.45    0.92
   3  -3  -4    0.46    0.18
   3  -3  -4    0.33    0.29
  -3   3   4    0.11    0.24
   2  -3  -4    6.28    0.40
   2  -3  -4    5.97    0.70
  -2   3   4    6.96    0.68
   1  -3  -4   89.72    3.25
   1  -3  -4   91.60    5.15
  -1   3   4   92.21    4.90
   0  -3  -4    0.45    0.13
   0  -3  -4    0.77    0.34
   0  -3  -4    0.41    0.21
   0   3   4    0.27    0.28
  -1  -3  -4  136.73    4.76
  -1  -3  -4  133.39    6.94
   1   3   4  142.75    7.17
   1   3   4  134.90    7.57
  -2  -3  -4   48.00    2.69
  -2  -3  -4   50.49    1.77
   2   3   4   46.10    2.93
  -3  -3  -4    3.00    0.26
  -3  -3  -4    2.90    0.53
   3   3   4    2.66    0.60
   4  -4  -4   10.66    0.67
  -4   4   4    9.52    0.96
   3  -4  -4   13.40    0.73
   3  -4  -4   14.61    1.22
  -3   4   4   15.03    1.18
   2  -4  -4   13.86    0.69
   2  -4  -4   13.36    1.18
  -2   4   4   13.97    1.13
   1  -4  -4   28.64    1.17
   1  -4  -4   29.80    2.01
  -1   4   4   29.89    1.91
   0  -4  -4    5.55    0.77
   0  -4  -4    5.36    0.34
   0   4   4    5.67    0.70
  -1  -4  -4   52.38    1.84
   1   4   4   51.37    2.95
   1   4   4   48.68    3.13
  -2  -4  -4   35.90    2.10
   2   4   4   33.35    2.28
  -3  -4  -4   20.54    1.48
   1  -5  -4    7.33    0.94
  -1   5   4    7.02    0.89
   0  -5  -4    1.20    0.57
   0  -5  -4    0.87    0.16
   0   5   4    1.05    0.45
   1   5   4    2.20    0.51
   1   6  -5   17.31    1.46
  -1  -6   5   16.90    1.35
   0   6  -5    6.01    0.88
   0  -6   5    5.82    0.81
  -1   6  -5   32.30    2.62
   1  -6   5   41.81    2.47
   3   5  -5    8.67    0.80
   3   5  -5    7.84    0.91
   2   5  -5    2.99    0.47
   2   5  -5    3.28    0.61
   1   5  -5    8.44    0.91
   1   5  -5    9.10    0.74
  -1  -5   5    9.08    0.86
   0   5  -5   16.44    1.35
   0  -5   5   16.65    0.68
   0  -5   5   15.37    1.21
  -1   5  -5    0.74    0.40
   1  -5   5    0.61    0.35
   1  -5   5    0.55    0.16
  -2   5  -5    6.48    0.87
   2  -5   5    6.10    0.43
   2  -5   5    6.03    0.77
  -3   5  -5    3.54    0.74
   3  -5   5    5.82    0.79
   3  -5   5    5.17    0.44
   4   4  -5    8.86    0.84
  -4  -4   5    6.82    1.00
  -4  -4   5    8.08    0.43
   3   4  -5    6.76    0.67
   3   4  -5    6.52    0.78
  -3  -4   5    5.70    0.86
  -3  -4   5    6.63    0.35
   2   4  -5   40.05    2.66
   2   4  -5   40.22    2.32
  -2  -4   5   42.41    1.50
  -2  -4   5   42.14    2.38
   1   4  -5   14.60    1.21
   1   4  -5   15.98    1.04
  -1  -4   5   15.69    1.10
  -1  -4   5   15.83    0.64
   0   4  -5   35.19    2.21
   0  -4   5   33.14    1.98
   0  -4   5   29.48    1.57
   0  -4   5   33.93    1.25
  -1   4  -5   47.37    3.01
   1  -4   5   45.60    1.75
   1  -4   5   46.98    2.67
   1  -4   5   45.65    2.18
  -2   4  -5   33.36    2.28
   2  -4   5   33.81    2.02
   2  -4   5   32.20    1.34
   2  -4   5   32.51    1.66
  -3   4  -5   31.18    2.28
   3  -4   5   30.82    1.34
   3  -4   5   31.86    1.65
   3  -4   5   32.21    1.98
  -4   4  -5    1.62    0.64
   4  -4   5    1.70    0.39
   4   3  -5   11.05    0.92
  -4  -3   5   11.07    0.56
   3   3  -5    8.39    0.73
  -3  -3   5    9.04    0.98
  -3  -3   5    9.04    0.45
   2   3  -5    1.25    0.29
   2   3  -5    1.71    0.39
  -2  -3   5    1.18    0.42
  -2  -3   5    1.57    0.18
  -2  -3   5    1.54    0.32
   1   3  -5    5.05    0.50
   1   3  -5    4.92    0.56
  -1  -3   5    5.10    0.30
  -1  -3   5    5.03    0.53
  -1  -3   5    6.15    0.40
   0   3  -5    6.71    0.66
   0   3  -5    7.21    0.58
   0  -3   5    7.59    0.38
   0  -3   5    7.16    0.62
   0  -3   5    6.95    0.48
  -1   3  -5    3.71    0.52
  -1   3  -5    4.30    0.43
   1  -3   5    3.85    0.37
   1  -3   5    4.01    0.48
   1  -3   5    3.67    0.29
  -2   3  -5   19.28    1.13
  -2   3  -5   17.14    1.35
   2  -3   5   16.10    1.16
   2  -3   5   17.12    0.98
   2  -3   5   18.06    0.81
  -3   3  -5   38.26    2.58
   3  -3   5   37.82    2.21
   3  -3   5   36.20    1.86
   3  -3   5   38.68    1.55
  -4   3  -5    3.12    0.81
   4  -3   5    4.09    0.50
   5  -3   5    1.03    0.36
   5   2  -5   11.66    0.97
  -5  -2   5   10.44    1.22
  -5  -2   5   11.34    0.63
   4   2  -5   17.26    1.18
  -4  -2   5   13.98    1.42
  -4  -2   5   19.92    0.81
   3   2  -5   33.44    1.79
  -3  -2   5   30.22    1.19
  -3  -2   5   27.11    2.09
   2   2  -5  101.17    5.21
  -2  -2   5  106.03    5.32
  -2  -2   5   98.60    3.59
   1   2  -5  163.92    9.38
   1   2  -5  164.09    8.22
  -1  -2   5  158.29    5.69
  -1  -2   5  169.41    9.44
  -1  -2   5  161.81    8.42
  -1  -2   5  166.34    6.89
   0   2  -5   66.16    2.35
   0   2  -5   64.45    3.88
   0   2  -5   68.13    3.40
   0  -2   5   67.69    2.36
   0  -2   5   62.12    2.85
   0  -2   5   64.99    3.49
  -1   2  -5   34.30    2.21
  -1   2  -5   35.08    1.92
  -1   2  -5   36.50    1.35
   1  -2   5   30.62    1.96
   1  -2   5   38.78    1.37
   1  -2   5   36.34    1.65
  -2   2  -5   95.25    5.55
  -2   2  -5   96.41    4.84
   2  -2   5   98.18    3.39
   2  -2   5   90.78    4.94
   2  -2   5   89.39    4.10
  -3   2  -5   45.87    2.41
  -3   2  -5   41.94    2.81
   3  -2   5   41.69    2.40
   3  -2   5   44.19    2.06
   3  -2   5   41.77    2.56
   4  -2   5   23.86    1.68
   4  -2   5   24.17    1.31
  -5   2  -5   10.89    1.39
   5  -2   5   14.45    1.26
   5   1  -5    5.00    0.61
  -5  -1   5    5.68    0.46
  -5  -1   5    6.22    0.91
   4   1  -5   12.50    1.13
   4   1  -5   15.37    1.04
  -4  -1   5   15.49    1.30
  -4  -1   5   15.17    0.72
   3   1  -5    3.03    0.45
   3   1  -5    2.61    0.39
  -3  -1   5    2.74    0.28
  -3  -1   5    3.35    0.58
   2   1  -5   92.29    4.80
   2   1  -5   98.66    5.10
  -2  -1   5   91.08    3.33
  -2  -1   5   94.66    3.95
  -2  -1   5   92.17    5.51
   1   1  -5   20.69    0.82
   1   1  -5   19.97    1.17
   1   1  -5   18.00    1.18
  -1  -1   5   22.04    1.37
  -1  -1   5   20.56    0.83
  -1  -1   5   20.98    1.26
  -1  -1   5   20.65    0.95
   0   1  -5    3.05    0.37
   0   1  -5    3.08    0.37
   0   1  -5    3.19    0.23
   0  -1   5    2.85    0.24
   0  -1   5    2.84    0.27
   0  -1   5    2.87    0.42
   0  -1   5    3.02    0.40
  -1   1  -5   11.32    0.77
  -1   1  -5    9.76    0.79
  -1   1  -5   11.15    0.52
   1  -1   5   10.61    0.76
   1  -1   5   10.81    0.62
   1  -1   5   10.81    0.70
   1  -1   5   10.95    0.52
  -2   1  -5   56.18    3.25
  -2   1  -5   51.44    2.86
  -2   1  -5   54.78    2.00
   2  -1   5   54.72    2.43
   2  -1   5   52.97    2.88
   2  -1   5   51.50    3.02
  -3   1  -5    8.54    0.53
  -3   1  -5    7.71    0.74
  -3   1  -5   11.23    1.01
   3  -1   5    8.98    0.62
   3  -1   5    8.97    0.79
  -4   1  -5   23.69    1.46
  -4   1  -5   21.37    1.02
  -4   1  -5   22.13    1.72
   4  -1   5   23.43    1.21
   4  -1   5   17.89    1.54
  -5   1  -5    5.08    0.70
  -5   1  -5    4.54    0.84
   5  -1   5    3.57    0.68
   5   0  -5   33.06    2.27
  -5   0   5   36.71    2.51
   4   0  -5   35.50    2.03
   4   0  -5   36.23    2.25
  -4   0   5   36.31    1.47
  -4   0   5   35.73    2.44
   3   0  -5   28.08    1.77
   3   0  -5   29.29    1.64
  -3   0   5   28.84    1.94
  -3   0   5   28.69    1.17
   2   0  -5   54.48    2.10
   2   0  -5   57.60    3.01
   2   0  -5   53.40    3.21
  -2   0   5   61.74    3.45
  -2   0   5   60.53    2.12
   1   0  -5  207.57   10.42
   1   0  -5  204.03    7.25
   1   0  -5  202.24   11.21
  -1   0   5  196.90    7.26
  -1   0   5  233.81   11.90
  -1   0   5  214.71   10.75
   0   0  -5  150.43    7.93
   0   0  -5  146.48    7.39
   0   0  -5  148.11    5.14
   0   0  -5  148.26    8.32
   0   0   5  141.91    5.13
   0   0   5  153.95    7.62
   0   0   5  142.84    8.34
  -1   0  -5   60.76    2.11
  -1   0  -5   58.40    3.34
  -1   0  -5   54.83    3.06
   1   0   5   55.09    2.10
   1   0   5   59.36    3.10
   1   0   5   57.92    3.23
  -2   0  -5   62.54    3.40
  -2   0  -5   58.20    2.33
  -2   0  -5   61.78    3.75
   2   0   5   71.37    3.43
   2   0   5   65.00    3.61
  -3   0  -5   95.22    5.55
  -3   0  -5   95.09    3.42
  -3   0  -5   95.65    4.94
   3   0   5   95.75    5.29
   3   0   5   89.12    4.12
  -4   0  -5   13.78    1.10
  -4   0  -5   15.14    0.76
   4   0   5   13.48    0.87
   4   0   5   13.87    1.18
  -5   0  -5   13.96    1.21
  -5   0  -5   15.77    0.84
   5  -1  -5    5.99    0.83
  -5   1   5    8.21    1.03
   4  -1  -5   37.89    2.38
  -4   1   5   37.77    2.56
   3  -1  -5   66.14    3.51
   3  -1  -5   74.01    3.90
  -3   1   5   63.14    4.10
  -3   1   5   68.77    3.67
   2  -1  -5   42.90    2.19
   2  -1  -5   40.83    2.43
   2  -1  -5   40.79    1.57
  -2   1   5   40.31    2.31
   1  -1  -5   17.13    0.67
   1  -1  -5   15.49    1.04
   1  -1  -5   15.94    0.93
  -1   1   5   13.12    0.96
  -1   1   5   16.01    0.67
  -1   1   5   13.04    0.96
  -1   1   5   17.04    1.02
   0  -1  -5    1.77    0.19
   0  -1  -5    1.48    0.32
   0  -1  -5    1.59    0.31
   0   1   5    1.48    0.30
  -1  -1  -5   29.10    1.15
  -1  -1  -5   29.98    1.71
   1   1   5   30.28    1.73
   1   1   5   30.00    1.83
  -2  -1  -5   54.50    3.31
  -2  -1  -5   65.38    2.29
   2   1   5   59.40    3.56
   2   1   5   68.46    3.37
  -3  -1  -5   20.83    1.40
  -3  -1  -5   21.88    0.94
   3   1   5   21.40    1.50
  -4  -1  -5    1.64    0.46
  -4  -1  -5    1.48    0.26
   4   1   5    1.40    0.31
   4   1   5    1.39    0.44
  -5   2   5    0.72    0.52
   4  -2  -5    8.23    0.85
  -4   2   5    8.50    0.96
   3  -2  -5   99.29    5.53
   3  -2  -5  100.28    3.55
  -3   2   5   94.29    5.24
   2  -2  -5  176.90    9.61
   2  -2  -5  180.88    6.18
  -2   2   5  170.93    9.14
   1  -2  -5   21.71    1.50
   1  -2  -5   22.04    0.92
   1  -2  -5   23.89    1.33
  -1   2   5   22.94    1.44
   0  -2  -5    4.16    0.44
   0  -2  -5    3.79    0.56
   0  -2  -5    4.17    0.29
   0   2   5    3.93    0.52
  -1  -2  -5   28.36    1.72
  -1  -2  -5   29.53    1.15
   1   2   5   29.63    1.75
   1   2   5   30.46    1.90
  -2  -2  -5  100.36    3.47
  -2  -2  -5   92.87    5.06
   2   2   5  101.58    5.14
   2   2   5   93.87    5.48
  -3  -2  -5   19.27    1.40
  -3  -2  -5   21.93    0.92
   3   2   5   20.90    1.54
  -4  -2  -5    9.14    0.54
  -4  -2  -5    8.24    0.88
   4   2   5    8.06    0.95
   4  -3  -5   26.46    1.81
  -4   3   5   23.78    1.69
   3  -3  -5   21.71    0.94
   3  -3  -5   18.22    1.45
  -3   3   5   19.69    1.41
   2  -3  -5   69.08    4.15
   2  -3  -5   70.25    2.63
  -2   3   5   73.97    3.96
   1  -3  -5   12.11    0.59
   1  -3  -5   11.43    1.03
  -1   3   5   12.44    0.99
   0  -3  -5    3.51    0.62
   0  -3  -5    3.45    0.29
   0   3   5    3.99    0.58
  -1  -3  -5   13.74    1.00
  -1  -3  -5   13.71    0.64
   1   3   5   14.04    1.16
   1   3   5   16.35    1.12
  -2  -3  -5    3.03    0.28
  -2  -3  -5    3.10    0.51
   2   3   5    2.80    0.58
  -3  -3  -5    2.87    0.57
  -3  -3  -5    3.53    0.31
   3   3   5    3.33    0.64
   3  -4  -5   21.82    1.69
   3  -4  -5   23.06    1.05
  -3   4   5   22.34    1.61
   2  -4  -5    4.92    0.40
   2  -4  -5    6.05    0.80
  -2   4   5    5.92    0.75
   1  -4  -5   47.01    2.91
   1  -4  -5   43.98    1.74
  -1   4   5   45.50    2.73
   0  -4  -5   43.07    1.62
   0  -4  -5   43.33    2.80
   0   4   5   42.15    2.59
  -1  -4  -5   14.16    0.62
   1   4   5   12.99    1.21
   1   4   5   13.04    1.13
  -2  -4  -5   30.58    1.99
  -2  -4  -5   34.13    1.22
   2   4   5   30.34    2.18
  -1  -6   6   10.61    1.05
   0   6  -6   22.70    1.92
   0  -6   6   20.40    1.61
   3   5  -6    3.16    0.55
   2   5  -6    5.82    0.79
   2   5  -6    6.81    0.69
  -2  -5   6    6.95    0.75
   1   5  -6    5.75    0.63
   1   5  -6    6.08    0.79
  -1  -5   6    7.05    0.74
  -1  -5   6    6.83    0.36
   0   5  -6    8.38    0.93
   0  -5   6    9.55    0.88
  -1   5  -6    5.19    0.80
   1  -5   6    5.53    0.40
   1  -5   6    6.20    0.74
  -2   5  -6    1.25    0.48
   2  -5   6    1.85    0.49
   2  -5   6    1.87    0.38
   2  -5   6    1.39    0.25
   3  -5   6    4.83    0.74
   3  -5   6    4.99    0.46
   3   4  -6   13.85    1.08
   3   4  -6   14.85    1.25
  -3  -4   6   15.09    0.65
   2   4  -6   18.16    1.24
   2   4  -6   18.83    1.42
  -2  -4   6   18.70    1.26
  -2  -4   6   18.83    0.77
   1   4  -6   29.25    1.70
   1   4  -6   27.64    1.95
  -1  -4   6   28.59    1.75
  -1  -4   6   27.70    1.10
   0   4  -6   35.94    2.37
   0   4  -6   35.81    2.02
   0  -4   6   33.16    2.11
   0  -4   6   35.95    1.38
   0  -4   6   37.26    1.73
  -1   4  -6   11.97    1.11
  -1   4  -6   12.61    0.92
   1  -4   6   12.30    0.99
   1  -4   6   12.13    0.79
   1  -4   6   12.32    0.63
  -2   4  -6   12.96    1.18
   2  -4   6   13.32    1.05
   2  -4   6   12.19    0.85
   2  -4   6   13.39    0.69
  -3   4  -6    5.88    0.90
   3  -4   6    6.87    0.51
   3  -4   6    7.33    0.77
   3  -4   6    6.68    0.64
   4  -4   6   55.19    2.73
   4   3  -6    0.67    0.31
  -4  -3   6    0.57    0.49
   3   3  -6    3.81    0.51
  -3  -3   6    3.92    0.32
  -3  -3   6    4.40    0.70
   2   3  -6    3.49    0.53
   2   3  -6    3.52    0.47
  -2  -3   6    3.46    0.48
  -2  -3   6    4.03    0.30
  -2  -3   6    4.78    0.72
   1   3  -6   11.33    0.95
   1   3  -6   11.71    0.85
  -1  -3   6   11.55    0.54
  -1  -3   6   11.92    0.66
  -1  -3   6   11.66    0.87
   0   3  -6    6.65    0.57
   0   3  -6    6.27    0.65
   0  -3   6    6.58    0.39
   0  -3   6    5.74    0.46
   0  -3   6    6.35    0.62
  -1   3  -6    6.40    0.58
  -1   3  -6    6.39    0.71
   1  -3   6    6.33    0.50
   1  -3   6    6.88    0.65
   1  -3   6    6.69    0.42
  -2   3  -6   14.74    1.17
  -2   3  -6   13.61    0.98
   2  -3   6   12.87    1.00
   2  -3   6   13.27    0.69
   2  -3   6   12.95    0.83
  -3   3  -6   10.84    1.14
   3  -3   6   11.99    0.82
   3  -3   6   12.10    0.96
   3  -3   6   12.49    0.69
  -4   3  -6   10.52    1.37
   4  -3   6   13.73    0.92
   5   2  -6    3.83    0.60
  -5  -2   6    4.21    0.98
   4   2  -6   34.62    1.94
  -4  -2   6   26.91    2.26
  -4  -2   6   33.14    1.30
   3   2  -6   27.05    1.63
  -3  -2   6   26.03    1.65
  -3  -2   6   27.49    1.10
   2   2  -6   40.57    2.25
  -2  -2   6   41.24    2.27
  -2  -2   6   39.14    1.53
  -2  -2   6   40.59    2.59
   1   2  -6   11.35    0.88
   1   2  -6   11.47    0.82
  -1  -2   6   11.37    0.54
  -1  -2   6   11.26    0.61
  -1  -2   6   11.94    0.98
  -1  -2   6   10.75    0.82
   0   2  -6  132.07    7.56
   0   2  -6  135.28    6.64
   0  -2   6  130.44    6.82
   0  -2   6  129.35    4.61
   0  -2   6  128.62    5.58
  -1   2  -6   54.76    3.18
  -1   2  -6   50.14    2.78
   1  -2   6   51.56    2.35
   1  -2   6   52.31    1.95
   1  -2   6   50.15    2.84
  -2   2  -6   53.17    3.25
  -2   2  -6   49.36    2.85
   2  -2   6   56.46    2.01
   2  -2   6   53.07    2.42
   2  -2   6   49.81    2.89
  -3   2  -6    2.63    0.61
  -3   2  -6    2.82    0.49
   3  -2   6    2.94    0.42
   3  -2   6    2.99    0.46
  -4   2  -6    3.44    0.82
   4  -2   6    6.25    0.60
  -5   2  -6   18.77    1.91
   5  -2   6   25.14    1.36
   5   1  -6    4.23    0.58
  -5  -1   6    4.44    0.45
  -5  -1   6    4.31    0.85
   4   1  -6   22.53    1.59
   4   1  -6   22.68    1.48
  -4  -1   6   24.73    1.05
  -4  -1   6   23.74    1.83
   3   1  -6    1.24    0.30
   3   1  -6    1.51    0.36
  -3  -1   6    1.60    0.23
  -3  -1   6    1.51    0.47
   2   1  -6   55.07    3.03
   2   1  -6   59.72    3.17
  -2  -1   6   58.23    2.10
  -2  -1   6   54.61    3.48
   1   1  -6   22.84    1.46
   1   1  -6   22.20    0.92
   1   1  -6   21.44    1.31
   1   1  -6   24.05    1.34
  -1  -1   6   21.88    0.92
  -1  -1   6   21.94    1.40
  -1  -1   6   24.08    1.51
   0   1  -6   10.96    0.83
   0   1  -6   12.80    0.57
   0   1  -6   12.72    0.88
   0  -1   6   12.00    0.76
   0  -1   6   13.02    0.88
   0  -1   6   11.70    0.67
   0  -1   6   11.92    0.93
   0  -1   6   13.04    0.58
  -1   1  -6   10.32    0.82
  -1   1  -6   10.75    0.79
  -1   1  -6   11.21    0.54
   1  -1   6   10.09    0.63
   1  -1   6    9.96    0.71
   1  -1   6   10.85    0.80
   1  -1   6   11.05    0.55
  -2   1  -6    5.41    0.61
  -2   1  -6    5.53    0.57
   2  -1   6    5.40    0.51
   2  -1   6    4.97    0.46
   2  -1   6    5.53    0.54
  -3   1  -6    1.60    0.51
  -3   1  -6    1.94    0.28
  -3   1  -6    2.21    0.46
   3  -1   6    1.56    0.38
   3  -1   6    2.00    0.32
  -4   1  -6    5.46    0.68
   4  -1   6    5.43    0.57
  -5   1  -6    2.86    0.58
   5  -1   6    1.64    0.55
   5   0  -6    1.70    0.54
  -5   0   6    1.79    0.63
   4   0  -6   52.34    2.68
   4   0  -6   45.99    2.88
  -4   0   6   47.29    3.15
  -4   0   6   46.77    1.93
   3   0  -6   51.57    2.73
   3   0  -6   48.72    2.93
  -3   0   6   50.76    1.93
  -3   0   6   50.91    3.16
   2   0  -6   73.98    4.18
   2   0  -6   74.64    2.73
   2   0  -6   75.90    3.90
  -2   0   6   78.90    4.46
  -2   0   6   72.94    2.74
   1   0  -6   29.97    1.17
   1   0  -6   29.13    1.76
   1   0  -6   29.16    1.68
  -1   0   6   31.75    1.19
  -1   0   6   33.64    1.85
  -1   0   6   24.58    1.73
   0   0  -6   65.31    3.39
   0   0  -6   63.97    3.70
   0   0  -6   67.08    3.62
   0   0  -6   66.81    2.35
   0   0   6   64.17    2.35
   0   0   6   61.40    3.48
   0   0   6   62.46    3.74
  -1   0  -6   53.30    2.00
   1   0   6   54.64    2.95
   1   0   6   53.94    3.06
  -2   0  -6   35.05    1.37
  -2   0  -6   32.93    2.00
   2   0   6   34.09    1.98
   2   0   6   34.57    2.08
  -3   0  -6    1.72    0.27
  -3   0  -6    1.13    0.39
   3   0   6    1.09    0.26
   3   0   6    1.79    0.40
  -4   0  -6   49.72    2.00
  -4   0  -6   49.19    2.90
   4   0   6   50.64    3.12
   4   0   6   50.91    2.41
   5  -1  -6    2.82    0.62
  -5   1   6    2.23    0.63
   4  -1  -6    4.05    0.62
  -4   1   6    2.69    0.59
   3  -1  -6    9.78    0.82
  -3   1   6    7.29    0.73
  -3   1   6    9.14    0.87
   2  -1  -6   20.68    1.36
   2  -1  -6   19.75    1.20
   2  -1  -6   21.34    0.88
  -2   1   6   18.77    1.29
   1  -1  -6   12.53    0.95
   1  -1  -6   13.05    0.85
   1  -1  -6   13.09    0.61
  -1   1   6   11.89    0.91
   0  -1  -6    0.55    0.26
   0  -1  -6    1.30    0.36
   0  -1  -6    0.69    0.15
   0   1   6    0.73    0.29
  -1  -1  -6   12.84    0.93
  -1  -1  -6   12.91    0.61
   1   1   6   12.13    0.94
   1   1   6   13.24    0.98
  -2  -1  -6   39.71    1.55
  -2  -1  -6   34.88    2.28
   2   1   6   40.99    2.45
   2   1   6   44.12    2.31
  -3  -1  -6    3.53    0.56
  -3  -1  -6    3.67    0.36
   3   1   6    3.52    0.60
  -4  -1  -6    0.47    0.21
  -4  -1  -6    0.53    0.40
   4   1   6    0.48    0.37
   4   1   6    0.49    0.25
   4  -2  -6   42.99    2.72
   3  -2  -6    4.46    0.64
   3  -2  -6    4.16    0.41
  -3   2   6    3.92    0.57
   2  -2  -6   23.57    0.99
   2  -2  -6   25.71    1.60
  -2   2   6   19.14    1.46
   1  -2  -6    7.52    0.79
   1  -2  -6    8.37    0.68
   1  -2  -6    8.56    0.48
  -1   2   6    8.87    0.79
   0  -2  -6  109.21    5.68
   0  -2  -6  110.93    6.21
   0  -2  -6  113.82    3.95
   0   2   6  110.19    5.88
  -1  -2  -6   26.95    1.65
  -1  -2  -6   27.31    1.10
   1   2   6   26.29    1.67
   1   2   6   27.40    1.80
  -2  -2  -6    6.99    0.72
  -2  -2  -6    6.72    0.44
   2   2   6    6.66    0.75
  -3  -2  -6    4.76    0.67
  -3  -2  -6    5.34    0.41
   3   2   6    4.77    0.72
  -4   3   6   11.36    1.05
   3  -3  -6   10.20    0.61
   3  -3  -6    9.53    0.97
  -3   3   6    8.89    0.93
   2  -3  -6    2.99    0.58
   2  -3  -6    3.47    0.34
  -2   3   6    2.29    0.53
   1  -3  -6    1.83    0.51
   1  -3  -6    2.81    0.29
  -1   3   6    2.67    0.53
   0  -3  -6    0.88    0.44
   0  -3  -6    0.93    0.20
   0   3   6    0.67    0.39
  -1  -3  -6    5.27    0.37
  -1  -3  -6    4.88    0.59
   1   3   6    5.24    0.67
   1   3   6    6.00    0.75
  -2  -3  -6    0.33    0.55
  -2  -3  -6    0.30    0.16
  -2  -3  -6    0.63    0.35
   2   3   6    0.50    0.36
  -3  -3  -6    9.31    0.93
   2  -4  -6    9.94    0.59
   2  -4  -6    9.68    1.06
  -2   4   6   10.79    1.03
   1  -4  -6    6.64    0.91
   1  -4  -6    5.26    0.42
  -1   4   6    5.98    0.81
   0  -4  -6   30.48    1.26
   0  -4  -6   31.61    2.30
   0   4   6   32.82    2.10
   1   4   6    3.94    0.75
   1   4   6    5.08    0.76
   2   5  -7    0.25    0.32
   2   5  -7    0.25    0.27
  -2  -5   7    0.05    0.29
  -2  -5   7    0.10    0.13
  -2  -5   7   -0.20    0.40
   1   5  -7   15.16    1.15
   1   5  -7   15.81    1.37
  -1  -5   7   16.43    0.72
  -1  -5   7   16.98    1.25
   0   5  -7  161.09    9.39
   0  -5   7  155.49    8.40
   0  -5   7  159.70    5.58
  -1   5  -7   21.68    1.75
   1  -5   7   21.91    1.23
   1  -5   7   20.29    1.52
   1  -5   7   21.14    0.96
  -2   5  -7    0.12    0.38
   2  -5   7    0.07    0.17
   2  -5   7    0.31    0.34
   2  -5   7    0.28    0.26
   3  -5   7    1.63    0.49
   3   4  -7    0.49    0.31
   3   4  -7    0.28    0.34
  -3  -4   7    0.42    0.47
   2   4  -7   30.74    1.93
   2   4  -7   31.17    2.20
  -2  -4   7   33.90    2.00
  -2  -4   7   33.86    1.27
   1   4  -7   65.55    3.60
   1   4  -7   67.34    4.13
  -1  -4   7   66.71    2.44
  -1  -4   7   66.91    3.71
   0   4  -7    9.95    0.80
   0   4  -7    9.98    0.94
   0  -4   7    8.92    0.52
   0  -4   7    9.43    0.86
   0  -4   7    9.61    0.67
  -1   4  -7   20.36    1.60
  -1   4  -7   19.64    1.30
   1  -4   7   21.23    0.92
   1  -4   7   20.20    1.15
   1  -4   7   19.54    1.41
  -2   4  -7  101.20    6.06
   2  -4   7   94.25    5.39
   2  -4   7  101.19    3.66
   2  -4   7  101.34    4.47
  -3   4  -7    0.56    0.44
   3  -4   7    0.52    0.28
   3  -4   7    0.77    0.38
   3  -4   7    0.46    0.24
   4   3  -7   32.69    2.05
  -4  -3   7   34.68    1.36
  -4  -3   7   31.40    2.44
   3   3  -7    2.22    0.44
  -3  -3   7    2.64    0.62
  -3  -3   7    2.22    0.26
   2   3  -7  103.15    5.34
   2   3  -7  100.66    6.06
  -2  -3   7  108.35    5.46
  -2  -3   7   94.09    6.12
  -2  -3   7  105.47    3.66
   1   3  -7   49.68    3.16
   1   3  -7   51.66    2.81
  -1  -3   7   49.72    2.85
  -1  -3   7   51.60    2.29
  -1  -3   7   50.91    1.90
   0   3  -7    1.35    0.34
   0   3  -7    1.44    0.37
   0  -3   7    1.19    0.22
   0  -3   7    0.81    0.22
   0  -3   7    1.28    0.37
   0  -3   7    0.18    0.38
  -1   3  -7   90.75    5.49
  -1   3  -7   94.24    4.77
   1  -3   7   90.62    4.93
   1  -3   7   93.99    3.35
   1  -3   7   88.53    4.05
  -2   3  -7   40.28    2.34
  -2   3  -7   40.47    2.68
   2  -3   7   40.23    1.63
   2  -3   7   39.91    2.38
   2  -3   7   41.80    2.00
  -3   3  -7    0.84    0.46
   3  -3   7    2.43    0.42
   3  -3   7    2.14    0.45
  -4   3  -7   32.43    2.85
   4  -3   7   46.99    2.12
   4   2  -7    0.48    0.29
  -4  -2   7    1.20    0.56
  -4  -2   7    0.69    0.21
   3   2  -7   16.30    1.15
  -3  -2   7   16.98    1.12
  -3  -2   7   15.86    0.77
   2   2  -7   18.78    1.23
  -2  -2   7   18.23    1.40
  -2  -2   7   19.02    1.23
  -2  -2   7   18.21    0.81
   1   2  -7   30.21    1.82
   1   2  -7   31.96    2.03
  -1  -2   7   33.39    1.48
  -1  -2   7   26.42    2.09
  -1  -2   7   32.75    1.88
  -1  -2   7   34.23    1.26
   0   2  -7  188.31    9.60
   0   2  -7  192.40   10.92
   0  -2   7  195.38    6.68
   0  -2   7  190.66    8.09
   0  -2   7  187.88    9.85
  -1   2  -7   76.76    4.02
  -1   2  -7   74.05    4.53
   1  -2   7   75.98    4.10
   1  -2   7   78.42    2.80
   1  -2   7   74.66    3.38
  -2   2  -7   11.77    1.05
  -2   2  -7   16.84    1.22
   2  -2   7   14.06    0.79
   2  -2   7   14.30    0.89
   2  -2   7   16.14    1.07
  -3   2  -7    6.81    0.89
  -3   2  -7    5.46    0.69
   3  -2   7    6.22    0.59
  -4   2  -7    5.21    0.74
   4  -2   7    4.91    0.59
   5   1  -7    2.19    0.47
  -5  -1   7    2.83    0.37
  -5  -1   7    3.09    0.82
   4   1  -7   22.03    1.46
  -4  -1   7   21.68    1.76
  -4  -1   7   23.16    1.03
   3   1  -7    5.64    0.59
  -3  -1   7    5.42    0.41
  -3  -1   7    5.07    0.78
   2   1  -7   42.91    2.30
  -2  -1   7   41.65    1.59
  -2  -1   7   38.46    2.60
   1   1  -7   23.54    1.49
   1   1  -7   19.38    1.35
  -1  -1   7   22.56    0.95
  -1  -1   7   25.55    1.56
  -1  -1   7   21.93    1.45
   0   1  -7  309.08   14.59
   0   1  -7  308.32   16.55
   0   1  -7  284.45   10.12
   0  -1   7  246.63   16.57
   0  -1   7  305.29   14.99
   0  -1   7  303.52   10.13
  -1   1  -7   12.89    0.99
  -1   1  -7   12.87    0.99
  -1   1  -7   13.94    0.67
   1  -1   7   12.99    0.97
   1  -1   7   14.80    0.68
   1  -1   7   13.37    0.79
  -2   1  -7   26.12    1.64
  -2   1  -7   27.03    1.15
   2  -1   7   26.56    1.61
   2  -1   7   25.69    1.36
  -3   1  -7    2.55    0.52
   3  -1   7    2.62    0.38
   3  -1   7    2.23    0.46
  -4   1  -7    1.81    0.51
   4  -1   7    1.58    0.37
  -5   0   7    8.34    1.12
   4   0  -7    0.36    0.38
   4   0  -7    0.68    0.30
  -4   0   7    1.07    0.53
   3   0  -7   14.55    0.99
   3   0  -7   14.49    1.07
  -3   0   7   12.17    1.04
  -3   0   7   15.82    1.22
   2   0  -7   14.51    0.95
   2   0  -7   13.89    0.99
  -2   0   7   13.86    0.69
  -2   0   7   13.27    1.08
   1   0  -7   27.41    1.08
   1   0  -7   22.90    1.52
   1   0  -7   26.25    1.60
  -1   0   7   27.90    1.13
   0   0  -7    2.71    0.42
   0   0  -7    2.46    0.47
   0   0  -7    2.79    0.28
   0   0   7    2.34    0.43
  -1   0  -7    0.34    0.39
  -1   0  -7    0.07    0.29
  -1   0  -7    0.37    0.16
   1   0   7    0.57    0.31
   1   0   7    0.81    0.27
  -2   0  -7   91.48    3.24
  -2   0  -7   79.84    4.67
   2   0   7   88.57    4.97
   2   0   7   93.90    4.76
  -3   0  -7    7.70    0.85
  -3   0  -7    9.10    0.57
   3   0   7    8.94    0.83
   3   0   7    8.51    0.66
  -4   0  -7   75.27    4.01
  -4   0  -7   71.03    2.75
   4   0   7   69.94    4.24
   4   0   7   68.51    3.30
   5  -1  -7    4.54    0.83
   4  -1  -7   49.27    3.02
  -3   1   7   10.20    0.89
   2  -1  -7   41.59    2.30
   2  -1  -7   42.87    2.52
   2  -1  -7   40.67    1.62
  -2   1   7   41.15    2.43
   1  -1  -7    5.21    0.38
   1  -1  -7    6.58    0.58
   1  -1  -7    5.57    0.64
  -1   1   7    4.56    0.61
   0  -1  -7   25.94    1.66
   0  -1  -7   24.00    1.53
   0  -1  -7   24.33    1.03
   0   1   7   24.20    1.57
  -1  -1  -7   28.57    1.78
  -1  -1  -7   29.09    1.20
   1   1   7   28.99    1.87
   1   1   7   30.79    1.85
  -2  -1  -7   38.18    1.57
  -2  -1  -7   37.11    2.34
   2   1   7   44.47    2.34
   2   1   7   39.06    2.47
  -3  -1  -7    1.53    0.46
  -3  -1  -7    1.66    0.28
   3   1   7    1.93    0.49
   4   1   7   59.58    2.94
   4   1   7   64.94    3.84
   4  -2  -7    6.26    0.81
   3  -2  -7    1.22    0.44
  -3   2   7    1.20    0.39
   2  -2  -7   23.63    1.03
   2  -2  -7   23.02    1.65
  -2   2   7   24.04    1.59
   1  -2  -7    3.26    0.57
   1  -2  -7    3.87    0.34
  -1   2   7    2.47    0.48
   0  -2  -7   12.68    1.10
   0  -2  -7   12.12    0.62
   0  -2  -7   12.53    0.92
   0   2   7   10.66    0.97
  -1  -2  -7   35.28    2.12
  -1  -2  -7   36.11    1.42
   1   2   7   35.54    2.29
   1   2   7   35.31    2.16
  -2  -2  -7   13.36    1.11
  -2  -2  -7   14.64    0.72
   2   2   7   14.91    1.20
  -3  -2  -7    5.48    0.46
  -3  -2  -7    5.71    0.76
   3   2   7    5.97    0.81
   3  -3  -7   18.91    0.94
   3  -3  -7   18.56    1.52
  -3   3   7   20.03    1.47
   2  -3  -7   28.60    1.21
   2  -3  -7   26.70    1.94
  -2   3   7   27.73    1.88
   1  -3  -7    4.71    0.40
   1  -3  -7    4.74    0.77
  -1   3   7    3.63    0.61
   0  -3  -7   65.77    3.99
   0  -3  -7   65.10    2.43
   0   3   7   64.21    3.69
  -1  -3  -7   13.76    1.12
  -1  -3  -7   15.82    0.75
   1   3   7   15.69    1.31
   1   3   7   17.03    1.24
  -2  -3  -7   11.93    1.03
   2   3   7   10.91    1.10
   0   4   7   -0.05    0.38
   1   4   7    3.81    0.69
   2   5  -8   21.22    1.53
  -2  -5   8   23.61    1.59
   1   5  -8    7.92    0.81
   1   5  -8    8.68    0.96
  -1  -5   8    8.55    0.90
  -1  -5   8    8.78    0.50
   0   5  -8   12.76    1.25
   0  -5   8   12.99    0.67
   0  -5   8   13.50    0.88
   0  -5   8   13.54    1.15
  -1   5  -8    8.28    1.01
   1  -5   8    6.53    0.51
   1  -5   8    6.86    0.66
   1  -5   8    6.41    0.84
   2  -5   8   13.98    1.24
   3   4  -8    4.49    0.74
   3   4  -8    4.41    0.61
  -3  -4   8    3.41    0.79
   2   4  -8    5.79    0.75
   2   4  -8    6.56    0.73
  -2  -4   8    6.99    0.73
  -2  -4   8    6.50    0.42
   1   4  -8   10.99    1.03
   1   4  -8   10.11    0.88
  -1  -4   8   10.20    0.57
  -1  -4   8   11.56    0.96
   0   4  -8    0.87    0.35
   0   4  -8    1.04    0.38
   0  -4   8    0.62    0.39
   0  -4   8    0.57    0.51
   0  -4   8    0.72    0.21
   0  -4   8    1.00    0.27
  -1   4  -8   17.75    1.18
  -1   4  -8   17.46    1.44
   1  -4   8   15.76    1.27
   1  -4   8   16.92    1.03
   1  -4   8   16.54    0.83
  -2   4  -8    0.04    0.37
   2  -4   8   -0.09    0.20
   2  -4   8    0.10    0.23
   2  -4   8    0.25    0.34
  -3   4  -8    0.93    0.48
   3  -4   8    0.66    0.40
   3  -4   8    0.43    0.30
  -4  -3   8   48.78    3.34
   3   3  -8   10.60    1.03
   3   3  -8   10.15    0.91
  -3  -3   8   10.25    0.58
  -3  -3   8   10.55    1.13
   2   3  -8   44.13    2.80
   2   3  -8   42.98    2.50
  -2  -3   8   43.27    2.52
  -2  -3   8   43.01    1.67
   1   3  -8   35.62    2.35
   1   3  -8   34.62    2.10
  -1  -3   8   37.30    1.43
  -1  -3   8   35.08    2.14
   0   3  -8    2.22    0.43
   0   3  -8    2.04    0.44
   0  -3   8    1.95    0.32
   0  -3   8    1.85    0.45
   0  -3   8    2.06    0.28
  -1   3  -8   35.97    2.28
  -1   3  -8   32.42    1.96
   1  -3   8   31.49    2.04
   1  -3   8   33.58    1.40
   1  -3   8   32.95    1.68
  -2   3  -8   44.94    2.73
  -2   3  -8   47.69    3.11
   2  -3   8   49.59    2.34
   2  -3   8   48.15    1.92
   2  -3   8   48.39    2.80
   3  -3   8    4.15    0.54
   3  -3   8    4.38    0.65
  -4   3  -8    5.71    1.09
   4   2  -8    5.47    0.67
  -4  -2   8    3.95    0.88
  -4  -2   8    5.27    0.45
   3   2  -8    6.57    0.70
  -3  -2   8    5.84    0.44
  -3  -2   8    6.03    0.85
  -3  -2   8    6.68    0.67
   2   2  -8   10.97    0.96
  -2  -2   8   11.66    1.05
  -2  -2   8   11.01    0.60
   1   2  -8   13.11    1.00
   1   2  -8   14.48    1.10
  -1  -2   8   14.64    1.06
  -1  -2   8   13.76    0.69
  -1  -2   8   14.26    0.79
   0   2  -8  136.94    7.59
   0   2  -8  122.53    6.69
   0  -2   8  128.45    4.65
   0  -2   8  132.88    6.88
   0  -2   8  131.78    5.62
  -1   2  -8   16.98    1.21
  -1   2  -8   17.42    1.33
   1  -2   8   18.56    1.25
   1  -2   8   17.84    1.01
   1  -2   8   17.47    0.85
  -2   2  -8    1.68    0.44
  -2   2  -8    1.25    0.43
   2  -2   8    2.06    0.45
   2  -2   8    2.00    0.36
  -3   2  -8    1.29    0.47
   3  -2   8    1.29    0.33
  -4   2  -8    3.83    0.69
   4  -2   8    3.14    0.51
   4   1  -8   12.89    1.01
  -4  -1   8   11.00    1.25
  -4  -1   8   11.52    0.69
   3   1  -8    6.57    0.66
  -3  -1   8    4.27    0.64
   2   1  -8   19.18    1.32
  -2  -1   8   22.67    1.52
  -2  -1   8   20.39    0.93
   1   1  -8   35.59    2.03
   1   1  -8   36.38    2.18
  -1  -1   8   32.80    2.11
  -1  -1   8   35.16    1.40
  -1  -1   8   33.15    2.25
   0   1  -8  147.52    7.68
   0  -1   8  156.84    7.92
   0  -1   8  147.98    5.35
  -1   1  -8   74.13    4.36
   1  -1   8   87.53    3.65
   1  -1   8   82.93    4.43
  -2   1  -8    6.52    0.73
   2  -1   8    6.79    0.69
   2  -1   8    6.44    0.58
  -3   1  -8    2.87    0.60
   3  -1   8    3.79    0.47
  -4   1  -8    5.70    0.82
   4  -1   8    5.11    0.62
   3   0  -8    0.98    0.30
  -3   0   8    0.27    0.36
   2   0  -8   19.00    1.33
   2   0  -8   20.63    1.28
  -2   0   8   19.04    1.36
   1   0  -8   50.44    2.79
   1   0  -8   49.26    2.94
  -1   0   8   53.54    2.94
   0   0  -8   27.24    1.67
   0   0  -8   24.56    1.79
   0   0  -8   28.12    1.14
   0   0   8   27.96    1.71
  -1   0  -8   73.84    2.86
   1   0   8   87.08    4.27
   1   0   8   72.29    4.35
  -2   0  -8    7.80    0.85
  -2   0  -8   10.33    0.58
   2   0   8    9.10    0.84
   2   0   8    8.22    0.79
  -3   0  -8    7.83    0.54
  -3   0  -8    5.93    0.82
   3   0   8    8.04    0.66
   3   0   8    7.09    0.78
  -4   0  -8   18.91    0.97
   4   0   8   16.04    1.11
   4   0   8   16.98    1.48
   4  -1  -8   35.99    2.35
  -3   1   8    2.72    0.56
   2  -1  -8   71.14    3.84
   2  -1  -8   70.04    3.50
  -2   1   8   55.05    3.63
   1  -1  -8   97.51    5.65
   1  -1  -8  103.31    5.26
   1  -1  -8  102.99    3.68
  -1   1   8  100.35    5.47
   0  -1  -8   10.84    0.96
   0  -1  -8   12.34    1.10
   0  -1  -8   11.84    0.64
   0   1   8   12.65    1.06
  -1  -1  -8   21.87    1.46
  -1  -1  -8   19.21    0.95
   1   1   8   22.05    1.51
   1   1   8   22.48    1.50
  -2  -1  -8   71.77    2.64
  -2  -1  -8   62.25    3.85
   2   1   8   72.97    3.90
   2   1   8   72.20    4.11
  -3  -1  -8   11.42    0.66
  -3  -1  -8   11.36    1.06
   3   1   8    9.52    1.01
  -4   2   8    3.40    0.66
   3  -2  -8    0.34    0.39
  -3   2   8    0.32    0.38
   2  -2  -8   23.85    1.13
   2  -2  -8   27.25    1.82
  -2   2   8   25.75    1.75
   1  -2  -8   17.47    1.39
   1  -2  -8   18.00    0.87
  -1   2   8   18.35    1.37
   0  -2  -8   82.96    4.85
   0  -2  -8   81.37    4.38
   0  -2  -8   79.63    3.03
   0   2   8   84.66    4.56
  -1  -2  -8   13.11    1.08
  -1  -2  -8   13.39    0.71
   1   2   8   14.71    1.17
   1   2   8   13.09    1.15
  -2  -2  -8    3.47    0.36
  -2  -2  -8    2.73    0.58
   2   2   8    3.79    0.67
   2  -3  -8    5.99    0.48
   2  -3  -8    6.10    0.88
  -2   3   8    5.53    0.81
   1  -3  -8   11.23    0.66
   1  -3  -8   12.28    1.19
  -1   3   8   10.88    1.07
   0  -3  -8   61.93    2.37
   0  -3  -8   61.14    3.96
   0   3   8   62.92    3.63
   0   3   8   63.81    3.82
   1   3   8   37.50    2.60
   1   3   8   41.55    2.50
  -2  -5   9    3.21    0.62
   1   5  -9   20.56    1.47
  -1  -5   9   22.65    1.60
   0   5  -9   17.01    1.52
   0  -5   9   17.36    1.50
   1  -5   9   15.95    1.06
   2   4  -9    4.72    0.70
   2   4  -9    7.75    0.86
  -2  -4   9    7.52    0.80
  -2  -4   9    7.13    0.47
   1   4  -9   11.12    1.09
   1   4  -9   10.99    0.93
  -1  -4   9   11.00    1.00
  -1  -4   9   11.12    0.63
   0   4  -9   14.50    1.26
   0   4  -9   13.88    1.09
   0  -4   9   13.72    0.74
   0  -4   9   14.02    0.90
   0  -4   9   13.86    1.16
  -1   4  -9    6.30    0.73
  -1   4  -9    7.88    0.94
   1  -4   9    6.99    0.65
   1  -4   9    6.90    0.83
   1  -4   9    6.94    0.54
  -2   4  -9    0.60    0.43
   2  -4   9    0.05    0.25
   2  -4   9    0.47    0.24
   2  -4   9    0.89    0.43
   3  -4   9    9.39    1.00
   3   3  -9   16.79    1.25
   3   3  -9   16.81    1.37
  -3  -3   9   15.98    0.80
  -3  -3   9   14.45    1.42
   2   3  -9    1.68    0.43
   2   3  -9    1.44    0.43
  -2  -3   9    2.30    0.50
  -2  -3   9    1.59    0.26
  -2  -3   9    0.94    0.54
   1   3  -9   49.18    2.75
   1   3  -9   48.42    3.07
  -1  -3   9   46.22    1.86
  -1  -3   9   47.99    2.81
   0   3  -9   28.89    1.89
   0   3  -9   32.26    2.13
   0  -3   9   30.78    1.96
   0  -3   9   32.16    1.58
   0  -3   9   30.75    1.32
  -1   3  -9   22.10    1.49
  -1   3  -9   24.09    1.71
   1  -3   9   20.95    1.52
   1  -3   9   21.50    1.04
   1  -3   9   21.57    1.24
  -2   3  -9   13.49    1.22
  -2   3  -9   11.60    1.10
   2  -3   9   14.35    1.14
   2  -3   9   13.84    0.94
   3  -3   9   24.34    1.47
   4   2  -9   22.98    1.60
  -4  -2   9   20.77    1.81
  -4  -2   9   20.41    1.02
   3   2  -9    8.50    0.84
  -3  -2   9    7.69    0.80
  -3  -2   9    8.17    0.54
  -3  -2   9    7.07    0.93
   2   2  -9    9.96    0.86
   2   2  -9    9.73    0.91
  -2  -2   9    9.07    1.00
  -2  -2   9   10.30    0.59
  -2  -2   9    9.85    0.90
   1   2  -9   15.72    1.16
   1   2  -9   13.24    1.06
  -1  -2   9   14.99    0.74
  -1  -2   9   14.01    1.11
   0   2  -9   28.40    1.90
   0   2  -9   27.72    1.76
   0  -2   9   26.50    1.79
   0  -2   9   28.85    1.44
   0  -2   9   30.21    1.23
  -1   2  -9   10.48    0.96
   1  -2   9   11.01    0.96
   1  -2   9   12.21    0.78
  -2   2  -9    7.04    0.81
   2  -2   9    5.95    0.61
   2  -2   9    5.89    0.72
  -3   2  -9    0.59    0.42
   3  -2   9    0.39    0.28
   4   1  -9    9.89    0.93
   3   1  -9    0.60    0.31
  -3  -1   9   -0.06    0.34
   2   1  -9    2.16    0.43
  -2  -1   9    1.27    0.46
   1   1  -9   65.14    3.39
  -1  -1   9   57.17    3.47
   0   1  -9    7.69    0.75
   0  -1   9    6.81    0.77
   0  -1   9    8.11    0.60
  -1   1  -9   19.49    1.52
   1  -1   9   23.83    1.24
   1  -1   9   23.05    1.52
  -2   1  -9   21.50    1.47
   2  -1   9   19.51    1.37
   2  -1   9   18.94    1.16
  -3   1  -9   27.54    2.00
   3  -1   9   33.15    1.67
   3   0  -9    2.20    0.41
  -3   0   9    1.00    0.43
   2   0  -9   15.26    1.09
  -2   0   9   13.86    1.14
   1   0  -9   23.28    1.44
  -1   0   9   19.92    1.48
   0   0  -9    7.00    0.77
   0   0   9    8.05    0.82
  -1   0  -9    2.64    0.33
  -1   0  -9    2.75    0.55
   1   0   9    2.60    0.57
  -2   0  -9    0.21    0.19
  -2   0  -9    0.07    0.35
   2   0   9    0.30    0.35
  -3   0  -9    7.82    0.57
  -3   0  -9    4.69    0.81
   3   0   9    7.20    0.66
  -3   1   9   16.24    1.34
   2  -1  -9    7.55    0.82
  -2   1   9    5.73    0.82
   1  -1  -9   24.22    1.69
   1  -1  -9   23.77    1.59
   1  -1  -9   25.29    1.10
  -1   1   9   24.07    1.73
   0  -1  -9   29.68    1.23
   0  -1  -9   22.48    1.74
   0   1   9   29.63    1.92
   0   1   9   30.94    1.90
  -1  -1  -9   16.60    0.86
  -1  -1  -9   18.06    1.32
   1   1   9   18.38    1.36
   1   1   9   17.05    1.31
  -2  -1  -9    2.82    0.36
  -2  -1  -9    2.75    0.61
   2   1   9    2.65    0.55
   3  -2  -9    8.56    1.01
   2  -2  -9    0.12    0.39
  -2   2   9    0.36    0.42
   1  -2  -9   50.07    3.08
   1  -2  -9   49.24    1.95
  -1   2   9   47.45    2.96
   0  -2  -9    5.74    0.47
   0  -2  -9    4.01    0.87
   0  -2  -9    5.78    0.71
   0   2   9    5.93    0.78
   0   2   9    6.33    0.86
  -1  -2  -9   -0.37    0.47
  -1  -2  -9    0.63    0.22
  -1  -2  -9    0.52    0.38
   1   2   9    0.53    0.50
   1   2   9    0.97    0.42
   2   2   9    4.51    0.75
   2   4 -10    0.68    0.38
  -2  -4  10    0.25    0.51
  -2  -4  10    0.98    0.42
   1   4 -10    9.67    0.99
   1   4 -10    7.27    0.83
  -1  -4  10    8.89    0.95
  -1  -4  10    9.59    0.60
   0   4 -10    3.42    0.65
   0   4 -10    3.09    0.60
   0  -4  10    3.37    0.67
   0  -4  10    3.30    0.46
   0  -4  10    2.67    0.36
  -1   4 -10   11.73    1.03
  -1   4 -10   12.34    1.25
   1  -4  10   11.99    1.12
   1  -4  10   11.90    0.88
   1  -4  10   11.11    0.73
  -2   4 -10    6.22    0.92
   3   3 -10    5.31    0.76
  -3  -3  10    5.14    0.91
   2   3 -10    3.02    0.56
   2   3 -10    3.83    0.64
  -2  -3  10    3.80    0.61
  -2  -3  10    4.04    0.42
   1   3 -10    4.74    0.70
   1   3 -10    4.78    0.65
  -1  -3  10    4.39    0.44
  -1  -3  10    4.91    0.71
   0   3 -10    7.11    0.80
   0   3 -10    5.06    0.73
   0  -3  10    6.20    0.59
   0  -3  10    5.82    0.78
   0  -3  10    6.74    0.52
  -1   3 -10   19.97    1.47
   1  -3  10   21.26    1.23
   1  -3  10   19.82    1.49
  -2   3 -10   10.90    1.16
   2  -3  10   14.78    1.00
   2  -3  10   14.14    1.19
   3   2 -10   15.91    1.30
   3   2 -10   19.05    1.47
  -3  -2  10   18.99    1.37
  -3  -2  10   18.99    0.93
   2   2 -10   12.30    1.02
  -2  -2  10   11.56    0.69
  -2  -2  10   12.44    1.06
   1   2 -10   24.43    1.75
  -1  -2  10   27.96    1.23
  -1  -2  10   31.11    1.86
   0   2 -10    3.20    0.56
   0  -2  10    2.90    0.40
   0  -2  10    3.05    0.58
  -1   2 -10   14.21    1.21
   1  -2  10   14.66    0.96
   1  -2  10   16.13    1.22
  -2   2 -10    4.15    0.71
   2  -2  10    3.78    0.52
   2  -2  10    4.85    0.71
   2   1 -10    1.87    0.44
  -2  -1  10    1.28    0.48
   1   1 -10    2.20    0.46
  -1  -1  10    2.28    0.34
  -1  -1  10    1.62    0.49
   0   1 -10    4.14    0.65
   0  -1  10    4.20    0.48
   0  -1  10    4.12    0.72
  -1   1 -10    5.49    0.79
   1  -1  10    7.67    0.64
   1  -1  10    6.58    0.78
  -2   1 -10    2.27    0.56
   2  -1  10    2.46    0.44
   2  -1  10    1.77    0.48
  -3   0  10    6.42    0.81
   2   0 -10    1.64    0.41
  -2   0  10    0.82    0.43
   1   0 -10    3.82    0.59
  -1   0  10    3.96    0.65
   0   0 -10    5.24    0.75
   0   0  10    7.45    0.84
  -1   0 -10   41.52    2.54
   1   0  10   41.69    2.59
  -2   0 -10    3.33    0.64
   2   0  10    3.30    0.65
  -3   1  10    0.83    0.52
  -2   1  10    2.32    0.59
   1  -1 -10    1.19    0.45
  -1   1  10    1.35    0.53
   0  -1 -10   26.78    1.25
   0  -1 -10   27.27    1.83
   0   1  10   30.54    1.97
  -1  -1 -10   10.29    1.01
  -1  -1 -10   10.88    0.68
   1   1  10    9.94    1.02
   2  -2 -10    0.14    0.43
   1  -2 -10   12.46    0.76
   1  -2 -10   13.81    1.26
   0  -2 -10    1.09    0.63
   0   4 -11    0.35    0.37
  -2  -3  11    1.21    0.27
  -2  -3  11    1.79    0.51
   1   3 -11   12.83    1.17
  -1  -3  11   14.04    0.79
  -1  -3  11   15.13    1.23
   0   3 -11    2.97    0.58
   0  -3  11    3.07    0.64
   0  -3  11    3.39    0.47
  -1   3 -11   10.49    1.07
   1  -3  11   12.28    0.90
   1  -3  11   10.92    1.09
  -3  -2  11    2.80    0.63
   2   2 -11   10.02    1.01
  -2  -2  11   12.66    1.09
   1   2 -11   41.40    2.56
  -1  -2  11   43.03    2.60
   0   2 -11    0.79    0.41
   0  -2  11    0.54    0.40
   0  -2  11    0.92    0.30
   1  -2  11   76.55    4.42
   1  -2  11   81.08    3.65
   2  -2  11   47.07    2.85
  -3  -1  11    0.16    0.44
  -2  -1  11    6.84    0.88
   1   1 -11    4.55    0.64
  -1  -1  11    2.80    0.60
   0   1 -11    3.31    0.65
   0  -1  11    4.86    0.54
   0  -1  11    4.82    0.78
  -1   1 -11    8.76    1.05
   1  -1  11   11.82    1.05
   2  -1  11   13.93    1.18
   2   0 -11   23.93    1.47
  -2   0  11   15.33    1.49
   1   0 -11   23.33    1.70
  -1   0  11   27.60    1.85
   0   0 -11    1.55    0.51
   0   0  11    2.25    0.64
   1   0  11    0.61    0.49
   1  -1 -11    2.87    0.59
   0  -1 -11    5.28    0.79
   0  -2  12   14.19    0.96
   0  -1  12   13.42    0.96
   0   0   0    0.00    0.00
;
_shelx_hkl_checksum              12200
#END Tags that were not found in dictionaries
loop_
_space_group_symop_operation_xyz
'x, y, z'
loop_
_atom_site_label
_atom_site_type_symbol
_atom_site_fract_x
_atom_site_fract_y
_atom_site_fract_z
_atom_site_U_iso_or_equiv
_atom_site_adp_type
_atom_site_occupancy
_atom_site_site_symmetry_order
_atom_site_calc_flag
_atom_site_refinement_flags_posn
_atom_site_refinement_flags_adp
O1 O -0.0807(4) 0.2538(4) 0.3809(2) 0.0146(5) Uani 1 1 d . .
H1 H -0.031(9) 0.118(9) 0.335(5) 0.018 Uiso 1 1 d . U
O2 O 0.4208(5) 0.2433(4) 0.2274(2) 0.0153(5) Uani 1 1 d . .
H2 H 0.544(10) 0.261(9) 0.278(5) 0.018 Uiso 1 1 d . U
O3 O -0.0605(4) 0.7487(4) 0.1937(2) 0.0142(5) Uani 1 1 d . .
H3 H -0.212(10) 0.721(8) 0.148(4) 0.017 Uiso 1 1 d . U
O4 O 0.4400(4) 0.7386(4) 0.0479(2) 0.0136(5) Uani 1 1 d . .
H4 H 0.375(9) 0.880(9) 0.085(5) 0.016 Uiso 1 1 d . U
O5 O 0.1908(5) 0.5866(4) -0.2299(2) 0.0151(5) Uani 1 1 d . .
H5 H 0.315(9) 0.514(9) -0.240(5) 0.018 Uiso 1 1 d . U
N1 N -0.3302(5) 0.2818(5) -0.2979(3) 0.0135(5) Uani 1 1 d . .
H1N H -0.235(8) 0.350(8) -0.357(4) 0.016 Uiso 1 1 d . U
C1 C 0.1270(7) 0.4750(6) 0.4071(3) 0.0146(6) Uani 1 1 d . .
H1A H 0.2660 0.4593 0.4847 0.017 Uiso 1 1 calc R U
H1B H 0.0366 0.6466 0.4410 0.017 Uiso 1 1 calc R U
C2 C 0.2766(6) 0.4844(6) 0.2739(3) 0.0116(6) Uani 1 1 d . .
H2A H 0.4156 0.6433 0.2991 0.014 Uiso 1 1 calc R U
C3 C 0.0793(7) 0.5061(6) 0.1463(3) 0.0130(6) Uani 1 1 d . .
H3A H -0.0609 0.3481 0.1206 0.016 Uiso 1 1 calc R U
C4 C 0.2358(6) 0.5149(6) 0.0135(3) 0.0119(6) Uani 1 1 d . .
H4A H 0.3372 0.3458 -0.0132 0.014 Uiso 1 1 calc R U
C5 C 0.0405(6) 0.5247(6) -0.1184(3) 0.0131(6) Uani 1 1 d . .
H5A H -0.0898 0.6705 -0.0868 0.016 Uiso 1 1 calc R U
C6 C -0.1340(6) 0.2584(6) -0.1787(3) 0.0135(6) Uani 1 1 d . .
H6A H -0.0101 0.1111 -0.2136 0.016 Uiso 1 1 calc R U
H6B H -0.2382 0.2137 -0.1018 0.016 Uiso 1 1 calc R U
C7 C -0.4573(7) 0.0163(7) -0.3789(3) 0.0182(7) Uani 1 1 d . .
H7A H -0.5680 -0.0614 -0.3158 0.027 Uiso 1 1 calc R U
H7B H -0.3104 -0.1036 -0.4138 0.027 Uiso 1 1 calc R U
H7C H -0.5783 0.0368 -0.4611 0.027 Uiso 1 1 calc R U
loop_
_atom_site_aniso_label
_atom_site_aniso_U_11
_atom_site_aniso_U_22
_atom_site_aniso_U_33
_atom_site_aniso_U_23
_atom_site_aniso_U_13
_atom_site_aniso_U_12
O1 0.0144(12) 0.0122(11) 0.0163(11) 0.0021(9) 0.0012(9) 0.0000(9)
O2 0.0135(12) 0.0141(12) 0.0165(12) 0.0016(9) -0.0044(9) 0.0034(9)
O3 0.0101(11) 0.0153(12) 0.0151(11) 0.0003(9) -0.0018(9) 0.0037(8)
O4 0.0105(11) 0.0108(11) 0.0184(11) 0.0021(8) 0.0004(9) -0.0009(8)
O5 0.0143(11) 0.0173(11) 0.0157(10) 0.0075(8) 0.0022(8) 0.0016(8)
N1 0.0136(12) 0.0142(13) 0.0127(12) 0.0044(10) -0.0015(10) -0.0024(10)
C1 0.0164(16) 0.0142(15) 0.0124(15) 0.0030(12) -0.0013(12) 0.0004(12)
C2 0.0115(15) 0.0114(14) 0.0112(15) 0.0022(11) -0.0010(11) 0.0001(11)
C3 0.0130(15) 0.0104(15) 0.0145(15) 0.0014(12) -0.0008(12) 0.0026(11)
C4 0.0098(14) 0.0127(15) 0.0127(15) 0.0026(11) 0.0003(12) -0.0005(11)
C5 0.0126(14) 0.0118(13) 0.0138(14) 0.0018(11) -0.0006(11) 0.0013(11)
C6 0.0151(14) 0.0154(14) 0.0104(13) 0.0040(11) -0.0002(11) 0.0014(12)
C7 0.0199(16) 0.0164(15) 0.0156(15) 0.0009(12) -0.0027(12) -0.0010(12)
loop_
_atom_type_symbol
_atom_type_description
_atom_type_scat_dispersion_real
_atom_type_scat_dispersion_imag
_atom_type_scat_source
C C 0.0033 0.0016 'International Tables Vol C Tables 4.2.6.8 and 6.1.1.4'
H H 0.0000 0.0000 'International Tables Vol C Tables 4.2.6.8 and 6.1.1.4'
N N 0.0061 0.0033 'International Tables Vol C Tables 4.2.6.8 and 6.1.1.4'
O O 0.0106 0.0060 'International Tables Vol C Tables 4.2.6.8 and 6.1.1.4'
loop_
_geom_angle_atom_site_label_1
_geom_angle_atom_site_label_2
_geom_angle_atom_site_label_3
_geom_angle
C1 O1 H1 113(3)
C2 O2 H2 105(3)
C3 O3 H3 106(3)
C4 O4 H4 113(3)
C5 O5 H5 111(3)
C6 N1 C7 111.3(2)
C6 N1 H1N 108(2)
C7 N1 H1N 108(3)
O1 C1 C2 113.0(2)
O1 C1 H1A 109.0
C2 C1 H1A 109.0
O1 C1 H1B 109.0
C2 C1 H1B 109.0
H1A C1 H1B 107.8
O2 C2 C1 109.9(2)
O2 C2 C3 107.2(2)
C1 C2 C3 113.3(2)
O2 C2 H2A 108.8
C1 C2 H2A 108.8
C3 C2 H2A 108.8
O3 C3 C2 106.5(2)
O3 C3 C4 110.3(2)
C2 C3 C4 112.1(2)
O3 C3 H3A 109.3
C2 C3 H3A 109.3
C4 C3 H3A 109.3
O4 C4 C3 110.4(2)
O4 C4 C5 110.4(3)
C3 C4 C5 113.1(3)
O4 C4 H4A 107.6
C3 C4 H4A 107.6
C5 C4 H4A 107.6
O5 C5 C6 109.3(2)
O5 C5 C4 111.8(3)
C6 C5 C4 111.4(2)
O5 C5 H5A 108.1
C6 C5 H5A 108.1
C4 C5 H5A 108.1
N1 C6 C5 109.8(2)
N1 C6 H6A 109.7
C5 C6 H6A 109.7
N1 C6 H6B 109.7
C5 C6 H6B 109.7
H6A C6 H6B 108.2
N1 C7 H7A 109.5
N1 C7 H7B 109.5
H7A C7 H7B 109.5
N1 C7 H7C 109.5
H7A C7 H7C 109.5
H7B C7 H7C 109.5
loop_
_geom_bond_atom_site_label_1
_geom_bond_atom_site_label_2
_geom_bond_distance
O1 C1 1.439(4)
O1 H1 0.78(5)
O2 C2 1.433(4)
O2 H2 0.73(5)
O3 C3 1.429(4)
O3 H3 0.81(5)
O4 C4 1.434(4)
O4 H4 0.81(5)
O5 C5 1.428(4)
O5 H5 0.72(4)
N1 C6 1.468(4)
N1 C7 1.470(4)
N1 H1N 0.88(4)
C1 C2 1.524(4)
C1 H1A 0.9900
C1 H1B 0.9900
C2 C3 1.530(4)
C2 H2A 1.0000
C3 C4 1.538(4)
C3 H3A 1.0000
C4 C5 1.540(4)
C4 H4A 1.0000
C5 C6 1.529(4)
C5 H5A 1.0000
C6 H6A 0.9900
C6 H6B 0.9900
C7 H7A 0.9800
C7 H7B 0.9800
C7 H7C 0.9800
loop_
_geom_hbond_atom_site_label_D
_geom_hbond_atom_site_label_H
_geom_hbond_atom_site_label_A
_geom_hbond_distance_DH
_geom_hbond_distance_HA
_geom_hbond_distance_DA
_geom_hbond_angle_DHA
_geom_hbond_site_symmetry_A
O1 H1 O3 0.78(5) 2.03(5) 2.767(4) 158(4) 1_545
O2 H2 O1 0.73(5) 2.01(5) 2.722(4) 167(5) 1_655
O3 H3 O4 0.81(5) 1.89(5) 2.692(4) 168(4) 1_455
O4 H4 O2 0.81(5) 2.00(5) 2.735(4) 149(4) 1_565
O5 H5 N1 0.72(4) 2.15(4) 2.867(4) 173(5) 1_655
N1 H1N O1 0.88(4) 2.62(4) 3.367(5) 144(3) 1_554
C7 H7A O5 0.98 2.45 3.376(4) 157.6 1_445
loop_
_geom_torsion_atom_site_label_1
_geom_torsion_atom_site_label_2
_geom_torsion_atom_site_label_3
_geom_torsion_atom_site_label_4
_geom_torsion
O1 C1 C2 O2 -61.6(3)
O1 C1 C2 C3 58.2(3)
O2 C2 C3 O3 -179.3(3)
C1 C2 C3 O3 59.3(3)
O2 C2 C3 C4 -58.6(3)
C1 C2 C3 C4 -179.9(3)
O3 C3 C4 O4 60.3(3)
C2 C3 C4 O4 -58.2(3)
O3 C3 C4 C5 -63.9(3)
C2 C3 C4 C5 177.6(2)
O4 C4 C5 O5 44.2(3)
C3 C4 C5 O5 168.4(2)
O4 C4 C5 C6 166.8(2)
C3 C4 C5 C6 -69.0(3)
C7 N1 C6 C5 167.5(3)
O5 C5 C6 N1 -59.7(3)
C4 C5 C6 N1 176.2(2)
