#------------------------------------------------------------------------------
#$Date: 2016-03-24 14:28:49 +0200 (Thu, 24 Mar 2016) $
#$Revision: 179665 $
#$URL: svn://www.crystallography.net/cod/cif/4/51/18/4511882.cif $
#------------------------------------------------------------------------------
#
# This file is available in the Crystallography Open Database (COD),
# http://www.crystallography.net/
#
# All data on this site have been placed in the public domain by the
# contributors.
#
data_4511882
loop_
_publ_author_name
'Harada, Jun'
'Ogawa, Keiichiro'
_publ_section_title
;
 What Molecules Are Likely or Unlikely To Undergo Pedal Motions in
 Crystals?
;
_journal_issue                   10
_journal_name_full               'Crystal Growth &amp; Design'
_journal_page_first              5182
_journal_paper_doi               10.1021/cg500962y
_journal_volume                  14
_journal_year                    2014
_chemical_formula_moiety         'C14 H10 Cl2'
_chemical_formula_sum            'C14 H10 Cl2'
_chemical_formula_weight         249.12
_chemical_name_systematic
;
 ?
;
_space_group_crystal_system      monoclinic
_space_group_IT_number           14
_space_group_name_Hall           '-P 2yn'
_space_group_name_H-M_alt        'P 1 21/n 1'
_symmetry_space_group_name_Hall  '-P 2yn'
_symmetry_space_group_name_H-M   'P 1 21/n 1'
_atom_sites_solution_hydrogens   geom
_atom_sites_solution_primary     direct
_audit_creation_date             2014-06-26
_audit_creation_method
;
Olex2 1.2
(compiled 2014.06.23 svn.r2946 for OlexSys, GUI svn.r4855)
;
_cell_angle_alpha                90
_cell_angle_beta                 110.947(1)
_cell_angle_gamma                90
_cell_formula_units_Z            2
_cell_length_a                   5.6669(3)
_cell_length_b                   17.2268(8)
_cell_length_c                   6.3486(3)
_cell_measurement_reflns_used    6481
_cell_measurement_temperature    200
_cell_measurement_theta_max      30.018
_cell_measurement_theta_min      2.365
_cell_volume                     578.81(5)
_computing_cell_refinement       'SAINT v6.28A (Bruker, 2002)'
_computing_data_collection       'SMART v5.054 (Bruker, 1998)'
_computing_data_reduction        'SAINT v6.28A (Bruker, 2002)'
_computing_molecular_graphics    'Ortep-3 for Windows (Farrugia, 2012)'
_computing_publication_material  'Olex2 (Dolomanov et al., 2009)'
_computing_structure_refinement  'ShelXL (Sheldrick, 2008)'
_computing_structure_solution    'ShelXS (Sheldrick, 2008)'
_diffrn_ambient_temperature      200
_diffrn_detector_area_resol_mean 8.192
_diffrn_measured_fraction_theta_full 0.999
_diffrn_measured_fraction_theta_max 0.998
_diffrn_measurement_device_type  'Bruker SMART 1000'
_diffrn_measurement_method       \w_scan
_diffrn_radiation_type           MoK\a
_diffrn_radiation_wavelength     0.71073
_diffrn_reflns_av_R_equivalents  0.0147
_diffrn_reflns_av_unetI/netI     0.0095
_diffrn_reflns_Laue_measured_fraction_full 0.999
_diffrn_reflns_Laue_measured_fraction_max 0.998
_diffrn_reflns_limit_h_max       7
_diffrn_reflns_limit_h_min       -7
_diffrn_reflns_limit_k_max       24
_diffrn_reflns_limit_k_min       -24
_diffrn_reflns_limit_l_max       8
_diffrn_reflns_limit_l_min       -8
_diffrn_reflns_number            8766
_diffrn_reflns_point_group_measured_fraction_full 0.999
_diffrn_reflns_point_group_measured_fraction_max 0.998
_diffrn_reflns_theta_full        25.242
_diffrn_reflns_theta_max         30.018
_diffrn_reflns_theta_min         2.365
_diffrn_source                   'sealed X-ray tube'
_exptl_absorpt_coefficient_mu    0.526
_exptl_absorpt_correction_T_max  1
_exptl_absorpt_correction_T_min  0.942891
_exptl_absorpt_correction_type   multi-scan
_exptl_absorpt_process_details
'SADABS v.2.03 (Bruker,200?) was used for absorption correction. R(int) was 0.0232 before and 0.0146 after correction. The Ratio of minimum to maximum transmission is 0.9429. The \l/2 correction factor is 0.0015.'
_exptl_crystal_colour            colourless
_exptl_crystal_colour_primary    colourless
_exptl_crystal_density_diffrn    1.429
_exptl_crystal_description       block
_exptl_crystal_F_000             256
_exptl_crystal_size_max          0.44
_exptl_crystal_size_mid          0.44
_exptl_crystal_size_min          0.2
_refine_diff_density_max         0.243
_refine_diff_density_min         -0.161
_refine_diff_density_rms         0.034
_refine_ls_extinction_method     none
_refine_ls_goodness_of_fit_ref   1.080
_refine_ls_hydrogen_treatment    constr
_refine_ls_matrix_type           full
_refine_ls_number_parameters     106
_refine_ls_number_reflns         1674
_refine_ls_number_restraints     251
_refine_ls_restrained_S_all      1.027
_refine_ls_R_factor_all          0.0237
_refine_ls_R_factor_gt           0.0224
_refine_ls_shift/su_max          0.000
_refine_ls_shift/su_mean         0.000
_refine_ls_structure_factor_coef Fsqd
_refine_ls_weighting_details
'w=1/[\s^2^(Fo^2^)+(0.0282P)^2^+0.1069P] where P=(Fo^2^+2Fc^2^)/3'
_refine_ls_weighting_scheme      calc
_refine_ls_wR_factor_gt          0.0588
_refine_ls_wR_factor_ref         0.0596
_reflns_Friedel_coverage         0.000
_reflns_number_gt                1591
_reflns_number_total             1674
_reflns_threshold_expression     'I > 2\s(I)'
_cod_data_source_file            cg500962y_si_001.cif
_cod_data_source_block           aaClEST200K
_cod_depositor_comments
'Adding full bibliography for 4511872--4511883.cif.'
_cod_database_code               4511882
#BEGIN Tags that were not found in dictionaries:
_shelxl_version_number           2013-4
_shelx_space_group_comment
;
The symmetry employed for this shelxl refinement is uniquely defined
by the following loop, which should always be used as a source of
symmetry information in preference to the above space-group names.
They are only intended as comments.
;
_shelx_estimated_absorpt_t_max   0.902
_shelx_estimated_absorpt_t_min   0.801
_olex2_refinement_description
;
1. Fixed Uiso
 At 1.2 times of:
  All C(H) groups
2. Restrained distances
 C7-C7_$1 \\sim C7'-C7'_$1
 with sigma of 0.02
3. Uiso/Uaniso restraints and constraints
All non-hydrogen atoms have similar U: within 1.7A with sigma of 0.04 and sigma
for terminal atoms of 0.08
4. Rigid body (RIGU) restrains
 All non-hydrogen atoms
 with sigma for 1-2 distances of 0.004 and sigma for 1-3 distances of 0.004
5. Same fragment restrains
{C1, C2, C3, C4, C5, C6, C7, Cl1}
as
{C1', C2', C3', C4', C5', C6', C7', Cl1'}
6. Others
 Sof(C1')=Sof(C2')=Sof(H2')=Sof(C3')=Sof(H3')=Sof(C4')=Sof(H4')=Sof(C5')=
 Sof(H5')=Sof(C6')=Sof(H6')=Sof(C7')=Sof(Cl1')=1-FVAR(1)
 Sof(C1)=Sof(C2)=Sof(H2)=Sof(C3)=Sof(H3)=Sof(C4)=Sof(H4)=Sof(C5)=Sof(H5)=
 Sof(C6)=Sof(H6)=Sof(C7)=Sof(Cl1)=FVAR(1)
7.a Aromatic/amide H refined with riding coordinates:
 C2(H2), C3(H3), C4(H4), C5(H5), C6(H6), C2'(H2'), C3'(H3'), C4'(H4'),
 C5'(H5'), C6'(H6')
;
_shelx_res_file
;
TITL (E)-alpha,alpha'-dichlorostilbene at 200 K in P2(1)/n
CELL 0.71073   5.6669  17.2268   6.3486  90.000 110.947  90.000
ZERR    2.00   0.0003   0.0008   0.0003   0.000   0.001   0.000
LATT 1
SYMM 0.5-X, 0.5+Y, 0.5-Z
SFAC C  H  Cl
UNIT 28 20 4
LIST 4
L.S. 6
BOND $H
CONF
FMAP 2
PLAN 20
ACTA
SIZE 0.2 0.44 0.44
TEMP -73
RIGU
SIMU
EQIV $1 1-x, 1-y, -z
SADI C7 C7_$1 C7' C7'_$1
WGHT    0.028200    0.106900
FVAR       1.16612   0.74041
PART 1
C1    1    0.544379    0.410175    0.199610    21.00000    0.02435    0.02497 =
         0.02878   -0.00089    0.00750   -0.00147
C2    1    0.437106    0.402588    0.364248    21.00000    0.03061    0.03087 =
         0.03422    0.00091    0.01466    0.00340
AFIX  43
H2    2    0.299837    0.434920    0.360452    21.00000   -1.20000
AFIX   0
C3    1    0.530198    0.347988    0.533516    21.00000    0.03474    0.03405 =
         0.02810    0.00412    0.01396    0.00023
AFIX  43
H3    2    0.462551    0.344315    0.650176    21.00000   -1.20000
AFIX   0
C4    1    0.720548    0.299226    0.531972    21.00000    0.04494    0.03914 =
         0.04060    0.01158    0.00597    0.00315
AFIX  43
H4    2    0.774503    0.258903    0.640825    21.00000   -1.20000
AFIX   0
C5    1    0.833055    0.307665    0.377403    21.00000    0.03267    0.03687 =
         0.05064   -0.00078    0.00962    0.00926
AFIX  43
H5    2    0.973503    0.275902    0.386789    21.00000   -1.20000
AFIX   0
C6    1    0.746019    0.361982    0.205906    21.00000    0.02955    0.03198 =
         0.03156   -0.00196    0.01135   -0.00008
AFIX  43
H6    2    0.821546    0.366460    0.094804    21.00000   -1.20000
AFIX   0
C7    1    0.443461    0.467877    0.015829    21.00000    0.02289    0.02840 =
         0.02599   -0.00180    0.00648   -0.00045
CL1   3    0.144266    0.445136   -0.179236    21.00000    0.01966    0.02912 =
         0.02900   -0.00063    0.00087   -0.00693
PART 2
SAME C1 > CL1
C1'   1    0.630647    0.420088    0.234005   -21.00000    0.02544
C2'   1    0.491941    0.412800    0.373261   -21.00000    0.03359
AFIX  43
H2'   2    0.370758    0.451148    0.371447   -21.00000   -1.20000
AFIX   0
C3'   1    0.530629    0.349339    0.515270   -21.00000    0.05042
AFIX  43
H3'   2    0.419821    0.340973    0.595425   -21.00000   -1.20000
AFIX   0
C4'   1    0.731210    0.296595    0.544027   -21.00000    0.01965
AFIX  43
H4'   2    0.782295    0.259852    0.663469   -21.00000   -1.20000
AFIX   0
C5'   1    0.852833    0.302212    0.380618   -21.00000    0.01857
AFIX  43
H5'   2    0.963056    0.262229    0.369121   -21.00000   -1.20000
AFIX   0
C6'   1    0.808652    0.365261    0.242722   -21.00000    0.03202
AFIX  43
H6'   2    0.905357    0.371467    0.148644   -21.00000   -1.20000
AFIX   0
C7'   1    0.598197    0.490480    0.089593   -21.00000    0.02698
CL1'  3    0.854274    0.554788    0.179914   -21.00000    0.06171
HKLF 4

REM  (E)-alpha,alpha'-dichlorostilbene at 200 K in P2(1)/n
REM R1 =  0.0224 for    1591 Fo > 4sig(Fo)  and  0.0237 for all    1674 data
REM    106 parameters refined using    251 restraints

END

WGHT      0.0282      0.1069

REM Highest difference peak  0.243,  deepest hole -0.161,  1-sigma level  0.034
Q1    1   0.5370  0.4880 -0.0300  11.00000  0.05    0.24
Q2    1   0.5123  0.4438  0.1192  11.00000  0.05    0.22
Q3    1   0.4829  0.4002  0.2719  11.00000  0.05    0.22
Q4    1   0.5133  0.3814  0.4647  11.00000  0.05    0.20
Q5    1   0.7883  0.3371  0.3005  11.00000  0.05    0.19
Q6    1   0.6960  0.3922  0.2384  11.00000  0.05    0.19
Q7    1   0.6244  0.3235  0.5174  11.00000  0.05    0.16
Q8    1   0.8381  0.6050  0.1812  11.00000  0.05    0.11
Q9    1   0.8268  0.5530  0.2973  11.00000  0.05    0.10
Q10   1   0.8119  0.3151  0.4806  11.00000  0.05    0.10
Q11   1   0.6824  0.2384  0.5988  11.00000  0.05    0.09
Q12   1   0.1371  0.4700 -0.0930  11.00000  0.05    0.09
Q13   1   0.3452  0.4631 -0.0447  11.00000  0.05    0.08
Q14   1   0.9028  0.1724  0.4885  11.00000  0.05    0.07
Q15   1   0.8737  0.2165  0.4967  11.00000  0.05    0.07
Q16   1   0.3831  0.3177  0.6526  11.00000  0.05    0.07
Q17   1   0.8022  0.1722  0.5324  11.00000  0.05    0.07
Q18   1   0.9399  0.4963  0.3255  11.00000  0.05    0.06
Q19   1   0.6813  0.6233  0.1047  11.00000  0.05    0.06
Q20   1   0.6201  0.1823  0.5496  11.00000  0.05    0.06
;
_shelx_res_checksum              88246
_shelx_hkl_file
;
   2   0   0    6.73    0.38   2
   2   0   0    6.62    0.41   3
   2   0   0    6.54    0.41   4
   2   0   0    7.17    0.39   1
   3   0   0    0.43    0.25   2
   3   0   0    0.07    0.25   4
   4   0   0  156.41    3.19   3
   4   0   0  146.61    2.81   2
   4   0   0  155.38    2.85   1
   4   0   0  157.14    2.89   4
   5   0   0   -0.12    0.37   1
   5   0   0   -0.44    0.36   3
   5   0   0   -0.03    0.33   4
   5   0   0    0.01    0.36   2
   6   0   0   71.56    1.96   4
   6   0   0   71.64    1.96   1
   6   0   0   73.09    1.94   2
   7   0   0    1.40    0.63   1
   0   1   0    0.04    0.03   3
   0  -1   0    0.24    0.03   1
   0   1   0    0.05    0.02   2
   1   1   0  682.95   11.58   3
   1   1   0  724.57   10.28   1
   1   1   0  707.35   10.44   2
   1  -1   0  711.60   11.60   3
   1  -1   0  691.20   10.60   2
   1  -1   0  697.47   10.26   1
   1   1   0  693.64   10.49   4
   1  -1   0  677.81   10.42   4
   2  -1   0   39.04    0.84   2
   2  -1   0   40.22    0.92   4
   2   1   0   40.80    0.97   3
   2   1   0   41.82    0.92   2
   2  -1   0   39.30    0.97   3
   2   1   0   39.36    0.88   1
   2  -1   0   39.90    0.89   1
   2   1   0   39.95    0.88   4
   3   1   0 2839.74   45.09   3
   3   1   0 2721.24   40.63   4
   3  -1   0 2782.10   40.61   2
   3  -1   0 2826.86   45.09   3
   3   1   0 2775.03   40.66   2
   3  -1   0 2694.89   40.65   4
   3  -1   0 2737.31   39.93   1
   3   1   0 2780.05   39.94   1
   4   1   0    0.26    0.32   1
   4   1   0   -0.24    0.33   3
   4   1   0    0.59    0.31   4
   4  -1   0    0.56    0.27   2
   4  -1   0   -0.28    0.31   1
   4  -1   0    0.83    0.34   4
   4   1   0    1.11    0.33   2
   4  -1   0    0.20    0.34   3
   5   1   0    8.91    0.73   4
   5   1   0    7.29    0.70   1
  -5   1   0    7.76    0.78   3
   5  -1   0    8.95    0.74   4
   5   1   0    7.74    0.82   3
   5  -1   0    8.46    0.72   2
   5  -1   0    7.29    0.66   1
   5   1   0    8.75    0.77   2
   6   1   0   -0.49    0.45   1
   6   1   0   -0.61    0.43   2
   6  -1   0   -0.62    0.45   1
   6   1   0    0.13    0.43   4
   6  -1   0    0.26    0.45   4
   7   1   0  226.14    4.48   1
  -7   1   0  221.40    4.55   4
   7  -1   0  228.27    4.49   1
   0   2   0 1819.59   27.82   2
   0  -2   0 1828.84   29.02   4
   0  -2   0 1680.36   26.12   1
  -1  -2   0  248.80    3.79   1
  -1   2   0  250.90    4.27   3
   1  -2   0  247.22    3.79   1
   1   2   0  243.57    4.26   3
   1   2   0  251.27    3.87   4
   1  -2   0  255.49    3.88   4
  -1  -2   0  251.26    4.35   5
   1   2   0  249.65    3.88   2
  -2   2   0  484.64    8.29   3
   2   2   0  505.90    7.39   1
   2  -2   0  494.91    7.38   1
   2  -2   0  485.31    7.53   4
   2   2   0  492.02    7.53   2
   2  -2   0  489.15    7.42   2
   2   2   0  493.04    8.30   3
   2   2   0  495.93    7.45   4
   3   2   0  406.00    6.35   4
   3   2   0  409.72    6.33   1
   3  -2   0  411.00    6.31   1
   3   2   0  402.59    6.45   2
   3  -2   0  407.03    6.29   2
   3  -2   0  398.79    6.45   4
  -3   2   0  402.38    7.05   3
   3   2   0  420.48    7.11   3
   4   2   0  556.09    9.73   3
  -4   2   0  567.49    9.72   3
   4  -2   0  558.32    8.68   1
   4   2   0  563.00    8.68   1
   4   2   0  561.23    8.74   4
   4  -2   0  562.19    8.68   2
   4   2   0  557.66    8.84   2
   4  -2   0  559.81    8.88   4
   5  -2   0  270.32    4.74   1
   5  -2   0  267.23    4.85   4
   5   2   0  274.81    4.84   2
  -5   2   0  271.69    5.25   3
   5   2   0  273.45    4.73   4
   5   2   0  279.14    4.78   1
   5   2   0  268.01    5.28   3
   5  -2   0  268.86    4.65   2
   6   2   0   19.81    1.08   1
   6  -2   0   19.71    1.16   1
   6   2   0   20.62    1.13   2
   6  -2   0   23.04    1.18   4
   6   2   0   20.51    1.22   3
  -7   2   0    1.66    0.59   4
   7  -2   0   -0.46    0.53   1
   0  -3   0   -0.03    0.06   4
   0  -3   0    0.33    0.10   1
   0   3   0   -0.03    0.06   2
   0   3   0    0.02    0.09   3
  -1   3   0  436.52    7.28   3
   1  -3   0  439.61    6.59   4
  -1  -3   0  432.83    6.46   1
   1  -3   0  433.90    6.46   1
   1   3   0  425.76    7.27   3
   1   3   0  434.51    6.59   2
   2  -3   0 1866.14   26.95   1
   2   3   0 1902.78   27.45   4
   2   3   0 1874.04   27.47   2
   2  -3   0 1896.79   27.59   2
   2   3   0 1907.64   30.43   3
   2  -3   0 1806.86   27.44   4
   2   3   0 1876.38   26.96   1
  -2   3   0 1779.08   30.38   3
   3  -3   0    7.29    0.53   1
   3  -3   0    7.07    0.44   2
   3   3   0    6.65    0.45   4
   3   3   0    5.91    0.45   1
   3   3   0    7.35    0.57   2
   3   3   0    7.53    0.55   3
   3  -3   0    7.12    0.53   4
  -3   3   0    5.88    0.53   3
   4  -3   0  176.48    3.21   1
   4   3   0  180.20    3.24   1
   4   3   0  175.88    3.30   2
   4  -3   0  180.54    3.07   2
   4   3   0  176.32    3.57   3
  -4   3   0  173.65    3.55   3
   4   3   0  176.15    3.13   4
   4  -3   0  176.08    3.31   4
   5  -3   0    2.34    0.41   2
   5  -3   0    1.30    0.47   1
   5  -3   0    2.37    0.50   4
   5   3   0    2.65    0.50   2
   5   3   0    1.20    0.48   3
   5   3   0    2.42    0.51   1
   5   3   0    2.65    0.47   4
  -5   3   0    1.13    0.47   3
   6  -3   0  168.02    3.46   1
   6   3   0  170.96    3.85   3
   6  -3   0  167.79    3.55   4
   6   3   0  167.14    3.54   2
   7  -3   0   21.36    1.27   1
   0  -4   0  615.49    8.92   1
   0   4   0  611.82    9.09   2
   0  -4   0  584.47    9.13   4
   0   4   0  606.48   10.06   3
  -1  -4   0 7536.20  111.79   1
  -1   4   0 7731.53  126.26   3
   1  -4   0 7948.75  111.89   1
   1   4   0 7896.95  113.85   2
   1  -4   0 7902.78  113.94   4
  -2  -4   0  120.94    2.43   5
   2  -4   0  120.45    2.12   1
  -2  -4   0  120.21    2.12   1
  -2   4   0  118.98    2.37   3
   2  -4   0  122.81    2.19   4
   2   4   0  120.73    1.98   4
   2   4   0  117.39    2.35   3
   2   4   0  123.47    2.21   2
   3   4   0   91.66    1.99   3
   3   4   0   89.94    1.66   4
   3  -4   0   87.71    1.86   4
  -3  -4   0   87.39    1.78   1
   3  -4   0   89.69    1.59   2
  -3   4   0   88.31    1.97   3
   3  -4   0   91.08    1.81   1
   3   4   0   90.74    1.89   2
  -3  -4   0   87.53    2.04   5
   4   4   0  187.27    3.71   3
  -4   4   0  182.23    3.68   3
   4  -4   0  185.72    3.11   2
   4  -4   0  184.06    3.45   4
   4   4   0  182.17    3.20   4
  -4  -4   0  181.60    3.30   1
   4  -4   0  179.85    3.31   1
  -4  -4   0  179.12    3.78   5
   4   4   0  191.06    3.47   2
   5  -4   0  260.60    4.72   4
   5   4   0  253.46    5.05   3
   5   4   0  260.07    4.70   2
  -5   4   0  258.89    5.06   3
  -5  -4   0  254.11    4.54   1
   5  -4   0  259.57    4.58   1
  -5  -4   0  254.19    5.21   5
   6   4   0    4.27    0.69   2
   6   4   0    1.77    0.61   3
   6  -4   0    1.74    0.61   1
  -6  -4   0    1.34    0.60   5
  -6  -4   0    2.49    0.61   1
   6  -4   0    2.70    0.65   4
   7   4   0    8.70    0.94   2
   7  -4   0    8.97    0.96   4
   7  -4   0    8.84    0.92   1
   0  -5   0    0.01    0.13   1
   0   5   0    0.06    0.14   3
   0   5   0   -0.06    0.09   2
   1  -5   0  447.72    6.83   4
  -1  -5   0  440.07    6.73   1
   1   5   0  458.52    7.60   3
   1  -5   0  443.09    6.74   1
   1   5   0  448.19    6.86   2
  -1   5   0  452.48    7.61   3
  -2   5   0 1732.46   28.72   3
   2  -5   0 1721.10   25.46   1
   2  -5   0 1755.84   25.94   4
   2   5   0 1787.81   28.72   3
  -2  -5   0 1741.62   25.45   1
   2   5   0 1764.45   25.97   2
  -2  -5   0 1789.42   26.00   4
   3  -5   0   63.72    1.51   4
  -3   5   0   64.77    1.60   3
   3   5   0   65.46    1.54   2
  -3  -5   0   63.59    1.44   1
   3  -5   0   63.42    1.45   1
   3   5   0   63.73    1.58   3
  -3  -5   0   64.44    1.66   5
   3   5   0   66.03    1.28   4
  -4  -5   0  417.84    6.75   1
   4  -5   0  427.71    6.98   4
  -4  -5   0  421.76    7.75   5
   4   5   0  421.51    7.57   3
  -4   5   0  422.06    7.58   3
   4  -5   0  424.91    6.77   1
   4   5   0  425.02    6.98   2
  -5  -5   0    0.97    0.44   1
   5   5   0    0.48    0.42   3
   5   5   0    1.17    0.45   2
  -5  -5   0    0.40    0.44   5
  -5   5   0    0.82    0.46   3
   5  -5   0    0.83    0.41   1
   5  -5   0    1.41    0.48   4
   6   5   0  263.67    4.97   2
   6   5   0  256.49    5.26   3
   6  -5   0  256.97    4.75   1
  -6  -5   0  249.67    4.72   1
   6  -5   0  248.07    4.89   4
  -6  -5   0  251.59    5.44   5
   7  -5   0    2.63    0.71   1
   7  -5   0    2.36    0.70   4
   7   5   0    1.47    0.66   2
   0  -6   0  312.82    4.90   1
   0   6   0  336.08    5.54   3
   0   6   0  310.26    4.87   2
   0  -6   0  312.25    4.84   4
   1   6   0  743.91   12.44   3
  -1  -6   0  738.61   11.04   1
  -1   6   0  752.72   12.47   3
   1  -6   0  751.35   11.05   1
   1   6   0  744.96   11.23   2
   1  -6   0  750.56   11.20   4
   2   6   0   27.38    0.91   3
   2  -6   0   29.70    0.88   4
  -2  -6   0   28.00    0.88   1
   2   6   0   29.65    0.91   2
   2  -6   0   29.35    0.85   1
  -2   6   0   27.17    0.93   3
   3   6   0  265.63    4.92   3
   3  -6   0  266.54    4.42   1
  -3  -6   0  266.09    4.41   1
   3   6   0  273.70    4.60   2
  -3   6   0  269.18    4.95   3
  -3  -6   0  265.82    4.20   4
   3  -6   0  267.30    4.55   4
  -3  -6   0  263.41    5.05   5
   4   6   0  126.93    2.80   3
  -4   6   0  124.98    2.80   3
   4  -6   0  128.21    2.54   1
  -4  -6   0  126.09    2.91   5
   4  -6   0  127.00    2.65   4
  -4  -6   0  123.83    2.52   1
   4   6   0  125.69    2.66   2
  -5  -6   0   95.91    2.56   5
   5  -6   0   95.56    2.21   1
   5   6   0   94.29    2.32   2
   5   6   0   92.18    2.41   3
  -5   6   0   95.15    2.45   3
  -5  -6   0   94.32    2.22   1
   5  -6   0   96.20    2.33   4
  -6  -6   0   24.98    1.31   1
   6  -6   0   27.41    1.33   4
   6   6   0   25.50    1.37   3
   6   6   0   29.36    1.38   2
  -6   6   0   26.03    1.43   3
   6  -6   0   27.37    1.28   1
  -6  -6   0   25.04    1.51   5
   7  -6   0    1.44    0.69   4
   7   6   0    1.48    0.69   2
   0   7   0   -0.09    0.16   3
   0  -7   0   -0.04    0.16   1
   0  -7   0    0.26    0.12   4
   0   7   0   -0.22    0.12   2
   1  -7   0  592.85    8.93   4
   1   7   0  595.34    9.95   3
   1  -7   0  583.41    8.84   1
   1   7   0  593.02    8.97   2
  -1  -7   0  579.19    8.83   1
  -1   7   0  588.93    9.98   3
   2  -7   0  348.49    5.53   1
  -2  -7   0  357.82    5.54   1
   2   7   0  354.19    5.68   2
   2   7   0  350.20    6.19   3
   2  -7   0  350.54    5.63   4
  -2   7   0  346.39    6.23   3
   3   7   0  344.96    5.70   2
  -3  -7   0  338.07    5.23   4
   3  -7   0  339.90    5.64   4
   3  -7   0  343.53    5.51   1
  -3   7   0  339.50    6.18   3
   3   7   0  341.68    6.14   3
  -3  -7   0  333.52    5.48   1
  -4  -7   0   44.26    1.32   1
   4  -7   0   43.57    1.34   1
   4   7   0   42.49    1.43   3
   4  -7   0   42.96    1.39   4
   4   7   0   44.27    1.41   2
  -4   7   0   43.93    1.45   3
  -5   7   0    7.41    0.73   3
  -5  -7   0    6.32    0.69   5
   5  -7   0    7.21    0.66   1
   5   7   0    6.92    0.70   3
  -5  -7   0    7.43    0.68   1
   5   7   0    7.81    0.75   2
   5  -7   0    7.82    0.75   4
  -6  -7   0   61.79    1.93   1
   6   7   0   59.46    2.01   3
   6  -7   0   63.03    1.92   1
   6   7   0   59.86    1.99   2
   6  -7   0   59.15    1.94   4
  -6   7   0   62.06    2.08   3
   7   7   0   95.66    2.73   2
   7  -7   0   90.45    2.63   4
   0  -8   0 2324.78   33.83   4
   0   8   0 2329.76   33.78   2
   0   8   0 2336.31   37.54   3
   0  -8   0 2208.65   33.21   1
   1   8   0  319.60    5.61   3
   1   8   0  316.47    5.04   2
  -1  -8   0  319.01    5.01   1
   1  -8   0  307.63    4.96   4
  -1   8   0  317.41    5.64   3
   1  -8   0  310.41    4.99   1
  -2  -8   0  188.43    3.23   1
   2  -8   0  183.23    3.23   1
   2  -8   0  188.52    3.27   4
   2   8   0  188.48    3.60   3
   2   8   0  188.83    3.33   2
  -2   8   0  184.48    3.63   3
  -3  -8   0   50.12    1.33   1
   3   8   0   48.62    1.40   2
  -3   8   0   46.70    1.46   3
   3   8   0   47.79    1.45   3
   3  -8   0   48.74    1.32   1
   3  -8   0   47.71    1.35   4
   4   8   0  493.36    8.67   3
   4  -8   0  486.26    7.98   4
  -4  -8   0  479.22    7.73   1
  -4   8   0  486.03    8.73   3
   4  -8   0  483.22    7.75   1
   4   8   0  475.75    7.99   2
  -5   8   0   50.24    1.72   3
   5   8   0   52.41    1.72   3
   5   8   0   48.08    1.64   2
  -5  -8   0   49.28    1.55   1
   5  -8   0   50.88    1.56   1
   6   8   0  160.24    3.68   2
  -6   8   0  163.61    3.89   3
   6   8   0  167.85    3.86   3
  -6  -8   0  170.29    3.52   1
   6  -8   0  160.59    3.46   1
   6  -8   0  159.90    3.62   4
   7  -8   0    1.50    0.71   4
   7   8   0    1.34    0.73   2
   0   9   0    0.11    0.17   2
   0  -9   0   -0.02    0.20   1
   0  -9   0    0.01    0.14   4
  -1  -9   0  502.16    7.73   1
   1   9   0  500.62    7.79   2
   1   9   0  504.83    8.68   3
  -1   9   0  503.31    8.72   3
   1  -9   0  503.41    7.72   1
   1  -9   0  495.75    7.71   4
   2   9   0    1.55    0.32   3
   2   9   0    1.20    0.31   2
  -2   9   0    3.05    0.42   3
   3  -9   0  741.91   11.58   4
   3   9   0  745.09   12.73   3
   3   9   0  744.65   11.65   2
  -3   9   0  742.43   12.80   3
  -3  -9   0  745.43   11.36   1
   3  -9   0  748.44   11.37   1
  -4  -9   0    1.01    0.44   1
   4   9   0    1.01    0.44   2
  -4   9   0    1.65    0.52   3
   4  -9   0    1.05    0.40   1
   4  -9   0    0.89    0.46   4
   4   9   0    1.09    0.43   3
   5   9   0   24.31    1.23   3
   5  -9   0   25.18    1.14   1
  -5  -9   0   25.10    1.18   1
   5  -9   0   23.92    1.17   4
  -5   9   0   25.77    1.32   3
   5   9   0   23.74    1.20   2
   6  -9   0   29.18    1.40   4
   6  -9   0   29.11    1.33   1
  -6   9   0   28.84    1.55   3
  -6  -9   0   25.57    1.38   1
   6   9   0   29.01    1.44   2
   0  10   0  408.50    7.19   3
   0 -10   0  405.99    6.39   1
   0 -10   0  406.29    6.19   4
   0  10   0  399.70    6.27   2
  -1  10   0  124.87    2.71   3
   1 -10   0  129.12    2.41   1
   1  10   0  123.81    2.67   3
  -1 -10   0  125.92    2.42   1
   1  10   0  124.15    2.35   2
   1 -10   0  123.65    2.26   4
   2  10   0    9.75    0.74   3
   2 -10   0   10.09    0.66   1
   2  10   0    9.43    0.65   2
  -2  10   0    9.93    0.74   3
   2 -10   0   10.11    0.61   4
  -2 -10   0   10.39    0.69   1
   3  10   0   73.89    1.95   3
   3 -10   0   74.50    1.79   1
   3  10   0   75.50    1.89   2
   3 -10   0   71.80    1.82   4
  -3 -10   0   77.80    1.83   1
  -3  10   0   76.45    2.03   3
   4  10   0  180.40    3.88   3
   4 -10   0  187.03    3.55   1
  -4  10   0  183.83    3.96   3
   4  10   0  185.79    3.70   2
   4 -10   0  184.37    3.65   4
  -4 -10   0  183.94    3.54   1
   5  10   0   26.41    1.26   2
   5 -10   0   26.95    1.24   4
   5 -10   0   27.54    1.25   1
  -5  10   0   26.39    1.36   3
   5  10   0   28.46    1.33   3
  -5 -10   0   25.69    1.24   1
   6 -10   0   53.66    1.77   1
  -6 -10   0   55.37    1.87   1
   6 -10   0   51.84    1.87   4
   6  10   0   54.69    1.97   2
  -6  10   0   55.75    2.05   3
   0 -11   0    0.32    0.26   1
   0 -11   0    0.47    0.18   4
   0  11   0    0.70    0.32   3
  -1  11   0  535.99    8.06   2
  -1 -11   0  541.16    8.35   1
   1  11   0  522.69    9.34   3
   1 -11   0  538.77    8.26   4
   1 -11   0  535.48    8.33   1
   1  11   0  537.54    8.37   2
  -1  11   0  533.41    9.39   3
   2 -11   0  597.83    9.42   4
   2  11   0  615.39    9.54   2
  -2 -11   0  616.31    9.38   1
   2 -11   0  589.82    9.36   1
  -2  11   0  601.21   10.57   3
   2  11   0  603.28   10.50   3
  -3 -11   0  174.32    3.32   1
   3  11   0  171.64    3.64   3
   3 -11   0  177.57    3.33   1
  -3  11   0  174.62    3.74   3
   3 -11   0  175.07    3.37   4
   3  11   0  174.15    3.43   2
  -4  11   0    2.62    0.57   3
   4  11   0    2.01    0.50   3
  -4 -11   0    2.73    0.53   1
   4 -11   0    1.90    0.48   1
   4 -11   0    2.40    0.53   4
   4  11   0    1.80    0.51   2
   5  11   0   19.62    1.23   3
   5  11   0   17.51    1.11   2
  -5 -11   0   18.37    1.14   1
   5 -11   0   16.63    1.07   4
   5 -11   0   19.44    1.17   1
  -5  11   0   16.73    1.24   3
  -6 -11   0    7.05    0.88   1
  -6  11   0    6.42    0.93   3
   6 -11   0    7.28    0.80   1
   6  11   0    7.30    0.93   2
   6 -11   0    7.18    0.87   4
   0 -12   0  337.78    5.51   1
   0  12   0  334.36    6.19   3
   0 -12   0  327.47    5.19   4
   0  12   0  335.65    5.32   2
  -1  12   0  365.92    6.73   3
   1 -12   0  360.29    5.96   1
   1  12   0  368.41    5.94   2
   1 -12   0  363.97    5.82   4
  -1 -12   0  373.36    6.00   1
   1  12   0  355.70    6.67   3
   2  12   0  348.74    6.41   3
   2 -12   0  344.97    5.71   4
   2  12   0  346.06    5.82   2
   2 -12   0  338.48    5.73   1
  -2 -12   0  346.06    5.74   1
  -2  12   0  342.47    6.47   3
  -3  12   0    9.54    0.86   3
   3  12   0    8.21    0.81   3
  -3 -12   0    9.85    0.80   1
   3 -12   0   10.12    0.78   1
   3  12   0   11.52    0.82   2
   3 -12   0    8.43    0.77   4
   4  12   0   62.26    1.93   3
   4 -12   0   61.18    1.78   4
   4 -12   0   56.00    1.68   1
  -4 -12   0   61.37    1.76   1
  -4  12   0   63.26    1.99   3
   4  12   0   59.66    1.85   2
  -5 -12   0  383.49    6.63   1
  -5  12   0  377.17    7.45   3
   5  12   0  373.94    6.88   2
   5 -12   0  372.44    6.79   4
   5 -12   0  387.40    6.64   1
   5  12   0  381.93    7.36   3
   6 -12   0    2.16    0.73   4
   6  12   0    1.59    0.74   2
  -6  12   0    1.54    0.70   3
  -6 -12   0    2.00    0.68   1
   6 -12   0    1.43    0.58   1
   0 -13   0    1.91    0.41   1
   0  13   0    0.60    0.27   2
   0  13   0    0.85    0.38   3
   1 -13   0  191.25    3.35   4
   1 -13   0  194.53    3.57   1
  -1 -13   0  196.82    3.60   1
   1  13   0  193.96    3.99   3
   1  13   0  192.08    3.48   2
  -1  13   0  191.06    4.01   3
  -2  13   0  518.17    9.27   3
   2  13   0  508.10    8.29   2
   2 -13   0  512.59    8.18   4
   2  13   0  510.17    9.18   3
   2 -13   0  508.35    8.20   1
  -2 -13   0  515.81    8.23   1
  -3  13   0   13.15    1.03   3
   3 -13   0   13.22    0.88   4
   3  13   0   15.02    0.98   3
  -3 -13   0   14.63    0.96   1
   3 -13   0   15.58    0.91   1
   3  13   0   13.90    0.92   2
  -4 -13   0   38.81    1.44   1
   4  13   0   37.25    1.47   2
   4  13   0   39.05    1.56   3
   4 -13   0   37.96    1.40   4
  -4  13   0   38.15    1.58   3
   4 -13   0   36.03    1.36   1
  -5 -13   0    1.40    0.63   1
   5  13   0    2.34    0.62   3
   5 -13   0    2.20    0.58   1
   5  13   0    1.58    0.65   2
   5 -13   0    2.15    0.66   4
  -5  13   0    1.77    0.70   3
   6  13   0   26.69    1.53   2
   6 -13   0   29.04    1.48   4
   6 -13   0   28.00    1.41   1
  -6 -13   0   28.26    1.51   1
  -6  13   0   29.07    1.63   3
   0  14   0   70.21    2.03   3
   0  14   0   72.09    1.61   2
   0 -14   0   75.70    1.85   1
  -1  14   0   59.44    1.86   3
   1  14   0   61.70    1.85   3
   1 -14   0   58.35    1.42   4
  -1 -14   0   61.94    1.68   1
   1 -14   0   60.22    1.65   1
   1  14   0   62.13    1.55   2
  -2  14   0   77.79    2.23   3
   2  14   0   79.79    1.97   2
   2 -14   0   75.10    1.96   1
   2  14   0   77.86    2.17   3
   2 -14   0   78.79    1.85   4
   3 -14   0  200.64    3.82   4
   3  14   0  200.20    4.24   3
   3  14   0  199.69    3.93   2
  -3 -14   0  198.66    3.85   1
  -3  14   0  196.64    4.34   3
   3 -14   0  196.15    3.84   1
   4  14   0   18.57    1.19   3
   4  14   0   17.52    1.07   2
  -4  14   0   17.50    1.21   3
   4 -14   0   16.02    1.01   4
  -4 -14   0   17.64    1.09   1
   4 -14   0   15.87    0.98   1
   5 -14   0  121.76    3.01   4
   5 -14   0  121.13    2.92   1
  -5  14   0  124.79    3.34   3
   5  14   0  121.06    3.11   2
  -5 -14   0  122.70    2.97   1
   5  14   0  125.11    3.22   3
   6 -14   0    6.64    0.95   4
   6 -14   0    5.97    0.85   1
   6  14   0    6.28    0.98   2
  -6  14   0    5.61    0.96   3
   1 -15   0  278.25    4.90   1
   1  15   0  271.59    5.45   3
   1  15   0  274.81    4.76   2
   1 -15   0  272.43    4.60   4
  -1  15   0  271.40    5.48   3
  -1 -15   0  276.05    4.89   1
   2  15   0  108.72    2.72   3
   2 -15   0  103.99    2.28   4
   2  15   0  102.75    2.40   2
  -2  15   0  101.57    2.73   3
  -3  15   0   25.78    1.39   3
   3  15   0   25.16    1.21   2
   3 -15   0   25.54    1.13   4
  -3 -15   0   24.19    1.19   1
   3 -15   0   23.86    1.12   1
   3  15   0   23.34    1.26   3
   4  15   0   42.79    1.63   2
   4  15   0   46.15    1.78   3
  -4  15   0   44.33    1.79   3
   4 -15   0   42.48    1.56   1
   4 -15   0   42.75    1.55   4
  -4 -15   0   45.97    1.66   1
  -5 -15   0    1.45    0.63   1
   5 -15   0    0.85    0.55   1
   5 -15   0    0.83    0.61   4
   5  15   0    0.77    0.63   2
  -5  15   0    1.20    0.67   3
   5  15   0    0.74    0.60   3
   0  16   0   26.91    1.34   3
   0 -16   0   27.94    1.20   1
  -1  16   0  583.13   10.64   3
  -1 -16   0  577.85    9.42   1
   1 -16   0  590.40    9.45   1
   1  16   0  596.46    9.37   2
   2  16   0  352.36    6.04   2
  -2  16   0  338.61    6.79   3
   2  16   0  345.20    6.72   3
   2 -16   0  350.99    5.88   4
  -2 -16   0  342.60    6.07   1
   3 -16   0   16.48    1.00   4
   3  16   0   17.19    1.16   3
  -3 -16   0   16.51    1.05   1
   3  16   0   18.13    1.09   2
   3 -16   0   15.88    0.98   1
  -3  16   0   17.25    1.23   3
   4 -16   0  143.93    3.25   4
  -4  16   0  147.27    3.73   3
   4  16   0  147.84    3.61   3
  -4 -16   0  149.90    3.33   1
   4 -16   0  143.95    3.28   1
   4  16   0  139.07    3.35   2
  -5  16   0   13.67    1.22   3
   5  16   0   12.24    1.14   2
   5 -16   0   12.63    1.10   4
   5  16   0   11.74    1.12   3
  -5 -16   0   13.66    1.22   1
   5 -16   0   11.97    1.02   1
   0  17   0   -0.12    0.47   3
   0 -17   0   -0.15    0.42   1
   1  17   0  499.25    7.99   2
  -1 -17   0  482.74    8.08   1
  -1  17   0  476.87    9.08   3
   2  17   0   48.57    1.61   2
   2  17   0   45.86    1.76   3
  -2 -17   0   44.25    1.60   1
  -2  17   0   45.54    1.79   3
   2 -17   0   49.86    1.47   4
   3 -17   0   32.24    1.35   1
  -3  17   0   33.71    1.60   3
   3 -17   0   35.54    1.35   4
   3  17   0   33.61    1.55   3
   3  17   0   31.39    1.38   2
  -3 -17   0   34.15    1.46   1
   4  17   0   21.12    1.29   2
   4  17   0   22.81    1.45   3
  -4 -17   0   21.40    1.26   1
   4 -17   0   22.77    1.25   1
  -4  17   0   21.43    1.49   3
   4 -17   0   21.17    1.26   4
   5 -17   0    1.05    0.61   1
  -5 -17   0    2.38    0.74   1
   5  17   0    1.58    0.69   3
   5  17   0    2.19    0.75   2
  -5  17   0    1.91    0.80   3
   5 -17   0    1.81    0.73   4
   0 -18   0    1.13    0.52   1
   0  18   0    0.99    0.53   3
  -1 -18   0    1.34    0.53   1
  -2 -18   0    1.53    0.57   1
   2 -18   0    2.09    0.57   1
   2  18   0    1.72    0.60   3
  -2  18   0    1.74    0.64   3
   2  18   0    2.38    0.60   2
   3 -18   0   30.57    1.32   4
   3  18   0   28.76    1.37   2
  -3  18   0   29.02    1.57   3
  -3 -18   0   31.76    1.45   1
   3  18   0   30.67    1.54   3
   3 -18   0   28.09    1.32   1
   4 -18   0  164.87    3.59   4
   4  18   0  158.95    3.72   2
   4  18   0  156.65    3.93   3
   4 -18   0  153.94    3.57   1
  -4 -18   0  155.76    3.61   1
  -4  18   0  158.07    4.07   3
   0 -19   0    1.06    0.54   1
   0  19   0    0.19    0.58   3
   1  19   0   47.87    1.86   3
   1 -19   0   45.48    1.67   1
  -1  19   0   48.69    1.91   3
  -1 -19   0   49.00    1.74   1
   2  19   0   36.46    1.45   2
   2 -19   0   37.22    1.52   1
  -2  19   0   36.81    1.71   3
   2  19   0   36.24    1.65   3
  -2 -19   0   37.75    1.58   1
   3 -19   0   67.12    2.08   1
   3  19   0   69.23    2.34   3
  -3 -19   0   66.36    2.12   1
   3  19   0   66.76    2.10   2
  -3  19   0   66.77    2.38   3
   4  19   0    9.36    1.02   2
   4 -19   0   11.35    1.03   4
   4  19   0    7.94    0.97   3
  -4  19   0    8.67    1.07   3
   4 -19   0    9.88    0.96   1
  -4 -19   0    9.38    0.99   1
   0 -20   0  355.30    6.38   1
   0  20   0  348.53    7.11   3
  -1 -20   0   90.54    2.45   1
   1  20   0   84.92    2.63   3
   1 -20   0   85.38    2.40   1
  -1  20   0   86.37    2.68   3
  -2 -20   0    3.98    0.76   1
   2 -20   0    4.09    0.74   1
  -2  20   0    2.58    0.79   3
   2  20   0    3.72    0.68   2
   2  20   0    2.78    0.73   3
   3 -20   0    2.54    0.66   1
  -3 -20   0    2.19    0.67   1
  -3  20   0    1.41    0.77   3
   3  20   0    1.90    0.68   2
   3  20   0    1.58    0.71   3
   4  20   0   19.84    1.33   2
  -4  20   0   17.14    1.44   3
   4  20   0   20.67    1.45   3
   4 -20   0   18.62    1.26   1
  -4 -20   0   18.95    1.33   1
   0  21   0    3.48    0.80   3
   1  21   0    4.27    0.83   3
  -1 -21   0    3.01    0.70   1
   1 -21   0    3.64    0.73   1
  -1  21   0    3.14    0.80   3
   2 -21   0   80.57    2.42   1
  -2 -21   0   86.96    2.52   1
  -2  21   0   78.95    2.71   3
   2  21   0   82.65    2.66   3
   3 -21   0   76.38    2.38   1
   3  21   0   78.08    2.37   2
   3  21   0   79.77    2.66   3
  -3 -21   0   79.62    2.48   1
  -3  21   0   75.85    2.71   3
   0 -22   0   25.58    1.41   1
   0  22   0   30.43    1.64   3
   1  22   0   16.80    1.35   3
   1 -22   0   17.42    1.20   1
  -1  22   0   17.40    1.38   3
  -1 -22   0   15.04    1.16   1
   2 -22   0    6.18    0.88   1
   2  22   0    5.91    0.92   3
  -2  22   0    5.43    0.96   3
  -2 -22   0    5.28    0.87   1
  -3  22   0    5.97    1.01   3
   3 -22   0    4.84    0.85   1
   3  22   0    4.97    0.85   2
   3  22   0    5.72    0.96   3
  -3 -22   0    6.90    0.99   1
   0  23   0    0.34    0.70   3
   0 -23   0   -0.15    0.57   1
  -1  23   0    2.42    0.81   3
   1  23   0    3.99    0.87   3
  -1 -23   0    2.78    0.75   1
   1 -23   0    4.19    0.78   1
  -2 -23   0   55.05    2.10   1
   2 -23   0   55.08    2.07   1
   2  23   0   53.44    2.25   3
  -2  23   0   56.01    2.34   3
   0  24   0    6.52    1.01   3
   0 -24   0    8.05    1.01   1
   1 -24   0   33.39    1.64   1
   1  24   0   31.83    1.79   3
  -1 -24   0   33.23    1.65   1
  -1  24   0   31.72    1.81   3
  -7   0   1   10.55    1.03   4
   7   0  -1   10.84    1.00   1
  -6   0   1    0.47    0.47   4
   6   0  -1   -0.31    0.40   2
   6   0  -1   -0.78    0.44   1
   5   0  -1  731.24   11.25   1
  -5   0   1  720.94   11.37   4
   5   0  -1  733.41   11.31   2
  -5   0   1  716.96   12.34   3
   4   0  -1   -0.20    0.27   1
   4   0  -1   -0.06    0.23   3
   4   0  -1   -0.08    0.23   2
   3   0  -1  367.27    6.25   3
  -3   0   1  362.85    5.78   4
   3   0  -1  361.62    5.72   1
   3   0  -1  368.87    5.73   2
   2   0  -1    0.76    0.14   3
   2   0  -1    0.33    0.15   2
  -2   0   1    0.31    0.15   4
   2   0  -1   -0.08    0.17   1
  -1   0   1 3129.96   45.46   4
   1   0  -1 3125.97   45.49   2
   1   0  -1 3006.26   44.60   1
   0   0   1    0.20    0.08   3
   0   0  -1    0.75    0.10   2
   0   0   1    0.15    0.09   4
   1   0   1 8200.58  133.98   3
   1   0   1 8083.82  121.19   1
   1   0   1 8541.19  121.06   4
  -1   0  -1 8308.38  121.04   2
   2   0   1    2.44    0.33   3
   3   0   1   15.98    0.80   3
   3   0   1   17.05    0.65   1
   3   0   1   15.98    0.69   2
   3   0   1   17.35    0.75   4
   4   0   1   -1.07    0.32   1
   4   0   1    0.73    0.36   4
   4   0   1   -0.77    0.38   3
   5   0   1  261.93    4.75   4
  -5   0  -1  263.73    4.66   2
   5   0   1  259.78    5.31   3
   5   0   1  263.26    4.56   1
   6   0   1    0.55    0.53   4
  -6   0  -1   -0.58    0.54   3
   7   0   1   24.31    1.38   4
  -7   1   1   18.54    1.22   4
   7   1  -1   17.76    1.16   1
   7  -1  -1   17.03    1.15   1
   6  -1  -1  123.28    2.76   1
   6  -1  -1  120.88    2.60   2
  -6  -1   1  117.13    2.65   4
   6   1  -1  120.42    2.67   2
  -6   1   1  119.98    2.73   4
   6   1  -1  114.13    2.70   1
  -5   1   1   36.35    1.33   3
  -5   1   1   41.82    1.38   4
   5   1  -1   42.28    1.35   3
   5   1  -1   41.78    1.34   2
  -5  -1   1   40.93    1.32   4
   5  -1  -1   43.87    1.41   1
   5   1  -1   39.77    1.39   1
   5  -1  -1   46.16    1.33   2
   4  -1  -1   -0.23    0.30   1
  -4  -1   1    0.06    0.30   4
   4  -1  -1    0.88    0.28   2
   4   1  -1    0.66    0.30   2
  -4   1   1    0.65    0.26   3
   4   1  -1   -0.33    0.27   3
   4  -1  -1    1.36    0.34   4
   4   1  -1    0.61    0.31   1
   3   1  -1   10.91    0.52   3
   3  -1  -1   13.71    0.54   2
  -3   1   1   12.31    0.55   3
   3  -1  -1   12.59    0.62   4
   3   1  -1   13.11    0.57   2
  -3  -1   1   12.52    0.58   4
   3   1  -1   11.63    0.59   1
   3  -1  -1   10.59    0.62   1
   2  -1  -1 2747.34   39.89   1
   2   1  -1 2646.00   39.86   1
  -2  -1   1 2798.65   40.64   4
  -2   1   1 2774.58   40.62   4
  -2   1   1 2737.15   45.30   3
   2   1  -1 2799.68   40.61   2
   2  -1  -1 2803.38   40.66   2
   2   1  -1 2864.21   45.57   3
  -1   1   1 2739.22   40.24   4
   1   1  -1 2758.38   40.24   2
  -1  -1   1 2681.44   40.31   4
   1  -1  -1 2722.66   40.41   2
   1   1  -1 2811.58   39.58   1
  -1   1   1 2692.17   47.04   3
   1  -1  -1 2745.24   39.55   1
   0   1  -1  326.10    4.91   2
   0  -1   1  308.09    5.04   1
   0   1   1  325.05    4.91   4
   0  -1  -1  320.84    5.08   1
   0  -1  -1  326.39    4.92   2
   0  -1   1  321.10    4.91   4
   0  -1   1  330.12    5.46   3
   0   1   1  323.94    5.45   3
  -1   1  -1  390.25    5.83   2
  -1  -1  -1  377.88    5.86   2
   1   1   1  379.98    5.84   4
   1  -1   1  380.42    5.72   1
   1   1   1  381.44    6.52   3
   1  -1   1  396.85    6.54   3
   1  -1   1  378.33    5.87   4
   2  -1   1 1383.12   20.59   4
   2   1   1 1404.45   22.84   3
   2   1   1 1352.31   20.54   2
   2  -1   1 1406.35   20.14   1
  -2   1  -1 1359.46   20.49   2
   2   1   1 1400.27   20.55   4
   2   1   1 1409.64   20.14   1
   2  -1   1 1383.99   22.83   3
   3   1   1    1.33    0.28   4
  -3   1  -1    1.72    0.27   2
   3  -1   1    1.03    0.29   4
   3   1   1    1.47    0.29   2
   3   1   1    1.07    0.25   1
   3  -1   1    0.60    0.30   3
   3  -1   1    0.88    0.24   1
   3   1   1    0.40    0.30   3
   4  -1   1  639.23    9.71   1
   4   1   1  644.49    9.72   1
   4   1   1  627.22    9.97   2
  -4   1  -1  625.02    9.86   2
   4   1   1  637.59    9.95   4
   4   1   1  645.59   11.15   3
   4  -1   1  638.38   11.14   3
   4  -1   1  629.48   10.01   4
   5   1   1    0.04    0.48   3
   5  -1   1    1.21    0.46   4
   5   1   1    1.27    0.45   4
   5  -1   1    0.86    0.43   1
  -5   1  -1    1.55    0.50   3
  -5  -1  -1    0.60    0.41   2
   5   1   1    0.14    0.43   1
  -6   1  -1   57.85    2.07   3
   6  -1   1   61.89    1.90   4
   6   1   1   58.64    2.08   3
   6   1   1   59.42    1.83   4
   7  -1   1    0.04    0.62   4
   7   2  -1   73.28    2.19   1
   7  -2  -1   78.97    2.28   1
  -7   2   1   75.21    2.24   4
  -6   2   1    3.86    0.65   4
  -6  -2   1    4.26    0.61   4
   6  -2  -1    4.00    0.67   1
   6   2  -1    3.54    0.61   2
   6   2  -1    3.79    0.66   1
   5  -2  -1  135.96    2.77   1
  -5   2   1  130.43    2.84   3
  -5  -2   1  130.47    2.67   4
   5  -2  -1  136.99    2.63   2
   5   2  -1  130.50    2.77   1
   5   2  -1  131.80    2.85   3
   5   2  -1  136.87    2.77   2
  -4   2   1  555.44    9.49   3
   4  -2  -1  560.41    8.59   2
   4   2  -1  573.66    9.51   3
  -4  -2   1  548.49    8.66   4
   4  -2  -1  554.10    8.65   1
   4   2  -1  551.13    8.75   2
   4  -2  -1  554.40    8.75   4
   4   2  -1  555.02    8.65   1
  -3   2   1  978.09   16.02   3
   3  -2  -1  969.84   14.59   4
   3   2  -1  993.27   16.03   3
   3   2  -1  964.06   14.36   1
   3   2  -1  954.86   14.57   2
  -3  -2   1  976.11   14.52   4
   3  -2  -1  970.25   14.37   1
   3  -2  -1  959.75   14.45   2
  -2   2   1  156.92    2.63   4
  -2  -2   1  156.51    2.55   4
   2   2  -1  157.72    2.73   3
  -2   2   1  156.30    2.76   3
   2  -2  -1  156.01    2.50   2
   2   2  -1  154.46    2.60   1
   2   2  -1  152.91    2.60   2
   2  -2  -1  153.11    2.58   1
   1   2  -1 1132.90   16.74   2
   1   2  -1 1173.99   16.48   1
  -1   2   1 1127.00   18.76   3
  -1   2   1 1111.25   16.74   4
   1   2  -1 1093.07   19.08   3
   1  -2  -1 1139.10   16.84   2
  -1  -2   1 1140.73   16.80   4
   0   2   1  592.32    8.85   4
   0  -2  -1  571.64    8.74   1
   0   2   1  593.95    9.79   3
   0  -2  -1  580.38    8.82   2
   0   2  -1  591.48    9.79   3
   0  -2   1  583.43    8.75   1
   0   2  -1  602.59    8.85   2
   0  -2   1  599.08    8.84   4
  -1  -2  -1  718.03   10.49   1
   1   2   1  699.95   10.66   4
   1  -2   1  707.63   10.71   4
  -1  -2  -1  691.88   10.68   2
   1  -2   1  730.57   11.89   3
   1   2   1  715.16   11.87   3
  -1   2  -1  725.77   10.67   2
   1  -2   1  726.41   10.50   1
   2  -2   1  410.76    6.26   1
   2  -2   1  424.76    7.24   3
   2   2   1  418.18    6.42   4
   2   2   1  410.84    7.21   3
  -2   2  -1  408.17    6.35   2
   2  -2   1  425.60    6.53   4
   2   2   1  416.34    6.50   2
   2   2   1  415.49    6.26   1
   3   2   1   25.46    1.03   3
   3   2   1   27.73    0.93   2
   3   2   1   28.91    0.85   1
   3  -2   1   28.66    0.87   1
   3  -2   1   29.99    1.08   3
  -3   2  -1   28.60    0.83   2
   3  -2   1   30.63    1.00   4
   3   2   1   29.39    0.91   4
   4   2   1  123.06    2.84   3
   4   2   1  121.77    2.47   4
   4   2   1  125.10    2.56   2
  -4   2  -1  124.00    2.39   2
   4   2   1  122.83    2.43   1
   4  -2   1  127.42    2.42   1
   4  -2   1  127.01    2.60   4
   5  -2   1  192.24    3.73   4
  -5   2  -1  188.20    4.06   3
   5   2   1  184.21    4.09   3
   5   2   1  189.38    3.52   1
   5  -2   1  189.66    3.51   1
   5   2   1  187.21    3.58   4
   6   2   1  171.01    3.48   4
   6  -2   1  168.96    3.61   4
   6   2   1  164.74    3.96   3
  -6   2  -1  167.44    3.96   3
   7  -2   1   44.77    1.81   4
  -7   3   1   84.74    2.45   4
   7   3  -1   90.32    2.48   2
   7  -3  -1   91.56    2.50   1
   6   3  -1   75.76    2.06   1
  -6   3   1   74.49    2.08   4
   6  -3  -1   78.16    2.10   1
   6   3  -1   75.25    2.05   2
   5  -3  -1  142.12    2.86   1
   5   3  -1  136.53    2.93   3
   5  -3  -1  140.41    2.87   4
   5   3  -1  137.11    2.86   2
   5  -3  -1  142.91    2.65   2
  -5  -3   1  136.59    2.72   4
  -5   3   1  135.18    2.94   3
   5   3  -1  137.61    2.87   1
   4   3  -1    0.09    0.33   1
   4   3  -1    1.36    0.36   2
  -4   3   1    0.02    0.28   3
   4   3  -1   -0.50    0.29   3
  -4  -3   1    0.34    0.28   4
   4  -3  -1    1.37    0.37   4
   4  -3  -1    1.00    0.28   2
   4  -3  -1   -0.10    0.32   1
   3   3  -1  167.94    3.11   3
   3  -3  -1  168.31    2.78   2
   3   3  -1  169.74    2.97   1
   3   3  -1  172.29    3.00   2
  -3   3   1  169.21    3.14   3
   3  -3  -1  164.98    2.95   1
  -3  -3   1  170.70    2.87   4
   3  -3  -1  171.71    3.00   4
   2   3  -1    4.57    0.35   3
   2   3  -1    4.39    0.38   2
   2  -3  -1    4.12    0.39   1
   2  -3  -1    4.82    0.27   2
   2  -3  -1    4.68    0.40   4
  -2  -3   1    5.00    0.35   4
   2   3  -1    4.96    0.40   1
  -1  -3   1 3205.68   45.53   1
  -1  -3   1 3043.90   46.59   4
  -1  -3   1 3170.84   52.21   5
   1  -3  -1 3109.78   46.77   2
  -1   3   1 3265.41   46.41   4
  -1   3   1 3158.87   51.61   3
   1   3  -1 3218.96   46.35   2
   1   3  -1 3180.61   51.94   3
   1  -3  -1 3105.23   45.51   1
   0   3   1 6115.60   91.79   4
   0  -3   1 5964.75   89.58   1
   0  -3  -1 6492.95   90.99   2
   0   3  -1 6102.30   91.30   2
   0  -3   1 6337.45   91.01   4
   0   3   1 6452.90  100.83   3
   0   3  -1 6042.71  100.76   3
   0  -3  -1 6137.28   89.68   1
  -1  -3  -1 4220.33   61.33   1
   1   3   1 4363.41   68.98   3
   1  -3   1 4243.55   61.33   1
   1   3   1 4520.64   62.25   2
  -1   3  -1 4196.11   62.63   2
  -1   3  -1 4062.90   68.89   3
   1  -3   1 4262.68   62.20   4
   1   3   1 4179.85   62.58   4
  -2  -3  -1  281.47    5.05   5
   2   3   1  284.32    4.48   4
   2   3   1  285.47    5.12   3
  -2   3  -1  286.28    4.43   2
  -2  -3  -1  282.44    4.40   1
   2   3   1  282.79    4.62   2
   2  -3   1  284.56    4.41   1
   2  -3   1  288.92    4.65   4
  -2   3  -1  285.47    5.09   3
  -3   3  -1  844.72   12.66   2
  -3  -3  -1  856.74   14.37   5
   3  -3   1  845.44   12.93   4
   3  -3   1  840.49   12.52   1
   3   3   1  844.34   12.90   2
  -3  -3  -1  861.45   12.53   1
   3   3   1  840.12   12.73   4
  -3   3  -1  820.03   14.23   3
   3   3   1  842.65   14.28   3
   4   3   1   11.51    0.85   3
   4   3   1   14.77    0.83   2
  -4   3  -1   10.97    0.87   3
   4  -3   1   13.40    0.84   4
   4   3   1   12.87    0.74   4
  -4   3  -1   11.39    0.66   2
  -4  -3  -1   11.17    0.78   5
  -4  -3  -1   10.55    0.70   1
   4  -3   1   10.90    0.73   1
   5  -3   1   33.22    1.22   1
   5   3   1   33.14    1.17   4
   5   3   1   31.25    1.39   3
   5   3   1   33.99    1.30   2
   5  -3   1   36.30    1.33   4
  -5   3  -1   32.99    1.43   3
   6  -3   1   12.07    1.01   4
  -6   3  -1   11.24    1.18   3
  -6  -3  -1   11.23    1.08   2
   6   3   1   10.30    1.11   3
   7  -3   1   49.80    1.92   4
   7   4  -1    3.02    0.75   2
  -7  -4   1    2.23    0.74   5
  -7  -4   1    4.68    0.75   1
  -7   4   1    3.20    0.76   4
   7  -4  -1    2.89    0.74   1
   6   4  -1  119.98    2.73   1
   6   4  -1  113.60    2.70   2
  -6   4   1  111.62    2.72   4
   6  -4  -1  118.00    2.71   1
  -5   4   1   38.13    1.32   3
  -5  -4   1   38.72    1.21   4
   5   4  -1   40.95    1.31   3
   5   4  -1   40.53    1.37   1
   5   4  -1   39.61    1.36   2
   5  -4  -1   40.29    1.36   4
   5  -4  -1   40.11    1.35   1
   4   4  -1  876.99   13.06   1
   4  -4  -1  857.72   13.25   4
   4   4  -1  849.92   13.26   2
   4  -4  -1  888.00   12.96   2
   4  -4  -1  851.96   13.02   1
   4   4  -1  878.82   14.46   3
  -4  -4   1  844.55   13.04   4
  -4   4   1  851.94   14.46   3
   3   4  -1  743.89   11.23   2
  -3   4   1  753.14   12.28   3
   3   4  -1  743.55   12.23   3
   3  -4  -1  711.39   11.00   1
   3   4  -1  721.88   11.02   1
  -3  -4   1  734.81   11.03   4
   3  -4  -1  733.51   10.96   2
   3  -4  -1  724.71   11.20   4
  -2   4   1  128.21    2.40   3
   2   4  -1  125.95    2.26   2
   2  -4  -1  126.49    2.25   4
  -2  -4   1  126.33    2.10   4
   2  -4  -1  127.86    2.24   1
  -2  -4   1  126.35    2.55   5
   2  -4  -1  127.33    2.04   2
  -2  -4   1  128.45    2.23   1
   2   4  -1  128.34    2.34   3
   1   4  -1  463.09    7.82   3
  -1   4   1  468.03    7.08   4
  -1  -4   1  467.37    6.98   1
   1  -4  -1  462.59    7.03   2
   1   4  -1  471.72    7.09   2
   1  -4  -1  461.07    6.98   1
  -1   4   1  470.25    7.85   3
  -1  -4   1  472.81    7.04   4
   0   4  -1 1345.63   21.63   3
   0   4   1 1290.82   21.61   3
   0   4  -1 1332.35   19.54   2
   0   4   1 1341.84   19.65   4
   0  -4  -1 1273.90   19.14   1
   0  -4   1 1332.57   19.51   4
   0  -4  -1 1331.64   19.49   2
   0  -4   1 1309.09   19.17   1
   1  -4   1 1460.86   21.19   1
  -1  -4  -1 1443.94   21.19   1
  -1   4  -1 1463.65   23.94   3
   1  -4   1 1468.02   21.61   4
   1   4   1 1491.40   21.63   2
  -1   4  -1 1489.39   21.69   2
   1   4   1 1435.87   23.94   3
   1   4   1 1443.72   21.68   4
   2  -4   1 1740.00   25.07   1
   2   4   1 1751.17   25.50   4
  -2   4  -1 1739.60   28.38   3
   2  -4   1 1730.69   25.64   4
   2   4   1 1709.52   28.38   3
  -2  -4  -1 1716.43   25.05   1
  -2   4  -1 1727.96   25.49   2
   2   4   1 1729.53   25.63   2
  -3   4  -1    0.26    0.33   3
   3   4   1    1.31    0.33   2
   3  -4   1    1.47    0.35   4
  -3  -4  -1    0.39    0.29   5
   3   4   1    1.10    0.27   4
  -3  -4  -1    0.67    0.29   1
   3  -4   1    0.15    0.25   1
   3   4   1    0.11    0.32   3
  -4  -4  -1  381.38    7.07   5
   4  -4   1  382.27    6.47   4
  -4  -4  -1  385.20    6.17   1
   4   4   1  381.61    6.20   4
  -4   4  -1  384.80    7.10   3
   4   4   1  387.73    7.14   3
   4  -4   1  384.99    6.18   1
   4   4   1  394.56    6.50   2
  -5   4  -1   33.83    1.44   3
   5   4   1   35.63    1.34   2
   5  -4   1   35.53    1.24   1
   5  -4   1   34.42    1.33   4
   5   4   1   34.69    1.17   4
   5   4   1   34.90    1.43   3
   6  -4   1  148.77    3.37   4
  -6   4  -1  148.99    3.66   3
  -6  -4  -1  148.87    3.35   2
   6   4   1  152.64    3.72   3
  -7  -5   1   92.92    2.54   1
  -7  -5   1   95.78    2.98   5
   7   5  -1   93.94    2.61   2
  -7   5   1   93.43    2.60   4
   7  -5  -1   95.78    2.60   1
  -6  -5   1   28.61    1.27   1
  -6   5   1   26.98    1.25   4
  -6  -5   1   25.88    1.44   5
   6   5  -1   24.68    1.21   2
   6  -5  -1   26.11    1.22   1
  -5   5   1   90.32    2.21   3
   5   5  -1   88.99    2.16   3
   5  -5  -1   91.46    2.18   4
  -5  -5   1   87.08    2.43   5
   5  -5  -1   90.74    2.14   1
  -5  -5   1   87.92    2.12   1
   5   5  -1   88.52    2.18   2
  -4  -5   1    0.52    0.27   4
  -4  -5   1    0.59    0.34   1
  -4  -5   1    0.43    0.35   5
   4  -5  -1    0.23    0.32   1
  -4   5   1    0.29    0.33   3
   4  -5  -1    0.43    0.23   2
   4   5  -1    0.36    0.34   2
   4   5  -1    0.64    0.32   3
   4  -5  -1    0.95    0.37   4
  -3  -5   1  755.22   11.10   4
   3   5  -1  740.59   11.34   2
   3   5  -1  738.21   12.34   3
   3  -5  -1  727.35   11.30   4
  -3   5   1  750.50   12.41   3
  -3  -5   1  733.54   12.75   5
   3  -5  -1  736.71   11.02   2
  -3  -5   1  735.03   11.12   1
   3  -5  -1  732.05   11.12   1
   2   5  -1  586.07    8.98   2
   2  -5  -1  596.71    8.84   1
  -2  -5   1  589.63   10.13   5
  -2  -5   1  585.74    8.82   1
   2  -5  -1  585.33    8.95   4
   2   5  -1  579.77    9.79   3
  -2   5   1  586.17    9.86   3
  -2  -5   1  586.11    8.80   4
  -1   5   1 4538.87   75.46   3
  -1   5   1 4968.52   68.19   4
   1  -5  -1 4521.38   66.80   1
  -1  -5   1 4818.70   68.67   4
   1   5  -1 4648.47   68.04   2
   1   5  -1 4460.16   75.51   3
   0   5  -1  418.59    7.11   3
   0  -5  -1  425.44    6.39   2
   0  -5   1  401.47    6.36   4
   0   5  -1  428.28    6.35   2
   0  -5   1  420.73    6.31   1
   0   5   1  417.30    6.34   4
   0  -5  -1  425.55    6.30   1
   0   5   1  416.37    7.12   3
   1   5   1  473.99    7.41   2
   1   5   1  481.84    7.27   4
  -1   5  -1  493.78    7.26   2
   1   5   1  480.19    8.20   3
   1  -5   1  473.08    7.20   1
  -1  -5  -1  476.57    7.20   1
  -1   5  -1  492.99    8.21   3
   1  -5   1  479.25    7.40   4
  -2   5  -1  542.77    9.23   3
   2   5   1  536.29    9.23   3
  -2   5  -1  534.83    8.07   2
   2  -5   1  534.96    8.36   4
   2   5   1  515.28    8.35   2
   2   5   1  545.56    8.11   4
  -2  -5  -1  545.45    8.09   1
   2  -5   1  544.20    8.09   1
   3   5   1  904.19   13.32   4
  -3   5  -1  901.83   15.05   3
  -3   5  -1  891.96   13.25   2
   3   5   1  881.36   13.62   2
   3   5   1  887.82   15.04   3
  -3  -5  -1  872.86   13.19   1
   3  -5   1  884.37   13.63   4
   3  -5   1  882.37   13.20   1
  -4  -5  -1    0.59    0.38   5
   4   5   1    1.06    0.45   3
  -4   5  -1    1.04    0.49   3
   4  -5   1    2.37    0.48   4
   4   5   1    2.41    0.47   2
   4   5   1    2.27    0.38   4
  -4  -5  -1    0.80    0.39   1
   4  -5   1    1.05    0.37   1
   5  -5   1   20.66    1.00   1
   5   5   1   21.23    1.09   2
   5  -5   1   21.14    1.09   4
  -5   5  -1   21.38    1.18   3
   5   5   1   19.45    1.10   3
  -6  -5  -1    3.79    0.72   2
   6   5   1    3.04    0.72   3
   6  -5   1    4.20    0.73   4
  -6   5  -1    2.68    0.76   3
  -7  -6   1    2.45    0.72   1
   7   6  -1    2.10    0.75   2
  -7  -6   1    1.41    0.75   5
   7  -6  -1    2.24    0.70   1
  -7   6   1    2.38    0.72   4
  -6  -6   1   33.22    1.40   1
  -6   6   1   34.33    1.41   4
  -6  -6   1   32.40    1.63   5
   6  -6  -1   35.55    1.43   1
   6   6  -1   32.90    1.40   2
  -5  -6   1   17.76    1.14   5
   5  -6  -1   19.25    1.01   4
   5   6  -1   18.82    0.95   3
  -5   6   1   18.89    1.00   3
   5   6  -1   19.45    1.03   2
   5  -6  -1   16.86    0.97   1
  -5  -6   1   19.46    1.01   1
   4  -6  -1  399.62    6.57   1
  -4  -6   1  406.35    6.37   4
  -4  -6   1  408.53    6.58   1
   4   6  -1  400.96    7.15   3
  -4   6   1  410.98    7.24   3
  -4  -6   1  410.95    7.55   5
   4   6  -1  408.27    6.74   2
   4  -6  -1  399.17    6.68   4
  -3   6   1  496.49    8.55   3
  -3  -6   1  496.08    8.84   5
  -3  -6   1  496.41    7.54   4
  -3  -6   1  489.43    7.70   1
   3   6  -1  497.35    7.87   2
   3   6  -1  501.63    8.48   3
   3  -6  -1  499.22    7.83   4
   3  -6  -1  493.28    7.71   1
   2   6  -1   -0.07    0.20   2
   2  -6  -1    0.19    0.19   1
   2  -6  -1    0.28    0.20   4
  -2  -6   1    0.23    0.14   4
  -2   6   1    0.11    0.20   3
   2   6  -1    0.02    0.17   3
  -2  -6   1   -0.21    0.19   1
  -1  -6   1    1.91    0.25   1
   1  -6  -1    1.35    0.15   2
   1   6  -1    1.20    0.21   2
  -1   6   1    1.39    0.21   4
  -1   6   1    0.99    0.22   3
  -1  -6   1    1.31    0.16   4
   0   6  -1 2554.83   42.37   3
   0  -6   1 2525.10   37.54   1
   0   6  -1 2737.95   38.31   2
   0  -6  -1 2502.98   37.52   1
   0  -6   1 2626.31   38.24   4
   0  -6  -1 2629.52   38.22   2
   0   6   1 2668.80   38.50   4
   1  -6   1  146.56    2.46   1
   1  -6   1  147.48    2.55   4
   1   6   1  148.17    2.84   3
   1   6   1  139.22    2.54   2
  -1  -6  -1  143.34    2.46   1
  -1   6  -1  147.75    2.84   3
  -2   6  -1  696.01   11.79   3
  -2  -6  -1  694.87   10.36   1
   2   6   1  699.32   11.79   3
   2   6   1  703.38   10.38   4
   2   6   1  681.04   10.67   2
   2  -6   1  688.88   10.67   4
   2  -6   1  694.34   10.36   1
   3  -6   1    7.62    0.67   4
   3  -6   1    6.54    0.48   1
   3   6   1    5.77    0.56   3
  -3  -6  -1    6.43    0.60   1
  -3   6  -1    6.37    0.58   3
   3   6   1    9.34    0.67   2
   3   6   1    6.48    0.54   4
  -4  -6  -1   10.00    0.71   1
   4   6   1   12.39    0.86   2
  -4   6  -1   10.08    0.88   3
   4   6   1    9.61    0.91   3
   4  -6   1   13.02    0.88   4
   4   6   1   11.15    0.64   4
   4  -6   1    8.38    0.74   1
   5   6   1  100.87    2.69   3
   5  -6   1  105.46    2.34   1
   5   6   1   98.77    2.50   2
   5  -6   1  100.71    2.49   4
  -5   6  -1  102.23    2.70   3
  -6  -6  -1  122.13    3.01   2
   6   6   1  127.86    3.30   3
  -6   6  -1  123.59    3.26   3
   6  -6   1  118.52    2.98   4
  -7   7   1   94.09    2.69   4
   7   7  -1   95.83    2.73   2
  -7  -7   1  100.16    3.09   5
   7  -7  -1   97.56    2.62   1
  -7  -7   1   98.34    2.66   1
   6   7  -1  182.73    3.88   2
  -6   7   1  177.05    3.86   4
   6  -7  -1  188.78    3.80   1
  -6  -7   1  183.84    4.34   5
  -6  -7   1  187.31    3.79   1
   5   7  -1    9.78    0.89   3
   5   7  -1   12.64    0.93   2
   5  -7  -1   11.04    0.86   1
  -5  -7   1    9.73    1.01   5
  -5   7   1   11.88    0.91   3
   5  -7  -1   13.53    0.93   4
  -5  -7   1   11.10    0.89   1
   4  -7  -1   26.10    1.05   1
   4   7  -1   28.24    1.12   2
   4   7  -1   24.63    0.98   3
   4  -7  -1   26.78    1.08   4
  -4   7   1   26.84    1.07   3
  -4  -7   1   23.12    1.18   5
  -4  -7   1   25.73    1.05   1
   3  -7  -1   38.10    1.12   1
   3  -7  -1   37.77    1.12   4
  -3  -7   1   34.90    1.10   1
   3   7  -1   35.07    1.14   2
  -3   7   1   35.37    1.15   3
  -3  -7   1   36.99    0.86   4
   3   7  -1   37.03    1.10   3
   2   7  -1   87.55    1.77   2
  -2  -7   1   85.36    1.46   4
   2  -7  -1   84.64    1.71   4
   2  -7  -1   85.72    1.75   1
  -2   7   1   87.98    1.91   3
  -2  -7   1   86.94    1.76   1
   2   7  -1   87.65    1.85   3
   1   7  -1  767.71   12.98   3
  -1  -7   1  783.69   11.56   1
   1   7  -1  782.92   11.70   2
  -1  -7   1  782.44   11.61   4
   1  -7  -1  782.23   11.56   1
   1  -7  -1  776.96   11.60   2
  -1   7   1  781.68   13.03   3
  -1   7   1  771.90   11.66   4
   0  -7   1    9.95    0.55   1
   0  -7   1    9.62    0.47   4
   0   7   1   10.13    0.62   3
   0   7  -1    9.92    0.58   3
   0   7   1   10.21    0.39   4
   0   7  -1    8.40    0.42   2
   0  -7  -1   11.02    0.48   2
  -1  -7  -1  719.88   10.62   1
   1  -7   1  714.61   10.60   1
   1  -7   1  683.92   10.79   4
   1   7   1  714.94   10.84   2
  -1   7  -1  716.60   12.02   3
   1   7   1  723.18   12.02   3
   2   7   1 1235.16   19.04   2
   2  -7   1 1286.12   18.60   1
   2  -7   1 1278.06   19.03   4
  -2   7  -1 1271.26   21.08   3
  -2  -7  -1 1287.58   18.59   1
   2   7   1 1254.59   21.05   3
   3   7   1  654.58   11.28   3
   3   7   1  655.32   10.26   2
   3  -7   1  650.82   10.24   4
  -3   7  -1  637.69   11.26   3
   3  -7   1  648.37    9.89   1
  -3  -7  -1  642.84    9.87   1
   3   7   1  652.89    9.78   4
  -4   7  -1  255.48    5.21   3
  -4  -7  -1  265.32    4.55   1
   4   7   1  266.42    4.85   2
   4   7   1  264.42    5.25   3
   4  -7   1  267.01    4.82   4
   4  -7   1  265.52    4.54   1
   5  -7   1   18.71    1.02   1
  -5   7  -1   18.83    1.21   3
   5   7   1   17.32    1.14   3
   5  -7   1   18.77    1.07   4
   5   7   1   19.63    1.14   2
   6  -7   1    2.79    0.70   4
  -6  -7  -1    2.74    0.71   2
   6   7   1    3.71    0.75   3
  -6   7  -1    2.01    0.72   3
   7  -8  -1    3.52    0.73   1
   7   8  -1    3.61    0.81   2
  -7   8   1    3.20    0.79   4
  -7  -8   1    3.43    0.80   1
   6   8  -1   13.68    1.04   2
  -6  -8   1   12.37    1.10   1
  -6   8   1   14.90    1.04   4
   6  -8  -1   12.89    0.99   1
  -5  -8   1  360.77    6.21   1
   5   8  -1  368.19    6.73   3
  -5  -8   1  366.23    7.14   5
   5  -8  -1  356.90    6.19   1
  -5   8   1  362.54    6.80   3
  -4   8   1  471.26    8.36   3
   4   8  -1  471.96    8.26   3
  -4  -8   1  463.07    7.53   1
   4  -8  -1  467.27    7.55   1
   4   8  -1  467.43    7.74   2
   4  -8  -1  470.17    7.68   4
   3  -8  -1  757.29   11.40   1
  -3   8   1  743.14   12.71   3
   3  -8  -1  749.12   11.53   4
  -3  -8   1  747.55   11.37   1
   3   8  -1  747.68   12.61   3
   3   8  -1  739.61   11.59   2
   2   8  -1  134.01    2.66   3
  -2   8   1  137.25    2.76   3
  -2  -8   1  130.92    2.47   1
   2  -8  -1  129.72    2.47   1
   2   8  -1  133.72    2.50   2
   2  -8  -1  134.35    2.44   4
  -1  -8   1  322.96    5.00   1
   1   8  -1  314.38    5.55   3
  -1   8   1  312.26    5.60   3
   1   8  -1  315.50    4.98   2
   1  -8  -1  312.13    4.98   1
   1  -8  -1  301.38    4.80   2
  -1  -8   1  312.73    4.80   4
  -1   8   1  313.95    4.93   4
   0   8   1  938.81   15.68   3
   0  -8   1  926.41   14.00   4
   0   8  -1  953.25   13.98   2
   0  -8  -1  930.21   13.87   1
   0  -8  -1  948.79   14.03   2
   0  -8   1  934.37   13.88   1
   0   8   1  932.64   13.96   4
   0   8  -1  954.81   15.68   3
  -1  -8  -1  776.01   11.57   1
   1  -8   1  763.67   11.55   1
   1   8   1  770.65   13.08   3
   1   8   1  781.60   11.80   2
   1  -8   1  780.60   11.77   4
  -1   8  -1  781.34   13.10   3
  -2   8  -1  377.03    6.71   3
   2  -8   1  374.42    5.86   1
  -2  -8  -1  369.84    5.85   1
   2  -8   1  366.36    6.03   4
   2   8   1  366.36    6.65   3
   2   8   1  366.98    6.07   2
   3   8   1   37.61    1.35   3
   3  -8   1   34.05    1.21   4
   3  -8   1   34.70    1.10   1
  -3   8  -1   33.64    1.33   3
  -3  -8  -1   33.65    1.12   1
   3   8   1   36.22    1.23   2
   4  -8   1   10.10    0.82   1
  -4   8  -1    9.69    0.93   3
   4   8   1   11.28    0.91   2
   4   8   1   10.89    0.96   3
  -4  -8  -1   10.72    0.80   1
   4  -8   1   11.44    0.90   4
   5  -8   1  339.55    6.30   4
   5   8   1  353.74    6.38   2
   5  -8   1  356.96    6.02   1
  -5   8  -1  350.85    6.90   3
   5   8   1  353.69    6.91   3
   6  -8   1   91.16    2.56   4
  -6   8  -1   92.41    2.77   3
   6   8   1   93.78    2.76   3
  -7  -9   1   22.65    1.42   1
   7  -9  -1   23.90    1.36   1
   7   9  -1   21.43    1.38   2
  -7   9   1   21.50    1.36   4
  -6  -9   1  127.61    3.01   1
   6  -9  -1  128.76    2.99   1
  -6   9   1  128.35    3.11   4
   6   9  -1  129.93    3.12   2
   5   9  -1   22.68    1.19   2
  -5  -9   1   24.37    1.18   1
   5  -9  -1   26.51    1.22   4
   5   9  -1   24.52    1.18   3
   5  -9  -1   24.28    1.17   1
  -5   9   1   27.24    1.28   3
   4   9  -1    4.60    0.58   2
   4  -9  -1    5.60    0.56   1
  -4   9   1    5.14    0.60   3
  -4  -9   1    5.60    0.59   1
   4  -9  -1    5.27    0.59   4
   4   9  -1    5.12    0.53   3
   3  -9  -1   47.94    1.33   4
   3  -9  -1   49.69    1.36   1
  -3   9   1   46.80    1.45   3
   3   9  -1   46.51    1.36   2
  -3  -9   1   46.12    1.34   1
   3   9  -1   48.05    1.36   3
  -2  -9   1 1296.08   19.45   1
   2  -9  -1 1274.90   19.69   4
   2  -9  -1 1360.87   19.50   1
   2   9  -1 1320.15   21.84   3
  -2   9   1 1337.68   21.94   3
   2   9  -1 1340.63   19.80   2
   1   9  -1  518.35    8.88   3
  -1   9   1  511.79    8.92   3
   1  -9  -1  516.58    7.92   1
   1   9  -1  518.43    7.96   2
   1  -9  -1  502.29    7.77   2
  -1  -9   1  522.36    7.77   4
  -1   9   1  522.28    7.90   4
  -1  -9   1  510.39    7.92   1
   0   9  -1  237.49    4.48   3
   0  -9   1  242.66    3.87   4
   0   9   1  238.80    3.75   4
   0   9   1  237.98    4.48   3
   0  -9   1  238.57    3.97   1
   0   9  -1  243.92    3.84   2
   0  -9  -1  244.15    3.98   1
   1  -9   1    2.10    0.32   1
  -1   9  -1    1.39    0.34   3
  -1  -9  -1    1.62    0.32   1
  -2  -9  -1  357.75    5.72   1
   2   9   1  358.20    6.50   3
   2  -9   1  351.86    5.70   1
  -2   9  -1  356.52    6.53   3
   2  -9   1  357.32    5.87   4
   2   9   1  356.38    5.92   2
   3   9   1  470.32    8.42   3
   3   9   1  463.79    7.69   2
  -3  -9  -1  463.31    7.37   1
  -3   9  -1  463.42    8.44   3
   3  -9   1  467.28    7.40   1
   3  -9   1  468.25    7.65   4
   4   9   1  254.96    5.12   3
   4  -9   1  244.78    4.67   4
   4  -9   1  253.10    4.45   1
  -4  -9  -1  250.92    4.44   1
   4   9   1  252.83    4.75   2
  -4   9  -1  251.11    5.12   3
   5  -9   1   59.27    1.75   1
   5  -9   1   54.85    1.85   4
   5   9   1   61.52    2.06   3
  -5   9  -1   55.89    2.01   3
   5   9   1   61.07    1.96   2
   6   9   1   34.92    1.67   3
   6  -9   1   36.94    1.58   4
  -6   9  -1   32.85    1.69   3
   7  10  -1  109.12    3.03   2
  -7 -10   1  109.80    2.93   1
   7 -10  -1  107.48    2.89   1
  -7  10   1  105.88    2.98   4
  -6 -10   1    9.63    0.94   1
   6 -10  -1    9.20    0.88   1
  -6  10   1   10.02    0.97   4
   6  10  -1   10.03    0.97   2
   5  10  -1   87.55    2.31   3
   5 -10  -1   88.68    2.24   1
   5 -10  -1   87.86    2.27   4
  -5  10   1   86.29    2.37   3
  -5 -10   1   89.37    2.26   1
   5  10  -1   81.56    2.28   2
  -4  10   1    2.01    0.49   3
   4 -10  -1    2.93    0.53   4
   4  10  -1    2.34    0.51   2
   4  10  -1    2.50    0.46   3
  -4 -10   1    2.83    0.50   1
   4 -10  -1    3.31    0.49   1
   3  10  -1  157.80    3.07   2
   3 -10  -1  158.98    2.99   4
  -3 -10   1  153.53    2.99   1
  -3  10   1  154.71    3.30   3
   3 -10  -1  154.28    3.00   1
   3  10  -1  153.73    3.18   3
  -2  10   1    0.49    0.34   3
   2  10  -1    2.14    0.38   3
   2 -10  -1    0.43    0.30   1
  -2 -10   1    0.39    0.31   1
   2 -10  -1    1.12    0.32   4
   2  10  -1    0.35    0.31   2
  -1 -10   1   86.85    1.54   4
  -1 -10   1   87.50    1.86   1
   1  10  -1   87.73    2.04   3
   1 -10  -1   87.90    1.85   1
   1 -10  -1   86.46    1.58   2
   1  10  -1   87.87    1.78   2
  -1  10   1   88.00    1.70   4
  -1  10   1   88.53    2.08   3
   0  10   1   43.95    0.91   4
   0  10  -1   44.74    1.34   3
   0  10  -1   44.72    1.02   2
   0 -10   1   45.09    1.04   4
   0 -10  -1   45.64    1.20   1
   0 -10   1   47.13    1.22   1
   0  10   1   44.67    1.34   3
   1  10   1 1297.72   19.38   2
   1 -10   1 1289.70   19.32   4
   1 -10   1 1251.68   19.03   1
  -1 -10  -1 1317.41   19.09   1
   1  10   1 1326.05   21.55   3
  -1  10  -1 1277.54   21.53   3
  -2  10  -1  317.34    5.93   3
   2  10   1  318.90    5.38   2
   2  10   1  318.53    5.91   3
   2 -10   1  312.17    5.18   1
  -2 -10  -1  314.87    5.19   1
   2 -10   1  313.54    5.31   4
   3  10   1   22.91    1.06   2
   3  10   1   22.37    1.17   3
   3 -10   1   21.43    0.97   1
   3 -10   1   22.88    1.06   4
  -3 -10  -1   21.59    1.00   1
  -3  10  -1   21.69    1.18   3
   4 -10   1    4.17    0.55   1
   4 -10   1    4.61    0.65   4
   4  10   1    5.01    0.67   2
   4  10   1    5.32    0.65   3
  -4  10  -1    4.40    0.66   3
  -4 -10  -1    3.91    0.55   1
  -5  10  -1  113.71    3.12   3
   5  10   1  119.11    2.96   2
   5 -10   1  115.58    2.89   4
   5  10   1  124.24    3.17   3
   5 -10   1  122.24    2.72   1
  -6  10  -1    0.03    0.69   3
   6 -10   1    1.38    0.63   4
   6  10   1    0.64    0.64   3
   6  10   1    0.65    0.61   2
  -6  11   1   59.16    1.98   4
  -6 -11   1   57.15    1.95   1
   6  11  -1   56.31    1.97   2
   6 -11  -1   52.07    1.83   1
   5  11  -1    4.65    0.71   2
  -5 -11   1    5.83    0.72   1
   5 -11  -1    5.29    0.67   1
  -5  11   1    6.00    0.73   3
   5 -11  -1    6.21    0.74   4
   5  11  -1    5.57    0.67   3
   4 -11  -1   11.18    0.85   4
   4  11  -1   10.21    0.87   2
   4  11  -1   10.71    0.89   3
  -4  11   1   10.36    0.94   3
  -4 -11   1   10.14    0.86   1
   4 -11  -1    9.59    0.80   1
   3  11  -1  107.19    2.40   2
  -3 -11   1  109.07    2.35   1
  -3  11   1  109.39    2.60   3
   3  11  -1  106.53    2.47   3
   3 -11  -1  108.96    2.36   1
   3 -11  -1  108.32    2.31   4
   2 -11  -1  671.57   10.49   4
  -2  11   1  685.61   11.80   3
   2 -11  -1  690.53   10.51   1
   2  11  -1  688.44   10.62   2
   2  11  -1  677.51   11.68   3
  -2 -11   1  676.93   10.48   1
  -1 -11   1   34.28    1.11   1
  -1  11   1   33.33    1.23   3
  -1  11   1   32.20    0.91   4
  -1 -11   1   33.74    0.77   4
   1  11  -1   31.84    0.98   2
   1 -11  -1   34.57    1.09   1
   1  11  -1   33.74    1.19   3
   1 -11  -1   32.88    0.81   2
   0  11  -1  364.34    5.62   2
   0  11   1  351.68    5.48   4
   0  11  -1  361.09    6.51   3
   0 -11  -1  357.97    5.77   1
   0  11   1  356.82    6.52   3
   0 -11   1  349.39    5.61   4
   0 -11   1  359.96    5.78   1
  -1  11  -1  160.52    3.39   3
  -1 -11  -1  162.17    3.00   1
   1  11   1  164.03    3.40   3
   1 -11   1  155.22    2.90   4
   1 -11   1  161.19    2.98   1
   1  11   1  165.70    3.01   2
   2 -11   1  200.39    3.73   4
   2  11   1  204.54    4.18   3
  -2 -11  -1  210.02    3.72   1
   2 -11   1  205.71    3.68   1
  -2  11  -1  208.96    4.24   3
   2  11   1  211.36    3.84   2
  -3  11  -1  512.88    9.34   3
   3 -11   1  516.90    8.43   4
   3  11   1  510.52    8.49   2
   3  11   1  512.66    9.29   3
   3 -11   1  516.80    8.19   1
  -3 -11  -1  517.77    8.19   1
   4 -11   1   77.90    2.11   4
   4  11   1   76.55    2.27   3
   4 -11   1   77.61    1.97   1
  -4 -11  -1   78.91    1.99   1
   4  11   1   75.97    2.15   2
  -4  11  -1   78.75    2.32   3
   5  11   1   36.80    1.66   3
   5 -11   1   34.13    1.42   1
   5  11   1   32.69    1.50   2
  -5  11  -1   36.89    1.71   3
   5 -11   1   35.13    1.49   4
   6 -11   1   14.44    1.14   4
  -6  11  -1   14.45    1.36   3
   6  11   1   14.61    1.27   3
  -6  12   1   27.58    1.42   4
  -6 -12   1   28.16    1.45   1
   6  12  -1   28.75    1.46   2
   6 -12  -1   28.22    1.40   1
   5  12  -1   42.52    1.57   3
   5 -12  -1   38.88    1.48   1
  -5  12   1   44.08    1.70   3
   5  12  -1   40.67    1.58   2
   5 -12  -1   42.35    1.58   4
  -5 -12   1   44.25    1.60   1
  -4 -12   1  412.42    6.96   1
   4  12  -1  407.11    7.13   2
   4 -12  -1  415.20    7.03   4
  -4  12   1  416.79    7.76   3
   4  12  -1  419.04    7.60   3
   3  12  -1  104.12    2.37   2
   3 -12  -1  102.51    2.33   1
  -3 -12   1  102.71    2.33   1
   3 -12  -1  102.22    2.25   4
  -3  12   1  101.18    2.56   3
   3  12  -1  103.43    2.45   3
   2  12  -1   55.17    1.48   2
  -2  12   1   53.51    1.66   3
   2 -12  -1   53.18    1.38   4
   2 -12  -1   56.49    1.53   1
   2  12  -1   55.53    1.60   3
  -2 -12   1   55.22    1.54   1
  -1  12   1  266.52    5.05   3
   1  12  -1  253.70    4.96   3
   1 -12  -1  264.18    4.49   1
   1 -12  -1  258.27    4.16   2
  -1  12   1  258.40    4.27   4
   1  12  -1  262.68    4.40   2
  -1 -12   1  262.31    4.51   1
   0 -12   1  737.42   11.20   1
   0  12  -1  743.33   11.10   2
   0 -12   1  718.90   11.08   4
   0 -12  -1  720.20   11.19   1
   0 -12  -1  749.17   11.17   2
   0  12  -1  742.51   12.64   3
   0  12   1  730.42   12.63   3
   0  12   1  720.81   10.96   4
   1  12   1  107.64    2.54   3
   1  12   1  105.85    2.21   2
   1 -12   1  108.32    2.24   1
  -1 -12  -1  104.94    2.24   1
  -1  12  -1  106.84    2.55   3
   1 -12   1  102.95    2.11   4
   2 -12   1    1.35    0.39   1
   2  12   1    1.02    0.40   3
  -2 -12  -1    0.72    0.40   1
   2  12   1    0.14    0.38   2
  -2  12  -1   -0.19    0.45   3
   2 -12   1    1.47    0.43   4
   3 -12   1   49.23    1.56   4
   3  12   1   48.51    1.61   2
  -3  12  -1   49.29    1.77   3
   3  12   1   49.65    1.73   3
   3 -12   1   49.32    1.49   1
  -3 -12  -1   51.47    1.56   1
   4  12   1   85.88    2.33   2
  -4 -12  -1   86.95    2.17   1
   4 -12   1   86.12    2.28   4
  -4  12  -1   88.19    2.53   3
   4 -12   1   82.43    2.11   1
   4  12   1   84.87    2.43   3
   5  12   1   71.28    2.34   3
   5  12   1   69.13    2.21   2
   5 -12   1   68.41    2.14   4
   5 -12   1   70.64    2.05   1
  -5  12  -1   68.95    2.36   3
   6  12   1   89.00    2.82   3
  -6  12  -1   88.26    2.85   3
  -6 -12  -1   84.35    2.62   2
   6 -12   1   86.22    2.60   4
   6 -13  -1   10.13    0.97   1
  -6  13   1    9.83    1.02   4
  -6 -13   1   10.51    0.99   1
   6  13  -1    7.16    0.97   2
   5 -13  -1   38.34    1.49   1
  -5  13   1   37.55    1.62   3
  -5 -13   1   38.11    1.53   1
   5 -13  -1   37.47    1.54   4
   5  13  -1   41.58    1.58   3
   5  13  -1   38.26    1.57   2
   4 -13  -1    6.10    0.70   4
  -4 -13   1    5.62    0.69   1
  -4  13   1    5.88    0.74   3
   4  13  -1    6.29    0.73   2
   4 -13  -1    5.01    0.65   1
   4  13  -1    5.40    0.67   3
  -3 -13   1  208.20    3.94   1
   3  13  -1  209.83    4.25   3
   3 -13  -1  207.17    3.86   4
  -3  13   1  213.55    4.41   3
   3  13  -1  208.42    4.00   2
   3 -13  -1  208.01    3.96   1
  -2  13   1    2.13    0.53   3
  -2 -13   1    1.14    0.41   1
   2  13  -1    0.84    0.38   3
   2 -13  -1    0.37    0.37   1
   2  13  -1    0.43    0.36   2
   1 -13  -1  239.63    3.89   2
  -1  13   1  241.10    4.77   3
   1  13  -1  234.55    4.12   2
  -1  13   1  242.32    4.00   4
   1  13  -1  240.45    4.70   3
  -1 -13   1  245.00    4.28   1
   1 -13  -1  235.08    4.23   1
   0  13   1    8.15    0.48   4
   0 -13   1    6.56    0.50   4
   0  13   1    9.99    0.84   3
   0  13  -1    9.64    0.88   3
   0  13  -1    6.35    0.53   2
  -1  13  -1   73.39    2.06   3
   1  13   1   73.97    2.04   3
   1 -13   1   74.38    1.81   1
  -1 -13  -1   75.91    1.83   1
   1  13   1   74.10    1.76   2
   1 -13   1   69.98    1.64   4
   2 -13   1  540.01    8.71   4
  -2 -13  -1  548.60    8.67   1
   2  13   1  551.79    8.84   2
   2 -13   1  526.62    8.60   1
  -2  13  -1  541.33    9.81   3
   2  13   1  547.71    9.75   3
   3  13   1  444.73    8.27   3
  -3 -13  -1  449.65    7.33   1
   3 -13   1  443.37    7.47   4
   3 -13   1  441.97    7.31   1
  -3  13  -1  438.85    8.33   3
  -4  13  -1    0.14    0.55   3
   4  13   1    0.33    0.49   2
  -4 -13  -1    0.43    0.48   1
   4  13   1    0.65    0.52   3
   4 -13   1    1.35    0.47   1
   4 -13   1    0.21    0.48   4
  -5  13  -1    1.68    0.72   3
   5  13   1    1.92    0.70   3
   5  13   1    2.24    0.69   2
   5 -13   1    1.63    0.63   1
   5 -13   1    2.43    0.69   4
  -6 -14   1   -0.13    0.63   1
  -6  14   1    0.45    0.63   4
   6  14  -1   -0.72    0.60   2
   6 -14  -1    0.27    0.59   1
  -5 -14   1    5.92    0.79   1
  -5  14   1    5.77    0.78   4
   5 -14  -1    5.89    0.74   1
   5  14  -1    5.35    0.79   2
  -5  14   1    3.84    0.78   3
   4  14  -1  224.12    4.56   3
  -4 -14   1  214.98    4.23   1
   4 -14  -1  209.16    4.22   1
   4  14  -1  213.13    4.34   2
   4 -14  -1  219.45    4.22   4
  -4  14   1  222.22    4.74   3
  -3 -14   1    6.52    0.68   1
  -3  14   1    6.34    0.73   3
   3 -14  -1    6.51    0.69   1
   3  14  -1    6.37    0.69   2
   3 -14  -1    6.80    0.64   4
   3  14  -1    6.98    0.69   3
   2  14  -1  178.43    3.76   3
  -2 -14   1  178.16    3.48   1
   2 -14  -1  179.98    3.48   1
  -2  14   1  174.38    3.28   4
  -2  14   1  178.88    3.86   3
   2  14  -1  171.08    3.38   2
  -1  14   1    2.57    0.51   3
   1 -14  -1    2.42    0.33   2
   1  14  -1    2.12    0.48   3
  -1 -14   1    2.17    0.47   1
   1 -14  -1    2.63    0.47   1
   1  14  -1    1.88    0.39   2
   0 -14   1  577.00    9.06   1
   0  14  -1  572.29   10.19   3
   0  14  -1  561.08    8.83   2
   0  14   1  564.33   10.19   3
   0 -14  -1  573.53    8.91   2
   0 -14  -1  584.39    9.08   1
  -1  14  -1  185.81    4.01   3
  -1 -14  -1  192.93    3.56   1
   1  14   1  184.54    3.49   2
   1  14   1  184.03    3.99   3
   1 -14   1  188.14    3.54   1
   1 -14   1  181.10    3.36   4
  -2 -14  -1   30.11    1.23   1
   2  14   1   30.23    1.35   3
   2  14   1   29.24    1.17   2
   2 -14   1   29.13    1.17   1
   2 -14   1   29.71    1.14   4
  -2  14  -1   32.20    1.40   3
   3 -14   1    1.57    0.53   4
   3  14   1    1.31    0.53   3
   3 -14   1    1.31    0.45   1
   3  14   1    0.33    0.47   2
  -3  14  -1    1.38    0.58   3
  -3 -14  -1    1.19    0.50   1
   4  14   1   42.88    1.72   3
   4 -14   1   42.60    1.50   1
   4  14   1   43.90    1.66   2
  -4  14  -1   41.89    1.80   3
   4 -14   1   45.05    1.65   4
  -4 -14  -1   44.90    1.61   1
   5  14   1   11.43    1.14   3
  -5  14  -1   10.57    1.17   3
   5 -14   1   11.09    1.05   1
   5 -14   1   10.79    1.00   4
   5  14   1   11.29    1.06   2
   6  15  -1    4.21    0.84   2
  -6 -15   1    3.47    0.82   1
   6 -15  -1    4.70    0.80   1
  -6  15   1    6.79    0.93   4
  -5  15   1   75.53    2.24   4
   5  15  -1   73.22    2.28   2
  -5 -15   1   72.37    2.21   1
  -5  15   1   72.77    2.45   3
  -4  15   1   25.22    1.38   3
  -4 -15   1   25.42    1.29   1
   4  15  -1   25.60    1.30   3
   4  15  -1   24.23    1.25   2
   4 -15  -1   24.55    1.21   1
   3  15  -1   72.34    2.02   2
  -3  15   1   77.30    2.28   3
  -3 -15   1   74.89    2.06   1
   3  15  -1   80.31    2.20   3
  -3  15   1   74.97    1.95   4
   2 -15  -1   38.79    1.41   1
  -2 -15   1   40.06    1.44   1
   2  15  -1   40.22    1.35   2
  -2  15   1   39.62    1.24   4
  -2  15   1   40.00    1.59   3
   2  15  -1   42.08    1.51   3
  -1  15   1  156.71    3.55   3
  -1  15   1  157.82    2.85   4
  -1 -15   1  158.50    3.19   1
   1  15  -1  156.10    3.01   2
   1  15  -1  154.82    3.50   3
   1 -15  -1  157.43    3.18   1
   0 -15   1   12.38    0.88   1
   0  15  -1    6.26    0.72   3
   1 -15   1    8.69    0.81   1
  -1 -15  -1    6.72    0.66   1
   1  15   1    7.36    0.72   2
   1 -15   1    7.82    0.69   4
   1  15   1    6.95    0.76   3
  -1  15  -1    8.72    0.92   3
  -2  15  -1  116.55    2.98   3
  -2 -15  -1  117.54    2.62   1
   2  15   1  113.42    2.91   3
   2 -15   1  114.37    2.52   4
   2  15   1  110.68    2.58   2
   3  15   1  207.84    4.59   3
  -3  15  -1  210.91    4.70   3
   3  15   1  205.99    4.22   2
  -3 -15  -1  215.49    4.14   1
   3 -15   1  219.88    4.17   4
   3 -15   1  207.55    4.07   1
  -4  15  -1   94.67    2.85   3
   4 -15   1   98.13    2.56   4
  -4 -15  -1   97.23    2.48   1
   4  15   1   94.01    2.75   3
   4  15   1   93.75    2.60   2
   5  15   1   10.54    1.16   3
  -5  15  -1   10.68    1.13   3
   5 -15   1   11.16    0.97   1
   5  15   1   10.54    1.05   2
   5 -15   1   10.88    1.03   4
  -5 -16   1   46.95    1.83   1
  -5  16   1   47.79    1.78   4
  -5  16   1   47.79    1.98   3
   5 -16  -1   46.61    1.76   1
   5  16  -1   46.67    1.83   2
   4 -16  -1   76.16    2.19   1
  -4  16   1   76.30    2.14   4
  -4  16   1   74.16    2.40   3
   4  16  -1   77.11    2.28   3
   4  16  -1   73.00    2.20   2
  -4 -16   1   79.09    2.25   1
   3  16  -1   59.43    1.92   3
   3 -16  -1   56.43    1.79   1
  -3  16   1   60.51    1.72   4
  -3  16   1   57.54    2.00   3
   3  16  -1   56.92    1.77   2
  -3 -16   1   58.82    1.84   1
   2  16  -1    0.76    0.46   3
   2 -16  -1    0.41    0.46   1
  -2  16   1    0.49    0.39   4
   2  16  -1    0.02    0.41   2
  -2 -16   1    0.59    0.47   1
  -2  16   1    0.03    0.48   3
  -1  16   1  183.87    4.11   3
   1  16  -1  182.29    3.48   2
  -1 -16   1  186.64    3.68   1
   1  16  -1  192.05    4.09   3
   1 -16  -1  187.88    3.68   1
   0  16  -1  397.65    7.49   3
   0 -16   1  390.08    6.65   1
   0  16   1  385.24    7.47   3
   0 -16  -1  399.02    6.42   2
  -1 -16  -1  165.48    3.37   1
   1  16   1  165.25    3.79   3
   1 -16   1  164.57    3.13   4
   1  16   1  164.04    3.27   2
   2  16   1   80.72    2.40   3
   2  16   1   75.84    2.07   2
  -2 -16  -1   79.82    2.12   1
  -2  16  -1   81.87    2.47   3
   2 -16   1   80.48    2.11   1
   2 -16   1   84.08    2.05   4
   3 -16   1    0.51    0.50   4
  -3  16  -1    1.45    0.62   3
   3  16   1    1.09    0.56   2
  -3 -16  -1    1.00    0.56   1
   3 -16   1    0.77    0.47   1
   3  16   1    0.86    0.53   3
   4  16   1   34.32    1.64   3
   4 -16   1   30.64    1.46   4
  -4 -16  -1   31.48    1.42   1
   4  16   1   30.33    1.47   2
   4 -16   1   28.82    1.31   1
  -4  16  -1   30.26    1.65   3
  -5  16  -1   74.83    2.64   3
   5  16   1   69.05    2.39   2
   5 -16   1   70.85    2.31   4
   5  16   1   71.35    2.52   3
   5 -16   1   75.97    2.25   1
  -5  17   1    4.48    0.81   4
   5 -17  -1    2.78    0.69   1
   5  17  -1    2.72    0.77   2
  -5 -17   1    1.80    0.74   1
  -5  17   1    3.04    0.81   3
   4 -17  -1    6.97    0.80   1
   4  17  -1    5.69    0.75   3
  -4  17   1    6.76    0.80   4
  -4 -17   1    5.83    0.82   1
  -4  17   1    6.28    0.87   3
   4  17  -1    6.25    0.82   2
   3 -17  -1   10.38    0.91   1
   3  17  -1   13.48    1.08   3
  -3  17   1   12.32    1.12   3
  -3 -17   1   10.08    0.95   1
  -3  17   1   12.43    0.87   4
   3  17  -1   12.11    0.92   2
  -2  17   1  248.64    4.43   4
   2  17  -1  242.57    5.12   3
  -2  17   1  254.23    5.29   3
  -2 -17   1  247.17    4.74   1
   2  17  -1  248.94    4.62   2
   1 -17  -1   48.62    1.61   1
  -1 -17   1   45.79    1.59   1
   1  17  -1   47.40    1.73   3
  -1  17   1   46.75    1.80   3
   1  17  -1   47.10    1.43   2
   0 -17  -1  148.10    3.16   1
   0 -17  -1  150.33    2.88   2
   0  17  -1  145.67    3.52   3
   1 -17   1   52.40    1.70   1
  -1  17  -1   53.05    1.92   3
   1  17   1   54.12    1.91   3
  -1 -17  -1   52.79    1.71   1
   2 -17   1   71.09    2.01   1
   2  17   1   71.78    2.00   2
   2 -17   1   75.87    1.94   4
   2  17   1   71.32    2.28   3
  -2  17  -1   69.75    2.31   3
  -2 -17  -1   75.17    2.08   1
   3  17   1   60.81    1.96   2
  -3  17  -1   62.32    2.24   3
   3  17   1   58.99    2.10   3
   3 -17   1   67.34    1.96   4
   3 -17   1   61.13    1.88   1
  -3 -17  -1   64.61    1.99   1
  -4  17  -1   26.57    1.56   3
   4 -17   1   26.87    1.31   1
   4 -17   1   27.75    1.38   4
  -4 -17  -1   26.70    1.40   1
   4  17   1   26.84    1.43   2
   4  17   1   28.21    1.57   3
  -5  18   1   46.23    2.05   3
   5 -18  -1   45.93    1.84   1
  -5 -18   1   46.67    1.92   1
  -5  18   1   45.74    1.81   4
   5  18  -1   45.32    1.90   2
   4  18  -1    4.69    0.76   3
  -4  18   1    5.22    0.78   4
  -4  18   1    4.64    0.88   3
  -4 -18   1    5.46    0.81   1
   4  18  -1    4.92    0.80   2
   4 -18  -1    5.16    0.75   1
   3  18  -1  113.17    2.78   2
  -3 -18   1  113.97    2.86   1
  -3  18   1  115.83    3.18   3
   3 -18  -1  112.00    2.81   1
  -3  18   1  117.63    2.67   4
   3  18  -1  115.41    3.03   3
   2 -18  -1   17.55    1.12   1
   2  18  -1   17.60    1.03   2
  -2  18   1   18.92    1.31   3
   2  18  -1   18.14    1.20   3
  -2 -18   1   17.20    1.09   1
   1  18  -1    4.78    0.73   3
   1 -18  -1    4.99    0.70   1
  -1 -18   1    4.35    0.68   1
  -1  18   1    3.92    0.72   3
   0 -18   1    0.99    0.49   1
   0  18   1    1.73    0.60   3
   0  18  -1    0.99    0.58   3
   0 -18  -1    1.12    0.52   1
  -1 -18  -1  134.72    3.05   1
  -1 -18  -1  136.67    2.86   2
  -1  18  -1  133.85    3.43   3
   1  18   1  134.27    3.41   3
   1 -18   1  133.55    3.03   1
   2 -18   1    0.88    0.52   1
  -2  18  -1    0.73    0.60   3
  -2 -18  -1    1.26    0.56   1
   2  18   1    1.22    0.58   3
   2  18   1    1.45    0.54   2
  -3 -18  -1    0.93    0.55   1
   3 -18   1    0.88    0.57   4
  -3  18  -1    0.23    0.64   3
   3  18   1   -0.28    0.51   2
   3  18   1    0.42    0.57   3
   3 -18   1    0.99    0.50   1
   4  18   1    7.70    1.01   3
   4  18   1    7.64    0.94   2
   4 -18   1    8.70    0.94   4
   4 -18   1    8.50    0.89   1
  -4  18  -1    8.27    1.05   3
  -4 -18  -1    7.81    0.93   1
   4  19  -1   21.04    1.36   2
  -4  19   1   21.25    1.21   4
   4  19  -1   21.37    1.35   3
   4 -19  -1   19.94    1.25   1
  -4  19   1   19.02    1.43   3
  -4 -19   1   21.00    1.31   1
  -3  19   1   53.96    1.73   4
   3  19  -1   56.89    2.05   3
  -3  19   1   52.15    2.09   3
   3 -19  -1   52.28    1.86   1
   3  19  -1   53.55    1.86   2
  -3 -19   1   54.89    1.93   1
   2  19  -1  225.28    4.30   2
   2 -19  -1  214.62    4.40   1
   2  19  -1  216.63    4.81   3
  -2 -19   1  219.81    4.43   1
  -2  19   1  215.77    4.90   3
   1  19  -1   19.11    1.23   3
   1 -19  -1   19.48    1.16   1
  -1 -19   1   21.63    1.20   1
  -1  19   1   19.88    1.30   3
   0  19   1    0.73    0.59   3
   0  19  -1    0.22    0.57   3
   0 -19  -1    0.07    0.49   1
   0 -19   1    0.52    0.51   1
  -1 -19  -1    5.12    0.65   2
  -1  19  -1    4.44    0.79   3
   1 -19   1    4.54    0.71   1
  -1 -19  -1    6.07    0.74   1
   1  19   1    3.91    0.77   3
  -2  19  -1   64.57    2.34   3
   2 -19   1   67.89    2.08   1
   2  19   1   68.29    2.31   3
  -2 -19  -1   70.12    2.14   1
   3  19   1   46.90    1.78   2
   3 -19   1   46.65    1.71   1
   3  19   1   45.99    1.93   3
   3 -19   1   47.14    1.67   4
  -3  19  -1   47.14    2.05   3
  -3 -19  -1   49.60    1.85   1
  -4 -19  -1   58.12    2.03   1
   4 -19   1   60.65    2.05   4
  -4  19  -1   58.35    2.40   3
   4 -19   1   55.49    1.98   1
   4  19   1   59.41    2.32   3
  -4  20   1    1.33    0.65   4
  -4  20   1    0.62    0.73   3
   4  20  -1    0.36    0.62   3
  -4 -20   1    0.30    0.66   1
   4  20  -1    0.50    0.65   2
   4 -20  -1    1.27    0.64   1
   3  20  -1   11.59    1.22   3
  -3  20   1   10.66    1.12   3
   3 -20  -1   11.22    1.04   1
   3  20  -1   12.11    1.14   2
  -3 -20   1   10.08    1.01   1
   2  20  -1    0.43    0.59   3
   2 -20  -1    0.99    0.56   1
  -2  20   1    0.27    0.63   3
  -2 -20   1    0.35    0.60   1
  -1 -20   1    0.16    0.54   1
  -1  20   1    0.85    0.62   3
   1  20  -1    0.27    0.59   3
   1 -20  -1    0.66    0.54   1
   0 -20  -1  201.07    4.22   1
   0  20   1  210.40    4.76   3
   0  20  -1  207.68    4.73   3
   0 -20   1  206.77    4.24   1
   1 -20   1  174.43    3.78   1
  -1 -20  -1  171.74    3.77   1
  -1  20  -1  177.68    4.31   3
  -1 -20  -1  178.11    3.58   2
   1  20   1  173.42    4.23   3
  -2  20  -1   18.19    1.39   3
   2 -20   1   17.15    1.17   1
  -2 -20  -1   18.79    1.21   1
  -2 -20  -1   16.35    1.04   2
   2  20   1   18.41    1.34   3
   3 -20   1    7.10    0.84   1
  -3 -20  -1    8.28    0.89   2
  -3 -20  -1    7.33    0.93   1
  -3  20  -1    6.66    1.03   3
   3  20   1    6.51    0.92   3
  -3  21   1   92.30    2.98   3
   3  21  -1   95.17    2.64   2
   3  21  -1   97.41    2.92   3
  -3 -21   1   91.51    2.68   1
   3 -21  -1   91.18    2.66   1
   2 -21  -1   83.35    2.47   1
  -2  21   1   85.43    2.78   3
   2  21  -1   83.33    2.66   3
  -2 -21   1   89.45    2.56   1
  -1  21   1   62.70    2.31   3
  -1 -21   1   64.82    2.10   1
   1  21  -1   62.66    2.26   3
   1 -21  -1   63.22    2.06   1
   0 -21  -1    4.07    0.74   1
   0  21  -1    3.12    0.78   3
   0  21   1    3.52    0.78   3
   0 -21   1    3.05    0.69   1
   1 -21   1   14.83    1.14   1
  -1  21  -1   14.80    1.31   3
  -1 -21  -1   15.63    1.15   1
   1  21   1   13.97    1.23   3
  -2 -21  -1   28.21    1.33   2
  -2  21  -1   26.47    1.64   3
  -2 -21  -1   28.29    1.50   1
   2  21   1   27.86    1.61   3
   2 -21   1   27.04    1.45   1
  -3  21  -1   20.97    1.54   3
   3 -21   1   20.25    1.26   1
  -3 -21  -1   20.01    1.24   2
   3  21   1   19.46    1.41   3
  -3 -21  -1   21.76    1.46   1
   3  22  -1    1.84    0.79   3
   3 -22  -1    2.65    0.75   1
  -3  22   1    2.29    0.84   3
  -3 -22   1    1.55    0.77   1
   2  22  -1   30.77    1.65   3
  -2  22   1   30.86    1.74   3
   2 -22  -1   29.84    1.50   1
  -2 -22   1   30.60    1.63   1
   1 -22  -1   17.69    1.21   1
  -1 -22   1   16.90    1.21   1
  -1  22   1   19.78    1.43   3
   1  22  -1   16.51    1.33   3
   0  22  -1   54.93    2.19   3
   0 -22   1   54.93    1.95   1
   0 -22  -1   54.27    1.96   1
   0  22   1   51.81    2.15   3
  -1  22  -1   20.07    1.48   3
   1  22   1   17.79    1.39   3
   1 -22   1   19.35    1.27   1
  -1 -22  -1   20.47    1.29   1
   2  22   1   61.43    2.37   3
   2 -22   1   61.59    2.15   1
  -2  22  -1   62.01    2.45   3
  -2 -22  -1   59.89    1.96   2
  -2 -22  -1   61.30    2.13   1
  -2  23   1    6.68    1.04   3
  -2 -23   1    6.76    0.99   1
   2  23  -1    6.95    0.97   3
   2 -23  -1    8.02    0.95   1
  -1 -23   1   31.44    1.57   1
   1 -23  -1   31.07    1.55   1
   1  23  -1   32.82    1.74   3
  -1  23   1   29.99    1.74   3
   0  23  -1   20.93    1.51   3
   0 -23   1   22.72    1.37   1
   0 -23  -1   23.85    1.40   1
   0  23   1   23.28    1.57   3
  -1 -23  -1   39.08    1.74   1
  -1  23  -1   40.45    2.00   3
   1  23   1   39.07    1.93   3
   1 -23   1   43.83    1.81   1
   0  24   1    5.84    0.96   3
   0  24  -1    4.56    0.93   3
   0 -24   1    5.64    0.91   1
   0 -24  -1    5.62    0.90   1
  -7   0   2   -0.03    0.51   4
   7   0  -2   -0.28    0.52   1
   6   0  -2   50.80    1.56   2
  -6   0   2   50.80    1.63   4
   6   0  -2   51.01    1.69   1
  -5   0   2   -0.41    0.35   4
   5   0  -2   -0.56    0.31   2
   4   0  -2 1168.49   17.53   2
  -4   0   2 1171.14   17.61   4
  -4   0   2 1170.35   19.18   3
   4   0  -2 1164.50   17.38   1
   3   0  -2   -0.12    0.17   2
  -3   0   2    0.13    0.21   4
   3   0  -2   -0.30    0.19   1
   2   0  -2  234.54    3.72   1
   2   0  -2  230.91    3.74   2
  -2   0   2  233.29    3.77   4
  -1   0   2    0.42    0.18   4
  -1   0   2    0.04    0.11   3
   1   0  -2    0.39    0.16   2
   1   0  -2   -0.40    0.13   1
   0   0  -2  448.31    6.86   2
   0   0   2  456.61    7.59   3
   0   0   2  444.30    6.85   4
   1   0   2   -0.02    0.18   3
   1   0   2    0.91    0.21   4
  -1   0  -2    0.55    0.17   2
  -2   0  -2  512.85    8.01   2
   2   0   2  516.46    8.04   4
   2   0   2  516.98    8.99   3
   2   0   2  521.17    7.66   1
   3   0   2    1.45    0.35   4
   3   0   2   -0.44    0.27   1
   3   0   2   -1.02    0.34   3
  -3   0  -2    0.65    0.32   2
   4   0   2   34.95    1.45   3
   4   0   2   37.23    1.26   4
  -4   0  -2   35.95    1.19   2
   4   0   2   33.65    1.07   1
   5   0   2   -0.47    0.47   3
   5   0   2   -0.12    0.45   4
   6   0   2  265.35    5.15   4
  -6   0  -2  272.81    5.79   3
  -7   1   2   32.40    1.44   4
   7   1  -2   30.30    1.40   1
   7  -1  -2   28.96    1.41   1
  -7  -1   2   31.89    1.35   4
   6   1  -2  182.40    3.72   1
  -6   1   2  185.17    3.70   4
   6  -1  -2  186.17    3.73   1
   6  -1  -2  187.69    3.57   2
  -6  -1   2  179.02    3.61   4
   6   1  -2  182.75    3.62   2
   5   1  -2   65.33    1.69   2
  -5  -1   2   66.34    1.71   4
   5  -1  -2   64.82    1.62   2
   5   1  -2   65.97    1.78   1
  -5   1   2   68.21    1.76   4
   5  -1  -2   63.82    1.78   1
   4  -1  -2  251.91    4.28   1
   4   1  -2  246.01    4.22   2
   4  -1  -2  252.90    4.17   2
  -4  -1   2  247.30    4.23   4
  -4   1   2  246.67    4.36   3
  -4   1   2  250.52    4.29   4
  -4  -1   2  247.27    4.34   3
   4   1  -2  241.16    4.26   1
   3   1  -2    2.07    0.28   2
  -3   1   2    1.54    0.28   4
  -3  -1   2    1.80    0.28   4
   3   1  -2    2.07    0.31   1
   3  -1  -2    1.65    0.31   1
   3  -1  -2    1.76    0.27   2
   1   1  -2 6324.70   90.08   1
  -1   1   2 6277.99  102.58   3
  -1  -1   2 6156.77   91.40   4
   1   1  -2 6391.37   91.41   2
  -1   1   2 6294.85   91.43   4
   1  -1  -2 6288.85   90.08   1
   1  -1  -2 6153.24   91.38   2
  -1  -1   2 6243.96  103.13   3
   0  -1   2  207.60    3.66   3
   0   1  -2  206.55    3.32   2
   0   1   2  208.91    3.67   3
   0  -1  -2  202.51    3.32   2
   0   1   2  204.23    3.31   4
   0  -1   2  208.70    3.34   4
   1   1   2  155.36    2.99   3
   1   1   2  155.26    2.64   4
   1  -1   2  151.67    2.97   3
  -1  -1  -2  156.58    2.66   2
   1  -1   2  155.35    2.68   4
  -1   1  -2  156.85    2.63   2
   2   1   2   36.76    1.00   4
   2  -1   2   33.20    1.12   3
   2   1   2   32.13    1.13   3
  -2  -1  -2   32.39    0.84   5
  -2   1  -2   35.19    0.93   2
   2  -1   2   35.00    1.03   4
  -2  -1  -2   35.09    0.97   2
  -2  -1  -2   31.11    0.75   1
   2  -1   2   32.48    0.78   1
   3  -1   2  723.49   10.68   1
   3  -1   2  730.76   12.48   3
   3   1   2  737.16   10.70   1
  -3  -1  -2  706.23   11.10   2
  -3   1  -2  704.98   11.05   2
   3   1   2  728.55   12.47   3
   3  -1   2  722.44   11.19   4
   3   1   2  704.14   11.11   4
  -4   1  -2  131.12    2.68   2
   4   1   2  132.99    3.18   3
   4   1   2  138.68    2.79   4
   4  -1   2  132.50    2.49   1
   4  -1   2  137.45    3.21   3
  -4  -1  -2  135.30    2.75   2
   4  -1   2  134.93    2.82   4
   5  -1   2   44.90    1.58   4
   5   1   2   43.79    1.77   3
  -5  -1  -2   46.99    1.54   2
   5   1   2   44.69    1.55   4
   5  -1   2   46.00    1.80   3
   6   1   2    2.81    0.70   4
   6  -1   2    2.93    0.69   4
   6   1   2    2.63    0.75   3
  -6   1  -2    1.63    0.78   3
   7   2  -2   36.91    1.48   2
   7   2  -2   33.68    1.49   1
   7  -2  -2   36.46    1.58   1
  -7   2   2   34.56    1.52   4
   6   2  -2    0.75    0.50   2
   6  -2  -2    0.59    0.50   1
  -6   2   2    0.53    0.51   4
  -6  -2   2    0.92    0.48   4
   6   2  -2   -0.72    0.46   1
   5  -2  -2  132.82    2.79   1
  -5   2   2  132.87    2.78   4
   5  -2  -2  130.19    2.58   2
   5   2  -2  133.79    2.80   1
   5   2  -2  129.55    2.72   2
  -5  -2   2  130.38    2.66   4
  -4  -2   2  556.71    8.70   4
  -4   2   2  552.55    9.36   3
   4   2  -2  569.88    9.34   3
   4   2  -2  558.47    8.75   2
   4  -2  -2  562.94    8.70   1
   4   2  -2  550.93    8.67   1
  -4   2   2  554.46    8.79   4
   4  -2  -2  546.00    8.59   2
   3  -2  -2  803.89   12.01   1
  -3   2   2  806.15   13.26   3
  -3   2   2  804.93   12.21   4
   3   2  -2  804.96   12.17   2
  -3  -2   2  801.12   12.13   4
   3  -2  -2  799.83   12.06   2
   3   2  -2  799.40   12.00   1
   2  -2  -2  293.75    4.64   2
  -2  -2   2  300.66    4.68   4
   2  -2  -2  292.68    4.64   1
   2   2  -2  303.58    4.66   1
  -2   2   2  296.68    5.04   3
  -2   2   2  297.36    4.74   4
   2   2  -2  293.13    4.71   2
   1   2  -2  211.79    3.30   1
   1   2  -2  206.43    3.62   3
  -1   2   2  211.08    3.65   3
   1   2  -2  211.76    3.40   2
  -1  -2   2  212.79    3.39   4
  -1   2   2  216.73    3.41   4
   1  -2  -2  210.47    3.29   1
   1  -2  -2  209.90    3.37   2
   0   2  -2 1307.22   19.27   2
   0  -2   2 1275.81   19.13   1
   0  -2  -2 1320.71   19.19   1
   0  -2   2 1327.31   21.39   3
   0  -2  -2 1344.48   19.31   2
   0  -2   2 1286.95   19.29   4
   0   2   2 1254.49   19.24   4
   0   2   2 1315.34   21.38   3
   1   2   2  768.11   11.61   4
   1   2   2  776.01   12.97   3
   1  -2   2  774.15   11.69   4
  -1   2  -2  770.71   11.60   2
   1  -2   2  791.82   12.98   3
  -1  -2  -2  763.46   11.67   2
  -2  -2  -2 1194.10   17.49   1
   2   2   2 1203.58   20.04   3
   2  -2   2 1217.54   17.50   1
  -2   2  -2 1212.08   17.92   2
   2   2   2 1210.26   17.95   4
   2  -2   2 1199.42   20.04   3
   2  -2   2 1194.01   18.04   4
  -2  -2  -2 1196.55   18.01   2
   3  -2   2  155.44    2.63   1
   3   2   2  153.31    3.32   3
   3  -2   2  150.47    3.32   3
  -3  -2  -2  151.39    3.00   5
   3  -2   2  154.33    2.97   4
   3   2   2  156.00    2.87   4
  -3  -2  -2  151.90    2.62   1
  -3   2  -2  151.65    2.79   2
  -3  -2  -2  154.55    2.92   2
   4   2   2   17.79    0.92   4
   4  -2   2   14.30    0.80   1
  -4  -2  -2   16.80    0.95   2
   4   2   2   16.15    1.07   3
  -4   2  -2   18.67    0.87   2
   4  -2   2   18.58    1.12   3
   4  -2   2   19.03    0.99   4
   5   2   2   52.59    1.94   3
  -5  -2  -2   55.41    1.73   2
   5  -2   2   55.38    1.78   4
  -5   2  -2   55.13    1.97   3
   5   2   2   56.13    1.70   4
  -6   2  -2  124.09    3.38   3
   6   2   2  120.17    3.35   3
   6  -2   2  118.82    2.97   4
   7   3  -2   12.16    1.02   1
   7   3  -2   13.13    1.01   2
  -7   3   2   12.90    1.10   4
   7  -3  -2   13.41    1.13   1
   6  -3  -2   77.90    2.10   1
   6   3  -2   71.57    1.98   2
  -6   3   2   74.41    2.07   4
   6   3  -2   73.41    2.07   1
  -6  -3   2   71.65    1.91   4
   5  -3  -2  688.56   10.73   1
  -5   3   2  681.33   10.84   4
   5   3  -2  686.84   10.82   2
   5  -3  -2  682.24   10.56   2
   5   3  -2  679.46   10.71   1
  -5  -3   2  682.54   10.68   4
   4  -3  -2   93.83    2.04   1
  -4   3   2   94.48    1.95   3
  -4  -3   2   95.98    1.96   4
  -4   3   2   90.62    2.04   4
   4   3  -2   95.12    1.88   3
   4  -3  -2   93.99    1.85   2
   4   3  -2   93.11    2.01   2
   4   3  -2   91.88    2.06   1
   3  -3  -2    1.81    0.30   1
  -3   3   2    1.88    0.33   4
   3  -3  -2    2.08    0.26   2
  -3  -3   2    2.15    0.30   4
   3   3  -2    2.13    0.31   2
  -3   3   2    1.93    0.24   3
   3   3  -2    1.61    0.32   1
   2  -3  -2 1692.35   24.87   1
  -2   3   2 1666.25   28.04   3
   2   3  -2 1709.61   25.31   2
   2  -3  -2 1727.69   25.25   2
   2   3  -2 1730.18   24.89   1
  -2   3   2 1727.21   25.34   4
  -2  -3   2 1753.29   25.28   4
  -1   3   2  476.29    8.14   3
  -1  -3   2  502.85    8.34   5
   1  -3  -2  494.22    7.27   1
   1   3  -2  486.69    8.13   3
   1  -3  -2  478.66    7.39   2
   1   3  -2  477.97    7.41   2
  -1   3   2  485.85    7.42   4
  -1  -3   2  487.89    7.40   4
  -1  -3   2  492.72    7.26   1
   0   3  -2  995.59   16.51   3
   0  -3   2  988.15   14.93   4
   0   3   2 1005.99   14.88   4
   0   3   2 1009.05   16.54   3
   0   3  -2 1028.81   14.90   2
   0  -3  -2 1007.81   14.64   1
   0  -3   2  991.08   14.63   1
   0  -3  -2  995.53   14.93   2
   1  -3   2   49.46    0.92   1
   1  -3   2   49.22    1.17   4
  -1   3  -2   47.99    1.04   2
  -1  -3  -2   48.81    0.93   1
   1   3   2   48.51    1.28   3
  -1  -3  -2   49.13    1.14   2
   1   3   2   48.12    1.06   4
  -1   3  -2   47.80    1.26   3
  -2  -3  -2  451.09    7.16   2
  -2   3  -2  459.92    7.01   2
   2  -3   2  453.59    6.77   1
   2   3   2  451.13    7.03   4
   2   3   2  456.26    7.98   3
   2  -3   2  451.89    7.99   3
   2  -3   2  450.27    7.18   4
  -2  -3  -2  444.12    6.77   1
   3  -3   2  248.05    4.45   4
  -3  -3  -2  249.85    4.05   1
  -3  -3  -2  250.67    4.40   2
  -3   3  -2  249.89    4.21   2
   3  -3   2  263.80    4.09   1
   3   3   2  254.69    4.97   3
   3   3   2  252.33    4.28   4
   4   3   2  235.41    4.93   3
  -4  -3  -2  236.54    4.37   2
   4  -3   2  238.83    4.04   1
   4   3   2  238.24    4.25   4
   4  -3   2  248.08    4.48   4
  -5   3  -2   64.14    2.15   3
   5  -3   2   63.20    1.94   4
   5   3   2   61.17    2.11   3
  -5  -3  -2   62.14    1.89   2
   5   3   2   63.07    1.79   4
   6   3   2    3.74    0.79   3
  -6   3  -2    4.05    0.89   3
   6  -3   2    5.23    0.79   4
   7  -4  -2  112.29    2.82   1
   7   4  -2  102.80    2.71   2
  -7  -4   2  109.89    3.22   5
  -7  -4   2  107.44    2.76   1
  -7   4   2  105.72    2.78   4
   6   4  -2   59.13    1.79   2
   6  -4  -2   60.63    1.82   1
   6   4  -2   56.99    1.80   1
  -6   4   2   59.64    1.85   4
   5  -4  -2  188.06    3.31   2
   5  -4  -2  182.02    3.57   1
   5   4  -2  183.83    3.60   1
  -5   4   2  182.89    3.60   4
   5   4  -2  183.13    3.59   2
  -5  -4   2  188.36    3.43   4
   4   4  -2   -0.29    0.33   1
   4   4  -2    0.42    0.32   2
   4  -4  -2    0.01    0.30   1
  -4   4   2    0.17    0.26   3
   4   4  -2    0.13    0.22   3
  -4   4   2   -0.03    0.32   4
   4  -4  -2    0.46    0.24   2
  -3  -4   2  314.28    4.96   4
   3  -4  -2  308.34    5.03   1
   3   4  -2  312.00    5.10   2
   3  -4  -2  306.16    4.87   2
   3   4  -2  316.08    5.05   1
  -3   4   2  307.55    5.39   3
   3   4  -2  312.35    5.30   3
  -3   4   2  312.43    5.12   4
   2  -4  -2  384.58    5.91   2
  -2  -4   2  388.74    5.95   4
   2   4  -2  384.35    6.48   3
  -2  -4   2  385.59    5.94   1
  -2  -4   2  386.17    6.82   5
   2  -4  -2  384.05    5.95   1
  -2   4   2  375.00    6.53   3
   2   4  -2  390.11    6.06   2
  -2   4   2  385.38    6.05   4
  -1  -4   2    2.37    0.24   4
   1  -4  -2    1.98    0.21   2
  -1   4   2    2.01    0.22   3
   1  -4  -2    2.43    0.22   1
   1   4  -2    2.20    0.24   2
  -1  -4   2    2.35    0.22   1
   1   4  -2    3.95    0.35   3
  -1   4   2    2.22    0.24   4
   0   4   2  337.24    5.82   3
   0   4  -2  342.15    5.79   3
   0  -4   2  329.47    5.25   4
   0   4  -2  335.62    5.19   2
   0  -4  -2  327.86    5.26   2
   0   4   2  340.62    5.17   4
   0  -4   2  338.40    5.07   1
   0  -4  -2  329.63    5.05   1
   1   4   2  199.97    3.70   3
   1  -4   2  195.40    3.05   1
  -1  -4  -2  194.76    3.32   2
  -1   4  -2  196.02    3.66   3
   1   4   2  194.09    3.16   4
   1  -4   2  195.12    3.32   4
  -1  -4  -2  193.61    3.05   1
  -1   4  -2  188.20    3.15   2
   2   4   2    0.38    0.29   3
   2   4   2    1.01    0.25   4
   2  -4   2    0.13    0.18   1
  -2   4  -2    0.65    0.23   2
  -2   4  -2    0.64    0.32   3
  -2  -4  -2    0.94    0.29   2
   2  -4   2    0.95    0.31   4
  -2  -4  -2    0.44    0.21   1
  -3  -4  -2  140.87    2.50   1
   3   4   2  141.10    3.16   3
   3   4   2  139.74    2.63   4
  -3   4  -2  144.26    2.57   2
  -3   4  -2  138.15    3.11   3
  -3  -4  -2  143.27    2.81   2
   3  -4   2  145.57    2.88   4
   3  -4   2  141.29    2.51   1
   4   4   2   86.69    1.96   4
  -4   4  -2   84.61    2.35   3
   4  -4   2   86.70    1.87   1
   4  -4   2   89.03    2.19   4
  -4  -4  -2   84.25    2.11   2
   4   4   2   87.79    2.42   3
   5   4   2  422.69    8.18   3
  -5   4  -2  424.14    8.15   3
  -5  -4  -2  423.44    7.33   2
   5  -4   2  429.26    7.40   4
  -6  -4  -2   10.32    0.96   2
   6  -4   2   10.29    1.00   4
  -6   4  -2    8.88    1.08   3
   6   4   2   11.19    1.17   3
  -7  -5   2   95.34    2.99   5
   7   5  -2   91.77    2.54   2
   7  -5  -2   92.63    2.54   1
  -7  -5   2   92.56    2.56   1
  -7   5   2   90.55    2.58   4
  -6  -5   2   91.98    2.34   1
   6  -5  -2   88.19    2.31   1
  -6  -5   2   93.59    2.71   5
   6   5  -2   87.81    2.31   2
  -6   5   2   90.35    2.37   4
   5  -5  -2    3.40    0.52   1
   5   5  -2    3.79    0.57   2
  -5   5   2    3.63    0.58   4
   5   5  -2    2.10    0.56   1
  -5  -5   2    4.56    0.53   4
   4  -5  -2  173.72    2.97   2
  -4   5   2  173.02    3.31   4
   4  -5  -2  175.02    3.26   1
   4   5  -2  178.58    3.29   1
   4   5  -2  176.66    3.25   3
  -4   5   2  176.32    3.35   3
   4   5  -2  173.97    3.29   2
  -4  -5   2  172.64    3.08   4
  -3  -5   2   53.73    1.18   4
   3  -5  -2   52.38    1.32   1
  -3  -5   2   52.91    1.32   1
   3   5  -2   53.71    1.33   2
  -3  -5   2   53.44    1.52   5
  -3   5   2   51.24    1.29   3
  -3   5   2   53.41    1.34   4
   3   5  -2   51.67    1.18   3
   3  -5  -2   51.69    1.09   2
   2  -5  -2 1841.79   27.78   2
  -2  -5   2 1943.65   27.84   4
  -2  -5   2 1899.46   27.43   1
  -2   5   2 1848.25   30.85   3
   2  -5  -2 1910.78   27.44   1
  -2   5   2 1933.03   27.93   4
   2   5  -2 1880.18   27.91   2
   2   5  -2 1873.29   30.86   3
  -1   5   2    2.90    0.27   3
   0  -5  -2 2083.65   29.89   1
   0  -5   2 2119.04   30.46   4
   0  -5  -2 2114.13   30.46   2
   0   5   2 2047.58   30.39   4
   0   5   2 2041.00   33.75   3
   0  -5   2 2007.25   29.87   1
   0   5  -2 2054.48   30.39   2
   0   5  -2 2088.64   33.74   3
  -1   5  -2  878.14   13.03   2
   1   5   2  873.99   14.65   3
   1   5   2  870.05   13.03   4
   1  -5   2  859.78   12.79   1
  -1   5  -2  883.41   14.63   3
  -1  -5  -2  875.86   13.21   2
   1  -5   2  862.87   13.20   4
  -1  -5  -2  889.49   12.83   1
   2   5   2  540.94    8.22   4
  -2  -5  -2  528.61    8.45   2
   2  -5   2  525.72    8.47   4
  -2   5  -2  537.91    9.37   3
  -2  -5  -2  535.75    8.06   1
   2   5   2  542.71    9.40   3
   2  -5   2  546.64    8.07   1
  -2   5  -2  539.80    8.18   2
  -3  -5  -2  135.67    2.83   2
   3   5   2  142.10    2.62   4
  -3  -5  -2  144.27    2.55   1
   3  -5   2  140.15    2.56   1
   3  -5   2  150.87    2.93   4
   3   5   2  137.55    3.18   3
  -3   5  -2  143.40    3.17   3
   4  -5   2  134.07    2.58   1
   4   5   2  134.17    3.23   3
  -4  -5  -2  132.87    2.88   2
   4   5   2  132.65    2.63   4
  -5   5  -2    0.37    0.67   3
  -5  -5  -2    1.43    0.56   2
   5   5   2    1.51    0.61   3
   5  -5   2    2.10    0.62   4
   6  -5   2   12.35    1.06   4
  -6   5  -2   10.57    1.11   3
   6   5   2   12.16    1.20   3
  -6  -5  -2   13.69    1.21   2
   7  -6  -2  117.98    2.92   1
  -7  -6   2  112.69    2.90   1
  -7  -6   2  114.55    3.38   5
   7   6  -2  114.55    2.94   2
  -7   6   2  113.52    2.97   4
  -6  -6   2    8.59    0.84   1
   6  -6  -2    9.46    0.89   1
   6   6  -2    9.10    0.87   2
  -6  -6   2    7.20    0.84   5
  -6   6   2   11.10    0.98   4
   5   6  -2   73.66    1.96   2
  -5   6   2   71.67    1.94   4
   5  -6  -2   72.56    1.91   1
  -4   6   2  326.08    5.84   3
   4  -6  -2  326.97    5.46   1
  -4   6   2  321.47    5.54   4
  -4  -6   2  324.03    5.45   1
   4   6  -2  325.82    5.71   3
   4  -6  -2  322.63    5.11   2
   4   6  -2  324.91    5.54   2
  -4  -6   2  329.83    6.26   5
  -4  -6   2  325.57    5.25   4
  -3   6   2  272.94    4.83   3
  -3  -6   2  269.84    4.30   4
   3   6  -2  265.38    4.53   2
  -3  -6   2  265.58    4.47   1
   3  -6  -2  267.03    4.21   2
  -3   6   2  265.18    4.53   4
  -3  -6   2  271.54    5.15   5
   3   6  -2  267.54    4.69   3
   3  -6  -2  265.49    4.47   1
  -2  -6   2  708.90   10.57   1
  -2  -6   2  704.92   10.57   4
  -2   6   2  711.97   10.73   4
  -2   6   2  714.63   11.80   3
   2   6  -2  689.54   11.70   3
   2   6  -2  699.41   10.74   2
   2  -6  -2  711.54   10.58   1
   2  -6  -2  692.96   10.54   2
  -1   6   2   37.67    1.04   3
   1  -6  -2   39.68    0.96   1
  -1   6   2   38.73    0.92   4
  -1  -6   2   38.25    0.94   1
   1   6  -2   38.74    0.94   2
   1   6  -2   38.98    1.00   3
  -1  -6   2   39.64    0.91   4
   1  -6  -2   38.17    0.88   2
   0  -6   2 1406.03   20.60   1
   0   6   2 1424.09   23.31   3
   0   6  -2 1429.92   20.93   2
   0  -6  -2 1409.60   20.58   1
   0  -6   2 1372.33   20.98   4
   0   6  -2 1444.01   23.29   3
   0   6   2 1429.73   20.91   4
   0  -6  -2 1420.98   21.01   2
  -1  -6  -2 3111.37   44.70   1
  -1  -6  -2 3077.22   45.56   2
  -1   6  -2 3119.88   50.52   3
   1  -6   2 3026.74   44.65   1
  -1   6  -2 3134.65   45.47   2
   1   6   2 3141.02   45.51   4
   1   6   2 3186.10   50.56   3
   1  -6   2 3053.72   45.58   4
  -2   6  -2    2.30    0.27   2
   2   6   2    2.25    0.41   3
  -2   6  -2    1.43    0.41   3
   2   6   2    2.46    0.28   4
  -2  -6  -2    3.45    0.42   2
   2  -6   2    2.43    0.41   4
   2  -6   2    2.46    0.29   1
  -2  -6  -2    2.10    0.31   1
   3   6   2  790.60   13.79   3
  -3  -6  -2  796.38   12.43   2
  -3  -6  -2  785.33   11.91   1
   3  -6   2  817.58   12.50   4
  -3   6  -2  791.73   13.75   3
   3  -6   2  801.44   11.92   1
   3   6   2  796.15   12.08   4
  -4   6  -2   39.76    1.58   3
   4   6   2   40.23    1.60   3
  -4  -6  -2   39.91    1.44   2
   4  -6   2   40.67    1.47   4
   4  -6   2   39.27    1.23   1
   5   6   2  107.77    2.98   3
  -5   6  -2  101.38    2.91   3
  -5  -6  -2  111.48    2.72   2
   5  -6   2  110.63    2.73   4
  -6  -6  -2   69.17    2.25   2
   6   6   2   68.50    2.46   3
  -6   6  -2   66.86    2.44   3
   6  -6   2   62.72    2.14   4
   7  -7  -2   27.81    1.39   1
   7   7  -2   28.57    1.44   2
  -7   7   2   29.53    1.52   4
  -7  -7   2   28.84    1.51   1
  -7  -7   2   26.33    1.70   5
   6   7  -2  183.07    3.89   2
  -6   7   2  186.50    3.91   4
   6  -7  -2  186.63    3.83   1
  -6  -7   2  189.92    4.44   5
  -6  -7   2  188.38    3.85   1
  -5   7   2   65.50    1.86   4
   5   7  -2   71.42    1.92   2
   5  -7  -2   63.01    1.80   1
  -4  -7   2  177.88    3.90   5
   4   7  -2  180.08    3.45   2
  -4  -7   2  179.33    3.40   1
   4  -7  -2  180.37    3.39   1
   4   7  -2  181.80    3.42   3
  -4   7   2  178.72    3.55   3
  -4  -7   2  180.32    3.11   4
  -4   7   2  179.02    3.44   4
  -3   7   2  176.45    3.21   4
   3  -7  -2  172.99    3.18   1
   3  -7  -2  169.95    2.84   2
  -3   7   2  177.54    3.39   3
  -3  -7   2  179.21    3.66   5
  -3  -7   2  174.60    3.18   1
   3   7  -2  171.63    3.20   2
   3   7  -2  174.89    3.24   3
  -3  -7   2  177.44    2.94   4
  -2   7   2  849.74   12.81   4
   2   7  -2  857.01   12.84   2
   2  -7  -2  825.44   12.59   2
   2  -7  -2  848.70   12.63   1
   2   7  -2  841.52   14.04   3
  -2  -7   2  850.24   12.63   4
  -2  -7   2  854.08   12.63   1
  -2   7   2  839.94   14.13   3
  -1  -7   2   32.22    0.82   4
  -1  -7   2   31.26    0.90   1
   1   7  -2   31.36    0.94   3
   1   7  -2   32.01    0.87   2
   1  -7  -2   32.61    0.92   1
   1  -7  -2   32.37    0.81   2
  -1   7   2   32.32    0.84   4
  -1   7   2   31.16    0.99   3
   0   7   2  343.99    6.13   3
   0  -7  -2  339.44    5.35   1
   0   7   2  347.61    5.34   4
   0  -7  -2  346.78    5.50   2
   0  -7   2  351.39    5.49   4
   0   7  -2  347.87    5.39   2
   0  -7   2  346.75    5.38   1
   0   7  -2  344.52    6.10   3
  -1  -7  -2  295.77    4.64   1
   1   7   2  293.13    4.56   4
  -1  -7  -2  289.99    4.84   2
   1  -7   2  291.11    4.84   4
   1  -7   2  293.66    4.62   1
   1   7   2  291.25    5.38   3
  -1   7  -2  295.48    5.37   3
  -1   7  -2  294.43    4.58   2
   2   7   2    3.23    0.29   4
  -2   7  -2    2.84    0.27   2
   2   7   2    2.66    0.45   3
   2  -7   2    2.87    0.33   1
  -2  -7  -2    3.06    0.35   1
   2  -7   2    2.96    0.44   4
  -2  -7  -2    3.27    0.43   2
  -3   7  -2  528.22    9.54   3
   3  -7   2  539.78    8.69   4
  -3  -7  -2  522.21    8.63   2
   3   7   2  539.45    9.59   3
   3  -7   2  536.58    8.21   1
  -3  -7  -2  522.51    8.20   1
   3   7   2  541.07    8.22   4
   4  -7   2  195.70    3.52   1
   4   7   2  196.55    4.29   3
  -4   7  -2  198.60    4.28   3
  -4  -7  -2  189.86    3.86   2
   5   7   2   39.01    1.71   3
   5  -7   2   42.18    1.60   4
  -5   7  -2   37.68    1.76   3
  -5  -7  -2   37.79    1.56   2
  -6   7  -2    5.83    0.93   3
   6  -7   2    7.22    0.94   4
  -6  -7  -2    6.37    0.92   2
   6   7   2    5.95    0.92   3
  -7   8   2    0.66    0.68   4
   7  -8  -2   -0.19    0.54   1
  -7  -8   2   -0.53    0.65   1
  -7  -8   2   -0.62    0.64   5
   7   8  -2    0.17    0.58   2
  -6  -8   2   -0.19    0.54   1
   6  -8  -2    1.11    0.50   1
  -6   8   2    0.32    0.55   4
  -6  -8   2   -0.02    0.54   5
   6   8  -2    1.70    0.59   2
  -5  -8   2    5.61    0.66   1
  -5  -8   2    4.39    0.67   5
   5  -8  -2    5.31    0.64   1
   5   8  -2    5.35    0.65   2
  -5   8   2    5.99    0.69   4
  -4   8   2  321.93    5.93   3
   4   8  -2  326.32    5.61   2
  -4  -8   2  324.24    6.31   5
   4   8  -2  320.80    5.76   3
  -4  -8   2  317.38    5.48   1
   4  -8  -2  321.57    5.50   1
  -4   8   2  329.82    5.59   4
   3  -8  -2  156.71    2.62   2
  -3   8   2  163.98    3.23   3
  -3   8   2  161.37    3.03   4
  -3  -8   2  161.98    2.71   4
   3   8  -2  163.64    3.08   3
   3   8  -2  160.75    3.05   2
  -3  -8   2  161.09    3.01   1
   3  -8  -2  159.09    3.02   1
   2   8  -2  612.77    9.35   2
   2  -8  -2  603.97    9.07   2
  -2  -8   2  601.30    9.20   1
  -2   8   2  594.74    9.29   4
  -2   8   2  605.29   10.28   3
   2   8  -2  592.77   10.17   3
   2  -8  -2  606.42    9.22   1
  -2  -8   2  600.48    9.09   4
   1  -8  -2  295.98    4.70   2
   1   8  -2  294.41    5.29   3
   1   8  -2  301.21    4.78   2
   1  -8  -2  293.40    4.74   1
  -1   8   2  299.87    5.35   3
  -1   8   2  290.06    4.71   4
  -1  -8   2  292.95    4.74   1
  -1  -8   2  297.20    4.68   4
   0  -8   2  143.39    2.53   1
   0  -8   2  144.39    2.56   4
   0  -8  -2  141.47    2.51   1
   0   8   2  143.33    2.38   4
   0   8   2  141.80    2.90   3
   0   8  -2  144.26    2.88   3
   0  -8  -2  139.63    2.56   2
   0   8  -2  143.50    2.45   2
   1   8   2  144.36    2.36   4
  -1  -8  -2  146.84    2.55   1
   1   8   2  143.60    3.00   3
  -1   8  -2  140.96    2.40   2
  -1  -8  -2  141.11    2.67   2
   1  -8   2  143.65    2.68   4
   1  -8   2  140.63    2.52   1
  -1   8  -2  140.28    2.97   3
  -2  -8  -2   63.32    1.62   2
  -2   8  -2   64.45    1.81   3
   2  -8   2   66.92    1.46   1
   2   8   2   62.96    1.82   3
   2   8   2   61.83    1.27   4
   2  -8   2   63.82    1.63   4
  -2  -8  -2   65.62    1.47   1
   3  -8   2   76.41    1.72   1
  -3  -8  -2   74.17    1.74   1
  -3   8  -2   75.36    2.15   3
   3   8   2   78.00    2.17   3
  -3  -8  -2   74.81    1.94   2
   3  -8   2   76.03    1.96   4
   4  -8   2  147.27    2.82   1
  -4   8  -2  139.44    3.42   3
  -4  -8  -2  139.27    3.11   2
   4   8   2  146.67    3.47   3
  -5  -8  -2   71.65    2.16   2
  -5   8  -2   66.92    2.30   3
   5  -8   2   66.85    2.09   4
   5   8   2   67.95    2.31   3
  -6   8  -2  145.42    3.87   3
   6   8   2  145.71    3.89   3
  -6  -8  -2  153.30    3.64   2
   6  -8   2  144.45    3.58   4
  -7  -9   2   49.76    1.96   1
  -7   9   2   53.61    2.01   4
   7  -9  -2   53.33    1.93   1
   7   9  -2   49.68    1.94   2
   6   9  -2    5.48    0.77   2
   6  -9  -2    5.21    0.71   1
  -6   9   2    4.27    0.76   4
  -6  -9   2    4.16    0.73   1
  -5  -9   2  294.23    5.25   1
   5   9  -2  287.21    5.35   2
  -4   9   2    1.49    0.46   4
  -4   9   2    1.09    0.42   3
   4  -9  -2    1.08    0.42   1
   4   9  -2    1.03    0.36   3
  -4  -9   2    0.64    0.43   1
   4   9  -2    0.62    0.42   2
   3   9  -2   23.96    0.96   2
   3   9  -2   23.34    0.88   3
  -3   9   2   22.66    0.97   3
   3  -9  -2   24.53    0.96   1
  -3  -9   2   22.31    0.96   1
  -3   9   2   24.14    0.94   4
   2   9  -2    4.00    0.41   2
   2   9  -2    3.37    0.38   3
   2  -9  -2    2.40    0.25   2
  -2   9   2    2.47    0.39   3
  -2  -9   2    2.83    0.29   4
  -2  -9   2    2.52    0.38   1
  -2   9   2    3.98    0.41   4
   2  -9  -2    2.20    0.36   1
  -1   9   2 1278.88   21.44   3
   1  -9  -2 1296.71   19.01   1
   1  -9  -2 1301.57   19.19   2
  -1  -9   2 1275.73   19.00   1
   1   9  -2 1262.95   21.37   3
  -1  -9   2 1307.72   19.18   4
   1   9  -2 1320.15   19.27   2
  -1   9   2 1300.14   19.21   4
   0   9  -2  305.96    5.60   3
   0  -9  -2  312.00    4.94   1
   0  -9   2  316.09    4.98   4
   0   9   2  307.47    4.79   4
   0   9  -2  313.85    4.88   2
   0  -9   2  301.95    4.93   1
   0   9   2  306.68    5.64   3
   0  -9  -2  297.42    4.98   2
  -1  -9  -2   12.61    0.68   1
   1  -9   2   12.91    0.64   1
   1  -9   2   13.47    0.69   4
  -1  -9  -2   13.68    0.70   2
  -1   9  -2   12.70    0.51   2
  -1   9  -2   12.14    0.79   3
   1   9   2   12.51    0.80   3
  -2   9  -2    0.81    0.42   3
   2  -9   2    0.35    0.32   1
   2  -9   2    1.01    0.42   4
   2   9   2    0.70    0.45   3
  -2  -9  -2    0.81    0.34   1
   3  -9   2  135.19    2.89   4
  -3  -9  -2  134.00    2.63   1
   3   9   2  137.48    3.20   3
  -3   9  -2  133.10    3.15   3
   3  -9   2  131.47    2.58   1
  -3  -9  -2  133.54    2.87   2
  -4  -9  -2    0.42    0.45   2
  -4   9  -2   -0.64    0.47   3
   4  -9   2   -0.64    0.34   1
   4   9   2    0.02    0.46   3
   4  -9   2    2.04    0.56   4
  -5  -9  -2  132.03    3.16   2
   5   9   2  123.47    3.37   3
  -5   9  -2  127.70    3.39   3
   5  -9   2  125.77    3.09   4
   6   9   2    3.37    0.81   3
   6  -9   2    3.34    0.82   4
  -6   9  -2    2.66    0.85   3
  -6  -9  -2    2.74    0.79   2
   7 -10  -2    2.64    0.73   1
  -7  10   2    2.18    0.80   4
  -7 -10   2    2.29    0.77   1
   7  10  -2    3.17    0.79   2
   6 -10  -2    8.85    0.84   1
   6  10  -2    8.82    0.91   2
  -6  10   2    9.41    0.94   4
  -6 -10   2    9.56    0.90   1
  -5  10   2    1.67    0.59   4
   5  10  -2    1.65    0.55   2
  -5 -10   2    0.81    0.52   1
   5 -10  -2    1.90    0.53   1
   4  10  -2  246.35    4.58   2
   4 -10  -2  248.84    4.50   1
  -4  10   2  246.91    4.53   4
  -4  10   2  244.77    4.85   3
  -4 -10   2  247.27    4.50   1
   4  10  -2  251.23    4.67   3
   3  10  -2   70.68    1.73   3
   3 -10  -2   69.09    1.74   1
  -3  10   2   67.34    1.82   3
   3  10  -2   70.86    1.76   2
  -3 -10   2   67.73    1.73   1
   2  10  -2   63.53    1.62   3
   2 -10  -2   63.81    1.57   1
   2  10  -2   69.61    1.58   2
  -2  10   2   63.20    1.50   4
  -2 -10   2   65.06    1.60   1
  -2 -10   2   63.05    1.29   4
  -2  10   2   65.79    1.72   3
   2 -10  -2   62.78    1.27   2
   1 -10  -2   24.18    0.94   1
   1 -10  -2   22.60    0.76   2
   1  10  -2   22.78    0.99   3
   1  10  -2   24.20    0.85   2
  -1 -10   2   23.85    0.78   4
  -1 -10   2   23.36    0.93   1
  -1  10   2   25.28    1.06   3
  -1  10   2   24.70    0.82   4
   0  10  -2  263.78    5.03   3
   0 -10   2  272.41    4.45   4
   0  10  -2  278.16    4.35   2
   0 -10  -2  264.15    4.43   1
   0 -10  -2  262.06    4.45   2
   0  10   2  271.77    5.09   3
   0 -10   2  269.06    4.45   1
   0  10   2  270.23    4.24   4
  -1  10  -2  140.44    2.38   2
  -1  10  -2  139.01    3.03   3
   1  10   2  139.96    3.04   3
   1 -10   2  140.01    2.60   1
  -1 -10  -2  141.96    2.62   1
  -1 -10  -2  138.78    2.70   2
   1 -10   2  137.02    2.68   4
   2 -10   2 2266.40   34.23   1
  -2 -10  -2 2358.99   35.04   2
  -2 -10  -2 2396.52   34.30   1
   2  10   2 2377.54   38.87   3
  -2  10  -2 2418.56   38.89   3
   2 -10   2 2338.99   35.05   4
   3 -10   2   61.05    1.54   1
  -3 -10  -2   59.71    1.57   1
   3  10   2   58.56    1.90   3
   3 -10   2   57.93    1.72   4
  -3 -10  -2   60.83    1.76   2
  -3  10  -2   58.40    1.90   3
  -4 -10  -2   12.67    1.00   2
   4 -10   2   11.59    0.90   1
  -4  10  -2    9.77    1.00   3
   4  10   2   11.47    1.05   3
   4 -10   2   12.62    0.95   4
  -5 -10  -2    3.31    0.74   2
   5  10   2    1.58    0.69   3
   5 -10   2    1.43    0.63   4
  -5  10  -2    1.52    0.68   3
   7  11  -2    4.98    0.88   2
  -7 -11   2    4.74    0.86   1
  -7  11   2    3.70    0.90   4
   7 -11  -2    4.30    0.81   1
   6 -11  -2   42.24    1.63   1
  -6 -11   2   42.69    1.68   1
   6  11  -2   43.52    1.71   2
  -6  11   2   44.63    1.71   4
   5 -11  -2  236.42    4.53   1
   5  11  -2  235.82    4.64   2
  -5  11   2  234.08    4.58   4
  -5 -11   2  238.48    4.55   1
  -4 -11   2   28.96    1.22   1
   4  11  -2   28.03    1.21   2
   4  11  -2   27.10    1.10   3
  -4  11   2   28.63    1.18   4
  -4  11   2   26.99    1.23   3
   4 -11  -2   28.41    1.20   1
   3 -11  -2   57.88    1.59   1
  -3  11   2   56.46    1.68   3
  -3 -11   2   54.62    1.56   1
  -3  11   2   57.63    1.55   4
   3  11  -2   54.21    1.55   3
   3  11  -2   56.09    1.60   2
  -2 -11   2  228.10    4.03   1
   2  11  -2  227.67    4.02   2
  -2  11   2  229.02    4.46   3
  -2  11   2  230.93    3.95   4
   2 -11  -2  226.19    4.02   1
   2 -11  -2  225.61    3.66   2
   2  11  -2  228.41    4.36   3
   1 -11  -2 1377.85   20.55   1
  -1  11   2 1379.15   20.69   4
   1  11  -2 1397.94   20.78   2
   1  11  -2 1376.00   23.13   3
  -1 -11   2 1422.50   20.61   1
   1 -11  -2 1411.05   20.70   2
  -1  11   2 1378.90   23.19   3
  -1 -11   2 1406.10   20.67   4
   0 -11  -2   55.73    1.40   1
   0 -11   2   55.63    1.41   1
   0  11  -2   55.75    1.60   3
   0 -11   2   52.83    1.31   4
   0  11   2   53.30    1.13   4
   0  11   2   55.08    1.62   3
   0 -11  -2   54.93    1.33   2
   0  11  -2   55.31    1.24   2
  -1  11  -2   13.26    0.90   3
   1 -11   2   14.18    0.73   1
  -1 -11  -2   12.75    0.78   1
   1  11   2   14.12    0.89   3
   1 -11   2   13.38    0.75   4
   2 -11   2    6.52    0.61   1
  -2  11  -2    5.47    0.68   3
  -2 -11  -2    5.68    0.60   1
   2 -11   2    6.46    0.66   4
   3 -11   2   27.49    1.18   4
  -3 -11  -2   29.11    1.24   2
   3  11   2   28.48    1.35   3
  -3  11  -2   26.74    1.35   3
  -3 -11  -2   27.41    1.10   1
   3 -11   2   29.85    1.08   1
   4 -11   2  176.02    3.78   4
   4  11   2  173.19    4.13   3
  -4 -11  -2  184.53    3.84   2
   4 -11   2  184.81    3.50   1
  -4  11  -2  173.99    4.14   3
  -5 -11  -2  108.41    2.89   2
   5  11   2  110.49    3.13   3
   5 -11   2  105.72    2.81   4
  -5  11  -2  103.08    3.07   3
  -6  12   2    0.90    0.67   4
   6  12  -2    1.66    0.67   2
  -6 -12   2    0.62    0.61   1
   6 -12  -2    0.14    0.55   1
   5  12  -2   14.80    1.01   2
   5 -12  -2   13.57    0.98   1
  -5  12   2   14.46    1.01   4
  -5 -12   2   14.14    1.07   1
  -4  12   2    4.06    0.62   3
  -4  12   2    3.84    0.60   4
   4  12  -2    3.05    0.59   2
   4  12  -2    3.64    0.53   3
  -4 -12   2    3.83    0.60   1
   4 -12  -2    3.03    0.57   1
   3  12  -2  321.18    5.55   2
  -3  12   2  315.91    5.45   4
   3 -12  -2  318.50    5.49   1
  -3  12   2  315.16    6.03   3
   3  12  -2  320.07    5.90   3
  -3 -12   2  314.82    5.46   1
   2  12  -2   80.16    2.01   3
  -2 -12   2   80.52    1.94   1
   2 -12  -2   80.97    1.54   2
  -2  12   2   79.88    1.80   4
   2 -12  -2   81.57    1.94   1
   2  12  -2   79.29    1.87   2
  -2  12   2   82.59    2.12   3
  -1 -12   2   37.15    1.02   4
  -1 -12   2   36.03    1.20   1
   1 -12  -2   39.43    1.23   1
  -1  12   2   42.63    1.41   3
  -1  12   2   39.17    1.05   4
   1 -12  -2   36.59    1.01   2
   1  12  -2   33.74    1.09   2
   1  12  -2   36.36    1.32   3
   0  12  -2    1.28    0.29   2
   0 -12   2    1.02    0.31   4
   0 -12  -2    0.10    0.28   2
   0  12   2    0.53    0.36   3
   0  12   2    1.43    0.25   4
   0 -12   2    0.75    0.35   1
   0  12  -2    0.44    0.37   3
   0 -12  -2    0.71    0.34   1
  -1  12  -2  245.13    4.85   3
   1 -12   2  237.86    4.25   4
  -1 -12  -2  240.32    4.21   1
   1  12   2  241.68    4.84   3
   1 -12   2  237.84    4.19   1
  -1 -12  -2  249.29    4.31   2
   2 -12   2  168.42    3.37   4
  -2 -12  -2  178.59    3.29   1
   2  12   2  171.83    3.78   3
  -2  12  -2  172.58    3.80   3
   2 -12   2  166.76    3.20   1
  -2 -12  -2  169.71    3.40   2
   3 -12   2   29.18    1.22   4
  -3 -12  -2   27.25    1.24   2
  -3  12  -2   28.28    1.43   3
  -3 -12  -2   29.70    1.17   1
   3  12   2   30.14    1.39   3
   3 -12   2   29.45    1.14   1
   4 -12   2   85.19    2.13   1
   4  12   2   84.49    2.57   3
   4 -12   2   79.58    2.30   4
  -4  12  -2   80.51    2.57   3
  -4 -12  -2   84.60    2.38   2
   5 -12   2   30.25    1.46   4
   5  12   2   32.59    1.69   3
  -5  12  -2   30.58    1.68   3
  -5 -12  -2   31.05    1.58   2
  -6  13   2  238.23    4.93   4
   6  13  -2  239.81    5.02   2
   6 -13  -2  238.81    4.83   1
  -6 -13   2  240.70    4.86   1
  -5  13   2   10.05    0.92   4
  -5 -13   2   10.10    0.90   1
   5 -13  -2   10.47    0.92   1
   5  13  -2   11.37    0.97   2
   4 -13  -2   58.90    1.80   1
  -4  13   2   60.20    1.91   3
   4  13  -2   61.26    1.79   3
  -4  13   2   60.70    1.79   4
  -4 -13   2   59.14    1.79   1
   4  13  -2   59.19    1.84   2
   3 -13  -2   34.03    1.30   1
   3  13  -2   31.48    1.27   2
  -3 -13   2   34.57    1.32   1
  -3  13   2   32.71    1.21   4
   3  13  -2   34.60    1.32   3
  -3  13   2   34.46    1.44   3
  -2 -13   2  142.15    2.92   1
   2  13  -2  142.89    2.86   2
   2  13  -2  141.49    3.11   3
  -2  13   2  147.86    2.78   4
  -2  13   2  142.03    3.21   3
   2 -13  -2  145.73    2.94   1
   1 -13  -2    6.96    0.52   2
   1  13  -2    3.84    0.45   2
  -1  13   2    4.44    0.43   4
   1 -13  -2    4.09    0.51   1
  -1  13   2    4.15    0.57   3
  -1 -13   2    4.48    0.55   1
   1  13  -2    4.04    0.56   3
   0 -13  -2  168.40    3.18   1
   0 -13   2  166.09    3.04   4
   0  13  -2  164.23    3.59   3
   0 -13  -2  163.25    3.06   2
   0  13   2  167.76    3.63   3
   0  13  -2  168.95    2.95   2
   0 -13   2  167.38    3.18   1
  -1  13  -2   32.96    1.39   3
   1  13   2   34.32    1.39   3
  -1 -13  -2   34.55    1.19   2
   1 -13   2   30.84    1.09   4
  -1 -13  -2   34.07    1.20   1
   1 -13   2   34.10    1.17   1
   2 -13   2   23.95    0.99   1
   2 -13   2   23.00    1.02   4
  -2  13  -2   22.77    1.23   3
  -2 -13  -2   23.51    1.06   1
  -2 -13  -2   23.71    1.09   2
   2  13   2   22.88    1.20   3
  -3 -13  -2    7.85    0.77   2
   3 -13   2    8.16    0.76   1
   3  13   2    8.07    0.84   3
  -3  13  -2    7.85    0.88   3
  -3 -13  -2    9.16    0.75   1
   3 -13   2    8.14    0.77   4
   4 -13   2  285.78    5.13   1
  -4  13  -2  287.09    6.05   3
   4 -13   2  278.64    5.43   4
  -4 -13  -2  290.76    5.51   2
   4  13   2  276.80    5.98   3
   5 -13   2    0.98    0.65   4
  -5  13  -2    0.86    0.70   3
   5  13   2    1.69    0.69   3
  -5 -13  -2    2.00    0.70   2
  -6  14   2    1.91    0.74   4
   6 -14  -2    2.59    0.69   1
  -6 -14   2    1.84    0.72   1
   6  14  -2    1.92    0.72   2
   5 -14  -2   33.47    1.45   1
  -5 -14   2   37.56    1.53   1
  -5  14   2   34.59    1.47   4
   5  14  -2   35.50    1.53   2
  -4  14   2    8.85    0.97   3
   4  14  -2    7.09    0.70   3
  -4 -14   2    7.10    0.77   1
   4 -14  -2    7.71    0.77   1
  -4  14   2    7.42    0.78   4
   4  14  -2    6.64    0.77   2
  -3  14   2  477.23    8.69   3
   3  14  -2  481.29    8.54   3
  -3 -14   2  468.54    7.79   1
   3  14  -2  462.48    7.87   2
   3 -14  -2  482.89    7.85   1
  -3  14   2  454.51    7.73   4
   2  14  -2    1.48    0.47   3
   2  14  -2    1.27    0.45   2
  -2 -14   2    1.32    0.47   1
  -2  14   2    2.45    0.44   4
  -2  14   2    1.07    0.51   3
   2 -14  -2    1.35    0.45   1
   1 -14  -2    3.97    0.54   1
   1 -14  -2    4.10    0.42   2
  -1  14   2    5.20    0.65   3
   1  14  -2    3.99    0.48   2
   1  14  -2    4.06    0.59   3
  -1  14   2    4.77    0.46   4
  -1 -14   2    5.58    0.60   1
   0  14   2   16.13    1.05   3
   0 -14  -2   18.29    0.81   2
   0 -14   2   14.48    0.74   4
   0 -14  -2   16.55    0.91   1
   0  14  -2   15.65    1.04   3
   0 -14   2   16.47    0.92   1
  -1 -14  -2  591.24    9.31   1
   1  14   2  590.20   10.57   3
  -1 -14  -2  591.73    9.42   2
  -1  14  -2  596.85   10.60   3
   1 -14   2  567.80    9.34   4
   1 -14   2  589.91    9.30   1
  -2 -14  -2   21.68    1.07   2
   2 -14   2   21.86    1.00   1
  -2  14  -2   20.60    1.23   3
   2 -14   2   20.60    0.98   4
   2  14   2   20.63    1.20   3
  -2 -14  -2   21.94    1.07   1
   3  14   2  100.97    2.87   3
   3 -14   2  106.37    2.44   1
  -3  14  -2  103.97    2.90   3
  -3 -14  -2  105.45    2.62   2
   3 -14   2  103.04    2.56   4
  -3 -14  -2  110.01    2.53   1
   4  14   2    1.81    0.65   3
  -4 -14  -2    1.31    0.64   2
  -4  14  -2    2.41    0.79   3
   4 -14   2    1.33    0.69   4
  -5  14  -2   23.51    1.61   3
   5  14   2   23.81    1.54   3
  -5 -14  -2   24.89    1.51   2
   5 -14   2   25.84    1.42   4
   6 -15  -2   48.81    1.92   1
  -6 -15   2   51.06    1.98   1
   6  15  -2   49.96    2.00   2
  -6  15   2   54.72    2.01   4
   5  15  -2    0.11    0.57   2
  -5  15   2    0.10    0.56   4
   5 -15  -2    0.58    0.52   1
  -5 -15   2    0.25    0.55   1
  -4  15   2   40.65    1.49   4
   4  15  -2   37.14    1.50   2
   4  15  -2   43.07    1.57   3
  -4 -15   2   38.41    1.52   1
  -4  15   2   41.69    1.69   3
   4 -15  -2   41.15    1.54   1
  -3  15   2  128.67    2.79   4
   3 -15  -2  132.08    2.96   1
   3  15  -2  127.41    2.90   2
   3  15  -2  132.88    3.09   3
  -3  15   2  131.70    3.21   3
  -2  15   2  152.99    2.95   4
   2 -15  -2  151.50    3.17   1
  -2  15   2  153.75    3.52   3
  -2 -15   2  151.93    3.20   1
   2  15  -2  151.72    3.39   3
   2  15  -2  151.60    3.08   2
   1 -15  -2   55.14    1.35   2
   1  15  -2   56.24    1.80   3
  -1 -15   2   53.06    1.62   1
   1  15  -2   51.68    1.45   2
  -1  15   2   54.30    1.82   3
   0 -15   2  359.76    6.06   1
   0 -15  -2  349.06    5.93   2
   0 -15  -2  361.13    6.06   1
  -1  15  -2   11.19    1.02   3
   1  15   2   11.09    1.01   3
  -1 -15  -2   12.17    0.84   2
   1 -15   2   10.35    0.74   4
  -1 -15  -2   11.89    0.88   1
   1 -15   2   12.02    0.88   1
   2 -15   2   41.04    1.40   4
   2 -15   2   40.75    1.40   1
  -2  15  -2   43.30    1.72   3
  -2 -15  -2   41.90    1.47   2
   2  15   2   43.75    1.70   3
  -2 -15  -2   43.57    1.48   1
   3  15   2    6.58    0.84   3
  -3 -15  -2    8.34    0.79   1
   3 -15   2    8.51    0.84   4
   3 -15   2    7.41    0.71   1
  -3 -15  -2    8.99    0.86   2
  -3  15  -2    7.28    0.90   3
  -4  15  -2  136.13    3.73   3
   4 -15   2  147.55    3.43   4
  -4 -15  -2  147.06    3.47   2
   4  15   2  138.41    3.72   3
  -5  16   2    6.04    0.87   4
   5  16  -2    7.07    0.91   2
  -5 -16   2    6.74    0.88   1
   5 -16  -2    7.75    0.86   1
  -4 -16   2    4.70    0.73   1
  -4  16   2    5.04    0.73   4
   4  16  -2    4.86    0.69   3
  -4  16   2    5.02    0.80   3
   4  16  -2    5.54    0.76   2
   4 -16  -2    4.32    0.69   1
  -3  16   2   66.81    2.15   3
   3  16  -2   68.80    2.05   3
   3 -16  -2   62.68    1.93   1
   3  16  -2   65.26    1.91   2
  -3  16   2   65.64    1.82   4
  -3 -16   2   67.34    1.99   1
  -2 -16   2   64.60    1.91   1
   2  16  -2   63.04    1.95   3
  -2  16   2   65.36    2.08   3
  -2  16   2   63.63    1.65   4
   2 -16  -2   65.53    1.89   1
   2  16  -2   62.61    1.76   2
   1  16  -2   15.69    0.88   2
   1 -16  -2   17.05    1.02   1
  -1 -16   2   15.76    1.00   1
   1  16  -2   15.26    1.09   3
  -1  16   2   17.97    1.15   3
   0  16  -2  132.99    3.26   3
   0 -16  -2  132.82    2.88   1
   0  16   2  132.30    3.27   3
   0 -16  -2  133.89    2.72   2
   0 -16   2  136.54    2.90   1
  -1 -16  -2   60.82    1.77   1
  -1  16  -2   60.67    2.05   3
  -1 -16  -2   62.59    1.73   2
   1  16   2   61.05    2.03   3
   1 -16   2   60.08    1.76   1
   1 -16   2   58.34    1.62   4
  -2 -16  -2   71.80    1.98   1
   2  16   2   66.56    2.20   3
  -2 -16  -2   66.84    1.93   2
  -2  16  -2   68.90    2.27   3
   2 -16   2   68.24    1.91   1
   2 -16   2   69.57    1.91   4
   3 -16   2   -0.01    0.44   1
  -3 -16  -2   -0.49    0.47   1
   3  16   2    0.24    0.53   3
  -3 -16  -2    0.06    0.50   2
  -3  16  -2   -0.97    0.57   3
   3 -16   2   -0.01    0.51   4
  -4 -16  -2    9.82    1.02   2
  -4  16  -2    9.07    1.09   3
   4 -16   2    9.48    0.99   4
   4  16   2    7.77    0.96   3
  -5  17   2  163.39    3.75   4
   5 -17  -2  162.69    3.78   1
   5  17  -2  166.15    3.89   2
  -5 -17   2  167.63    3.80   1
   4  17  -2    0.59    0.58   2
  -4  17   2    0.67    0.58   4
  -4  17   2    1.48    0.65   3
   4  17  -2    0.87    0.58   3
   4 -17  -2    0.73    0.57   1
  -4 -17   2    1.46    0.63   1
  -3 -17   2   28.98    1.34   1
  -3  17   2   29.27    1.49   3
   3  17  -2   30.71    1.41   3
  -3  17   2   29.67    1.22   4
   3 -17  -2   28.91    1.32   1
   3  17  -2   30.08    1.29   2
  -2 -17   2   22.51    1.20   1
  -2  17   2   22.20    1.33   3
   2  17  -2   19.66    1.05   2
   2  17  -2   21.60    1.21   3
   2 -17  -2   21.96    1.15   1
   1 -17  -2  104.26    2.50   1
   1  17  -2   99.02    2.69   3
  -1  17   2  100.80    2.76   3
   0  17   2   37.02    1.60   3
   0  17  -2   39.62    1.67   3
   0 -17   2   38.69    1.42   1
   0 -17  -2   40.53    1.47   1
   0 -17  -2   40.44    1.30   2
   1 -17   2   16.21    1.01   1
   1  17   2   14.90    1.15   3
  -1 -17  -2   13.23    0.89   2
  -1 -17  -2   15.44    0.97   1
  -1  17  -2   14.59    1.13   3
  -2 -17  -2   13.02    0.93   2
  -2  17  -2   13.95    1.17   3
   2 -17   2   12.47    0.90   4
  -2 -17  -2   12.99    0.97   1
   2  17   2   12.85    1.10   3
   2 -17   2   13.82    0.99   1
   3 -17   2   89.65    2.45   4
  -3 -17  -2   82.61    2.39   2
   3  17   2   85.24    2.69   3
  -3 -17  -2   90.66    2.39   1
   3 -17   2   87.49    2.33   1
  -3  17  -2   84.74    2.77   3
   4  17   2    6.16    0.92   3
   4 -17   2    7.14    0.95   4
  -4 -17  -2    7.00    0.92   2
  -4  17  -2    6.93    1.01   3
   5  18  -2    2.36    0.76   2
   5 -18  -2    2.22    0.71   1
  -5 -18   2    2.63    0.81   1
  -5  18   2    1.95    0.74   4
   4 -18  -2  132.26    3.26   1
  -4 -18   2  132.22    3.24   1
  -4  18   2  139.23    3.59   3
  -4  18   2  137.56    3.14   4
   4  18  -2  131.27    3.25   2
  -3  18   2    2.23    0.58   4
   3 -18  -2    2.17    0.61   1
   3  18  -2    2.55    0.62   2
  -3  18   2    2.11    0.67   3
   3  18  -2    2.15    0.63   3
  -3 -18   2    2.59    0.66   1
   2 -18  -2  153.56    3.41   1
   2  18  -2  159.00    3.71   3
  -2 -18   2  158.10    3.47   1
  -2  18   2  159.73    3.82   3
   2  18  -2  154.69    3.28   2
   1 -18  -2    9.10    0.83   1
  -1 -18   2    9.85    0.93   1
  -1  18   2    8.36    0.89   3
   1  18  -2    9.43    1.01   3
   0 -18  -2   64.52    1.93   1
   0 -18   2   61.79    1.88   1
   0  18  -2   65.06    2.18   3
   0 -18  -2   66.87    1.75   2
   0  18   2   61.89    2.13   3
  -1 -18  -2   11.72    0.97   1
  -1 -18  -2    8.40    0.81   2
   1  18   2    9.43    1.02   3
   1 -18   2   10.64    0.92   1
  -1  18  -2    8.03    0.92   3
   2 -18   2  178.57    3.63   4
  -2 -18  -2  175.38    3.67   1
  -2  18  -2  169.75    4.22   3
   2  18   2  165.75    4.14   3
  -2 -18  -2  164.83    3.62   2
   2 -18   2  176.33    3.67   1
  -3  18  -2    2.26    0.79   3
  -3 -18  -2    0.58    0.59   2
   3 -18   2    1.11    0.57   1
   3 -18   2    1.43    0.69   4
   3  18   2    1.45    0.68   3
  -4  18  -2    0.32    0.74   3
   4 -18   2    0.48    0.67   4
   4  18   2    0.12    0.63   3
  -4 -18  -2    0.89    0.65   2
   4  19  -2   47.56    1.86   2
  -4  19   2   52.96    2.15   3
   4 -19  -2   47.19    1.86   1
  -4 -19   2   48.94    1.91   1
  -4  19   2   53.01    1.83   4
   3 -19  -2    0.07    0.53   1
  -3 -19   2    0.01    0.56   1
   3  19  -2    0.24    0.55   3
   3  19  -2   -0.56    0.51   2
  -3  19   2    0.41    0.62   3
  -2  19   2    8.43    0.95   3
   2 -19  -2    6.65    0.79   1
  -2 -19   2    6.68    0.82   1
   2  19  -2    6.63    0.85   3
   1  19  -2  211.74    4.74   3
   1 -19  -2  217.50    4.32   1
  -1  19   2  212.41    4.80   3
  -1 -19   2  211.39    4.30   1
   0 -19  -2    2.98    0.65   1
   0  19   2    2.48    0.67   3
   0 -19   2    2.16    0.61   1
   0  19  -2    2.17    0.66   3
  -1 -19  -2    4.28    0.71   1
  -1  19  -2    5.33    0.87   3
  -1 -19  -2    4.13    0.65   2
   1  19   2    3.60    0.78   3
   1 -19   2    4.94    0.72   1
  -2  19  -2    1.53    0.78   3
  -2 -19  -2    2.70    0.65   2
   2 -19   2    2.32    0.64   1
  -2 -19  -2    3.51    0.70   1
   2  19   2    2.75    0.74   3
  -3  19  -2  115.98    3.49   3
  -3 -19  -2  118.41    3.04   2
   3 -19   2  126.38    3.06   4
   3  19   2  109.68    3.32   3
   3 -19   2  118.50    2.94   1
  -4 -20   2   68.33    2.32   1
  -4  20   2   70.43    2.18   4
   4  20  -2   68.93    2.27   2
  -4  20   2   73.39    2.58   3
   4 -20  -2   70.30    2.32   1
  -3  20   2   25.06    1.57   3
   3 -20  -2   25.88    1.36   1
   3  20  -2   26.79    1.45   3
   3  20  -2   22.87    1.26   2
  -3 -20   2   24.12    1.37   1
   2 -20  -2    9.21    0.89   1
  -2  20   2   11.08    1.17   3
   2  20  -2    9.57    1.05   3
  -2 -20   2    9.71    0.97   1
   1  20  -2   37.18    1.73   3
  -1  20   2   40.09    1.80   3
   1 -20  -2   39.28    1.62   1
  -1 -20   2   37.57    1.57   1
   0  20   2    8.56    0.97   3
   0  20  -2    7.54    0.94   3
   0 -20   2    7.80    0.86   1
   0 -20  -2    7.58    0.86   1
  -1 -20  -2  100.58    2.48   2
  -1 -20  -2   98.04    2.60   1
   1  20   2   97.64    2.96   3
  -1  20  -2   99.58    3.01   3
  -2  20  -2    0.83    0.73   3
  -2 -20  -2    1.89    0.63   2
   2 -20   2    1.42    0.64   1
   2  20   2    1.29    0.69   3
  -2 -20  -2    2.23    0.66   1
  -3 -20  -2    1.30    0.66   2
   3 -20   2    0.96    0.62   1
  -3  20  -2    1.84    0.85   3
   3  20   2    1.84    0.73   3
  -3 -21   2   -0.08    0.63   1
   3  21  -2    0.98    0.66   3
  -3  21   2    0.06    0.71   3
   3 -21  -2    0.26    0.60   1
  -2 -21   2   11.41    1.04   1
  -2  21   2   10.00    1.08   3
   2 -21  -2   11.20    1.01   1
   2  21  -2   10.45    1.10   3
   1  21  -2   25.79    1.50   3
  -1 -21   2   27.22    1.39   1
   1 -21  -2   25.11    1.39   1
  -1  21   2   23.79    1.50   3
   0  21  -2   49.95    2.08   3
   0 -21   2   52.78    1.86   1
   0 -21  -2   50.81    1.85   1
   0  21   2   49.66    2.06   3
   1  21   2    8.90    1.06   3
   1 -21   2    9.76    0.97   1
  -1  21  -2    9.64    1.10   3
  -1 -21  -2   10.11    0.95   1
   2  21   2    1.10    0.71   3
   2 -21   2    2.03    0.67   1
  -2 -21  -2    1.11    0.63   2
  -2 -21  -2    2.27    0.69   1
  -2  21  -2    1.09    0.77   3
   3 -22  -2  150.39    3.71   1
   3  22  -2  152.64    3.93   3
  -3  22   2  155.20    4.11   3
  -3 -22   2  149.67    3.71   1
   2  22  -2   -0.04    0.63   3
   2 -22  -2   -0.21    0.54   1
  -2 -22   2   -0.70    0.60   1
  -2  22   2   -0.30    0.68   3
  -1 -22   2    2.76    0.73   1
   1  22  -2    2.08    0.78   3
   1 -22  -2    2.50    0.71   1
  -1  22   2    2.98    0.80   3
   0 -22   2   73.37    2.31   1
   0 -22  -2   74.27    2.32   1
   0  22  -2   75.44    2.62   3
   0  22   2   74.02    2.60   3
   1 -22   2  128.60    3.23   1
   1  22   2  129.31    3.65   3
  -1 -22  -2  128.18    3.23   1
  -1  22  -2  128.90    3.70   3
   2  22   2    1.20    0.76   3
  -2  22  -2    2.06    0.86   3
  -2 -22  -2    2.21    0.75   1
   2 -22   2    1.00    0.66   1
  -2 -23   2   10.87    1.11   1
  -2  23   2   12.51    1.32   3
   2 -23  -2   12.33    1.14   1
   2  23  -2   11.53    1.21   3
   1  23  -2    3.08    0.84   3
   1 -23  -2    3.94    0.78   1
  -1  23   2    4.45    0.90   3
  -1 -23   2    3.47    0.80   1
   0  23  -2   50.41    2.17   3
   0 -23  -2   51.12    1.95   1
   0 -23   2   48.47    1.93   1
   0  23   2   47.60    2.13   3
   1 -23   2   17.29    1.29   1
  -1  23  -2   14.12    1.41   3
  -1 -23  -2   15.44    1.26   1
   1  23   2   16.69    1.39   3
  -7   0   3   52.87    1.78   4
   7   0  -3   52.04    1.83   1
  -6   0   3    0.69    0.50   4
   6   0  -3   -0.33    0.49   1
   6   0  -3    0.37    0.45   2
   5   0  -3  400.16    6.62   2
   5   0  -3  401.32    6.71   1
  -5   0   3  403.47    6.73   4
  -4   0   3   -0.06    0.33   4
   4   0  -3   -0.13    0.30   1
   4   0  -3   -0.10    0.25   2
   3   0  -3  569.56    8.82   2
  -3   0   3  569.02    8.87   4
   3   0  -3  571.78    8.73   1
  -1   0   3   14.53    0.62   4
   1   0  -3   13.80    0.59   2
  -1   0   3   13.58    0.53   3
   1   0  -3   13.71    0.47   1
   0   0  -3    0.37    0.20   2
   0   0   3    0.07    0.21   4
   1   0   3 1259.30   20.87   3
  -1   0  -3 1256.09   18.76   2
   1   0   3 1251.81   18.77   4
  -2   0  -3    0.17    0.27   2
   2   0   3   -0.40    0.28   4
   2   0   3   -0.81    0.31   3
  -3   0  -3  266.79    4.67   2
   3   0   3  269.22    5.35   3
   3   0   3  263.20    4.70   4
  -4   0  -3    0.81    0.45   2
   4   0   3   -0.97    0.49   3
   4   0   3    0.51    0.47   4
   5   0   3    3.75    0.83   3
   5   0   3    6.55    0.81   4
   6   0   3    0.35    0.60   4
  -6   0  -3   -0.45    0.68   3
  -7   1   3    4.33    0.73   4
  -7  -1   3    4.48    0.73   4
   7   1  -3    4.76    0.68   2
   7   1  -3    5.17    0.77   1
   7  -1  -3    4.33    0.73   1
  -6   1   3  267.73    5.00   4
   6  -1  -3  269.53    4.85   2
   6   1  -3  270.26    5.04   1
   6   1  -3  270.78    4.94   2
  -6  -1   3  275.60    4.98   4
   6  -1  -3  276.13    5.05   1
  -5   1   3  290.73    5.11   4
   5  -1  -3  293.00    5.10   1
   5  -1  -3  281.65    4.93   2
   5   1  -3  286.73    5.01   2
  -5  -1   3  290.43    5.05   4
   5   1  -3  288.36    5.09   1
   4   1  -3   63.62    1.60   1
   4   1  -3   63.49    1.54   2
   4  -1  -3   63.64    1.51   2
   4  -1  -3   64.06    1.61   1
  -4  -1   3   63.98    1.58   4
  -4   1   3   65.15    1.62   4
   3  -1  -3   20.85    0.84   1
   3  -1  -3   22.99    0.80   2
  -3  -1   3   25.16    0.87   4
   3   1  -3   21.59    0.85   1
  -3   1   3   23.60    0.87   4
   3   1  -3   22.44    0.82   2
  -2  -1   3  165.61    2.87   4
   2   1  -3  161.71    2.76   1
  -2   1   3  164.81    2.89   4
   2   1  -3  164.74    2.86   2
   2  -1  -3  164.95    2.85   2
   2  -1  -3  157.95    2.76   1
  -1  -1   3  134.05    2.38   4
   1   1  -3  133.59    2.18   1
   1   1  -3  133.09    2.38   2
  -1   1   3  132.45    2.48   3
  -1  -1   3  132.71    2.46   3
  -1   1   3  133.00    2.39   4
   1  -1  -3  130.41    2.17   1
   1  -1  -3  133.37    2.38   2
   0  -1   3 1395.87   22.64   3
   0   1   3 1386.34   22.64   3
   0   1   3 1367.90   20.42   4
   0   1  -3 1373.85   20.43   2
   0  -1  -3 1364.39   20.45   2
   0  -1   3 1367.00   20.45   4
  -1   1  -3  127.93    2.36   2
   1  -1   3  123.47    2.67   3
  -1  -1  -3  122.87    2.38   2
   1  -1   3  129.97    2.42   4
   1   1   3  124.63    2.36   4
   1   1   3  123.42    2.67   3
  -2   1  -3  134.33    2.55   2
  -2  -1  -3  132.83    2.60   2
   2  -1   3  131.07    2.62   4
   2   1   3  129.96    2.95   3
   2   1   3  129.81    2.57   4
   2  -1   3  136.73    2.98   3
   3  -1   3   63.83    1.70   4
  -3   1  -3   64.37    1.62   2
  -3  -1  -3   61.38    1.64   2
   3  -1   3   62.53    1.94   3
   3   1   3   63.19    1.93   3
   3   1   3   62.52    1.65   4
   4   1   3  315.43    5.57   4
  -4  -1  -3  309.91    5.53   2
  -4   1  -3  319.44    5.49   2
   4  -1   3  310.03    5.62   4
  -5   1  -3  216.01    4.91   3
   5   1   3  224.07    4.37   4
   5   1   3  212.47    4.98   3
   5  -1   3  222.00    4.43   4
   6  -1   3   10.81    1.02   4
  -6   1  -3    9.22    1.12   3
   7  -2  -3   10.30    0.97   1
   7   2  -3   10.36    0.97   1
  -7   2   3    9.90    0.95   4
  -7  -2   3   10.36    0.92   4
   7   2  -3   11.01    0.90   2
   6   2  -3   24.26    1.26   1
   6  -2  -3   26.86    1.13   2
   6  -2  -3   25.67    1.26   1
   6   2  -3   26.26    1.18   2
  -6  -2   3   26.54    1.22   4
  -6   2   3   24.51    1.21   4
   5  -2  -3   41.27    1.46   1
   5   2  -3   44.31    1.40   2
   5  -2  -3   46.88    1.34   2
   5   2  -3   41.09    1.50   1
  -5  -2   3   43.07    1.40   4
  -5   2   3   44.66    1.48   4
   4   2  -3  102.69    2.16   2
  -4  -2   3  102.55    2.15   4
   4   2  -3  102.34    2.19   1
  -4   2   3  103.74    2.22   4
   4  -2  -3  101.93    2.07   2
   4  -2  -3  100.59    2.20   1
  -3  -2   3 1155.31   17.40   4
   3  -2  -3 1175.69   17.15   1
   3   2  -3 1157.92   17.42   2
   3  -2  -3 1161.88   17.35   2
   3   2  -3 1169.06   17.14   1
  -3   2   3 1144.65   17.45   4
  -2  -2   3 2438.98   35.25   4
  -2   2   3 2332.44   35.25   4
   2  -2  -3 2448.83   34.60   1
   2   2  -3 2387.23   35.23   2
  -2   2   3 2351.90   39.12   3
   2   2  -3 2444.03   34.60   1
   2  -2  -3 2368.65   35.19   2
   1  -2  -3  868.87   12.79   1
  -1  -2   3  871.99   13.14   4
  -1  -2   3  879.42   12.79   1
   1   2  -3  874.03   13.14   2
  -1   2   3  893.04   13.15   4
   1  -2  -3  868.88   13.15   2
  -1   2   3  869.14   14.45   3
  -1  -2   3  877.10   14.67   5
   1   2  -3  865.82   14.41   3
   0  -2   3   28.30    0.93   3
   0   2  -3   29.10    0.84   2
   0  -2  -3   30.19    0.87   2
   0  -2   3   30.23    0.90   4
   0   2   3   29.30    0.84   4
   0   2   3   28.09    0.92   3
  -1   2  -3 1136.89   16.94   2
   1   2   3 1118.72   16.93   4
   1   2   3 1128.75   18.87   3
   1  -2   3 1149.44   17.03   4
   1  -2   3 1130.25   18.88   3
  -1  -2  -3 1125.05   17.01   2
   2  -2   3  816.20   13.88   3
  -2   2  -3  806.39   12.32   2
   2   2   3  815.13   13.89   3
   2  -2   3  811.43   12.47   4
   2   2   3  784.11   12.33   4
  -2  -2  -3  812.84   12.44   2
  -3  -2  -3  125.32    2.64   2
   3  -2   3  127.12    3.04   3
   3  -2   3  124.97    2.69   4
  -3   2  -3  126.69    2.55   2
   3   2   3  127.79    2.60   4
   3   2   3  126.37    3.03   3
   4   2   3   48.97    1.57   4
   4  -2   3   45.78    1.60   4
   4  -2   3   45.72    1.82   3
   4   2   3   43.92    1.80   3
  -4  -2  -3   45.55    1.56   2
  -5  -2  -3   22.82    1.34   2
   5   2   3   22.85    1.45   3
   5   2   3   27.08    1.35   4
   5  -2   3   24.60    1.36   4
  -5   2  -3   22.78    1.50   3
  -6   2  -3    9.97    1.14   3
   6  -2   3    9.02    1.00   4
   6   2   3    8.94    1.11   3
  -7   3   3   -0.30    0.56   4
   7  -3  -3   -0.09    0.52   1
   7   3  -3   -0.09    0.49   2
   7   3  -3    0.12    0.52   1
   6   3  -3   83.72    2.17   2
  -6  -3   3   87.08    2.14   4
  -6   3   3   82.14    2.19   4
   6   3  -3   85.09    2.28   1
   6  -3  -3   83.44    2.23   1
   5  -3  -3  731.46   11.28   1
   5  -3  -3  700.95   11.12   2
  -5   3   3  718.98   11.41   4
  -5  -3   3  720.84   11.25   4
   5   3  -3  724.68   11.28   1
  -4   3   3  443.57    7.23   4
   4  -3  -3  443.64    7.12   1
   4   3  -3  445.71    7.13   1
   4   3  -3  442.56    7.19   2
   4  -3  -3  444.28    7.01   2
  -4  -3   3  441.91    7.10   4
  -3   3   3   53.77    1.36   4
   3  -3  -3   53.11    1.23   2
  -3  -3   3   52.97    1.29   4
   3   3  -3   50.89    1.33   1
   3   3  -3   53.33    1.35   2
   3  -3  -3   52.26    1.31   1
   2   3  -3  469.68    7.37   2
  -2   3   3  477.49    7.39   4
  -2   3   3  480.47    7.91   3
   2  -3  -3  472.18    7.19   1
   2  -3  -3  472.41    7.30   2
   2   3  -3  475.44    7.20   1
  -2  -3   3  451.58    7.30   4
   1   3  -3  238.07    4.22   3
  -1   3   3  240.09    4.27   3
   1   3  -3  242.42    3.97   2
   1  -3  -3  239.68    3.96   2
  -1  -3   3  239.52    3.76   1
  -1   3   3  248.65    3.98   4
  -1  -3   3  236.47    4.30   5
  -1  -3   3  243.10    3.97   4
   1  -3  -3  237.22    3.75   1
   0   3  -3    0.84    0.22   2
   0   3   3    0.29    0.20   4
   0   3   3    0.57    0.23   3
   0   3  -3    0.17    0.19   3
   0  -3   3    0.71    0.25   4
   0  -3  -3    0.21    0.11   1
   0  -3  -3    0.77    0.23   2
   0  -3   3    0.29    0.13   1
   1   3   3  159.96    3.26   3
  -1   3  -3  158.80    2.82   2
   1   3   3  164.13    2.84   4
   1  -3   3  158.80    2.94   4
  -1  -3  -3  156.52    2.92   2
   1  -3   3  158.58    3.25   3
   2   3   3   30.26    1.28   3
   2   3   3   37.07    1.11   4
  -2  -3  -3   32.73    1.13   2
  -2   3  -3   33.69    1.03   2
   2  -3   3   35.32    1.17   4
   2  -3   3   31.51    1.29   3
   3   3   3    2.27    0.42   4
   3  -3   3    0.87    0.48   3
   3  -3   3    1.53    0.46   4
  -3  -3  -3    2.17    0.45   2
   3   3   3    1.57    0.47   3
  -3   3  -3    2.14    0.39   2
   4   3   3  334.50    5.68   4
  -4  -3  -3  327.23    5.81   2
  -4   3  -3  322.12    6.45   3
   4  -3   3  324.08    5.86   4
   4   3   3  320.31    6.53   3
  -5   3  -3  229.73    5.06   3
   5  -3   3  221.95    4.54   4
   5   3   3  217.59    5.07   3
  -5  -3  -3  223.06    4.48   2
  -6   3  -3   32.91    1.82   3
   7   4  -3    8.53    0.87   2
  -7   4   3    7.73    0.90   4
   7   4  -3    7.41    0.86   1
   7  -4  -3    8.38    0.89   1
   6   4  -3  111.20    2.61   2
   6  -4  -3  108.74    2.62   1
   6   4  -3  105.98    2.62   1
  -6   4   3  105.73    2.59   4
  -6  -4   3  109.54    2.47   4
   5  -4  -3   23.82    0.94   2
  -5   4   3   24.68    1.12   4
   5  -4  -3   21.62    1.12   1
  -5  -4   3   21.39    1.04   4
   5   4  -3   18.27    1.13   1
   5   4  -3   23.11    1.10   2
  -4  -4   3   15.00    0.80   4
  -4   4   3   16.51    0.87   4
   4  -4  -3   15.37    0.71   2
   4  -4  -3   15.81    0.85   1
   4   4  -3   16.12    0.82   2
   4   4  -3   14.51    0.86   1
   3   4  -3   40.49    1.14   2
  -3   4   3   40.26    0.97   3
   3  -4  -3   38.39    1.13   1
  -3  -4   3   38.23    1.06   4
  -3   4   3   40.48    1.17   4
   3   4  -3   38.25    1.11   1
   3  -4  -3   38.30    1.01   2
  -2   4   3  940.35   14.33   4
  -2  -4   3  952.96   14.03   1
   2  -4  -3  954.48   14.25   2
   2  -4  -3  963.37   14.04   1
  -2   4   3  948.92   15.66   3
  -2  -4   3  957.17   14.27   4
  -2  -4   3  953.95   16.09   5
   2   4  -3  930.82   14.32   2
   1   4  -3  463.52    7.76   3
   1  -4  -3  456.64    6.90   1
  -1  -4   3  456.53    7.13   4
  -1   4   3  456.06    7.12   4
  -1  -4   3  446.86    6.89   1
   1  -4  -3  458.88    7.13   2
   1   4  -3  472.19    7.15   2
  -1   4   3  455.40    7.81   3
   0  -4   3  185.84    3.23   4
   0   4   3  183.77    3.12   4
   0  -4  -3  180.46    3.21   2
   0  -4   3  183.54    2.91   1
   0   4   3  184.01    3.53   3
   0   4  -3  186.62    3.49   3
   0  -4  -3  185.72    2.90   1
   0   4  -3  186.33    3.15   2
   1  -4   3    9.87    0.71   4
  -1   4  -3    7.80    0.71   3
   1   4   3    6.71    0.58   3
  -1  -4  -3    8.64    0.63   2
   1   4   3    8.99    0.61   4
  -1   4  -3    8.22    0.53   2
   2  -4   3  763.80   11.92   4
   2   4   3  763.88   13.24   3
  -2   4  -3  762.68   11.68   2
   2   4   3  765.30   11.71   4
  -2   4  -3  774.16   13.18   3
  -2  -4  -3  769.93   11.91   2
   3   4   3    0.09    0.33   4
  -3   4  -3    0.63    0.33   2
  -3  -4  -3    0.12    0.36   2
  -3   4  -3    0.27    0.41   3
   3  -4   3    0.60    0.42   4
   3   4   3    0.15    0.41   3
  -4   4  -3    6.60    0.84   3
   4  -4   3    8.63    0.83   4
   4   4   3    8.87    0.85   4
   4   4   3    6.74    0.82   3
  -4  -4  -3    7.65    0.75   2
   5   4   3   13.96    1.21   3
   5  -4   3   14.47    1.12   4
  -5   4  -3   13.60    1.30   3
  -5  -4  -3   15.72    1.21   2
   7  -5  -3    1.67    0.66   1
  -7  -5   3    1.20    0.66   5
  -7   5   3    1.69    0.69   4
   7   5  -3    3.88    0.72   2
  -7  -5   3    1.83    0.66   1
  -6   5   3   24.66    1.21   4
   6  -5  -3   25.87    1.22   1
   6   5  -3   22.91    1.21   1
   6   5  -3   26.46    1.22   2
  -5   5   3  297.05    5.34   4
   5   5  -3  303.47    5.33   1
   5  -5  -3  299.34    4.99   2
  -5  -5   3  304.96    5.13   4
   5   5  -3  297.72    5.32   2
   5  -5  -3  299.12    5.28   1
   4   5  -3   25.88    1.06   1
   4   5  -3   26.38    1.04   2
   4  -5  -3   27.68    1.07   1
   4  -5  -3   25.28    0.88   2
  -4   5   3   26.16    1.08   4
  -4  -5   3   25.71    0.95   4
  -3   5   3   22.03    0.76   3
   3   5  -3   20.52    0.85   2
   3  -5  -3   19.21    0.83   1
   3  -5  -3   18.73    0.70   2
  -3  -5   3   20.13    0.95   5
  -3  -5   3   18.92    0.76   4
  -3  -5   3   19.70    0.82   1
  -3   5   3   19.73    0.86   4
  -2  -5   3    2.44    0.33   4
  -2   5   3    2.33    0.29   3
   2  -5  -3    2.29    0.29   2
  -2  -5   3    1.55    0.30   1
   2  -5  -3    2.01    0.31   1
  -2  -5   3    1.41    0.31   5
   2   5  -3    1.77    0.24   3
   2   5  -3    2.46    0.35   2
   1   5  -3  838.09   14.01   3
  -1  -5   3  843.79   12.75   4
   1  -5  -3  851.72   12.76   2
  -1  -5   3  839.43   12.44   1
   1  -5  -3  844.99   12.45   1
  -1   5   3  841.36   14.07   3
  -1   5   3  836.70   12.73   4
   1   5  -3  859.71   12.75   2
   0  -5   3   74.52    1.40   1
   0   5  -3   74.35    1.54   2
   0  -5  -3   76.10    1.64   2
   0   5  -3   73.94    1.74   3
   0  -5   3   75.64    1.63   4
   0   5   3   74.62    1.79   3
   0  -5  -3   76.72    1.41   1
   1  -5   3  748.06   10.98   1
   1   5   3  734.53   11.32   4
  -1  -5  -3  734.44   10.97   1
   1  -5   3  755.69   11.53   4
  -1  -5  -3  745.90   11.52   2
  -1   5  -3  745.91   12.72   3
   1   5   3  757.35   12.79   3
  -1   5  -3  756.18   11.33   2
  -2   5  -3    3.92    0.42   2
   2  -5   3    4.98    0.55   4
   2   5   3    3.36    0.56   3
   2  -5   3    3.94    0.32   1
  -2   5  -3    2.53    0.55   3
  -2  -5  -3    2.75    0.48   2
  -3  -5  -3  153.91    3.18   2
   3   5   3  152.83    2.94   4
   3   5   3  154.07    3.56   3
  -3   5  -3  162.08    3.56   3
   3  -5   3  152.69    3.21   4
   4  -5   3  129.98    2.97   4
   4   5   3  126.87    3.29   3
  -4   5  -3  124.56    3.24   3
  -4  -5  -3  129.98    2.94   2
  -5   5  -3  145.81    3.76   3
   5   5   3  147.54    3.79   3
   5  -5   3  144.38    3.40   4
  -5  -5  -3  142.00    3.36   2
   7   6  -3   18.37    1.16   2
   7  -6  -3   17.46    1.16   1
  -7  -6   3   19.26    1.25   1
  -7   6   3   18.39    1.21   4
  -7  -6   3   18.49    1.43   5
   6   6  -3   22.98    1.18   2
  -6  -6   3   23.62    1.24   1
  -6  -6   3   24.04    1.44   5
   6  -6  -3   21.65    1.14   1
  -6   6   3   21.96    1.18   4
   5   6  -3   36.49    1.34   2
  -5  -6   3   37.70    1.21   4
  -5   6   3   37.93    1.37   4
  -5  -6   3   36.76    1.58   5
   5  -6  -3   35.27    1.34   1
  -5  -6   3   35.97    1.36   1
  -4   6   3  345.48    5.87   4
   4   6  -3  348.83    5.86   2
  -4  -6   3  346.76    6.61   5
  -4  -6   3  342.43    5.76   1
   4  -6  -3  344.98    5.76   1
   4  -6  -3  341.14    5.50   2
  -4  -6   3  340.78    5.61   4
   3  -6  -3  505.63    7.87   1
  -3   6   3  510.45    8.03   4
  -3  -6   3  491.99    7.81   4
   3  -6  -3  502.02    7.75   2
  -3  -6   3  507.53    9.03   5
  -3   6   3  502.94    8.56   3
   3   6  -3  503.13    8.01   2
  -3  -6   3  498.13    7.86   1
  -2   6   3 1100.38   18.08   3
   2  -6  -3 1078.62   16.32   2
  -2   6   3 1086.04   16.44   4
   2   6  -3 1091.27   18.00   3
   2  -6  -3 1107.16   16.16   1
  -2  -6   3 1106.72   16.35   4
   2   6  -3 1091.75   16.45   2
  -2  -6   3 1086.63   16.13   1
  -1   6   3   74.10    1.55   4
  -1  -6   3   74.72    1.52   1
  -1   6   3   73.41    1.71   3
   1  -6  -3   75.34    1.50   1
   1   6  -3   74.37    1.65   3
   1  -6  -3   75.55    1.58   2
  -1  -6   3   74.96    1.58   4
   1   6  -3   72.76    1.57   2
   0   6   3  324.62    5.21   4
   0  -6  -3  323.59    5.37   2
   0   6  -3  335.58    5.90   3
   0  -6   3  327.74    5.09   1
   0  -6   3  327.91    5.37   4
   0   6   3  333.10    5.95   3
   0   6  -3  328.30    5.26   2
   0  -6  -3  336.33    5.09   1
  -1  -6  -3  324.70    5.44   2
   1  -6   3  314.30    5.00   1
   1   6   3  330.22    5.22   4
  -1   6  -3  332.24    5.23   2
   1   6   3  321.58    6.03   3
  -1  -6  -3  327.68    5.02   1
   1  -6   3  322.62    5.44   4
  -1   6  -3  338.73    6.02   3
  -2   6  -3  729.73   11.30   2
   2   6   3  742.57   11.34   4
  -2   6  -3  752.61   12.90   3
  -2  -6  -3  741.07   11.67   2
   2  -6   3  751.95   11.03   1
   2  -6   3  734.11   11.65   4
   2   6   3  759.12   12.96   3
  -3   6  -3    8.47    0.93   3
  -3  -6  -3   10.38    0.86   2
   3   6   3   11.22    0.74   4
   3   6   3    9.49    0.94   3
   3  -6   3   11.72    0.88   4
   4   6   3   32.53    1.52   3
  -4  -6  -3   32.31    1.38   2
   4  -6   3   33.72    1.42   4
  -4   6  -3   33.91    1.60   3
   5   6   3    3.82    0.78   3
   5  -6   3    2.87    0.74   4
  -5   6  -3    2.50    0.80   3
  -5  -6  -3    3.48    0.73   2
  -7  -7   3    6.52    0.89   1
   7   7  -3    5.82    0.82   2
  -7   7   3    7.48    0.93   4
   7  -7  -3    5.86    0.81   1
  -7  -7   3    6.86    0.93   5
   6   7  -3   57.02    1.84   2
   6  -7  -3   55.76    1.80   1
  -6  -7   3   54.39    2.10   5
  -6   7   3   55.35    1.82   4
  -6  -7   3   57.72    1.84   1
  -5  -7   3  133.99    3.30   5
  -5   7   3  130.45    2.88   4
  -5  -7   3  130.21    2.85   1
   5  -7  -3  127.77    2.83   1
   4  -7  -3  262.67    4.68   1
   4   7  -3  268.03    4.76   2
  -4   7   3  268.15    4.76   4
  -4  -7   3  271.57    4.49   4
   4  -7  -3  265.53    4.36   2
  -4  -7   3  266.48    4.69   1
  -4  -7   3  265.81    5.39   5
  -3  -7   3    6.56    0.55   1
  -3  -7   3    5.09    0.54   5
  -3   7   3    7.40    0.64   4
   3  -7  -3    5.95    0.52   1
  -3  -7   3    7.16    0.56   4
   3   7  -3    7.79    0.54   3
  -3   7   3    8.75    0.65   3
   3   7  -3    6.23    0.54   2
   3  -7  -3    7.06    0.54   2
   2   7  -3   12.66    0.64   3
   2  -7  -3   12.93    0.65   1
  -2   7   3   13.14    0.69   4
  -2  -7   3   11.78    0.68   1
  -2   7   3   13.48    0.67   3
  -2  -7   3   12.75    0.65   4
   2  -7  -3   13.35    0.60   2
   2   7  -3   12.44    0.68   2
  -1   7   3  526.06    8.03   4
  -1  -7   3  519.75    7.90   1
   1   7  -3  517.76    8.87   3
   1  -7  -3  522.39    7.90   1
   1   7  -3  516.26    8.07   2
  -1  -7   3  525.90    8.08   4
   1  -7  -3  502.78    8.05   2
  -1   7   3  520.08    8.93   3
   0  -7  -3  228.89    3.93   2
   0   7   3  225.86    3.74   4
   0  -7   3  228.62    3.92   4
   0   7  -3  226.91    3.79   2
   0   7  -3  227.16    4.29   3
   0  -7   3  225.65    3.69   1
   0  -7  -3  225.77    3.68   1
   0   7   3  231.58    4.35   3
  -1  -7  -3  102.97    1.91   1
   1   7   3  103.80    1.97   4
   1   7   3  107.89    2.48   3
  -1   7  -3  103.28    2.42   3
  -1  -7  -3  106.23    2.23   2
  -1   7  -3  104.77    1.99   2
   1  -7   3  102.59    1.90   1
   1  -7   3  105.29    2.21   4
   2  -7   3  102.90    1.93   1
   2   7   3  104.40    2.05   4
   2   7   3  102.86    2.58   3
  -2   7  -3  102.60    2.54   3
  -2  -7  -3  101.11    2.31   2
   2  -7   3   99.76    2.30   4
   3   7   3  190.93    4.20   3
   3  -7   3  192.50    3.82   4
  -3   7  -3  186.02    4.13   3
   4  -7   3  121.25    2.89   4
  -4   7  -3  116.27    3.11   3
  -4  -7  -3  118.64    2.85   2
   4   7   3  117.49    3.16   3
  -5   7  -3  122.73    3.41   3
  -5  -7  -3  121.39    3.08   2
   5  -7   3  120.98    3.10   4
   5   7   3  125.06    3.45   3
  -7   8   3   97.09    2.73   4
   7   8  -3  100.35    2.76   2
  -7  -8   3  101.05    3.13   5
  -7  -8   3  101.36    2.74   1
   7  -8  -3  100.52    2.75   1
  -6   8   3   34.27    1.46   4
  -6  -8   3   34.39    1.45   1
  -6  -8   3   31.98    1.64   5
   6   8  -3   34.12    1.46   2
   6  -8  -3   32.43    1.37   1
   5  -8  -3    0.86    0.43   1
   5   8  -3    0.60    0.46   2
  -5  -8   3   -0.09    0.45   5
  -5  -8   3    0.68    0.47   1
  -5   8   3    0.27    0.48   4
   4  -8  -3   19.45    0.73   2
   4  -8  -3   18.76    0.97   1
  -4  -8   3   20.70    1.19   5
  -4  -8   3   19.29    0.85   4
  -4  -8   3   19.64    1.02   1
   4   8  -3   18.98    1.00   2
  -4   8   3   19.87    1.01   4
  -3  -8   3  367.41    5.92   4
  -3   8   3  373.13    6.19   4
   3  -8  -3  370.94    6.11   1
   3  -8  -3  378.59    5.89   2
   3   8  -3  381.01    6.22   2
  -3  -8   3  374.10    6.10   1
  -3   8   3  363.90    6.60   3
   3   8  -3  378.24    6.46   3
   2  -8  -3   27.11    0.92   1
  -2   8   3   29.32    1.00   3
  -2  -8   3   27.90    0.95   1
   2  -8  -3   26.73    0.84   2
   2   8  -3   28.12    0.93   3
  -2  -8   3   29.54    0.90   4
  -2   8   3   26.77    0.93   4
   2   8  -3   25.38    0.93   2
   1   8  -3  133.48    2.72   3
  -1   8   3  134.47    2.45   4
  -1  -8   3  134.32    2.46   1
   1  -8  -3  135.26    2.48   2
  -1   8   3  132.15    2.78   3
   1   8  -3  135.43    2.50   2
  -1  -8   3  133.35    2.48   4
   1  -8  -3  133.97    2.45   1
   0   8   3    0.39    0.31   3
   0   8  -3    0.62    0.26   2
   0  -8  -3    0.86    0.30   2
   0  -8   3    0.58    0.30   4
   0  -8   3    0.39    0.25   1
   0   8  -3    0.71    0.32   3
   0   8   3    0.95    0.27   4
   0  -8  -3    0.73    0.26   1
  -1   8  -3  207.89    3.55   2
   1  -8   3  214.25    3.53   1
  -1  -8  -3  212.41    3.86   2
   1   8   3  215.17    3.54   4
   1  -8   3  214.19    3.85   4
  -1  -8  -3  211.45    3.53   1
   1   8   3  212.62    4.28   3
  -1   8  -3  216.67    4.24   3
   2  -8   3   57.82    1.34   1
   2   8   3   59.93    1.40   4
   2  -8   3   59.65    1.67   4
  -2   8  -3   59.01    1.83   3
  -2  -8  -3   57.18    1.64   2
   2   8   3   60.18    1.86   3
  -3   8  -3  100.85    2.70   3
   3  -8   3   98.57    2.45   4
   3   8   3  104.02    2.75   3
  -3  -8  -3   98.99    2.43   2
   4  -8   3   11.27    0.96   4
  -4  -8  -3   12.55    1.04   2
   4   8   3   10.78    1.04   3
  -4   8  -3   11.19    1.12   3
  -5  -8  -3   16.30    1.20   2
   5  -8   3   14.51    1.12   4
  -5   8  -3   14.09    1.29   3
   5   8   3   16.44    1.28   3
   7   9  -3    3.27    0.72   2
  -7   9   3    2.59    0.77   4
   7  -9  -3    2.44    0.72   1
  -7  -9   3    2.55    0.75   1
  -6  -9   3   90.30    2.78   5
   6   9  -3   88.06    2.44   2
  -6  -9   3   88.72    2.40   1
  -6   9   3   86.64    2.41   4
   6  -9  -3   86.25    2.37   1
   5   9  -3   -0.06    0.43   2
   5  -9  -3    0.39    0.40   1
  -5  -9   3    0.01    0.47   5
  -5   9   3    0.41    0.48   4
  -5  -9   3    0.05    0.45   1
   4  -9  -3  200.21    3.82   1
   4   9  -3  203.73    3.89   2
  -4   9   3  200.69    3.86   4
  -4  -9   3  205.22    3.84   1
   3   9  -3   95.82    2.08   3
   3  -9  -3   94.06    1.87   2
  -3   9   3   99.19    2.16   4
   3  -9  -3   95.79    2.15   1
   3   9  -3   97.01    2.18   2
  -3  -9   3   96.29    2.16   1
  -3  -9   3   95.15    1.90   4
  -3   9   3   96.23    2.22   3
   2   9  -3   28.95    0.99   2
   2   9  -3   30.27    1.01   3
  -2   9   3   29.51    1.07   3
  -2   9   3   29.49    0.98   4
  -2  -9   3   28.26    1.01   1
   2  -9  -3   28.05    0.99   1
   2  -9  -3   29.52    0.89   2
  -2  -9   3   29.23    0.90   4
  -1  -9   3   31.87    0.99   1
   1  -9  -3   30.57    0.95   2
  -1   9   3   31.82    0.96   4
   1   9  -3   31.21    1.07   3
   1  -9  -3   32.30    0.99   1
  -1  -9   3   31.62    0.96   4
  -1   9   3   29.69    1.11   3
   1   9  -3   31.25    0.97   2
   0  -9  -3  787.18   11.98   2
   0  -9   3  785.70   11.95   4
   0  -9   3  770.00   11.64   1
   0   9  -3  762.75   11.78   2
   0   9   3  784.86   13.31   3
   0  -9  -3  765.98   11.62   1
   0   9  -3  776.69   13.24   3
   0   9   3  783.68   11.72   4
  -1  -9  -3    3.63    0.39   1
   1   9   3    3.28    0.35   4
   1  -9   3    3.28    0.48   4
  -1   9  -3    2.79    0.49   3
  -1   9  -3    2.66    0.34   2
  -1  -9  -3    2.07    0.45   2
   1  -9   3    2.97    0.36   1
   1   9   3    2.66    0.48   3
   2  -9   3   13.82    0.89   4
   2   9   3   12.94    0.97   3
  -2  -9  -3   12.15    0.86   2
   2  -9   3   14.52    0.74   1
  -2   9  -3   12.11    0.96   3
   3  -9   3   33.06    1.35   4
  -3  -9  -3   34.08    1.38   2
  -3   9  -3   32.16    1.51   3
   3   9   3   31.91    1.50   3
  -4   9  -3  220.67    4.92   3
  -4  -9  -3  224.07    4.49   2
   4  -9   3  215.96    4.48   4
   4   9   3  218.49    4.94   3
   5  -9   3    1.74    0.70   4
  -5   9  -3    0.65    0.73   3
  -5  -9  -3    1.28    0.65   2
   5   9   3    0.83    0.65   3
  -7 -10   3   53.49    1.98   1
  -7  10   3   50.63    1.95   4
   7  10  -3   51.58    1.98   2
   7 -10  -3   51.93    1.95   1
   6  10  -3   -0.07    0.49   2
  -6  10   3    0.69    0.57   4
  -6 -10   3    0.53    0.57   1
   6 -10  -3   -0.04    0.46   1
  -5 -10   3   21.18    1.13   1
  -5  10   3   19.26    1.11   4
   5  10  -3   18.54    1.07   2
   5 -10  -3   19.11    1.09   1
   4  10  -3   15.18    0.94   2
  -4 -10   3   14.48    0.96   1
   4 -10  -3   14.45    0.94   1
  -4  10   3   17.90    0.99   4
  -4  10   3   15.43    0.93   3
   3  10  -3  795.59   13.50   3
  -3  10   3  803.32   13.68   3
   3 -10  -3  817.73   12.11   2
   3 -10  -3  814.19   12.36   1
  -3 -10   3  794.34   12.16   4
   3  10  -3  810.12   12.54   2
  -3  10   3  799.09   12.48   4
  -3 -10   3  792.56   12.32   1
   2 -10  -3    1.84    0.32   2
  -2  10   3    2.26    0.40   4
   2  10  -3    1.21    0.38   2
  -2 -10   3    1.84    0.35   4
   2 -10  -3    1.84    0.39   1
   2  10  -3    1.17    0.37   3
  -2  10   3    1.27    0.39   3
  -1  10   3   34.39    1.02   4
   1 -10  -3   36.79    1.13   1
   1  10  -3   34.91    1.19   3
   1 -10  -3   35.72    1.05   2
  -1 -10   3   33.58    1.08   1
  -1  10   3   35.27    1.25   3
   1  10  -3   33.23    1.05   2
  -1 -10   3   36.40    1.06   4
   0  10  -3    1.52    0.42   3
   0  10   3    1.81    0.42   3
   0  10   3    2.07    0.32   4
   0 -10   3    2.08    0.40   4
   0 -10  -3    1.90    0.38   2
   0  10  -3    1.88    0.34   2
   0 -10  -3    1.94    0.35   1
   0 -10   3    1.98    0.36   1
   1 -10   3  382.02    6.11   1
   1  10   3  384.23    6.00   4
  -1  10  -3  388.48    7.13   3
   1 -10   3  380.93    6.41   4
  -1 -10  -3  374.67    6.10   1
   1  10   3  387.36    7.16   3
  -1 -10  -3  395.61    6.48   2
   2 -10   3  121.45    2.36   1
  -2 -10  -3  116.98    2.66   2
  -2  10  -3  123.09    2.97   3
   2  10   3  120.80    2.98   3
  -3 -10  -3  330.63    5.99   2
  -3  10  -3  341.10    6.65   3
   3 -10   3  321.49    5.98   4
   3  10   3  338.43    6.67   3
   4  10   3   26.96    1.49   3
  -4 -10  -3   27.11    1.42   2
  -4  10  -3   22.56    1.43   3
   4 -10   3   24.92    1.31   4
  -5 -10  -3   35.54    1.67   2
  -5  10  -3   34.30    1.79   3
   5  10   3   38.09    1.84   3
   5 -10   3   35.77    1.62   4
   7 -11  -3    0.45    0.63   1
  -7  11   3    0.95    0.72   4
  -7 -11   3    0.66    0.67   1
   7  11  -3    0.62    0.68   2
  -6 -11   3   31.80    1.47   1
   6 -11  -3   32.29    1.44   1
   6  11  -3   34.59    1.52   2
  -6  11   3   31.33    1.47   4
  -5  11   3   51.82    1.73   4
  -5 -11   3   51.85    1.73   1
   5 -11  -3   52.68    1.71   1
   5  11  -3   51.51    1.73   2
   4 -11  -3   66.68    1.89   1
  -4 -11   3   66.59    1.88   1
  -4  11   3   70.26    1.93   3
   4  11  -3   67.20    1.89   2
  -4  11   3   68.44    1.88   4
  -3  11   3   27.98    1.11   4
  -3  11   3   28.64    1.20   3
  -3 -11   3   27.06    1.16   1
   3  11  -3   28.30    1.15   2
   3 -11  -3   28.42    1.12   1
   3  11  -3   29.34    1.09   3
  -2 -11   3  260.03    4.53   1
  -2 -11   3  255.28    4.32   4
   2  11  -3  264.55    4.93   3
   2  11  -3  258.15    4.55   2
   2 -11  -3  263.22    4.33   2
  -2  11   3  263.81    5.02   3
  -2  11   3  261.61    4.48   4
   2 -11  -3  261.89    4.54   1
  -1  11   3  395.53    6.38   4
  -1 -11   3  397.93    6.43   4
   1  11  -3  404.95    7.25   3
   1  11  -3  398.56    6.47   2
   1 -11  -3  411.75    6.49   1
   1 -11  -3  399.15    6.46   2
  -1  11   3  398.75    7.30   3
  -1 -11   3  403.51    6.49   1
   0  11  -3  516.60    9.16   3
   0  11  -3  522.91    8.04   2
   0  11   3  518.10    7.92   4
   0  11   3  518.80    9.20   3
   0 -11   3  508.90    8.03   1
   0 -11  -3  501.94    8.02   1
   0 -11  -3  515.03    8.23   2
   0 -11   3  515.57    8.19   4
  -1 -11  -3   73.35    1.70   1
  -1  11  -3   69.25    2.04   3
   1 -11   3   72.96    1.68   1
   1  11   3   72.86    2.09   3
  -1 -11  -3   73.16    1.87   2
   1 -11   3   72.71    1.83   4
   2 -11   3    4.49    0.63   4
   2 -11   3    3.66    0.46   1
  -2 -11  -3    3.87    0.57   2
  -2  11  -3    3.34    0.62   3
   2  11   3    3.87    0.63   3
  -3 -11  -3    1.79    0.54   2
  -3  11  -3    0.97    0.56   3
   3  11   3    1.55    0.56   3
   3 -11   3    1.08    0.53   4
  -4  11  -3  120.57    3.31   3
   4 -11   3  119.92    3.03   4
   4  11   3  122.69    3.37   3
  -4 -11  -3  123.02    3.06   2
  -5 -11  -3    3.29    0.82   2
   5  11   3    3.05    0.81   3
   5 -11   3    3.23    0.75   4
  -5  11  -3    2.28    0.83   3
   6 -12  -3   34.56    1.50   1
  -6  12   3   31.94    1.50   4
   6  12  -3   32.68    1.52   2
  -6 -12   3   29.57    1.46   1
  -5  12   3   17.85    1.13   4
   5 -12  -3   17.43    1.05   1
  -5 -12   3   17.88    1.11   1
   5  12  -3   19.43    1.13   2
   4 -12  -3  114.13    2.67   1
  -4  12   3  113.74    2.63   4
   4  12  -3  110.57    2.65   2
  -4  12   3  119.57    2.79   3
  -3  12   3    0.49    0.44   4
   3  12  -3    0.53    0.42   2
  -3  12   3    0.52    0.43   3
   3 -12  -3    1.74    0.45   1
  -3 -12   3    1.10    0.46   1
   3  12  -3    0.96    0.39   3
   2 -12  -3   66.34    1.50   2
  -2  12   3   67.43    1.90   3
  -2  12   3   66.87    1.64   4
   2  12  -3   65.87    1.70   2
  -2 -12   3   64.38    1.73   1
   2 -12  -3   70.89    1.76   1
   2  12  -3   69.08    1.84   3
  -1  12   3   62.86    1.82   3
   1  12  -3   60.05    1.51   2
   1 -12  -3   61.13    1.49   2
   1 -12  -3   63.70    1.62   1
   1  12  -3   60.08    1.76   3
  -1  12   3   59.44    1.40   4
  -1 -12   3   60.46    1.51   4
  -1 -12   3   59.45    1.59   1
   0  12  -3   24.25    0.88   2
   0  12   3   24.90    0.78   4
   0 -12   3   24.26    0.97   1
   0  12  -3   23.54    1.14   3
   0 -12  -3   23.64    0.96   2
   0 -12   3   24.20    0.98   4
   0 -12  -3   23.79    0.92   1
   0  12   3   21.91    1.14   3
   1 -12   3  203.86    3.69   1
  -1  12  -3  205.76    4.35   3
  -1 -12  -3  208.74    3.93   2
  -1 -12  -3  208.43    3.71   1
   1  12   3  206.25    4.37   3
   1 -12   3  206.46    3.88   4
  -2  12  -3  126.98    3.14   3
   2 -12   3  128.73    2.56   1
  -2 -12  -3  121.94    2.79   2
   2 -12   3  116.99    2.75   4
   2  12   3  126.17    3.14   3
   3 -12   3   33.70    1.40   4
  -3 -12  -3   33.23    1.44   2
   3  12   3   32.32    1.54   3
  -3  12  -3   32.34    1.56   3
   4 -12   3   34.66    1.54   4
   4  12   3   31.74    1.67   3
  -4 -12  -3   33.88    1.58   2
  -4  12  -3   32.91    1.69   3
   5 -12   3   12.05    1.14   4
  -5 -12  -3   14.82    1.26   2
   5  12   3   11.97    1.27   3
  -5  12  -3   11.92    1.30   3
   6 -13  -3    0.12    0.53   1
   6  13  -3    0.14    0.57   2
  -6 -13   3   -0.01    0.62   1
  -6  13   3   -0.27    0.61   4
  -5  13   3  107.51    2.69   4
   5  13  -3  107.19    2.74   2
   5 -13  -3  104.44    2.65   1
  -5 -13   3  104.33    2.67   1
  -4  13   3   48.21    1.62   4
  -4 -13   3   48.58    1.66   1
   4  13  -3   47.24    1.63   2
  -4  13   3   49.78    1.74   3
   4 -13  -3   47.45    1.63   1
  -3 -13   3  176.07    3.52   1
  -3  13   3  181.07    3.85   3
  -3  13   3  175.79    3.46   4
   3  13  -3  178.66    3.54   2
   3  13  -3  177.24    3.66   3
  -2  13   3   30.11    1.30   3
   2  13  -3   28.60    1.23   3
   2 -13  -3   31.05    1.19   1
   2  13  -3   30.53    1.15   2
  -2  13   3   30.01    1.08   4
   2 -13  -3   31.47    0.96   2
  -2 -13   3   29.72    1.20   1
  -1 -13   3  289.70    5.05   1
  -1 -13   3  288.86    4.89   4
  -1  13   3  283.17    5.67   3
   1 -13  -3  296.47    5.04   1
  -1  13   3  296.75    4.84   4
   1  13  -3  293.57    4.97   2
   1  13  -3  301.12    5.65   3
   1 -13  -3  288.37    4.94   2
   0 -13  -3   18.76    0.89   2
   0  13   3   17.68    1.09   3
   0 -13  -3   19.21    0.88   1
   0  13  -3   18.63    1.06   3
   0 -13   3   17.50    0.89   4
   0 -13   3   19.25    0.93   1
   1 -13   3   53.23    1.51   1
  -1  13  -3   55.91    1.86   3
   1 -13   3   53.40    1.59   4
  -1 -13  -3   56.14    1.64   2
   1  13   3   55.55    1.86   3
  -1 -13  -3   55.75    1.53   1
  -2  13  -3   43.20    1.70   3
   2 -13   3   40.40    1.46   4
  -2 -13  -3   44.04    1.53   2
   2  13   3   42.31    1.70   3
  -3  13  -3  264.44    5.61   3
   3 -13   3  253.27    5.01   4
  -3 -13  -3  263.44    5.07   2
   3  13   3  253.78    5.58   3
  -4  13  -3    0.44    0.64   3
   4  13   3    0.00    0.63   3
  -4 -13  -3    1.23    0.66   2
   4 -13   3    0.18    0.59   4
   6 -14  -3   26.65    1.40   1
   6  14  -3   27.41    1.46   2
  -6  14   3   26.19    1.45   4
  -6 -14   3   26.51    1.45   1
   5 -14  -3    2.15    0.58   1
  -5  14   3    2.79    0.70   4
  -5 -14   3    2.31    0.66   1
   5  14  -3    2.53    0.66   2
  -4 -14   3  427.93    7.23   1
   4  14  -3  405.51    7.28   2
  -4  14   3  433.37    7.91   3
  -4  14   3  421.53    7.23   4
   4 -14  -3  408.72    7.21   1
   3  14  -3    1.75    0.53   2
   3  14  -3    2.14    0.51   3
  -3  14   3    1.81    0.57   3
  -3 -14   3    1.62    0.55   1
  -3  14   3    2.03    0.55   4
   3 -14  -3    2.11    0.51   1
   2  14  -3  285.29    5.53   3
  -2 -14   3  290.90    5.11   1
   2 -14  -3  283.38    5.08   1
   2  14  -3  287.26    5.06   2
  -2  14   3  283.19    5.64   3
  -2  14   3  288.84    4.93   4
   1 -14  -3  101.81    2.19   2
  -1 -14   3  103.60    2.37   1
  -1  14   3  103.00    2.66   3
  -1  14   3  103.11    2.11   4
   1 -14  -3  107.10    2.37   1
   1  14  -3  104.79    2.25   2
   1  14  -3  102.92    2.61   3
   0 -14   3   26.39    1.06   4
   0 -14  -3   26.86    1.06   1
   0  14  -3   26.31    1.27   3
   0 -14  -3   26.75    1.07   2
   0  14   3   25.90    1.30   3
   0 -14   3   26.39    1.09   1
  -1 -14  -3    4.00    0.54   1
   1 -14   3    3.38    0.58   4
   1 -14   3    3.90    0.54   1
   1  14   3    3.58    0.64   3
  -1  14  -3    3.46    0.69   3
  -1 -14  -3    3.66    0.57   2
  -2  14  -3  128.15    3.24   3
   2  14   3  122.08    3.19   3
  -2 -14  -3  122.10    2.85   2
   2 -14   3  122.65    2.62   1
   2 -14   3  121.34    2.82   4
   3  14   3   46.48    1.90   3
  -3 -14  -3   48.27    1.78   2
   3 -14   3   44.60    1.69   4
  -3  14  -3   46.72    1.95   3
   4  14   3   41.27    1.94   3
   4 -14   3   44.22    1.78   4
  -4 -14  -3   42.56    1.79   2
  -4  14  -3   44.12    1.97   3
   6  15  -3    6.93    0.94   2
   6 -15  -3    6.39    0.90   1
  -6 -15   3    6.02    0.91   1
  -6  15   3    6.62    0.97   4
  -5  15   3   44.22    1.67   4
   5  15  -3   44.05    1.73   2
   5 -15  -3   39.54    1.64   1
  -5 -15   3   42.33    1.68   1
   4 -15  -3   21.93    1.21   1
   4  15  -3   22.70    1.19   2
  -4  15   3   23.83    1.21   4
  -4  15   3   22.03    1.31   3
  -4 -15   3   19.18    1.16   1
   3  15  -3   11.09    0.92   3
   3  15  -3    9.40    0.84   2
  -3 -15   3   10.03    0.97   1
   3 -15  -3   11.34    0.90   1
  -3  15   3    9.91    1.02   3
  -3  15   3    9.82    0.83   4
  -2 -15   3   34.55    1.36   1
   2 -15  -3   35.24    1.34   1
   2  15  -3   36.19    1.43   3
  -2  15   3   36.94    1.24   4
  -2  15   3   37.61    1.52   3
   2  15  -3   35.89    1.31   2
   1 -15  -3  275.41    4.76   2
   1  15  -3  278.31    5.50   3
  -1  15   3  265.74    5.53   3
   1 -15  -3  276.40    4.92   1
   1  15  -3  279.52    4.81   2
  -1 -15   3  274.32    4.93   1
   0 -15  -3  210.87    3.95   1
   0  15   3  205.45    4.54   3
   0  15  -3  210.69    4.53   3
   0 -15   3  208.34    3.95   1
   0 -15  -3  216.38    3.96   2
   0 -15   3  211.50    3.90   4
   1  15   3  206.70    4.55   3
  -1 -15  -3  200.97    3.99   2
  -1  15  -3  202.25    4.51   3
   1 -15   3  195.46    3.92   4
   1 -15   3  210.73    3.90   1
  -1 -15  -3  209.44    3.89   1
   2 -15   3    5.31    0.70   4
  -2 -15  -3    4.53    0.67   2
   2  15   3    3.47    0.68   3
  -2  15  -3    5.03    0.79   3
   2 -15   3    4.68    0.58   1
  -3 -15  -3  126.80    3.13   2
  -3  15  -3  129.55    3.52   3
   3  15   3  128.23    3.50   3
   3 -15   3  128.87    3.13   4
  -4 -15  -3    5.27    0.86   2
  -4  15  -3    4.56    0.93   3
   4  15   3    6.49    0.95   3
   4 -15   3    5.62    0.92   4
   5  16  -3   29.36    1.48   2
  -5  16   3   26.99    1.38   4
   5 -16  -3   27.07    1.41   1
  -5 -16   3   30.28    1.47   1
  -4  16   3    1.01    0.58   4
   4  16  -3    0.90    0.56   2
  -4  16   3    1.28    0.62   3
   4 -16  -3    1.59    0.61   1
  -4 -16   3    1.90    0.60   1
   3  16  -3    1.83    0.54   3
   3 -16  -3    2.09    0.55   1
   3  16  -3    1.98    0.55   2
  -3  16   3    1.85    0.55   4
  -3 -16   3    1.66    0.60   1
  -3  16   3    1.77    0.62   3
  -2 -16   3   23.29    1.16   1
   2  16  -3   23.91    1.22   3
   2  16  -3   24.67    1.12   2
  -2  16   3   23.14    1.30   3
   2 -16  -3   24.34    1.16   1
  -2  16   3   23.35    1.05   4
   1  16  -3   25.01    1.33   3
  -1 -16   3   24.35    1.15   1
   1 -16  -3   24.30    0.99   2
   1 -16  -3   25.37    1.19   1
  -1  16   3   23.90    1.25   3
   0 -16  -3   58.79    1.71   1
   0  16  -3   55.22    1.96   3
   0  16   3   58.49    2.01   3
   0 -16   3   56.23    1.69   1
   0 -16  -3   56.16    1.63   2
   1  16   3   20.44    1.27   3
   1 -16   3   21.62    1.12   1
  -1 -16  -3   20.89    1.07   2
   1 -16   3   18.04    0.98   4
  -1  16  -3   19.90    1.26   3
  -1 -16  -3   22.42    1.08   1
   2 -16   3   76.78    2.03   1
   2 -16   3   75.38    2.15   4
   2  16   3   77.54    2.49   3
  -2 -16  -3   79.03    2.22   2
  -2  16  -3   83.29    2.59   3
   3  16   3   95.50    3.00   3
  -3 -16  -3  100.60    2.72   2
   3 -16   3  101.03    2.71   4
  -3  16  -3  103.62    3.10   3
  -4  16  -3    2.60    0.85   3
  -4 -16  -3    1.82    0.74   2
   4  16   3    3.48    0.88   3
   4 -16   3    2.84    0.80   4
   5  17  -3   11.11    1.10   2
  -5  17   3   11.71    1.09   4
   5 -17  -3   11.59    1.09   1
  -5 -17   3   12.55    1.11   1
  -4 -17   3  158.80    3.65   1
   4 -17  -3  166.40    3.73   1
  -4  17   3  176.14    4.05   3
   4  17  -3  166.91    3.73   2
  -4  17   3  161.72    3.56   4
   3 -17  -3    0.92    0.54   1
   3  17  -3    1.56    0.55   3
  -3  17   3    0.65    0.52   4
  -3 -17   3    0.04    0.54   1
  -3  17   3    1.08    0.60   3
   3  17  -3    0.49    0.51   2
  -2  17   3   69.49    2.22   3
  -2 -17   3   68.97    2.02   1
   2  17  -3   69.94    1.92   2
   2 -17  -3   66.85    1.99   1
   2  17  -3   71.28    2.15   3
  -1 -17   3   13.86    0.96   1
  -1  17   3   14.86    1.09   3
   1 -17  -3   15.59    1.04   1
   1  17  -3   15.21    1.17   3
   0 -17  -3   92.17    2.32   1
   0  17  -3   91.30    2.63   3
   0 -17  -3   89.47    2.20   2
   0 -17   3   90.95    2.30   1
   0  17   3   90.29    2.64   3
   1 -17   3   12.01    0.88   4
  -1 -17  -3   12.92    0.93   2
   1 -17   3   13.85    0.99   1
  -1 -17  -3   12.87    0.93   1
  -1  17  -3   13.28    1.14   3
   1  17   3   11.79    1.06   3
  -2 -17  -3   32.82    1.43   2
   2 -17   3   30.50    1.27   1
  -2  17  -3   30.09    1.67   3
   2 -17   3   29.86    1.34   4
   2  17   3   30.60    1.59   3
   3 -17   3    5.82    0.87   4
   3  17   3    5.07    0.88   3
  -3 -17  -3    5.94    0.87   2
  -3  17  -3    5.91    0.97   3
  -5 -18   3   34.42    1.64   1
  -5  18   3   31.80    1.56   4
   5 -18  -3   31.51    1.58   1
   5  18  -3   33.09    1.65   2
   4  18  -3   10.32    1.03   2
  -4 -18   3   12.44    1.14   1
  -4  18   3   10.59    1.02   4
   4 -18  -3   12.90    1.09   1
  -4  18   3   12.21    1.32   3
  -3  18   3  199.30    4.55   3
   3  18  -3  201.44    4.36   3
  -3 -18   3  203.23    4.20   1
   3  18  -3  191.53    4.05   2
   3 -18  -3  191.28    4.11   1
   2 -18  -3   25.10    1.26   1
  -2  18   3   26.09    1.43   3
   2  18  -3   24.97    1.35   3
  -2 -18   3   25.89    1.28   1
  -1 -18   3   73.39    2.12   1
   1  18  -3   80.34    2.44   3
   1 -18  -3   79.09    2.18   1
  -1  18   3   74.91    2.40   3
   0 -18   3    2.27    0.61   1
   0 -18  -3    2.98    0.57   2
   0  18   3    2.15    0.69   3
   0  18  -3    2.77    0.71   3
   0 -18  -3    2.83    0.60   1
  -1  18  -3   42.13    1.86   3
  -1 -18  -3   42.85    1.55   2
  -1 -18  -3   44.98    1.57   1
   1 -18   3   44.65    1.61   1
   1  18   3   41.52    1.82   3
   2 -18   3   25.54    1.27   4
   2  18   3   25.51    1.50   3
  -2 -18  -3   25.37    1.32   2
   2 -18   3   26.47    1.24   1
  -2  18  -3   24.25    1.57   3
   3  18   3   76.40    2.73   3
  -3  18  -3   87.89    2.93   3
  -3 -18  -3   85.04    2.54   2
   3 -18   3   82.48    2.49   4
   4 -19  -3   39.73    1.72   1
  -4  19   3   40.89    1.91   3
  -4  19   3   36.75    1.57   4
  -4 -19   3   38.83    1.73   1
   4  19  -3   39.96    1.68   2
   3  19  -3    9.98    0.93   2
  -3 -19   3    9.90    0.97   1
   3 -19  -3    8.70    0.90   1
   3  19  -3   10.79    1.07   3
  -3  19   3    9.06    1.02   3
  -2  19   3   13.86    1.16   3
   2  19  -3   13.69    1.14   3
   2 -19  -3   14.20    1.04   1
  -2 -19   3   13.64    1.05   1
  -1 -19   3   13.17    1.02   1
  -1  19   3   12.88    1.11   3
   1  19  -3   13.24    1.16   3
   1 -19  -3   13.66    1.07   1
   0 -19  -3  169.54    3.61   1
   0  19  -3  167.27    4.10   3
   0 -19  -3  161.76    3.43   2
   0  19   3  165.23    4.09   3
   0 -19   3  169.54    3.61   1
   1  19   3   52.08    2.10   3
   1 -19   3   58.16    1.88   1
  -1 -19  -3   56.29    1.82   2
  -1  19  -3   55.82    2.18   3
  -1 -19  -3   56.70    1.86   1
  -2  19  -3    8.22    1.09   3
   2  19   3    6.31    0.93   3
   2 -19   3    8.74    0.85   1
  -2 -19  -3    8.50    0.89   2
   4 -20  -3   32.97    1.64   1
  -4  20   3   34.58    1.81   3
   4  20  -3   34.20    1.61   2
  -4 -20   3   31.45    1.63   1
  -3 -20   3   41.82    1.76   1
   3  20  -3   42.70    1.67   2
   3 -20  -3   43.67    1.77   1
  -3  20   3   43.25    1.94   3
   3  20  -3   43.10    1.79   3
  -2 -20   3    1.09    0.59   1
   2  20  -3    0.10    0.58   3
  -2  20   3    0.52    0.62   3
   2 -20  -3   -0.02    0.50   1
   1  20  -3    0.34    0.60   3
  -1  20   3    0.50    0.60   3
   1 -20  -3   -0.13    0.56   1
  -1 -20   3    0.28    0.56   1
   0  20   3    8.99    1.03   3
   0  20  -3    8.45    1.03   3
   0 -20  -3    8.25    0.89   1
   0 -20   3    7.73    0.88   1
  -1  20  -3   16.31    1.35   3
  -1 -20  -3   15.84    1.09   2
   1 -20   3   16.85    1.19   1
   1  20   3   14.70    1.27   3
  -1 -20  -3   17.60    1.17   1
   2  20   3   12.21    1.22   3
  -2  20  -3   14.16    1.42   3
   2 -20   3   12.80    1.06   1
  -2 -20  -3   12.22    1.06   2
   3 -21  -3    4.30    0.81   1
  -3 -21   3    4.43    0.86   1
  -3  21   3    4.18    0.90   3
   2 -21  -3    0.52    0.56   1
  -2  21   3   -0.24    0.63   3
  -2 -21   3    0.26    0.62   1
   2  21  -3   -0.07    0.63   3
  -1  21   3   62.34    2.33   3
   1 -21  -3   66.75    2.17   1
   1  21  -3   62.89    2.30   3
  -1 -21   3   64.05    2.10   1
   0  21   3   33.95    1.76   3
   0  21  -3   31.40    1.78   3
   0 -21  -3   33.73    1.60   1
   0 -21   3   33.07    1.51   1
  -1 -21  -3   18.20    1.26   1
  -1  21  -3   19.68    1.49   3
   1 -21   3   17.43    1.29   1
  -1 -21  -3   16.78    1.14   2
   1  21   3   17.16    1.38   3
   2 -22  -3   49.26    1.92   1
  -2  22   3   47.39    2.09   3
  -2 -22   3   48.49    1.92   1
   2  22  -3   47.69    2.02   3
   1 -22  -3    0.24    0.66   1
   1  22  -3    0.23    0.69   3
  -1 -22   3    1.20    0.64   1
  -1  22   3    0.47    0.67   3
   0  22  -3   10.17    1.16   3
   0 -22   3    7.45    0.94   1
   0 -22  -3    9.60    1.02   1
   0  22   3    7.88    1.03   3
   7   0  -4   -1.04    0.50   1
  -7   0   4    0.28    0.53   4
   7   0  -4   -0.23    0.48   2
   6   0  -4  267.95    4.82   2
  -6   0   4  258.06    4.88   4
   6   0  -4  259.58    4.92   1
   5   0  -4   -0.24    0.37   1
   5   0  -4   -0.16    0.35   2
  -5   0   4   -0.44    0.43   4
  -4   0   4    4.67    0.56   4
   4   0  -4    4.20    0.52   1
   4   0  -4    4.92    0.51   2
   3   0  -4   -0.29    0.26   1
  -3   0   4    0.00    0.31   4
   3   0  -4    0.09    0.27   2
  -2   0   4  798.43   13.15   3
   2   0  -4  798.18   11.80   1
  -2   0   4  793.87   12.16   4
   2   0  -4  788.95   12.15   2
   1   0  -4    0.10    0.25   2
  -1   0   4    1.11    0.32   4
   1   0  -4   -0.58    0.16   1
  -1   0   4   -0.64    0.20   3
   0   0   4    1.15    0.33   3
   0   0   4    1.64    0.36   4
   0   0  -4    1.81    0.36   2
   1   0   4   -0.94    0.35   3
   1   0   4    0.21    0.33   4
  -1   0  -4    0.21    0.33   2
  -2   0  -4  451.51    7.34   2
   2   0   4  450.08    8.29   3
   2   0   4  443.41    7.36   4
  -3   0  -4   -0.63    0.37   2
   3   0   4   -0.32    0.44   3
   3   0   4    0.01    0.39   4
   4   0   4  389.33    6.78   4
  -4   0  -4  381.72    6.68   2
   4   0   4  370.94    7.62   3
   5   0   4    1.31    0.66   4
   5   0   4    0.17    0.66   3
   7   1  -4    0.27    0.58   1
   7  -1  -4    0.26    0.58   1
   7   1  -4    1.18    0.57   2
  -7   1   4    1.28    0.57   4
  -7  -1   4    1.15    0.60   4
  -6   1   4    0.54    0.53   4
  -6  -1   4    0.44    0.53   4
   6   1  -4   -0.18    0.50   1
   6  -1  -4    0.30    0.50   1
   6  -1  -4    0.25    0.44   2
   6   1  -4    0.73    0.45   2
  -5  -1   4  149.77    3.06   4
   5   1  -4  151.22    3.02   2
  -5   1   4  144.30    3.07   4
   5  -1  -4  148.99    2.96   2
  -4  -1   4   35.78    1.20   4
   4   1  -4   35.99    1.16   2
   4  -1  -4   36.10    1.14   2
   4   1  -4   34.10    1.18   1
   4  -1  -4   31.92    1.18   1
  -4   1   4   34.59    1.22   4
   3   1  -4  265.38    4.52   2
   3  -1  -4  260.65    4.47   2
   3   1  -4  261.06    4.40   1
  -3   1   4  270.72    4.57   4
   3  -1  -4  261.00    4.40   1
  -3  -1   4  265.84    4.53   4
   2   1  -4  167.18    2.90   1
  -2  -1   4  175.02    3.10   4
   2  -1  -4  166.47    2.88   1
   2   1  -4  161.64    3.00   3
  -2   1   4  172.00    3.11   4
  -2   1   4  170.96    3.06   3
   1  -1  -4  319.21    4.84   1
  -1  -1   4  323.02    5.61   3
  -1  -1   4  317.89    5.56   5
  -1  -1   4  316.31    5.24   4
   1   1  -4  315.45    5.22   2
  -1   1   4  316.13    5.62   3
  -1  -1   4  318.75    4.84   1
   1  -1  -4  316.64    5.23   2
  -1   1   4  314.87    5.22   4
   0  -1   4  157.45    2.95   4
   0   1  -4  158.58    2.92   2
   0   1   4  157.27    3.20   3
   0  -1   4  159.23    3.19   3
   0   1   4  158.82    2.93   4
   0  -1  -4  156.33    2.93   2
   1   1   4  921.32   14.25   4
   1  -1   4  949.50   15.89   3
   1   1   4  942.06   15.90   3
  -1   1  -4  930.54   14.26   2
  -1  -1  -4  930.65   14.30   2
   1  -1   4  928.11   14.30   4
  -2   1  -4   28.28    1.08   2
   2   1   4   29.30    1.11   4
   2  -1   4   25.85    1.26   3
  -2  -1  -4   27.93    1.11   2
   2  -1   4   27.36    1.12   4
   2   1   4   24.54    1.25   3
   3  -1   4   33.47    1.32   4
   3   1   4   33.21    1.26   4
   3   1   4   28.88    1.43   3
  -3   1  -4   32.94    1.26   2
  -3  -1  -4   29.72    1.24   2
   3  -1   4   31.10    1.48   3
   4   1   4   13.22    1.16   3
   4  -1   4   12.63    1.16   3
   4  -1   4   13.66    1.11   4
   4   1   4   13.33    1.07   4
  -4  -1  -4   12.37    1.02   2
   5  -1   4   71.62    2.25   4
   5   1   4   73.38    2.22   4
  -5   1  -4   69.04    2.47   3
   5   1   4   66.01    2.50   3
  -7   2   4   54.34    1.85   4
   7  -2  -4   51.52    1.85   1
  -7  -2   4   54.30    1.81   4
   7   2  -4   53.14    1.89   1
   7   2  -4   51.32    1.77   2
   6   2  -4  125.08    2.96   1
  -6   2   4  127.93    2.95   4
   6  -2  -4  137.72    2.83   2
   6   2  -4  131.23    2.91   2
  -6  -2   4  134.31    2.93   4
   6  -2  -4  128.55    2.98   1
   5  -2  -4   12.08    0.87   1
  -5   2   4   13.47    0.92   4
  -5  -2   4   12.29    0.90   4
   5   2  -4   12.24    0.85   2
   5  -2  -4   13.01    0.77   2
   5   2  -4   12.15    0.88   1
  -4   2   4  122.08    2.58   4
  -4  -2   4  121.46    2.52   4
   4  -2  -4  119.13    2.52   1
   4   2  -4  121.79    2.52   2
   4   2  -4  119.14    2.52   1
   4  -2  -4  121.22    2.45   2
  -3   2   4  152.53    2.89   4
   3  -2  -4  149.51    2.78   2
  -3  -2   4  143.19    2.81   4
   3   2  -4  151.03    2.77   1
   3   2  -4  148.66    2.83   2
   3  -2  -4  147.06    2.75   1
  -2   2   4  417.35    6.62   4
  -2   2   4  407.84    6.97   3
   2  -2  -4  414.91    6.35   1
   2   2  -4  414.06    6.35   1
   2   2  -4  408.57    6.91   3
   2   2  -4  404.16    6.58   2
  -2  -2   4  406.58    6.59   4
   1   2  -4  425.33    6.76   2
  -1  -2   4  421.54    6.36   1
  -1   2   4  416.27    6.74   4
  -1   2   4  426.06    7.33   3
  -1  -2   4  422.89    7.30   5
  -1  -2   4  422.52    6.77   4
  -1  -2   4  427.36    7.31   3
   1  -2  -4  415.50    6.76   2
   1  -2  -4  427.43    6.37   1
   0   2   4    3.77    0.45   3
   0   2   4    2.75    0.41   4
   0  -2   4    5.48    0.49   3
   0   2  -4    3.34    0.40   2
   0  -2  -4    3.96    0.44   2
   0  -2   4    4.21    0.47   4
  -1  -2  -4    0.75    0.33   2
  -1   2  -4    0.15    0.31   2
   1   2   4    0.28    0.35   3
   1   2   4    1.00    0.36   4
   1  -2   4    0.56    0.37   4
   1  -2   4   -0.49    0.44   3
   2  -2   4  121.92    2.63   4
   2   2   4  121.12    2.96   3
  -2  -2  -4  124.47    2.63   2
  -2   2  -4  122.93    2.54   2
   2   2   4  121.86    2.55   4
   2  -2   4  122.75    2.98   3
   3  -2   4  162.00    3.39   4
  -3  -2  -4  163.05    3.36   2
   3   2   4  163.27    3.28   4
   3   2   4  163.36    3.82   3
  -3   2  -4  165.48    3.25   2
   3  -2   4  156.06    3.79   3
  -4   2  -4   29.43    1.56   3
   4   2   4   29.80    1.57   3
  -4  -2  -4   30.82    1.40   2
   4   2   4   33.28    1.41   4
   4  -2   4   31.37    1.44   4
  -5   2  -4   20.61    1.49   3
   5  -2   4   19.37    1.31   4
   5   2   4   16.91    1.38   3
   7  -3  -4   23.64    1.31   1
   7   3  -4   21.92    1.28   1
   7   3  -4   21.91    1.22   2
  -7   3   4   23.28    1.30   4
  -6   3   4   50.52    1.70   4
   6   3  -4   49.72    1.65   2
  -6  -3   4   52.53    1.65   4
   6  -3  -4   49.15    1.68   1
   6  -3  -4   52.32    1.55   2
   6   3  -4   48.73    1.70   1
  -5   3   4    6.59    0.71   4
   5  -3  -4    6.19    0.57   2
   5   3  -4    6.40    0.67   1
   5   3  -4    6.99    0.67   2
   5  -3  -4    6.44    0.66   1
  -5  -3   4    6.89    0.68   4
   4   3  -4  830.09   12.85   2
  -4   3   4  823.08   12.88   4
   4  -3  -4  824.94   12.71   2
   4  -3  -4  835.85   12.67   1
   4   3  -4  836.10   12.67   1
  -4  -3   4  818.06   12.78   4
   3  -3  -4   30.30    0.98   2
  -3   3   4   29.41    1.06   4
  -3  -3   4   29.75    1.03   4
   3   3  -4   29.51    1.00   1
   3   3  -4   29.03    1.02   2
   3  -3  -4   27.52    0.96   1
  -2   3   4    3.61    0.33   3
   2  -3  -4    3.77    0.36   1
  -2  -3   4    4.11    0.37   1
  -2  -3   4    2.88    0.35   5
   2   3  -4    3.69    0.42   2
  -2  -3   4    3.40    0.43   4
   2  -3  -4    4.60    0.43   2
   2   3  -4    2.87    0.28   3
  -2   3   4    4.58    0.47   4
  -1  -3   4  212.41    3.79   4
   1  -3  -4  221.00    3.81   2
   1   3  -4  218.40    3.78   2
  -1   3   4  218.96    4.06   3
   1  -3  -4  220.94    3.48   1
  -1  -3   4  217.79    3.46   1
   1   3  -4  216.62    3.99   3
  -1   3   4  217.49    3.77   4
   0   3   4  318.33    5.79   3
   0  -3   4  318.15    5.29   4
   0   3  -4  316.98    5.22   2
   0   3   4  311.98    5.20   4
   0  -3  -4  313.92    5.29   2
  -1  -3  -4   75.09    1.84   2
   1  -3   4   79.78    1.89   4
   1   3   4   78.91    1.78   4
   1  -3   4   76.56    2.05   3
  -1   3  -4   77.36    1.76   2
   1   3   4   80.50    2.08   3
   2   3   4   31.37    1.35   3
   2   3   4   31.98    1.16   4
  -2   3  -4   32.72    1.13   2
  -2  -3  -4   33.89    1.22   2
   2  -3   4   32.11    1.38   3
   2  -3   4   32.95    1.23   4
   3   3   4   43.84    1.76   3
  -3   3  -4   42.28    1.72   3
   3   3   4   46.82    1.48   4
   3  -3   4   45.65    1.57   4
  -3   3  -4   44.60    1.43   2
  -3  -3  -4   44.31    1.54   2
   4   3   4   74.46    2.51   3
   4  -3   4   79.58    2.28   4
  -4  -3  -4   77.54    2.23   2
   4   3   4   81.61    2.16   4
  -4   3  -4   78.90    2.51   3
  -5  -3  -4   47.12    1.82   2
   5   3   4   42.43    2.00   3
  -5   3  -4   45.67    2.04   3
   5  -3   4   45.76    1.85   4
  -7   4   4  107.04    2.80   4
   7   4  -4  109.52    2.78   2
   7  -4  -4  107.22    2.82   1
   7   4  -4  109.55    2.84   1
   6  -4  -4   23.00    1.16   1
  -6  -4   4   24.26    1.15   4
   6   4  -4   24.97    1.21   2
   6   4  -4   21.49    1.16   1
  -6   4   4   21.27    1.16   4
   5   4  -4   90.84    2.21   2
   5   4  -4   94.30    2.28   1
   5  -4  -4   91.90    2.25   1
  -5  -4   4   92.99    2.17   4
   5  -4  -4   91.51    2.05   2
  -5   4   4   91.89    2.28   4
   4   4  -4    4.86    0.62   1
  -4  -4   4    7.02    0.64   4
   4   4  -4    8.59    0.78   2
  -4   4   4    7.19    0.67   4
   4  -4  -4    5.34    0.60   1
   4  -4  -4    7.69    0.68   2
   3  -4  -4  231.93    3.99   2
  -3   4   4  233.44    4.13   4
   3   4  -4  229.46    4.09   2
   3  -4  -4  231.86    3.99   1
   3   4  -4  230.72    3.99   1
  -3  -4   4  233.34    4.03   4
  -2   4   4  175.44    3.24   3
   2   4  -4  170.01    3.16   2
   2   4  -4  168.80    3.14   3
  -2   4   4  176.08    3.19   4
   2  -4  -4  169.85    3.11   2
  -2  -4   4  177.77    3.16   4
  -2  -4   4  175.75    3.45   5
  -2  -4   4  173.82    3.00   1
   2  -4  -4  175.59    3.01   1
  -1   4   4  888.68   15.03   3
  -1  -4   4  873.97   13.66   4
   1  -4  -4  899.95   13.69   2
  -1   4   4  900.12   13.64   4
   1   4  -4  913.83   14.96   3
   1   4  -4  899.14   13.66   2
  -1  -4   4  893.66   13.19   1
   1  -4  -4  915.22   13.21   1
   0  -4  -4   11.39    0.72   2
   0  -4   4   12.59    0.76   4
   0   4  -4   10.00    0.75   3
   0   4   4   10.85    0.69   4
   0   4  -4   11.90    0.68   2
   0   4   4    9.60    0.77   3
  -1  -4  -4  214.73    3.92   2
  -1   4  -4  217.23    4.27   3
   1   4   4  202.30    4.29   3
   1  -4   4  215.74    3.92   4
  -1   4  -4  214.69    3.77   2
   1   4   4  219.16    3.78   4
  -2   4  -4    7.79    0.73   3
   2   4   4    8.10    0.76   4
   2  -4   4   11.28    0.85   4
   2   4   4    7.26    0.74   3
  -2   4  -4   10.38    0.72   2
  -2  -4  -4    8.74    0.78   2
   3   4   4  418.12    8.11   3
   3   4   4  424.96    7.03   4
  -3  -4  -4  423.08    7.25   2
   3  -4   4  418.40    7.27   4
  -4   4  -4    0.91    0.68   3
  -4  -4  -4    1.22    0.59   2
   4   4   4    0.95    0.65   3
   4  -4   4    1.60    0.61   4
   5  -4   4   45.17    1.83   4
   5   4   4   41.22    1.99   3
  -5   4  -4   47.73    2.10   3
  -5  -4  -4   44.88    1.84   2
  -7   5   4    1.73    0.67   4
   7   5  -4    3.42    0.71   2
  -7  -5   4    2.38    0.67   1
  -7  -5   4    1.54    0.69   5
   7  -5  -4    1.98    0.67   1
  -6  -5   4   28.63    1.20   4
  -6   5   4   27.24    1.28   4
   6   5  -4   26.55    1.23   2
   6   5  -4   25.69    1.26   1
   6  -5  -4   25.31    1.23   1
  -5   5   4   50.01    1.62   4
   5  -5  -4   50.77    1.40   2
   5   5  -4   50.32    1.58   2
   5   5  -4   49.80    1.59   1
  -5  -5   4   51.69    1.50   4
  -4  -5   4  152.33    3.03   1
   4   5  -4  152.74    3.08   2
  -4  -5   4  157.24    2.98   4
   4  -5  -4  150.70    2.87   2
  -4   5   4  153.34    3.10   4
  -4  -5   4  154.49    3.49   5
   4  -5  -4  152.76    3.05   1
   3  -5  -4    1.34    0.39   1
  -3  -5   4    1.19    0.36   1
  -3  -5   4    1.89    0.40   4
  -3  -5   4    1.09    0.38   5
  -3   5   4    1.61    0.45   4
   3   5  -4    1.80    0.40   2
   3  -5  -4    2.10    0.38   2
  -2   5   4   30.64    0.99   3
  -2   5   4   31.14    1.05   4
   2   5  -4   30.05    1.03   2
   2  -5  -4   31.22    0.99   2
  -2  -5   4   30.04    0.93   1
   2   5  -4   29.50    0.88   3
  -2  -5   4   32.36    1.02   4
   2  -5  -4   30.11    0.93   1
  -1  -5   4  564.53    8.40   1
   1   5  -4  563.42    9.53   3
  -1   5   4  555.24    8.72   4
   1  -5  -4  554.47    8.76   2
   1  -5  -4  561.61    8.39   1
  -1   5   4  557.81    9.61   3
  -1  -5   4  554.49    8.78   4
   1   5  -4  554.51    8.74   2
   0   5  -4  694.96   10.80   2
   0  -5   4  690.31   10.33   1
   0   5   4  706.15   12.06   3
   0  -5   4  712.70   10.93   4
   0   5   4  702.17   10.78   4
   0  -5  -4  704.20   10.92   2
   0   5  -4  699.83   11.97   3
  -1  -5  -4   10.74    0.78   2
   1  -5   4   10.42    0.79   4
   1   5   4   11.42    0.70   4
  -1   5  -4   11.01    0.69   2
   1   5   4   10.53    0.84   3
  -1   5  -4    8.42    0.84   3
   2   5   4  286.22    5.70   3
  -2   5  -4  290.18    5.64   3
   2   5   4  281.16    4.88   4
   2  -5   4  285.44    5.13   4
  -2   5  -4  280.18    4.84   2
   3   5   4    2.41    0.50   4
   3  -5   4    2.11    0.59   4
  -3   5  -4    5.84    0.84   3
  -3  -5  -4    2.07    0.55   2
   3   5   4    2.31    0.61   3
  -4  -5  -4  200.28    4.21   2
  -4   5  -4  207.83    4.72   3
   4  -5   4  198.39    4.23   4
   4   5   4  200.64    4.75   3
   5   5   4   -0.18    0.64   3
  -5  -5  -4   -0.01    0.60   2
   5  -5   4    0.53    0.68   4
  -5   5  -4   -0.12    0.72   3
   7   6  -4   43.21    1.72   2
  -7   6   4   40.16    1.70   4
  -7  -6   4   45.22    1.74   1
   7  -6  -4   42.08    1.69   1
  -7  -6   4   42.78    1.97   5
  -6   6   4   37.80    1.51   4
   6   6  -4   38.19    1.48   2
  -6  -6   4   38.43    1.51   1
   6  -6  -4   37.13    1.49   1
  -6  -6   4   37.47    1.74   5
   5  -6  -4   93.68    2.03   2
  -5  -6   4   91.61    2.29   1
  -5  -6   4   94.63    2.14   4
   5   6  -4   90.86    2.28   2
  -5   6   4   91.23    2.31   4
   5  -6  -4   95.55    2.31   1
  -5  -6   4   89.35    2.61   5
  -4   6   4  315.86    5.49   4
  -4  -6   4  310.71    5.36   1
   4  -6  -4  309.12    5.19   2
   4   6  -4  313.70    5.47   2
  -4  -6   4  318.39    5.31   4
   4  -6  -4  313.59    5.37   1
  -4  -6   4  312.45    6.16   5
  -3  -6   4  457.50    7.53   4
  -3   6   4  469.28    7.68   4
   3  -6  -4  475.42    7.51   2
   3  -6  -4  470.33    7.50   1
   3   6  -4  480.27    7.70   2
  -3  -6   4  484.20    8.63   5
  -3  -6   4  479.84    7.50   1
  -2   6   4    1.76    0.33   3
  -2   6   4    2.71    0.43   4
   2  -6  -4    2.04    0.36   2
  -2  -6   4    1.97    0.39   4
   2   6  -4    2.63    0.40   2
   2  -6  -4    2.20    0.34   1
   2   6  -4    2.16    0.32   3
  -2  -6   4    2.06    0.35   1
  -1   6   4   85.67    2.00   3
   1   6  -4   82.24    1.91   3
  -1  -6   4   83.37    1.68   1
  -1   6   4   85.12    1.82   4
   1  -6  -4   85.08    1.67   1
   1  -6  -4   84.31    1.86   2
  -1  -6   4   84.59    1.88   4
   1   6  -4   83.36    1.84   2
   0   6  -4  100.51    2.07   2
   0   6   4  100.26    2.05   4
   0  -6   4  100.35    1.82   1
   0   6   4   99.36    2.38   3
   0  -6   4  100.49    2.18   4
   0   6  -4   99.60    2.32   3
   0  -6  -4  101.27    2.18   2
   1   6   4  185.50    3.35   4
  -1   6  -4  188.72    3.89   3
   1  -6   4  188.23    3.57   4
  -1   6  -4  183.80    3.35   2
  -1  -6  -4  186.04    3.57   2
   1   6   4  188.27    3.95   3
   2  -6   4   70.77    1.93   4
  -2  -6  -4   71.75    1.95   2
  -2   6  -4   72.91    2.13   3
  -2   6  -4   72.36    1.71   2
   2   6   4   72.39    1.75   4
   2   6   4   72.18    2.16   3
   3   6   4   65.06    2.16   3
   3  -6   4   64.96    1.96   4
   3   6   4   65.85    1.73   4
  -3   6  -4   61.93    2.11   3
  -3  -6  -4   62.86    1.91   2
   4   6   4   14.50    1.22   3
  -4   6  -4   12.99    1.27   3
   4  -6   4   14.47    1.11   4
  -4  -6  -4   13.37    1.12   2
   5   6   4    0.11    0.67   3
  -5   6  -4   -0.28    0.70   3
   5  -6   4    0.32    0.66   4
  -5  -6  -4    0.52    0.61   2
  -7   7   4   12.45    1.10   4
   7   7  -4   13.45    1.10   2
  -7  -7   4   13.13    1.11   1
   7  -7  -4   14.81    1.09   1
  -7  -7   4   13.88    1.29   5
  -6  -7   4   22.80    1.43   5
   6  -7  -4   21.61    1.18   1
  -6   7   4   22.94    1.24   4
   6   7  -4   22.06    1.19   2
  -6  -7   4   22.27    1.22   1
   5   7  -4  128.27    2.89   2
  -5  -7   4  130.93    2.68   4
  -5  -7   4  128.36    3.30   5
   5  -7  -4  127.93    2.87   1
  -5  -7   4  126.82    2.86   1
   4   7  -4    4.61    0.59   2
   4  -7  -4    4.95    0.58   1
   4  -7  -4    5.23    0.49   2
  -4  -7   4    6.16    0.59   4
  -4   7   4    6.47    0.66   4
  -4  -7   4    4.35    0.58   1
  -4  -7   4    4.21    0.63   5
  -3  -7   4 1046.24   16.15   4
  -3   7   4 1067.50   16.33   4
   3  -7  -4 1066.82   16.00   1
   3  -7  -4 1067.68   16.11   2
   3   7  -4 1085.43   16.35   2
  -3  -7   4 1091.70   16.01   1
  -3   7   4 1053.34   17.72   3
  -2  -7   4   12.11    0.71   1
   2   7  -4   11.05    0.71   2
   2  -7  -4   10.67    0.69   2
  -2   7   4   10.83    0.77   3
  -2   7   4   10.54    0.76   4
   2   7  -4   11.73    0.66   3
   2  -7  -4   10.49    0.66   1
  -2  -7   4   11.08    0.73   4
  -1   7   4  100.41    2.05   4
  -1  -7   4   98.31    1.92   1
   1   7  -4   99.97    2.07   2
  -1  -7   4  101.08    2.12   4
  -1   7   4   96.63    2.27   3
   1  -7  -4   99.55    2.11   2
   1  -7  -4   97.94    1.91   1
   1   7  -4   97.85    2.19   3
   0  -7  -4  692.41   10.81   2
   0  -7   4  681.87   10.79   4
   0   7   4  687.81   11.94   3
   0   7  -4  702.85   11.87   3
   0   7  -4  683.64   10.64   2
   0   7   4  687.29   10.60   4
   0  -7   4  689.37   10.27   1
   1   7   4  112.73    2.75   3
  -1  -7  -4  113.05    2.49   2
   1  -7   4  113.11    2.49   4
  -1   7  -4  113.40    2.27   2
  -1   7  -4  113.91    2.70   3
   1   7   4  111.35    2.25   4
   2   7   4   31.45    1.40   3
   2   7   4   30.48    1.10   4
  -2  -7  -4   32.54    1.29   2
   2  -7   4   30.38    1.27   4
  -2   7  -4   30.88    1.38   3
   3   7   4    8.20    0.90   3
  -3   7  -4    7.23    0.86   3
  -3  -7  -4    8.21    0.79   2
   3  -7   4    8.55    0.86   4
   4   7   4  126.70    3.49   3
  -4   7  -4  124.63    3.40   3
  -4  -7  -4  126.44    3.11   2
   4  -7   4  122.86    3.10   4
  -5   7  -4   60.59    2.38   3
   5  -7   4   59.91    2.18   4
  -5  -7  -4   60.53    2.19   2
   5   7   4   60.59    2.43   3
  -7   8   4    6.43    0.93   4
   7  -8  -4    6.66    0.84   1
  -7  -8   4    4.80    0.86   5
  -7  -8   4    5.37    0.83   1
   7   8  -4    6.39    0.86   2
  -6   8   4  142.07    3.32   4
   6  -8  -4  147.59    3.30   1
  -6  -8   4  145.45    3.79   5
  -6  -8   4  142.73    3.28   1
   6   8  -4  145.32    3.32   2
  -5  -8   4   62.32    1.88   1
   5   8  -4   63.47    1.88   2
  -5  -8   4   61.71    2.15   5
  -5   8   4   66.83    1.93   4
   5  -8  -4   62.74    1.87   1
  -4  -8   4   70.02    1.84   1
   4   8  -4   65.27    1.83   2
   4  -8  -4   67.12    1.55   2
  -4  -8   4   67.46    1.63   4
  -4  -8   4   67.08    2.08   5
  -4   8   4   68.30    1.85   4
   4  -8  -4   65.49    1.80   1
  -3  -8   4  363.64    5.97   4
  -3  -8   4  369.60    6.04   1
   3   8  -4  364.48    6.18   2
   3  -8  -4  361.96    6.02   1
   3  -8  -4  359.18    5.91   2
  -3   8   4  364.30    6.50   3
  -3   8   4  369.65    6.16   4
  -2  -8   4  522.06    8.12   1
  -2  -8   4  515.90    8.23   4
   2   8  -4  517.44    8.95   3
   2   8  -4  516.32    8.32   2
  -2   8   4  518.82    9.06   3
   2  -8  -4  531.37    8.14   1
   2  -8  -4  523.92    8.23   2
  -2   8   4  521.71    8.30   4
  -1  -8   4   16.86    0.84   4
  -1   8   4   17.55    0.81   4
  -1   8   4   14.95    0.94   3
   1  -8  -4   17.37    0.82   2
   1  -8  -4   16.95    0.72   1
   1   8  -4   16.95    0.82   3
  -1  -8   4   17.74    0.75   1
   1   8  -4   17.33    0.80   2
   0  -8   4   62.63    1.65   4
   0  -8   4   62.13    1.39   1
   0   8   4   63.60    1.48   4
   0  -8  -4   63.65    1.66   2
   0   8   4   64.51    1.82   3
   0   8  -4   63.66    1.53   2
   0   8  -4   61.14    1.76   3
   1  -8   4    0.57    0.41   4
   1   8   4    0.57    0.35   4
  -1   8  -4    0.49    0.35   2
  -1   8  -4    0.19    0.42   3
  -1  -8  -4    0.78    0.41   2
   1   8   4   -0.10    0.43   3
  -2  -8  -4  202.28    4.00   2
  -2   8  -4  204.60    4.38   3
   2  -8   4  202.47    3.99   4
   2   8   4  200.46    4.43   3
  -3  -8  -4   31.38    1.39   2
  -3   8  -4   29.91    1.51   3
   3  -8   4   29.92    1.35   4
   3   8   4   30.66    1.49   3
   4   8   4  106.90    3.18   3
  -4   8  -4  110.31    3.18   3
  -4  -8  -4  110.06    2.88   2
   4  -8   4  104.58    2.83   4
  -7   9   4    7.12    0.96   4
   7   9  -4    6.31    0.90   2
  -7  -9   4    6.27    0.93   5
   7  -9  -4    6.41    0.87   1
  -7  -9   4    6.53    0.90   1
   6   9  -4   21.22    1.20   2
  -6  -9   4   18.83    1.20   1
   6  -9  -4   20.23    1.17   1
  -6  -9   4   18.86    1.37   5
  -6   9   4   18.63    1.19   4
   5  -9  -4  186.62    3.74   1
  -5   9   4  178.99    3.76   4
   5   9  -4  182.51    3.77   2
  -5  -9   4  180.47    3.72   1
  -4  -9   4   18.85    0.87   4
   4   9  -4   18.85    1.01   2
  -4  -9   4   18.53    1.02   1
   4  -9  -4   19.47    0.79   2
  -4   9   4   20.07    1.05   4
   4  -9  -4   19.56    1.01   1
  -3   9   4   35.22    1.19   3
  -3  -9   4   34.65    1.15   4
   3  -9  -4   34.50    1.06   2
   3   9  -4   34.54    1.28   2
  -3  -9   4   33.79    1.24   1
  -3   9   4   33.38    1.25   4
   3  -9  -4   34.76    1.22   1
  -2  -9   4  738.60   11.39   4
   2   9  -4  733.05   12.48   3
   2  -9  -4  742.22   11.37   2
   2   9  -4  733.29   11.48   2
  -2  -9   4  743.31   11.24   1
   2  -9  -4  719.39   11.23   1
  -2   9   4  741.65   11.45   4
  -2   9   4  738.39   12.59   3
   1   9  -4   84.66    2.07   3
   1   9  -4   86.57    1.92   2
  -1   9   4   89.25    2.18   3
   1  -9  -4   86.12    1.84   1
  -1   9   4   86.35    1.88   4
  -1  -9   4   86.25    1.84   1
   1  -9  -4   88.75    1.98   2
  -1  -9   4   83.44    1.93   4
   0   9   4    2.40    0.39   4
   0   9   4    3.96    0.55   3
   0  -9  -4    2.32    0.36   1
   0   9  -4    3.02    0.43   2
   0  -9   4    2.59    0.48   4
   0   9  -4    2.55    0.50   3
   0  -9   4    2.36    0.36   1
   0  -9  -4    2.01    0.43   2
  -1   9  -4  550.46    8.69   2
  -1   9  -4  571.91    9.98   3
  -1  -9  -4  543.86    9.05   2
   1   9   4  553.62    8.66   4
  -2   9  -4    1.89    0.58   3
  -2  -9  -4    2.47    0.55   2
   2  -9   4    3.68    0.62   4
   2   9   4    2.47    0.58   3
  -3  -9  -4   13.41    1.08   2
  -3   9  -4   11.99    1.12   3
   3   9   4   12.70    1.10   3
   3  -9   4   13.70    1.00   4
   4  -9   4   13.95    1.11   4
  -4   9  -4    9.15    1.06   3
   4   9   4   12.04    1.17   3
  -4  -9  -4   12.24    1.15   2
  -7  10   4    5.14    0.91   4
   7 -10  -4    5.44    0.87   1
   7  10  -4    5.35    0.87   2
  -7 -10   4    6.42    0.91   1
  -6  10   4   31.67    1.45   4
   6  10  -4   29.38    1.41   2
  -6 -10   4   29.87    1.44   1
   6 -10  -4   31.50    1.44   1
  -5  10   4    7.92    0.83   4
   5  10  -4    8.84    0.83   2
  -5 -10   4    6.90    0.78   1
   5 -10  -4    7.63    0.79   1
  -4  10   4    4.23    0.64   4
  -4 -10   4    2.79    0.56   1
   4 -10  -4    2.75    0.54   1
   4  10  -4    2.04    0.53   2
   3 -10  -4    9.41    0.62   2
  -3 -10   4    9.69    0.82   1
   3  10  -4    9.20    0.79   2
  -3 -10   4   10.14    0.73   4
  -3  10   4    9.40    0.75   3
   3 -10  -4   10.56    0.80   1
  -3  10   4   10.35    0.82   4
  -2 -10   4  732.56   11.08   1
   2  10  -4  735.75   12.30   3
   2 -10  -4  714.73   11.06   1
   2  10  -4  735.12   11.30   2
  -2 -10   4  705.40   11.16   4
  -2  10   4  712.20   12.39   3
  -2  10   4  693.88   11.20   4
   2 -10  -4  734.17   11.16   2
  -1 -10   4   63.84    1.64   4
  -1 -10   4   63.91    1.57   1
   1 -10  -4   66.06    1.65   2
  -1  10   4   65.42    1.58   4
  -1  10   4   66.62    1.87   3
   1  10  -4   65.24    1.61   2
   1  10  -4   65.67    1.78   3
   1 -10  -4   64.96    1.57   1
   0  10  -4   44.55    1.26   2
   0 -10  -4   43.46    1.38   2
   0 -10   4   47.36    1.42   4
   0  10  -4   44.44    1.51   3
   0 -10   4   43.72    1.21   1
   0 -10  -4   44.94    1.26   1
   0  10   4   45.15    1.56   3
   0  10   4   44.88    1.20   4
   1  10   4   33.93    1.44   3
   1 -10   4   34.78    1.32   4
  -1 -10  -4   33.64    1.32   2
  -1  10  -4   33.73    1.44   3
   2  10   4  118.64    3.13   3
   2 -10   4  122.79    2.86   4
  -2  10  -4  127.06    3.15   3
  -2 -10  -4  125.04    2.87   2
  -3  10  -4   70.87    2.35   3
  -3 -10  -4   72.38    2.19   2
   3 -10   4   69.54    2.13   4
   3  10   4   68.48    2.35   3
  -4 -10  -4    6.92    0.92   2
   4  10   4    5.79    0.93   3
   4 -10   4    9.23    1.00   4
  -4  10  -4    6.91    0.97   3
  -7  11   4   10.37    1.10   4
   7  11  -4    9.90    1.05   2
   7 -11  -4    9.65    1.02   1
  -7 -11   4   10.83    1.08   1
   6 -11  -4   33.45    1.49   1
  -6 -11   4   32.63    1.51   1
   6  11  -4   34.27    1.52   2
  -6  11   4   32.51    1.51   4
   5 -11  -4   65.21    1.97   1
  -5  11   4   64.19    1.96   4
  -5 -11   4   63.96    1.96   1
   5  11  -4   64.63    1.97   2
   4  11  -4  219.75    4.31   2
  -4  11   4  217.40    4.27   4
   4 -11  -4  229.00    4.28   1
  -4 -11   4  226.38    4.28   1
  -3  11   4   33.75    1.27   3
  -3  11   4   34.52    1.26   4
   3 -11  -4   35.10    1.27   1
  -3 -11   4   33.79    1.27   1
   3  11  -4   34.93    1.27   2
   3 -11  -4   32.01    1.01   2
   2 -11  -4   11.38    0.77   1
   2 -11  -4   12.27    0.75   2
  -2 -11   4   11.05    0.85   1
  -2 -11   4   11.49    0.78   4
   2  11  -4   11.84    0.83   2
   2  11  -4   12.27    0.88   3
  -2  11   4   11.04    0.71   4
  -2  11   4   12.25    0.93   3
   1  11  -4   79.80    1.86   2
   1  11  -4   81.41    2.08   3
  -1  11   4   79.16    1.79   4
  -1 -11   4   78.15    1.88   4
  -1  11   4   79.19    2.15   3
   1 -11  -4   79.54    1.88   2
  -1 -11   4   78.63    1.83   1
   1 -11  -4   79.42    1.83   1
   0  11   4   78.33    2.19   3
   0  11  -4   76.66    2.11   3
   0 -11   4   75.80    1.92   4
   0 -11  -4   76.89    1.77   1
   0  11  -4   77.15    1.77   2
   0 -11  -4   79.48    1.97   2
   0 -11   4   76.35    1.75   1
   0  11   4   77.16    1.69   4
   1  11   4  360.20    7.00   3
  -1  11  -4  370.62    6.98   3
   1 -11   4  353.40    6.26   4
   2  11   4    5.33    0.74   3
   2 -11   4    4.71    0.69   4
  -2  11  -4    4.95    0.76   3
  -2 -11  -4    4.39    0.65   2
   3  11   4   11.31    1.12   3
  -3 -11  -4   12.69    1.12   2
   3 -11   4   12.27    1.02   4
  -3  11  -4   10.75    1.13   3
   4 -11   4    0.48    0.64   4
  -4 -11  -4    1.50    0.68   2
  -4  11  -4   -0.20    0.63   3
   4  11   4    1.03    0.67   3
  -6  12   4   36.15    1.61   4
  -6 -12   4   38.24    1.64   1
   6  12  -4   37.54    1.64   2
   6 -12  -4   38.70    1.62   1
   5  12  -4   32.39    1.40   2
  -5 -12   4   32.20    1.42   1
   5 -12  -4   29.71    1.36   1
  -5  12   4   28.91    1.34   4
   4 -12  -4    5.30    0.68   1
   4  12  -4    4.39    0.67   2
  -4  12   4    4.27    0.71   4
  -4 -12   4    5.45    0.71   1
  -3 -12   4  220.87    4.11   1
  -3  12   4  222.41    4.11   4
  -3  12   4  213.29    4.40   3
   3  12  -4  213.25    4.13   2
   3 -12  -4  218.95    4.12   1
  -2  12   4  108.22    2.39   4
   2 -12  -4  115.41    2.50   1
   2  12  -4  115.25    2.51   2
   2  12  -4  121.86    2.71   3
  -2 -12   4  115.56    2.51   1
   2 -12  -4  120.44    2.42   2
  -2  12   4  115.33    2.76   3
  -2 -12   4  116.49    2.39   4
   1  12  -4  208.66    4.29   3
   1 -12  -4  208.86    3.86   2
  -1 -12   4  209.75    3.83   1
   1  12  -4  211.43    3.84   2
  -1 -12   4  210.48    3.86   4
  -1  12   4  210.18    3.73   4
  -1  12   4  210.00    4.38   3
   1 -12  -4  212.40    3.81   1
   0 -12  -4    5.60    0.61   2
   0 -12   4    6.48    0.65   4
   0 -12  -4    6.15    0.55   1
   0  12  -4    5.27    0.66   3
   0  12   4    5.79    0.70   3
   0 -12   4    6.51    0.58   1
  -1  12  -4    0.49    0.50   3
   1  12   4    0.69    0.48   3
  -1 -12  -4    0.54    0.44   2
   1 -12   4    0.87    0.47   4
   2  12   4   83.21    2.58   3
  -2  12  -4   90.87    2.63   3
  -2 -12  -4   87.80    2.36   2
   2 -12   4   88.46    2.37   4
   3  12   4  186.31    4.56   3
  -3  12  -4  192.70    4.56   3
   3 -12   4  187.34    4.10   4
  -3 -12  -4  193.37    4.15   2
   4 -12   4   28.33    1.52   4
  -4 -12  -4   29.93    1.58   2
  -4  12  -4   27.41    1.64   3
   4  12   4   26.61    1.62   3
  -6 -13   4   44.42    1.80   1
   6  13  -4   44.11    1.81   2
  -6  13   4   45.82    1.81   4
   6 -13  -4   45.68    1.79   1
   5  13  -4    6.36    0.80   2
  -5 -13   4    6.84    0.84   1
  -5  13   4    7.68    0.86   4
   5 -13  -4    5.95    0.77   1
   4  13  -4   77.72    2.18   2
   4 -13  -4   85.18    2.25   1
  -4  13   4   81.23    2.19   4
  -4 -13   4   79.46    2.19   1
  -3  13   4  129.35    2.80   4
   3 -13  -4  125.62    2.83   1
   3  13  -4  127.13    2.86   2
  -3 -13   4  134.60    2.89   1
  -3  13   4  128.32    3.03   3
  -2 -13   4    6.83    0.68   1
  -2  13   4    8.20    0.76   3
   2  13  -4    7.56    0.71   3
   2  13  -4    7.69    0.68   2
   2 -13  -4    7.73    0.68   2
   2 -13  -4    8.12    0.70   1
  -2  13   4    6.93    0.62   4
  -1  13   4    3.79    0.63   3
   1  13  -4    4.90    0.56   2
  -1 -13   4    4.09    0.56   4
   1 -13  -4    5.08    0.56   1
   1 -13  -4    3.94    0.52   2
  -1 -13   4    3.97    0.55   1
   1  13  -4    4.06    0.60   3
  -1  13   4    4.16    0.52   4
   0 -13  -4  268.40    4.62   1
   0  13  -4  261.93    5.35   3
   0 -13  -4  262.37    4.83   2
   0  13   4  271.31    5.44   3
   0 -13   4  264.17    4.62   1
   0 -13   4  261.43    4.80   4
   1  13   4    5.97    0.78   3
  -1 -13  -4    8.35    0.79   2
   1 -13   4    7.55    0.77   4
  -1  13  -4    6.87    0.79   3
   2 -13   4   17.95    1.10   4
   2  13   4   18.08    1.21   3
  -2 -13  -4   16.92    1.09   2
  -2  13  -4   16.89    1.23   3
  -3 -13  -4    6.76    0.88   2
   3  13   4    5.13    0.86   3
  -3  13  -4    5.48    0.91   3
   3 -13   4    8.41    0.95   4
  -4  13  -4   61.65    2.43   3
   4 -13   4   61.63    2.21   4
   4  13   4   62.06    2.45   3
  -4 -13  -4   63.59    2.26   2
  -6  14   4    5.73    0.91   4
   6 -14  -4    4.74    0.80   1
  -6 -14   4    4.50    0.87   1
   6  14  -4    5.60    0.88   2
  -5  14   4   20.75    1.21   4
  -5 -14   4   22.05    1.27   1
   5 -14  -4   22.54    1.25   1
   5  14  -4   21.32    1.24   2
  -4 -14   4    4.20    0.69   1
  -4  14   4    4.12    0.70   4
   4 -14  -4    4.34    0.68   1
   4  14  -4    3.57    0.64   2
  -3  14   4  233.73    4.88   3
   3 -14  -4  233.79    4.51   1
  -3 -14   4  242.60    4.53   1
   3  14  -4  237.95    4.53   2
  -3  14   4  241.69    4.45   4
  -2  14   4    1.26    0.50   3
   2  14  -4    2.20    0.52   2
  -2  14   4    1.96    0.47   4
   2  14  -4    1.61    0.52   3
   2 -14  -4    1.83    0.44   2
   2 -14  -4    2.66    0.53   1
  -2 -14   4    1.47    0.51   1
   1  14  -4   97.78    2.55   3
   1 -14  -4   98.74    2.29   1
  -1  14   4   96.34    2.60   3
   1  14  -4   97.82    2.21   2
  -1 -14   4   95.08    2.26   1
  -1 -14   4   94.00    2.20   4
   1 -14  -4   99.18    2.24   2
   0  14  -4   12.21    1.04   3
   0  14   4   13.30    1.08   3
   0 -14   4   12.74    0.92   4
   0 -14   4   11.87    0.85   1
   0 -14  -4   12.62    0.90   1
   0 -14  -4   13.21    0.88   2
   1 -14   4   46.27    1.59   4
   1  14   4   46.42    1.80   3
  -1 -14  -4   43.89    1.56   2
  -1  14  -4   44.72    1.76   3
  -2  14  -4   26.53    1.48   3
   2 -14   4   28.70    1.34   4
  -2 -14  -4   25.74    1.30   2
   2  14   4   26.74    1.48   3
   3  14   4   41.73    1.95   3
  -3 -14  -4   43.38    1.77   2
   3 -14   4   43.42    1.75   4
  -3  14  -4   42.62    1.95   3
  -6 -15   4   16.07    1.25   1
   6 -15  -4   15.45    1.19   1
   6  15  -4   17.84    1.28   2
  -6  15   4   16.74    1.23   4
  -5  15   4   49.67    1.82   4
  -5 -15   4   51.16    1.87   1
   5 -15  -4   52.09    1.87   1
   5  15  -4   54.14    1.92   2
   4 -15  -4   43.65    1.64   1
  -4 -15   4   42.56    1.62   1
   4  15  -4   42.33    1.60   2
  -4  15   4   43.98    1.60   4
  -3  15   4    8.19    0.79   4
   3  15  -4    8.13    0.78   2
   3 -15  -4    8.38    0.81   1
  -3 -15   4    9.94    0.87   1
  -3  15   4    9.04    0.91   3
   2  15  -4    0.64    0.48   3
  -2 -15   4    0.72    0.49   1
   2  15  -4    0.05    0.44   2
   2 -15  -4    1.09    0.48   1
  -2  15   4    0.26    0.48   3
  -2  15   4    1.19    0.46   4
  -1  15   4    9.12    0.96   3
  -1 -15   4    8.37    0.79   1
   1 -15  -4    7.94    0.73   2
   1 -15  -4    8.59    0.81   1
   1  15  -4    7.24    0.79   3
   0  15  -4  160.56    3.80   3
   0  15   4  159.26    3.83   3
   0 -15   4  165.32    3.29   1
   0 -15   4  164.62    3.36   4
  -1  15  -4   18.73    1.28   3
   1  15   4   16.87    1.19   3
  -1 -15  -4   18.31    1.07   2
   1 -15   4   20.30    1.11   4
   2 -15   4   26.96    1.33   4
  -2 -15  -4   27.42    1.37   2
  -2  15  -4   28.48    1.57   3
   2  15   4   27.71    1.53   3
   3  15   4   24.77    1.58   3
   3 -15   4   24.84    1.40   4
  -3  15  -4   26.01    1.60   3
  -3 -15  -4   26.80    1.45   2
  -5 -16   4   23.13    1.36   1
   5 -16  -4   22.70    1.32   1
   5  16  -4   23.36    1.36   2
  -5  16   4   23.08    1.33   4
  -4 -16   4    0.83    0.56   1
   4  16  -4    0.05    0.51   2
  -4  16   4   -0.32    0.53   4
   4 -16  -4    0.33    0.52   1
  -3  16   4   19.49    1.19   3
   3  16  -4   21.16    1.14   2
   3 -16  -4   18.86    1.10   1
  -3  16   4   18.41    1.08   4
  -3 -16   4   19.36    1.19   1
   2  16  -4  105.08    2.72   3
   2 -16  -4  102.56    2.53   1
   2  16  -4  103.54    2.47   2
  -2 -16   4  102.19    2.53   1
  -2  16   4  103.07    2.79   3
   1 -16  -4   28.05    1.14   2
  -1  16   4   29.28    1.44   3
   1 -16  -4   27.39    1.23   1
   1  16  -4   27.02    1.39   3
  -1 -16   4   25.53    1.17   1
   0  16  -4   42.67    1.73   3
   0 -16   4   43.71    1.54   4
   0 -16   4   45.56    1.53   1
   0  16   4   40.32    1.73   3
   0 -16  -4   42.24    1.49   2
   1 -16   4   39.62    1.51   4
   1  16   4   38.91    1.74   3
  -1  16  -4   40.24    1.75   3
  -1 -16  -4   41.53    1.56   2
   2  16   4  107.44    3.18   3
  -2  16  -4  108.94    3.19   3
  -2 -16  -4  106.22    2.82   2
   2 -16   4  109.44    2.82   4
   3  16   4   70.10    2.62   3
  -3 -16  -4   77.31    2.44   2
  -3  16  -4   75.48    2.68   3
   3 -16   4   75.22    2.39   4
   5 -17  -4   59.84    2.09   1
  -5  17   4   57.12    2.02   4
  -5 -17   4   57.62    2.07   1
   5  17  -4   57.70    2.09   2
  -4 -17   4   34.54    1.56   1
   4 -17  -4   36.28    1.56   1
  -4  17   4   35.93    1.52   4
   4  17  -4   35.03    1.53   2
  -3  17   4    3.77    0.72   3
  -3  17   4    4.36    0.70   4
  -3 -17   4    4.52    0.72   1
   3 -17  -4    3.69    0.69   1
   3  17  -4    4.39    0.69   2
   2  17  -4    2.12    0.62   3
   2 -17  -4    2.57    0.60   1
   2  17  -4    3.02    0.61   2
  -2  17   4    1.88    0.62   3
  -2 -17   4    1.72    0.61   1
  -1  17   4  111.41    3.04   3
   1 -17  -4  110.35    2.65   1
   1 -17  -4  110.68    2.52   2
   1  17  -4  110.30    2.98   3
  -1 -17   4  108.20    2.63   1
   0 -17   4   44.44    1.58   1
   0 -17  -4   40.89    1.49   2
   0  17  -4   41.78    1.76   3
   0  17   4   40.66    1.78   3
  -1 -17  -4   29.29    1.35   2
  -1  17  -4   29.46    1.57   3
   1 -17   4   28.87    1.32   4
   1  17   4   26.22    1.52   3
   2 -17   4    2.97    0.75   4
  -2  17  -4    2.46    0.83   3
  -2 -17  -4    2.94    0.72   2
   2  17   4    2.83    0.75   3
  -4  18   4    1.88    0.69   4
  -4 -18   4    1.82    0.72   1
   4 -18  -4    1.88    0.64   1
   4  18  -4    2.14    0.68   2
   3 -18  -4    1.91    0.62   1
   3  18  -4    2.06    0.61   2
  -3  18   4    1.54    0.66   3
  -3 -18   4    1.49    0.64   1
   2 -18  -4  127.32    3.04   1
  -2  18   4  126.05    3.35   3
   2  18  -4  132.37    3.29   3
  -2 -18   4  126.08    3.03   1
   1 -18  -4    3.20    0.65   1
  -1  18   4    3.04    0.73   3
  -1 -18   4    3.61    0.66   1
   1  18  -4    2.55    0.75   3
   0  18  -4   19.04    1.29   3
   0  18   4   20.15    1.34   3
   0 -18  -4   19.00    1.09   2
   0 -18   4   21.79    1.23   1
  -1 -18  -4    3.38    0.69   2
  -1  18  -4    1.87    0.75   3
   1  18   4    2.50    0.72   3
   2  18   4   78.96    2.76   3
  -2  18  -4   82.96    2.84   3
   2 -18   4   78.67    2.40   4
  -2 -18  -4   84.15    2.49   2
   4  19  -4    4.25    0.80   2
  -4 -19   4    4.76    0.86   1
   4 -19  -4    4.95    0.84   1
  -3  19   4   21.07    1.37   3
  -3 -19   4   21.26    1.27   1
   3  19  -4   22.79    1.28   2
   3 -19  -4   22.75    1.31   1
   2  19  -4    9.60    0.98   3
   2 -19  -4   10.18    0.95   1
  -2  19   4    9.43    0.99   3
  -2 -19   4   10.01    0.97   1
  -1 -19   4   21.63    1.21   1
   1 -19  -4   24.36    1.28   1
  -1  19   4   22.97    1.45   3
   1  19  -4   23.44    1.50   3
   0  19  -4    7.17    0.93   3
   0 -19  -4    6.96    0.82   2
   0 -19   4    7.08    0.83   1
   0  19   4    6.69    0.92   3
   1  19   4   12.21    1.20   3
  -1  19  -4   10.46    1.14   3
  -1 -19  -4   10.85    1.00   2
  -3  20   4   17.86    1.34   3
  -3 -20   4   18.64    1.28   1
   3 -20  -4   19.51    1.28   1
   2 -20  -4   54.72    1.93   1
  -2 -20   4   49.85    1.86   1
   2  20  -4   52.27    2.05   3
  -2  20   4   50.67    2.10   3
   1  20  -4    4.08    0.90   3
  -1 -20   4    4.78    0.79   1
  -1  20   4    3.99    0.83   3
   1 -20  -4    4.01    0.76   1
   0  20  -4   15.19    1.35   3
   0  20   4   14.31    1.29   3
   0 -20   4   13.15    1.10   1
  -1 -20  -4   -0.44    0.58   2
  -1  20  -4   -0.36    0.71   3
   1  20   4    0.20    0.61   3
   2 -21  -4   10.11    1.03   1
  -2  21   4    9.99    1.11   3
   2  21  -4    9.78    1.06   3
  -2 -21   4    9.31    0.99   1
  -1  21   4   23.47    1.56   3
  -1 -21   4   23.04    1.34   1
   1  21  -4   23.85    1.60   3
   1 -21  -4   24.75    1.40   1
   0 -21   4  118.10    3.03   1
   0  21  -4  124.57    3.58   3
   0  21   4  116.65    3.50   3
   7   0  -5  169.40    3.81   1
   7   0  -5  170.31    3.68   2
  -7   0   5  169.05    3.75   4
   6   0  -5   -0.97    0.44   1
  -6   0   5   -0.37    0.50   4
   6   0  -5    0.58    0.45   2
   5   0  -5   47.43    1.50   2
   5   0  -5   48.66    1.58   1
  -5   0   5   48.64    1.57   4
  -4   0   5   -0.04    0.41   4
   4   0  -5   -0.51    0.36   1
   4   0  -5    0.56    0.38   2
   3   0  -5  342.68    5.83   2
   3   0  -5  343.95    5.62   1
  -3   0   5  352.51    5.90   4
  -2   0   5    0.14    0.35   4
   2   0  -5    0.36    0.34   2
   2   0  -5   -0.91    0.24   1
   1   0  -5  495.61    7.91   2
  -1   0   5  486.72    8.54   3
  -1   0   5  486.37    7.90   4
   0   0  -5    0.64    0.41   2
   0   0   5   -1.23    0.38   3
   0   0   5    0.48    0.40   4
   1   0   5   44.73    1.62   3
   1   0   5   44.12    1.46   4
  -1   0  -5   47.72    1.46   2
   2   0   5   -0.26    0.42   4
   2   0   5   -0.52    0.42   3
  -2   0  -5   -0.25    0.38   2
   3   0   5  332.29    6.06   4
  -3   0  -5  339.08    6.06   2
   3   0   5  334.14    6.90   3
   4   0   5   -0.47    0.63   3
   4   0   5   -0.47    0.58   4
  -7   1   5    5.28    0.83   4
   7  -1  -5    5.17    0.80   1
   7  -1  -5    4.06    0.71   2
  -7  -1   5    4.86    0.81   4
   7   1  -5    4.20    0.75   2
   7   1  -5    4.24    0.76   1
  -6   1   5   16.56    1.08   4
   6  -1  -5   15.84    1.07   1
   6   1  -5   16.91    0.98   2
   6   1  -5   15.44    1.03   1
   6  -1  -5   17.24    1.01   2
  -6  -1   5   15.77    1.05   4
   5   1  -5   24.00    1.07   2
   5  -1  -5   23.90    1.16   1
  -5  -1   5   22.90    1.09   4
  -5   1   5   24.76    1.16   4
   5   1  -5   21.54    1.08   1
   5  -1  -5   23.85    1.08   2
  -4  -1   5  193.02    3.70   4
  -4   1   5  192.16    3.72   4
   4   1  -5  194.39    3.61   1
   4  -1  -5  194.56    3.61   1
   4   1  -5  192.70    3.68   2
   4  -1  -5  189.24    3.62   2
  -3   1   5   24.18    1.05   4
   3  -1  -5   21.52    0.92   1
  -3  -1   5   25.22    1.05   4
   3   1  -5   22.30    0.99   2
   3   1  -5   20.93    0.93   1
   3  -1  -5   23.48    0.99   2
   2  -1  -5  176.27    3.30   2
  -2  -1   5  177.63    3.32   4
   2   1  -5  171.94    3.30   2
  -2   1   5  173.63    3.32   4
   2  -1  -5  173.26    3.00   1
   2   1  -5  174.30    3.00   1
   1  -1  -5   46.00    1.33   2
  -1   1   5   43.29    1.32   4
  -1   1   5   42.13    1.30   3
  -1  -1   5   38.99    1.30   3
   1   1  -5   41.97    1.29   2
  -1  -1   5   43.59    1.34   4
   0   1   5  773.15   13.37   3
   0  -1   5  771.09   13.36   3
   0  -1  -5  771.33   12.13   2
   0  -1   5  776.44   12.15   4
   0   1  -5  779.88   12.11   2
   0   1   5  788.75   12.14   4
   1  -1   5   53.41    1.78   3
  -1  -1  -5   58.32    1.63   2
   1   1   5   55.68    1.60   4
  -1   1  -5   52.93    1.57   2
   1   1   5   52.78    1.78   3
   1  -1   5   52.63    1.63   4
   2  -1   5  139.94    3.03   4
  -2   1  -5  142.96    2.99   2
   2   1   5  131.21    3.36   3
   2  -1   5  139.84    3.42   3
  -2  -1  -5  142.45    3.04   2
   2   1   5  138.85    2.99   4
   3  -1   5    4.64    0.72   4
  -3   1  -5    3.24    0.66   2
  -3  -1  -5    3.13    0.66   2
   3  -1   5    1.30    0.71   3
   3   1   5    5.06    0.72   4
   3   1   5    2.64    0.74   3
   4   1   5   10.93    1.02   4
  -4  -1  -5    9.98    0.96   2
   4   1   5    7.74    1.03   3
   4  -1   5    8.15    0.96   4
   7  -2  -5   37.28    1.61   1
  -7   2   5   40.97    1.67   4
   7   2  -5   40.41    1.69   1
  -7  -2   5   39.98    1.60   4
   7   2  -5   39.27    1.59   2
  -6  -2   5   62.12    1.87   4
   6   2  -5   60.75    1.91   1
   6  -2  -5   61.97    1.93   1
  -6   2   5   60.92    1.91   4
   6   2  -5   61.39    1.84   2
   6  -2  -5   64.01    1.83   2
  -5  -2   5  115.72    2.62   4
   5  -2  -5  118.10    2.57   2
  -5   2   5  119.00    2.70   4
   5   2  -5  113.01    2.60   2
   5   2  -5  112.39    2.60   1
   5  -2  -5  114.73    2.63   1
   4  -2  -5   21.84    1.00   1
  -4  -2   5   20.45    1.00   4
  -4   2   5   21.22    1.05   4
   4   2  -5   21.50    1.00   1
   4   2  -5   22.02    1.02   2
   4  -2  -5   20.63    0.96   2
  -3  -2   5   58.75    1.60   4
  -3   2   5   59.11    1.64   4
   3   2  -5   59.39    1.51   1
   3  -2  -5   59.13    1.49   1
   3  -2  -5   59.96    1.59   2
   3   2  -5   60.11    1.61   2
   2  -2  -5  225.21    4.05   2
  -2  -2   5  226.37    3.72   1
   2  -2  -5  226.65    3.74   1
  -2  -2   5  221.80    4.04   4
  -2   2   5  225.09    4.06   4
   2   2  -5  225.16    4.07   3
  -2  -2   5  221.85    4.27   5
   2   2  -5  225.12    4.05   2
  -1   2   5    2.78    0.42   3
  -1  -2   5    2.40    0.47   4
  -1  -2   5    1.88    0.40   3
   1   2  -5    2.55    0.44   2
  -1   2   5    2.06    0.46   4
   1  -2  -5    2.54    0.46   2
   0   2   5    0.83    0.41   4
   0  -2  -5    0.76    0.40   2
   0   2  -5    0.25    0.39   2
   0  -2   5    0.39    0.42   4
   0   2   5   -0.24    0.38   3
  -1   2  -5    2.02    0.48   2
   1  -2   5    1.55    0.53   4
  -1  -2  -5    2.98    0.53   2
   1   2   5    3.54    0.54   4
   1  -2   5    1.73    0.53   3
   1   2   5    1.33    0.53   3
  -2   2  -5    4.09    0.59   2
   2   2   5    4.80    0.64   4
   2   2   5    4.00    0.68   3
   2  -2   5    3.37    0.62   4
   2  -2   5    2.70    0.63   3
  -2  -2  -5    3.11    0.59   2
  -3   2  -5  168.48    3.54   2
   3   2   5  165.91    3.54   4
   3   2   5  170.27    4.15   3
   3  -2   5  167.74    3.66   4
  -3  -2  -5  177.10    3.67   2
   3  -2   5  171.04    4.18   3
   4   2   5   71.04    2.17   4
  -4  -2  -5   72.16    2.24   2
  -4   2  -5   69.64    2.46   3
   4   2   5   65.23    2.48   3
   4  -2   5   69.25    2.23   4
  -7  -3   5    9.17    0.93   4
   7   3  -5    7.87    0.93   1
  -7   3   5    7.16    0.91   4
   7  -3  -5    7.75    0.88   1
   7   3  -5    9.04    0.91   2
   6   3  -5   11.26    0.97   1
  -6   3   5   11.84    0.99   4
   6   3  -5   12.25    0.91   2
   6  -3  -5   11.89    0.98   1
  -6  -3   5   11.73    0.93   4
   6  -3  -5   12.28    0.91   2
   5  -3  -5  130.82    2.87   1
   5  -3  -5  136.38    2.80   2
   5   3  -5  132.24    2.92   1
  -5  -3   5  131.44    2.85   4
   5   3  -5  130.21    2.89   2
  -5   3   5  131.84    2.96   4
  -4   3   5   48.06    1.53   4
   4  -3  -5   46.77    1.42   1
   4   3  -5   49.49    1.51   2
   4  -3  -5   47.16    1.40   2
  -4  -3   5   46.28    1.46   4
   4   3  -5   47.15    1.44   1
  -3   3   5  279.42    4.94   4
   3   3  -5  277.14    4.70   1
   3  -3  -5  281.59    4.87   2
   3   3  -5  278.99    4.92   2
   3  -3  -5  276.82    4.70   1
  -3  -3   5  286.45    4.91   4
  -2  -3   5  150.20    2.67   1
  -2   3   5  154.13    2.98   4
  -2   3   5  146.36    2.95   3
  -2  -3   5  146.18    3.04   5
  -2  -3   5  150.04    2.95   4
   2   3  -5  146.59    2.86   3
   2  -3  -5  150.40    2.94   2
   2  -3  -5  144.94    2.66   1
   2   3  -5  149.80    2.94   2
   1  -3  -5    1.24    0.41   2
   1   3  -5    1.17    0.39   2
  -1   3   5    1.57    0.43   4
  -1   3   5    1.37    0.37   3
  -1  -3   5    1.65    0.45   4
   1   3  -5    1.17    0.33   3
   0   3   5   54.99    1.71   3
   0  -3   5   59.90    1.66   4
   0   3   5   58.65    1.60   4
   0  -3  -5   59.18    1.63   2
   0   3  -5   59.27    1.58   2
   0   3  -5   56.81    1.67   3
  -1  -3  -5  359.44    6.21   2
  -1   3  -5  361.99    6.09   2
   1   3   5  351.56    6.86   3
   1  -3   5  353.23    6.84   3
   1   3   5  361.18    6.09   4
   1  -3   5  366.91    6.23   4
  -2   3  -5    2.82    0.53   2
  -2  -3  -5    3.75    0.63   2
  -2   3  -5    2.39    0.59   3
   2   3   5    2.94    0.57   4
   2  -3   5    3.74    0.62   4
   2   3   5    2.64    0.59   3
   3   3   5    0.82    0.52   4
  -3   3  -5    0.86    0.60   3
  -3  -3  -5    0.79    0.53   2
   3  -3   5    0.05    0.53   4
   3   3   5    0.22    0.57   3
  -4   3  -5    1.77    0.72   3
  -4  -3  -5    1.28    0.71   2
   4  -3   5    1.31    0.66   4
   4   3   5    0.45    0.65   3
   7   4  -5    0.40    0.55   2
  -7   4   5    0.40    0.61   4
   7   4  -5   -0.23    0.58   1
   7  -4  -5   -0.05    0.54   1
   6  -4  -5  136.43    2.86   2
   6   4  -5  125.49    3.02   1
   6   4  -5  126.64    3.00   2
  -6  -4   5  131.93    2.95   4
  -6   4   5  133.86    3.10   4
   6  -4  -5  131.23    3.05   1
   5  -4  -5    2.54    0.55   1
  -5   4   5    2.93    0.61   4
   5  -4  -5    3.61    0.54   2
   5   4  -5    2.73    0.58   1
   5   4  -5    3.49    0.58   2
  -5  -4   5    3.61    0.59   4
   4   4  -5    0.45    0.40   1
  -4  -4   5    0.90    0.43   4
   4  -4  -5    0.21    0.35   2
  -4   4   5    0.74    0.45   4
   4   4  -5    0.52    0.43   2
   4  -4  -5    0.71    0.40   1
   3  -4  -5   15.85    0.86   1
  -3  -4   5   18.92    0.94   4
  -3  -4   5   16.37    0.96   5
  -3   4   5   17.06    0.97   4
   3   4  -5   18.62    0.94   2
  -3  -4   5   16.47    0.87   1
   3  -4  -5   17.97    0.92   2
   2  -4  -5  751.79   11.76   2
  -2   4   5  759.00   11.79   4
  -2   4   5  743.63   12.73   3
   2   4  -5  756.50   12.64   3
   2  -4  -5  757.28   11.33   1
   2   4  -5  753.73   11.79   2
  -2  -4   5  759.91   11.80   4
  -2  -4   5  764.35   11.34   1
   1   4  -5  113.61    2.47   3
   1  -4  -5  116.01    2.46   2
  -1   4   5  113.74    2.56   3
  -1   4   5  113.75    2.40   4
   1   4  -5  111.44    2.40   2
  -1  -4   5  114.15    2.46   4
   0  -4  -5  453.43    7.45   2
   0   4   5  452.48    8.16   3
   0   4   5  444.66    7.33   4
   0  -4   5  443.10    7.43   4
   0   4  -5  449.09    7.35   2
   0   4  -5  453.10    8.07   3
  -1   4  -5    4.20    0.66   3
   1  -4   5    6.15    0.67   4
  -1   4  -5    4.62    0.57   2
   1   4   5    6.19    0.62   4
   1   4   5    4.20    0.64   3
  -1  -4  -5    6.27    0.68   2
  -2   4  -5  117.91    2.59   2
  -2  -4  -5  117.81    2.76   2
   2   4   5  115.87    3.07   3
   2   4   5  119.32    2.64   4
  -2   4  -5  119.67    3.05   3
  -3  -4  -5   12.47    1.05   2
   3   4   5   12.46    1.12   3
   3  -4   5   12.58    1.06   4
   3   4   5   14.65    1.02   4
  -3   4  -5   12.65    1.17   3
  -4  -4  -5  138.73    3.39   2
  -4   4  -5  136.41    3.74   3
   4   4   5  137.73    3.83   3
   4  -4   5  140.98    3.43   4
   7  -5  -5   54.45    1.94   1
  -7  -5   5   52.34    1.93   1
  -7  -5   5   53.77    2.23   5
   7   5  -5   52.66    1.87   2
  -7   5   5   53.64    1.96   4
   6  -5  -5    1.01    0.53   1
  -6  -5   5    1.54    0.58   1
  -6  -5   5    0.57    0.57   5
  -6   5   5    1.00    0.58   4
  -6  -5   5    1.21    0.57   4
   6   5  -5    1.57    0.56   2
  -5  -5   5   34.42    1.35   1
   5  -5  -5   35.44    1.25   2
  -5  -5   5   33.03    1.55   5
   5  -5  -5   33.13    1.31   1
  -5   5   5   35.27    1.40   4
   5   5  -5   33.79    1.33   2
  -5  -5   5   33.91    1.28   4
  -4  -5   5   38.15    1.49   5
   4   5  -5   36.88    1.35   2
  -4  -5   5   37.63    1.27   4
  -4  -5   5   36.75    1.29   1
   4  -5  -5   36.42    1.23   2
   4  -5  -5   35.74    1.27   1
  -4   5   5   36.31    1.35   4
  -3   5   5  264.70    4.70   4
  -3  -5   5  254.56    4.45   1
  -3  -5   5  254.33    5.10   5
  -3  -5   5  260.85    4.60   4
   3   5  -5  261.22    4.68   2
   3  -5  -5  266.01    4.59   2
   3  -5  -5  260.76    4.49   1
  -2  -5   5   30.99    1.04   1
  -2   5   5   33.82    1.13   3
   2   5  -5   30.08    1.04   3
   2   5  -5   33.04    1.18   2
  -2  -5   5   33.79    1.21   4
   2  -5  -5   36.49    1.18   2
  -2   5   5   33.02    1.22   4
   2  -5  -5   34.74    1.05   1
   1   5  -5  236.69    4.27   2
  -1  -5   5  237.83    4.33   4
  -1   5   5  239.93    4.64   3
   1   5  -5  242.83    4.54   3
   1  -5  -5  241.62    4.33   2
  -1   5   5  242.71    4.26   4
  -1  -5   5  234.83    3.85   1
   0   5   5   75.89    1.83   4
   0  -5  -5   76.62    1.94   2
   0   5   5   76.65    2.09   3
   0   5  -5   71.97    2.00   3
   0  -5   5   74.02    1.92   4
   0   5  -5   74.81    1.83   2
  -1   5  -5  346.74    5.87   2
   1   5   5  342.65    6.70   3
   1   5   5  342.88    5.86   4
  -1   5  -5  352.60    6.65   3
   1  -5   5  344.20    6.06   4
  -1  -5  -5  347.66    6.06   2
   2   5   5    8.21    0.72   4
  -2  -5  -5    7.44    0.77   2
  -2   5  -5    6.29    0.82   3
   2   5   5    7.82    0.82   3
  -2   5  -5    5.85    0.65   2
   2  -5   5    8.41    0.83   4
   3   5   5   34.46    1.66   3
  -3   5  -5   36.87    1.72   3
   3  -5   5   33.19    1.48   4
   3   5   5   36.93    1.41   4
  -3  -5  -5   35.23    1.50   2
   4  -5   5    1.07    0.70   4
  -4  -5  -5    1.75    0.70   2
   4   5   5    0.50    0.66   3
  -4   5  -5    0.38    0.69   3
  -7   6   5    0.91    0.66   4
  -7  -6   5   -0.04    0.61   5
   7   6  -5    0.68    0.60   2
   7  -6  -5    0.20    0.58   1
  -7  -6   5    0.12    0.62   1
  -6  -6   5   89.17    2.42   1
  -6  -6   5   91.50    2.80   5
   6  -6  -5   88.18    2.41   1
  -6   6   5   90.32    2.47   4
   6   6  -5   91.40    2.44   2
   5   6  -5   65.07    1.92   2
   5  -6  -5   68.62    1.76   2
   5  -6  -5   63.54    1.87   1
  -5  -6   5   66.41    1.90   1
  -5  -6   5   68.14    2.21   5
  -5  -6   5   67.19    1.81   4
  -5   6   5   64.61    1.94   4
  -4  -6   5   15.93    0.94   1
   4   6  -5   17.12    0.97   2
   4  -6  -5   18.05    0.91   2
   4  -6  -5   15.88    0.96   1
  -4  -6   5   16.61    0.88   4
  -4  -6   5   14.78    1.04   5
  -4   6   5   16.17    0.99   4
   3  -6  -5  161.37    3.10   1
  -3  -6   5  160.97    3.17   4
  -3  -6   5  163.37    3.55   5
   3   6  -5  166.12    3.28   2
  -3   6   5  164.21    3.28   4
  -3  -6   5  165.09    3.11   1
   3  -6  -5  162.32    3.16   2
   2  -6  -5    0.80    0.38   2
  -2  -6   5    0.78    0.35   1
   2   6  -5    0.73    0.33   3
  -2  -6   5    1.99    0.48   4
   2  -6  -5    0.69    0.33   1
  -2   6   5   -0.02    0.44   4
  -2   6   5   -0.22    0.36   3
   2   6  -5    1.08    0.41   2
  -1  -6   5   23.00    1.04   4
   1  -6  -5   24.86    1.05   2
  -1   6   5   23.90    1.07   3
  -1  -6   5   22.85    0.81   1
   1   6  -5   24.15    1.03   2
  -1   6   5   23.26    0.99   4
   1   6  -5   18.81    1.01   3
   0  -6   5   63.09    1.76   4
   0  -6  -5   64.74    1.78   2
   0   6   5   63.70    1.65   4
   0   6   5   64.55    1.91   3
   0   6  -5   65.05    1.67   2
   0   6  -5   63.97    1.85   3
  -1  -6  -5   15.75    0.99   2
   1   6   5   15.11    0.87   4
  -1   6  -5   12.47    1.05   3
   1  -6   5   16.45    1.00   4
  -1   6  -5   14.59    0.88   2
   1   6   5   14.90    1.06   3
  -2  -6  -5  159.74    3.48   2
   2   6   5  165.47    3.27   4
   2   6   5  160.18    3.88   3
  -2   6  -5  162.45    3.81   3
   2  -6   5  160.54    3.49   4
  -3  -6  -5   21.50    1.25   2
  -3   6  -5   22.35    1.41   3
   3  -6   5   23.52    1.27   4
   3   6   5   22.97    1.41   3
   4  -6   5   83.84    2.56   4
  -4   6  -5   85.58    2.83   3
   4   6   5   85.63    2.88   3
  -4  -6  -5   84.11    2.56   2
  -7  -7   5   11.88    1.09   1
   7  -7  -5   12.46    1.07   1
  -7  -7   5   11.46    1.28   5
  -7   7   5   12.24    1.10   4
   7   7  -5   12.51    1.08   2
  -6   7   5   39.02    1.60   4
  -6  -7   5   38.30    1.81   5
   6  -7  -5   39.04    1.54   1
   6   7  -5   38.41    1.55   2
  -6  -7   5   38.97    1.58   1
   5  -7  -5    0.58    0.40   2
  -5  -7   5   -0.07    0.45   1
   5   7  -5    0.25    0.49   2
  -5  -7   5    0.25    0.46   4
  -5   7   5    0.67    0.53   4
  -5  -7   5   -0.02    0.48   5
   5  -7  -5    0.08    0.43   1
   4  -7  -5  150.91    3.08   1
  -4  -7   5  150.96    3.07   1
  -4  -7   5  151.26    3.53   5
  -4  -7   5  142.44    2.98   4
   4   7  -5  150.86    3.18   2
   4  -7  -5  150.03    2.95   2
   3   7  -5  192.07    3.76   2
  -3  -7   5  193.65    3.68   4
  -3   7   5  198.90    3.79   4
   3  -7  -5  195.52    3.62   1
   3  -7  -5  200.56    3.65   2
  -3  -7   5  194.72    3.59   1
  -2  -7   5  414.79    6.93   4
  -2  -7   5  423.98    6.66   1
   2   7  -5  412.42    7.33   3
   2  -7  -5  419.13    6.65   1
   2   7  -5  414.90    6.96   2
  -2   7   5  429.34    6.97   4
  -2   7   5  416.20    7.48   3
   2  -7  -5  421.94    6.93   2
  -1  -7   5   91.76    2.13   4
   1   7  -5   87.82    2.05   2
  -1   7   5   90.47    2.04   4
   1   7  -5   86.43    2.14   3
   1  -7  -5   90.53    2.11   2
  -1  -7   5   84.36    1.77   1
  -1   7   5   86.34    2.24   3
   0  -7  -5  244.05    4.51   2
   0   7  -5  237.60    4.32   2
   0   7   5  245.60    4.31   4
   0  -7   5  238.51    4.47   4
   0   7  -5  248.18    4.84   3
   0   7   5  242.22    4.91   3
   1   7   5   94.48    2.60   3
   1  -7   5   95.54    2.37   4
  -1   7  -5   98.93    2.58   3
   1   7   5   96.41    2.16   4
  -1   7  -5   95.04    2.17   2
  -1  -7  -5   96.62    2.38   2
  -2   7  -5   32.40    1.57   3
   2   7   5   36.43    1.32   4
   2   7   5   33.35    1.55   3
  -2  -7  -5   32.87    1.40   2
   2  -7   5   34.40    1.42   4
  -3   7  -5    0.18    0.62   3
   3   7   5   -0.14    0.57   3
   3  -7   5    1.11    0.61   4
  -3  -7  -5   -0.01    0.57   2
   4  -7   5   35.93    1.69   4
   4   7   5   35.05    1.86   3
  -4   7  -5   33.63    1.80   3
  -4  -7  -5   35.24    1.69   2
  -7  -8   5   38.42    1.70   1
  -7  -8   5   39.51    1.99   5
   7   8  -5   39.67    1.70   2
   7  -8  -5   37.89    1.67   1
  -7   8   5   37.99    1.68   4
  -6   8   5   14.42    1.08   4
   6  -8  -5   16.21    1.06   1
  -6  -8   5   15.47    1.28   5
   6   8  -5   15.85    1.07   2
  -6  -8   5   14.49    1.09   1
   5  -8  -5   42.17    1.54   1
  -5   8   5   40.09    1.56   4
  -5  -8   5   42.41    1.77   5
  -5  -8   5   42.40    1.54   1
   5   8  -5   47.40    1.60   2
  -4  -8   5   44.42    1.43   4
   4  -8  -5   41.35    1.35   2
   4   8  -5   44.17    1.52   2
   4  -8  -5   44.34    1.52   1
  -4   8   5   43.52    1.52   4
  -4  -8   5   47.85    1.54   1
  -3  -8   5  226.65    4.05   1
   3  -8  -5  220.14    4.03   2
  -3  -8   5  221.72    4.08   4
  -3   8   5  224.36    4.19   4
   3  -8  -5  223.72    4.05   1
   2  -8  -5   21.45    0.92   1
   2   8  -5   22.30    1.03   2
  -2   8   5   22.63    1.07   3
  -2  -8   5   19.39    0.98   4
   2  -8  -5   25.05    1.04   2
  -2  -8   5   21.10    0.99   1
   2   8  -5   22.47    0.98   3
  -2   8   5   21.43    1.03   4
  -1   8   5  528.91    8.43   4
  -1   8   5  537.59    9.41   3
   1  -8  -5  525.35    8.55   2
   1   8  -5  526.66    8.48   2
   1   8  -5  519.30    9.26   3
  -1  -8   5  513.40    8.09   1
  -1  -8   5  527.55    8.56   4
   0  -8  -5   84.44    2.16   2
   0   8  -5   84.69    2.28   3
   0   8  -5   90.85    2.06   2
   0   8   5   87.52    2.00   4
   0   8   5   85.09    2.34   3
  -1   8  -5   31.07    1.44   3
   1  -8   5   29.25    1.27   4
  -1   8  -5   31.86    1.15   2
  -1  -8  -5   31.22    1.32   2
   1   8   5   32.86    1.16   4
   1   8   5   30.11    1.38   3
   2   8   5   -0.18    0.52   3
   2  -8   5    0.37    0.50   4
  -2   8  -5   -0.73    0.54   3
  -2  -8  -5    0.04    0.48   2
   3   8   5  127.69    3.58   3
  -3   8  -5  136.38    3.56   3
   3  -8   5  132.84    3.26   4
  -3  -8  -5  129.52    3.22   2
   4  -8   5   46.60    1.93   4
  -4   8  -5   47.35    2.12   3
   4   8   5   47.99    2.16   3
  -4  -8  -5   48.93    1.99   2
  -7  -9   5   -0.17    0.66   5
   7  -9  -5    0.54    0.62   1
  -7  -9   5    0.33    0.65   1
   7   9  -5    0.43    0.61   2
  -7   9   5    1.06    0.67   4
   6  -9  -5    3.98    0.70   1
   6   9  -5    3.55    0.69   2
  -6   9   5    2.63    0.72   4
  -6  -9   5    3.36    0.71   1
   5   9  -5    0.38    0.50   2
  -5   9   5    0.78    0.53   4
   5  -9  -5    0.68    0.49   1
  -5  -9   5    0.49    0.52   1
  -4   9   5  430.04    7.58   4
  -4  -9   5  458.65    7.48   1
   4   9  -5  435.67    7.60   2
   4  -9  -5  453.79    7.46   1
  -4  -9   5  451.69    7.39   4
   4  -9  -5  455.36    7.31   2
   3  -9  -5  195.04    3.70   2
  -3   9   5  200.49    3.88   4
  -3  -9   5  205.63    3.79   4
   3  -9  -5  204.30    3.77   1
  -3  -9   5  203.89    3.78   1
   2  -9  -5    1.11    0.43   2
   2  -9  -5    1.36    0.39   1
  -2   9   5    1.45    0.49   4
   2   9  -5    1.04    0.46   2
  -2  -9   5    0.74    0.41   1
   2   9  -5    1.33    0.41   3
  -2   9   5    0.50    0.40   3
  -2  -9   5    1.29    0.45   4
  -1   9   5    1.07    0.43   4
  -1   9   5    0.62    0.43   3
   1   9  -5   -0.10    0.41   3
   1  -9  -5    0.90    0.41   2
  -1  -9   5    0.05    0.33   1
   1   9  -5    0.89    0.44   2
  -1  -9   5    0.50    0.44   4
   0   9  -5  151.27    3.43   3
   0   9   5  157.39    3.56   3
   0   9  -5  153.57    3.03   2
   0   9   5  152.84    2.99   4
  -1  -9  -5    1.44    0.51   2
   1  -9   5    0.49    0.50   4
  -1   9  -5    0.54    0.50   3
   1   9   5    0.36    0.45   3
   2  -9   5  145.14    3.31   4
   2   9   5  139.30    3.62   3
  -2   9  -5  150.92    3.66   3
  -2  -9  -5  140.71    3.30   2
   3   9   5   31.39    1.68   3
   3  -9   5   30.97    1.52   4
  -3   9  -5   30.50    1.66   3
  -3  -9  -5   34.12    1.56   2
   6  10  -5    0.53    0.56   2
  -6  10   5   -0.24    0.58   4
   6 -10  -5    0.18    0.53   1
  -6 -10   5   -0.39    0.56   1
  -5 -10   5   11.33    0.97   1
  -5  10   5    9.66    0.94   4
   5 -10  -5   12.52    1.02   1
   5  10  -5   11.59    0.95   2
  -4 -10   5   21.98    1.18   1
   4 -10  -5   22.92    1.19   1
   4  10  -5   22.68    1.18   2
  -4  10   5   22.67    1.13   4
  -3  10   5   92.77    2.28   4
  -3 -10   5   98.71    2.27   1
  -3 -10   5   96.02    2.22   4
   3 -10  -5   99.64    2.27   1
   3 -10  -5   92.66    2.12   2
   3  10  -5   94.45    2.32   2
   2 -10  -5   77.52    1.86   1
  -2 -10   5   75.43    1.92   4
  -2 -10   5   76.30    1.85   1
   2 -10  -5   76.48    1.92   2
   2  10  -5   74.82    1.94   2
  -2  10   5   75.82    2.09   3
  -2  10   5   74.34    1.91   4
   2  10  -5   76.46    1.96   3
  -1  10   5  209.07    4.37   3
   1  10  -5  212.71    3.91   2
  -1 -10   5  206.41    3.95   4
  -1  10   5  210.70    3.83   4
  -1 -10   5  205.24    3.69   1
   1  10  -5  208.70    4.25   3
   0 -10   5    0.15    0.45   4
   0  10  -5   -0.18    0.46   3
   0 -10  -5    0.45    0.42   2
   0  10   5    0.59    0.38   4
   0  10   5    0.10    0.44   3
   0  10  -5    0.44    0.40   2
   1 -10   5   37.16    1.45   4
   1  10   5   37.04    1.59   3
  -1  10  -5   39.83    1.62   3
  -1 -10  -5   36.32    1.45   2
   2 -10   5   10.71    1.00   4
  -2 -10  -5   10.91    0.96   2
  -2  10  -5    9.92    1.08   3
   2  10   5   12.36    1.09   3
   3  10   5  131.14    3.63   3
   3 -10   5  126.39    3.26   4
  -3 -10  -5  128.91    3.25   2
  -3  10  -5  129.97    3.56   3
  -6  11   5   33.18    1.54   4
   6 -11  -5   33.18    1.53   1
   6  11  -5   32.84    1.52   2
  -6 -11   5   34.45    1.57   1
   5  11  -5   75.42    2.23   2
  -5 -11   5   76.56    2.21   1
   5 -11  -5   81.31    2.27   1
  -5  11   5   77.16    2.25   4
  -4 -11   5  128.34    2.88   1
  -4  11   5  123.65    2.88   4
   4  11  -5  124.72    2.92   2
   4 -11  -5  128.20    2.86   1
  -3 -11   5   15.95    1.02   1
   3  11  -5   14.93    0.96   2
  -3 -11   5   14.35    0.92   4
   3 -11  -5   16.13    0.82   2
  -3  11   5   14.73    0.95   4
   3 -11  -5   17.84    0.97   1
  -2 -11   5   41.40    1.40   4
  -2  11   5   42.39    1.56   3
   2 -11  -5   41.21    1.35   1
   2  11  -5   39.10    1.38   2
   2  11  -5   40.94    1.43   3
  -2 -11   5   42.50    1.37   1
  -2  11   5   41.90    1.38   4
   2 -11  -5   41.51    1.38   2
  -1 -11   5    2.82    0.47   1
  -1 -11   5    3.03    0.57   4
   1 -11  -5    1.97    0.51   2
  -1  11   5    2.28    0.55   3
  -1  11   5    1.65    0.47   4
   1  11  -5    2.28    0.53   3
   1  11  -5    2.65    0.52   2
   0 -11   5   59.44    1.79   4
   0  11   5   57.78    1.93   3
   0  11  -5   58.06    1.88   3
   0 -11  -5   58.77    1.76   2
   1 -11   5   94.60    2.44   4
  -1  11  -5   99.42    2.72   3
   1  11   5   95.86    2.74   3
  -1 -11  -5   89.88    2.42   2
   2 -11   5   49.83    1.82   4
  -2  11  -5   53.67    2.02   3
   2  11   5   52.51    2.03   3
  -2 -11  -5   50.26    1.82   2
   3 -11   5    1.28    0.70   4
  -3  11  -5    0.44    0.75   3
   3  11   5    1.25    0.67   3
  -3 -11  -5    1.95    0.70   2
   6  12  -5   41.86    1.75   2
  -6 -12   5   46.13    1.82   1
   6 -12  -5   41.66    1.73   1
  -6  12   5   42.73    1.77   4
   5  12  -5    1.98    0.64   2
   5 -12  -5    2.45    0.63   1
  -5 -12   5    2.01    0.63   1
  -5  12   5    2.83    0.70   4
  -4 -12   5    1.00    0.57   1
  -4  12   5    1.91    0.59   4
   4 -12  -5    1.65    0.55   1
   4  12  -5    1.76    0.57   2
  -3  12   5    9.11    0.83   4
  -3 -12   5   11.39    0.95   1
   3 -12  -5   10.91    0.73   2
   3  12  -5   10.73    0.86   2
   3 -12  -5   11.12    0.89   1
   2 -12  -5  377.22    6.38   1
  -2 -12   5  387.80    6.47   4
  -2  12   5  373.47    6.43   4
   2  12  -5  385.69    7.06   3
   2 -12  -5  383.66    6.47   2
   2  12  -5  368.59    6.52   2
  -2  12   5  388.02    7.20   3
  -2 -12   5  380.18    6.38   1
  -1 -12   5  182.74    3.45   1
   1  12  -5  179.02    3.55   2
  -1  12   5  187.42    4.08   3
  -1 -12   5  182.54    3.64   4
   1 -12  -5  181.91    3.66   2
   1  12  -5  182.52    3.96   3
  -1  12   5  186.22    3.47   4
   0  12   5  108.48    2.89   3
   0 -12   5  107.58    2.57   4
   0  12  -5  108.68    2.80   3
   0 -12  -5  106.07    2.57   2
  -1  12  -5    2.13    0.65   3
   1 -12   5    2.43    0.64   4
  -1 -12  -5    2.91    0.62   2
   1  12   5    2.68    0.68   3
  -2 -12  -5   23.41    1.30   2
   2  12   5   25.65    1.49   3
   2 -12   5   25.74    1.34   4
  -2  12  -5   24.64    1.47   3
   3  12   5   44.43    2.05   3
  -3 -12  -5   44.91    1.85   2
   3 -12   5   45.96    1.88   4
  -3  12  -5   43.99    2.05   3
  -6  13   5    0.50    0.68   4
  -6 -13   5   -0.49    0.64   1
   6 -13  -5    1.53    0.69   1
   6  13  -5    0.08    0.60   2
   5 -13  -5   79.77    2.31   1
   5  13  -5   76.23    2.32   2
  -5 -13   5   79.52    2.32   1
  -5  13   5   80.02    2.33   4
  -4 -13   5   16.00    1.12   1
   4 -13  -5   13.92    1.02   1
  -4  13   5   14.40    0.98   4
   4  13  -5   14.73    1.04   2
  -3  13   5  174.92    3.56   4
   3 -13  -5  175.68    3.58   1
   3  13  -5  169.87    3.62   2
  -3 -13   5  179.59    3.60   1
  -2 -13   5   17.41    0.98   1
  -2 -13   5   19.24    1.05   4
   2 -13  -5   18.95    0.96   1
   2  13  -5   18.56    1.05   2
  -2  13   5   20.01    1.02   4
  -2  13   5   20.30    1.19   3
   2  13  -5   19.40    1.17   3
   1  13  -5    3.81    0.60   2
  -1 -13   5    4.20    0.60   1
  -1 -13   5    5.51    0.69   4
   1  13  -5    3.91    0.66   3
  -1  13   5    4.37    0.69   3
   1 -13  -5    4.77    0.64   2
   0  13   5   31.51    1.50   3
   0  13  -5   32.43    1.47   3
   0 -13   5   34.41    1.39   4
   0 -13  -5   33.82    1.36   2
   1  13   5   90.66    2.74   3
  -1  13  -5   91.35    2.69   3
  -1 -13  -5   91.65    2.49   2
   1 -13   5   95.55    2.51   4
   2  13   5    0.50    0.59   3
  -2  13  -5    0.28    0.63   3
   2 -13   5   -0.41    0.57   4
  -2 -13  -5    0.07    0.55   2
   3  13   5    9.16    1.10   3
  -3  13  -5    8.25    1.09   3
   3 -13   5    9.07    1.04   4
  -3 -13  -5    9.70    1.02   2
   6  14  -5   55.08    2.06   2
  -6  14   5   55.56    2.05   4
  -6 -14   5   55.45    2.07   1
   6 -14  -5   53.34    2.03   1
  -5  14   5    4.62    0.82   4
   5 -14  -5    5.41    0.79   1
   5  14  -5    4.84    0.79   2
  -5 -14   5    5.22    0.82   1
  -4 -14   5    6.61    0.82   1
   4 -14  -5    6.05    0.78   1
   4  14  -5    6.33    0.79   2
  -4  14   5    7.01    0.81   4
   3  14  -5    1.16    0.55   2
  -3  14   5    1.26    0.54   4
   3 -14  -5    1.46    0.53   1
  -3 -14   5    1.20    0.57   1
  -2  14   5   13.88    1.08   3
   2  14  -5   14.02    0.93   2
   2 -14  -5   12.84    0.86   1
  -2 -14   5   14.07    0.93   1
  -2  14   5   13.95    0.91   4
   2 -14  -5   13.45    0.88   2
  -1  14   5   26.13    1.46   3
   1 -14  -5   25.58    1.17   2
  -1 -14   5   26.76    1.17   1
  -1 -14   5   25.58    1.22   4
   1  14  -5   25.28    1.31   3
   0 -14   5   36.54    1.44   4
   0 -14  -5   38.79    1.47   2
   0  14   5   37.40    1.67   3
   0  14  -5   41.16    1.69   3
   1  14   5    7.10    0.89   3
  -1  14  -5    7.58    0.92   3
  -1 -14  -5    8.30    0.88   2
   1 -14   5    8.84    0.91   4
  -2  14  -5   82.89    2.72   3
   2 -14   5   84.72    2.51   4
  -2 -14  -5   80.79    2.46   2
   2  14   5   80.53    2.74   3
   5  15  -5    0.20    0.59   2
  -5 -15   5    0.65    0.65   1
   5 -15  -5    0.73    0.62   1
  -5  15   5   -0.16    0.63   4
   4 -15  -5   20.17    1.19   1
  -4  15   5   18.02    1.11   4
   4  15  -5   17.41    1.14   2
  -4 -15   5   17.25    1.17   1
  -3 -15   5  104.18    2.59   1
   3 -15  -5   99.56    2.53   1
  -3  15   5   98.37    2.45   4
   3  15  -5  101.13    2.59   2
  -2  15   5   18.03    1.23   3
  -2 -15   5   17.15    1.02   1
   2  15  -5   15.21    1.01   2
   2 -15  -5   17.20    0.99   2
   2 -15  -5   16.12    1.00   1
  -1 -15   5   25.01    1.19   1
  -1 -15   5   22.51    1.22   4
   1 -15  -5   24.60    1.19   2
   1  15  -5   24.51    1.35   3
  -1  15   5   23.86    1.46   3
   0  15   5    3.57    0.73   3
   0 -15  -5    5.11    0.71   2
   0 -15   5    5.99    0.77   4
   0  15  -5    5.71    0.81   3
  -1  15  -5   40.93    1.80   3
   1  15   5   37.14    1.77   3
   1 -15   5   41.27    1.65   4
  -1 -15  -5   40.52    1.64   2
   2 -15   5   59.58    2.12   4
  -2  15  -5   60.15    2.35   3
   2  15   5   57.08    2.33   3
  -2 -15  -5   60.95    2.13   2
   5  16  -5   25.44    1.43   2
   5 -16  -5   27.49    1.44   1
  -5  16   5   23.82    1.43   4
  -5 -16   5   27.29    1.48   1
   4  16  -5    7.01    0.85   2
  -4 -16   5    6.57    0.88   1
   4 -16  -5    7.04    0.84   1
  -4  16   5    5.38    0.80   4
  -3  16   5   14.68    1.03   4
   3 -16  -5   15.05    1.07   1
  -3 -16   5   14.50    1.06   1
   3  16  -5   12.93    1.04   2
   2 -16  -5   67.16    1.98   1
  -2  16   5   66.15    2.21   3
  -2 -16   5   65.33    1.97   1
   2  16  -5   68.85    1.99   2
   1  16  -5  180.90    4.22   3
   1 -16  -5  185.18    3.80   2
  -1  16   5  188.13    4.36   3
  -1 -16   5  183.03    3.72   1
   0  16  -5   39.89    1.74   3
   0 -16   5   42.99    1.64   4
   0  16   5   40.30    1.80   3
   0 -16  -5   40.15    1.56   2
  -1 -16  -5   11.67    1.05   2
  -1  16  -5   11.93    1.23   3
   1 -16   5   12.88    1.08   4
   1  16   5   13.70    1.19   3
  -2  16  -5   18.50    1.48   3
  -2 -16  -5   21.18    1.37   2
   2 -16   5   16.02    1.28   4
   2  16   5   18.74    1.44   3
   4  17  -5   50.60    1.86   2
  -4  17   5   49.72    1.77   4
   4 -17  -5   47.81    1.84   1
  -4 -17   5   52.04    1.93   1
   3  17  -5    8.10    0.85   2
  -3 -17   5    8.44    0.90   1
   3 -17  -5    9.06    0.90   1
   2 -17  -5    0.42    0.54   1
  -2  17   5    1.05    0.59   3
  -2 -17   5    1.24    0.59   1
  -1  17   5    4.33    0.80   3
   1  17  -5    3.37    0.75   3
  -1 -17   5    3.24    0.67   1
   1 -17  -5    3.84    0.67   2
   0  17  -5    3.05    0.74   3
   0 -17  -5    4.20    0.69   2
   0  17   5    2.61    0.72   3
   1  17   5   70.26    2.56   3
  -1 -17  -5   72.51    2.31   2
  -1  17  -5   72.17    2.58   3
   1 -17   5   76.67    2.33   4
  -4 -18   5    6.81    0.93   1
   4 -18  -5    6.35    0.89   1
   4  18  -5    5.42    0.85   2
   3  18  -5    0.44    0.58   2
  -3 -18   5    0.87    0.61   1
   3 -18  -5    0.25    0.58   1
   2 -18  -5    1.17    0.60   1
  -2 -18   5    0.74    0.57   1
  -2  18   5    0.56    0.60   3
   1  18  -5   95.89    2.87   3
  -1 -18   5   96.05    2.51   1
  -1  18   5  101.42    3.01   3
   0 -18  -5   21.14    1.22   2
   0  18  -5   19.65    1.41   3
   0  18   5   19.91    1.47   3
  -1  18  -5   20.43    1.56   3
   1  18   5   25.20    1.59   3
   1 -18   5   23.80    1.36   4
  -1 -18  -5   21.91    1.35   2
   3 -19  -5    6.55    0.88   1
  -3 -19   5    6.85    0.91   1
  -2 -19   5    9.77    0.95   1
  -2  19   5    7.51    0.97   3
   1  19  -5   23.28    1.59   3
  -1  19   5   22.26    1.56   3
   0 -19  -5    0.09    0.58   2
   0  19   5    0.33    0.70   3
   0  19  -5   -0.11    0.70   3
  -2  20   5    9.94    1.08   3
  -2 -20   5   10.54    1.01   1
  -1  20   5   95.12    3.06   3
  -7   0   6   -0.39    0.66   4
   7   0  -6   -0.14    0.56   2
   7   0  -6   -0.49    0.59   1
   6   0  -6  109.50    2.72   1
  -6   0   6  106.37    2.70   4
   6   0  -6  102.46    2.60   2
   5   0  -6   -0.28    0.42   2
  -5   0   6    0.28    0.48   4
   5   0  -6   -0.41    0.41   1
   4   0  -6    8.60    0.75   1
  -4   0   6   10.46    0.87   4
   4   0  -6   10.70    0.87   2
   3   0  -6    0.60    0.41   2
  -3   0   6    0.89    0.52   4
  -2   0   6   58.25    1.70   4
   2   0  -6   59.61    1.70   2
   1   0  -6   -0.06    0.43   2
  -1   0   6    0.59    0.45   4
   0   0   6  372.97    7.05   3
   0   0   6  369.00    6.45   4
  -1   0  -6    0.39    0.46   2
   1   0   6   -0.29    0.48   3
   1   0   6    0.52    0.51   4
   2   0   6   66.23    2.29   3
   2   0   6   66.53    2.04   4
  -2   0  -6   63.33    1.97   2
  -3   0  -6    0.24    0.59   2
   3   0   6   -0.13    0.58   4
   3   0   6   -0.13    0.62   3
   7  -1  -6   61.93    1.99   2
   7   1  -6   59.71    2.10   1
  -7  -1   6   60.30    2.05   4
  -7   1   6   63.90    2.13   4
   7   1  -6   64.31    2.05   2
   7  -1  -6   63.78    2.13   1
   6  -1  -6    1.49    0.54   2
  -6  -1   6    1.22    0.58   4
  -6   1   6    1.35    0.64   4
   6   1  -6    0.84    0.56   1
   6   1  -6    1.19    0.53   2
   6  -1  -6    0.71    0.55   1
   5  -1  -6    0.20    0.47   2
   5   1  -6    0.36    0.45   2
  -5  -1   6    1.31    0.54   4
   5   1  -6    0.34    0.46   1
  -5   1   6    1.58    0.58   4
   5  -1  -6   -0.12    0.46   1
   4  -1  -6  110.69    2.47   1
   4   1  -6  110.75    2.46   1
   4  -1  -6  115.01    2.59   2
   4   1  -6  113.04    2.59   2
  -4   1   6  106.80    2.59   4
  -4  -1   6  106.98    2.55   4
   3   1  -6  212.27    4.08   2
  -3  -1   6  216.19    4.12   4
   3  -1  -6  214.80    4.07   2
  -3   1   6  216.18    4.13   4
   2  -1  -6   36.28    1.33   2
   2   1  -6   34.68    1.29   2
  -2   1   6   36.88    1.33   4
  -2  -1   6   36.13    1.33   4
  -1  -1   6   35.16    1.31   4
  -1   1   6   35.92    1.33   4
   1  -1  -6   33.34    1.32   2
  -1   1   6   29.21    1.32   3
  -1  -1   6   34.47    1.31   3
   1   1  -6   33.92    1.32   2
   0   1   6  196.07    4.16   3
   0  -1  -6  192.92    3.81   2
   0  -1   6  190.21    4.13   3
   0   1  -6  192.50    3.79   2
   0  -1   6  191.85    3.83   4
   0   1   6  187.03    3.78   4
   1   1   6  165.87    3.46   4
  -1  -1  -6  165.10    3.47   2
   1   1   6  166.15    3.85   3
  -1   1  -6  160.01    3.41   2
   1  -1   6  162.98    3.47   4
   1  -1   6  164.99    3.84   3
   2   1   6   13.34    1.14   3
   2  -1   6   12.35    1.13   3
  -2   1  -6   13.13    1.01   2
  -2  -1  -6   12.86    1.01   2
   2  -1   6   14.59    1.13   4
   2   1   6   14.13    1.10   4
   3  -1   6  112.06    2.90   4
  -3  -1  -6  111.56    2.86   2
   3  -1   6  105.29    3.25   3
   3   1   6  108.53    3.28   3
   3   1   6  109.48    2.82   4
   7   2  -6    0.70    0.59   2
  -7  -2   6    1.26    0.68   4
   7  -2  -6    1.68    0.67   1
  -7   2   6    1.31    0.73   4
   7   2  -6    1.11    0.66   1
   6  -2  -6    7.46    0.78   2
  -6   2   6    9.12    0.92   4
   6  -2  -6    8.48    0.86   1
  -6  -2   6    8.81    0.89   4
   6   2  -6    8.55    0.87   1
   6   2  -6    7.34    0.81   2
   5  -2  -6   41.54    1.46   2
  -5   2   6   39.32    1.51   4
   5   2  -6   39.71    1.47   1
   5   2  -6   44.48    1.55   2
   5  -2  -6   41.72    1.52   1
  -5  -2   6   38.65    1.47   4
   4   2  -6   65.86    1.80   1
   4  -2  -6   67.26    1.81   1
  -4   2   6   66.58    1.92   4
   4  -2  -6   68.52    1.87   2
   4   2  -6   67.04    1.89   2
  -4  -2   6   62.59    1.83   4
   3  -2  -6   66.93    1.81   2
  -3   2   6   65.49    1.85   4
  -3  -2   6   64.23    1.83   4
   3   2  -6   64.94    1.81   2
  -2   2   6   41.96    1.42   4
  -2  -2   6   42.41    1.42   4
   2  -2  -6   41.18    1.43   2
   2   2  -6   40.60    1.40   2
  -1   2   6  511.62    8.54   4
   1   2  -6  533.52    9.20   3
  -1   2   6  524.47    9.29   3
   1  -2  -6  515.39    8.58   2
  -1  -2   6  519.41    8.61   4
   0  -2  -6  153.32    3.24   2
   0  -2   6  150.43    3.47   3
   0   2  -6  153.43    3.20   2
   0  -2   6  151.11    3.24   4
   0   2   6  156.48    3.53   3
   0   2   6  150.83    3.20   4
   1  -2   6    4.75    0.74   3
  -1   2  -6    6.71    0.71   2
   1   2   6    6.04    0.73   4
   1  -2   6    5.74    0.74   4
   1   2   6    5.98    0.77   3
  -1  -2  -6    6.46    0.73   2
  -2   2  -6   17.76    1.09   2
   2   2   6   20.05    1.24   4
  -2  -2  -6   19.48    1.18   2
   2   2   6   19.14    1.30   3
   2  -2   6   21.00    1.25   4
   3   2   6    5.11    0.81   4
   3   2   6    5.37    0.91   3
   3  -2   6    5.24    0.86   4
  -3   2  -6    4.03    0.90   3
  -3  -2  -6    4.17    0.80   2
   7   3  -6   25.42    1.42   1
  -7   3   6   25.32    1.42   4
   7  -3  -6   26.57    1.43   1
  -7  -3   6   24.22    1.33   4
   7   3  -6   27.32    1.42   2
  -6  -3   6    0.21    0.53   4
   6   3  -6    0.18    0.51   2
   6  -3  -6   -0.08    0.52   1
   6  -3  -6    0.25    0.46   2
  -6   3   6   -0.11    0.56   4
   6   3  -6   -0.09    0.52   1
  -5   3   6   49.21    1.70   4
   5  -3  -6   50.02    1.67   1
   5   3  -6   47.16    1.63   2
   5   3  -6   48.93    1.62   1
  -5  -3   6   50.68    1.65   4
   5  -3  -6   49.29    1.59   2
   4   3  -6  213.12    4.03   1
  -4  -3   6  209.33    4.15   4
   4  -3  -6  224.21    4.17   2
   4  -3  -6  225.47    4.07   1
  -4   3   6  213.25    4.23   4
   4   3  -6  220.51    4.24   2
   3  -3  -6  115.81    2.56   2
   3   3  -6  111.97    2.57   2
  -3   3   6  109.82    2.57   4
  -3  -3   6  110.71    2.65   5
  -3  -3   6  114.67    2.33   1
   2   3  -6    0.13    0.42   2
  -2   3   6    0.21    0.43   4
  -2  -3   6   -0.22    0.41   4
   2  -3  -6   -0.44    0.41   2
   1   3  -6  175.71    3.67   3
   1  -3  -6  177.04    3.55   2
  -1   3   6  173.81    3.74   3
  -1  -3   6  173.04    3.55   4
  -1   3   6  177.63    3.52   4
   0   3  -6    0.33    0.44   2
   0   3   6    0.23    0.46   3
   0  -3   6   -0.26    0.47   4
   0   3  -6   -0.24    0.43   3
   0   3   6    0.64    0.49   4
   0  -3  -6    0.78    0.48   2
   1  -3   6   -0.07    0.49   4
  -1   3  -6   -0.18    0.42   2
   1   3   6   -0.20    0.49   3
  -1  -3  -6   -0.31    0.44   2
   1   3   6    0.06    0.46   4
  -1   3  -6    0.11    0.49   3
  -2   3  -6  246.58    5.17   3
  -2   3  -6  225.97    4.46   2
   2  -3   6  227.59    4.64   4
  -2  -3  -6  220.99    4.59   2
   2   3   6  229.40    5.18   3
   2   3   6  230.68    4.52   4
  -3   3  -6    9.91    1.14   3
  -3  -3  -6   10.93    1.06   2
   3  -3   6   11.07    1.10   4
   3   3   6   11.82    1.08   4
   3   3   6   11.40    1.22   3
  -7   4   6   18.77    1.27   4
  -7  -4   6   19.63    1.22   4
  -7  -4   6   21.02    1.30   1
   7  -4  -6   19.83    1.30   1
  -7  -4   6   21.12    1.52   5
   7   4  -6   21.11    1.30   2
  -6  -4   6    0.26    0.55   4
   6  -4  -6    0.46    0.47   2
  -6  -4   6    0.01    0.53   1
   6  -4  -6    0.30    0.53   1
  -6   4   6    0.38    0.59   4
   6   4  -6    0.17    0.51   2
  -6  -4   6    0.44    0.55   5
  -5   4   6  108.96    2.71   4
   5  -4  -6  108.57    2.62   1
   5   4  -6  108.99    2.67   2
   5  -4  -6  110.01    2.58   2
  -5  -4   6  112.74    3.03   5
  -5  -4   6  111.26    2.63   4
  -5  -4   6  112.07    2.63   1
   4  -4  -6   26.04    1.15   2
   4  -4  -6   23.14    1.09   1
   4   4  -6   24.95    1.18   2
  -4  -4   6   23.31    1.11   4
  -4  -4   6   25.22    1.29   5
  -4  -4   6   25.00    1.14   1
  -4   4   6   24.83    1.19   4
  -3   4   6    2.64    0.56   4
   3   4  -6    1.65    0.51   2
  -3  -4   6    0.86    0.43   1
  -3  -4   6    1.78    0.51   4
   3  -4  -6    2.38    0.51   2
  -3  -4   6    0.76    0.44   5
   2  -4  -6   42.78    1.44   2
  -2  -4   6   45.28    1.47   4
  -2   4   6   43.95    1.45   4
   2   4  -6   40.36    1.42   2
   1   4  -6  570.50    9.36   2
   1   4  -6  581.26   10.13   3
  -1   4   6  556.11   10.19   3
  -1   4   6  578.50    9.36   4
   1  -4  -6  600.95    9.46   2
  -1  -4   6  572.21    9.45   4
   0   4  -6    5.40    0.66   2
   0  -4   6    5.92    0.74   4
   0   4   6    5.35    0.66   4
   0  -4  -6    5.88    0.70   2
   0   4   6    5.43    0.69   3
   0   4  -6    5.78    0.71   3
   1  -4   6    9.47    0.92   4
   1   4   6    8.50    0.90   3
  -1   4  -6    8.83    0.88   3
   1   4   6    8.66    0.82   4
  -1  -4  -6    9.54    0.91   2
  -1   4  -6    9.11    0.85   2
  -2  -4  -6    2.31    0.66   2
   2  -4   6    2.00    0.68   4
  -2   4  -6    2.30    0.62   2
   2   4   6    1.55    0.66   3
   2   4   6    2.20    0.63   4
  -2   4  -6    2.04    0.72   3
   3  -4   6   93.04    2.68   4
  -3  -4  -6   91.49    2.66   2
  -3   4  -6   92.37    2.96   3
   3   4   6   96.99    3.06   3
  -7   5   6    3.56    0.84   4
  -7  -5   6    3.52    0.79   1
   7   5  -6    3.25    0.76   2
  -7  -5   6    2.60    0.77   5
   7  -5  -6    3.59    0.79   1
  -6  -5   6   29.26    1.40   1
  -6  -5   6   26.17    1.28   4
   6  -5  -6   26.73    1.35   1
  -6  -5   6   27.52    1.57   5
  -6   5   6   26.48    1.37   4
   6   5  -6   27.07    1.34   2
   5  -5  -6    0.27    0.47   1
   5  -5  -6    0.45    0.46   2
  -5  -5   6    0.00    0.48   4
  -5   5   6    0.26    0.51   4
  -5  -5   6   -0.27    0.50   5
  -5  -5   6    0.04    0.50   1
   5   5  -6   -0.45    0.46   2
  -4   5   6   75.86    2.11   4
   4   5  -6   77.05    2.11   2
  -4  -5   6   75.70    2.25   5
  -4  -5   6   75.65    2.03   4
  -4  -5   6   81.06    2.01   1
   4  -5  -6   78.20    2.01   2
   4  -5  -6   79.55    1.99   1
  -3  -5   6   23.23    1.03   1
  -3  -5   6   22.26    1.07   4
  -3   5   6   24.04    1.17   4
   3  -5  -6   21.45    1.07   2
   3   5  -6   23.21    1.10   2
  -2   5   6   32.78    1.28   4
   2   5  -6   30.89    1.26   2
  -2  -5   6   32.97    1.27   4
   2  -5  -6   33.03    1.26   2
   1  -5  -6   23.33    1.14   2
   1   5  -6   21.43    1.05   2
  -1  -5   6   20.13    1.11   4
  -1   5   6   21.60    1.08   4
  -1   5   6   21.42    1.14   3
   0   5  -6  104.16    2.42   2
   0   5   6  103.50    2.43   4
   0   5   6   98.63    2.67   3
   0   5  -6  105.97    2.67   3
   0  -5  -6  105.92    2.54   2
   0  -5   6  103.05    2.52   4
  -1   5  -6    5.52    0.69   2
   1   5   6    3.69    0.71   3
  -1  -5  -6    5.42    0.73   2
  -1   5  -6    4.35    0.74   3
   1   5   6    4.81    0.67   4
   1  -5   6    5.07    0.75   4
   2   5   6  139.58    3.06   4
  -2   5  -6  141.94    3.56   3
   2   5   6  133.62    3.57   3
  -2  -5  -6  124.74    3.15   2
   2  -5   6  129.66    3.19   4
  -3  -5  -6    0.33    0.66   2
  -3   5  -6   -0.46    0.68   3
   3   5   6    0.34    0.67   3
   3  -5   6    0.39    0.64   4
  -7   6   6    0.49    0.70   4
   7   6  -6    0.74    0.68   2
  -7  -6   6    0.94    0.69   1
   7  -6  -6    1.04    0.66   1
  -7  -6   6    1.54    0.75   5
  -6  -6   6    1.28    0.59   4
   6  -6  -6    0.47    0.55   1
   6   6  -6    0.57    0.55   2
  -6   6   6    0.67    0.63   4
  -6  -6   6    0.74    0.63   5
  -6  -6   6    0.17    0.58   1
   5  -6  -6   49.83    1.57   2
  -5  -6   6   45.79    1.56   4
  -5  -6   6   48.16    1.63   1
   5   6  -6   47.03    1.66   2
  -5  -6   6   44.81    1.84   5
   5  -6  -6   46.39    1.60   1
  -5   6   6   46.32    1.67   4
   4  -6  -6   30.83    1.22   2
  -4  -6   6   29.71    1.23   4
  -4   6   6   30.98    1.34   4
  -4  -6   6   29.88    1.42   5
  -4  -6   6   32.17    1.27   1
   4  -6  -6   30.46    1.21   1
   4   6  -6   33.57    1.36   2
   3   6  -6    4.54    0.61   2
  -3   6   6    4.88    0.70   4
   3  -6  -6    4.92    0.63   2
  -3  -6   6    3.87    0.61   4
  -3  -6   6    5.20    0.56   1
   2  -6  -6   24.65    1.12   2
  -2  -6   6   24.94    1.13   4
   2   6  -6   23.71    1.14   2
  -2   6   6   23.13    1.12   4
  -1   6   6  101.40    2.57   3
  -1   6   6  101.41    2.37   4
   1  -6  -6  102.42    2.46   2
   1   6  -6  100.90    2.49   3
   1   6  -6  100.15    2.37   2
  -1  -6   6  102.92    2.48   4
   0  -6  -6   47.99    1.62   2
   0   6   6   46.66    1.73   3
   0  -6   6   46.82    1.61   4
   0   6  -6   47.90    1.71   3
   0   6   6   50.13    1.56   4
   0   6  -6   46.07    1.52   2
  -1   6  -6   57.85    2.02   3
   1  -6   6   56.31    1.84   4
  -1  -6  -6   54.09    1.83   2
  -1   6  -6   55.68    1.70   2
   1   6   6   54.92    1.68   4
   1   6   6   53.97    1.98   3
  -2  -6  -6   -0.08    0.53   2
   2  -6   6   -0.20    0.54   4
  -2   6  -6   -0.53    0.62   3
   2   6   6    0.83    0.60   3
   3   6   6   86.58    2.92   3
  -3   6  -6   90.66    2.92   3
   3  -6   6   85.37    2.60   4
  -3  -6  -6   87.64    2.64   2
  -6  -7   6   35.50    1.55   1
  -6   7   6   33.69    1.54   4
   6  -7  -6   35.47    1.51   1
   6   7  -6   34.65    1.52   2
  -6  -7   6   33.76    1.76   5
   5   7  -6   61.82    1.95   2
  -5   7   6   61.49    1.96   4
   5  -7  -6   61.72    1.88   1
  -5  -7   6   63.05    2.19   5
  -5  -7   6   63.45    1.91   1
   5  -7  -6   65.43    1.82   2
  -5  -7   6   61.54    1.83   4
  -4   7   6   47.91    1.66   4
  -4  -7   6   48.93    1.56   4
   4   7  -6   47.14    1.65   2
  -4  -7   6   49.26    1.59   1
   4  -7  -6   48.77    1.52   2
   4  -7  -6   51.09    1.59   1
   3   7  -6  112.51    2.60   2
  -3   7   6  106.60    2.58   4
   3  -7  -6  112.11    2.52   2
  -3  -7   6  105.40    2.50   4
  -3  -7   6  109.65    2.37   1
  -2   7   6  112.30    2.53   4
   2   7  -6  105.11    2.50   2
   2  -7  -6  108.15    2.50   2
  -2  -7   6  106.87    2.51   4
   1   7  -6   -0.69    0.41   3
   1   7  -6    0.86    0.46   2
  -1   7   6    0.59    0.43   4
  -1  -7   6    0.88    0.52   4
  -1   7   6    0.81    0.46   3
   1  -7  -6    0.20    0.44   2
   0   7   6   11.12    1.01   3
   0   7  -6   11.60    0.85   2
   0  -7  -6   11.78    0.92   2
   0   7  -6   10.86    1.07   3
   0  -7   6   11.76    0.95   4
   0   7   6   12.37    0.91   4
  -1   7  -6  122.94    3.16   3
  -1  -7  -6  119.74    2.94   2
  -1   7  -6  119.55    2.71   2
   1  -7   6  116.37    2.90   4
   1   7   6  125.78    2.74   4
   1   7   6  118.12    3.19   3
  -2  -7  -6   15.60    1.19   2
  -2   7  -6   13.83    1.25   3
   2   7   6   14.84    1.21   3
   2  -7   6   14.42    1.09   4
  -3  -7  -6   22.81    1.48   2
   3  -7   6   23.30    1.41   4
   3   7   6   20.76    1.50   3
  -3   7  -6   20.61    1.54   3
   6   8  -6   58.17    2.02   2
  -6  -8   6   60.57    2.03   1
   6  -8  -6   60.50    2.00   1
  -6   8   6   60.06    2.05   4
  -5  -8   6    2.02    0.62   1
  -5  -8   6    2.56    0.60   4
   5   8  -6    3.16    0.66   2
  -5   8   6    4.43    0.74   4
   5  -8  -6    2.53    0.57   1
  -4   8   6   23.32    1.21   4
   4  -8  -6   23.95    1.18   1
  -4  -8   6   23.00    1.16   1
  -4  -8   6   23.41    1.14   4
   4  -8  -6   23.23    1.10   2
   4   8  -6   23.34    1.19   2
   3   8  -6    1.18    0.51   2
  -3  -8   6    0.58    0.49   4
  -3  -8   6    0.50    0.44   1
   3  -8  -6    0.24    0.45   2
  -3   8   6    0.29    0.54   4
   2   8  -6  103.75    2.46   2
  -2  -8   6  101.46    2.45   4
   2  -8  -6   99.52    2.41   2
  -2   8   6  107.49    2.46   4
  -1  -8   6   23.35    1.15   4
  -1   8   6   25.81    1.12   4
  -1   8   6   24.40    1.23   3
   1   8  -6   23.14    1.11   2
   1   8  -6   23.25    1.16   3
   1  -8  -6   22.59    1.12   2
   0   8  -6  153.77    3.16   2
   0  -8   6  149.36    3.30   4
   0  -8  -6  145.46    3.28   2
   0   8   6  154.64    3.15   4
   0   8   6  143.01    3.55   3
   0   8  -6  152.78    3.51   3
   1  -8   6   12.55    1.00   4
  -1   8  -6   14.11    1.24   3
  -1  -8  -6   13.69    1.08   2
   1   8   6   15.02    1.14   3
   1   8   6   13.82    0.98   4
   2   8   6    7.34    0.94   3
  -2  -8  -6    8.44    0.96   2
   2  -8   6    8.79    0.94   4
  -2   8  -6    8.00    1.01   3
  -3  -8  -6   14.81    1.34   2
   3   8   6   14.30    1.34   3
   3  -8   6   15.30    1.25   4
  -3   8  -6   13.16    1.40   3
  -6   9   6   -0.46    0.59   4
   6  -9  -6    0.10    0.55   1
   6   9  -6    0.17    0.59   2
  -6  -9   6   -0.02    0.61   1
  -5  -9   6    6.08    0.77   1
   5   9  -6    6.07    0.80   2
   5  -9  -6    5.62    0.73   1
  -5   9   6    6.24    0.84   4
  -4  -9   6   23.28    1.18   1
  -4  -9   6   24.43    1.19   4
   4   9  -6   23.45    1.23   2
   4  -9  -6   26.23    1.15   2
   4  -9  -6   27.20    1.25   1
  -4   9   6   24.92    1.29   4
  -3  -9   6  277.27    5.13   4
   3   9  -6  276.51    5.21   2
   3  -9  -6  285.55    5.12   2
  -3   9   6  272.94    5.17   4
  -3  -9   6  296.61    5.01   1
   2   9  -6    0.15    0.44   2
   2  -9  -6    0.15    0.42   2
  -2  -9   6    0.24    0.47   4
  -2   9   6    0.12    0.46   4
  -1   9   6    6.05    0.68   4
  -1  -9   6    4.86    0.68   4
   1   9  -6    4.59    0.63   2
   1   9  -6    5.15    0.66   3
  -1   9   6    5.10    0.69   3
   1  -9  -6    5.84    0.69   2
   0   9  -6   26.82    1.36   3
   0  -9   6   26.26    1.29   4
   0  -9  -6   26.20    1.25   2
   0   9  -6   25.77    1.18   2
   0   9   6   27.61    1.20   4
   0   9   6   28.06    1.39   3
   1  -9   6   94.08    2.56   4
  -1   9  -6  101.34    2.83   3
   1   9   6   95.19    2.83   3
  -1  -9  -6   93.47    2.57   2
  -2   9  -6   -0.66    0.61   3
   2   9   6   -0.09    0.58   3
   2  -9   6    0.60    0.61   4
  -2  -9  -6   -0.96    0.58   2
  -6 -10   6   37.66    1.65   1
   6  10  -6   36.61    1.63   2
  -6  10   6   34.02    1.59   4
   6 -10  -6   35.49    1.58   1
  -5 -10   6   15.12    1.13   1
  -5  10   6   14.23    1.07   4
   5  10  -6   16.52    1.12   2
   5 -10  -6   16.12    1.09   1
  -4 -10   6   22.51    1.15   4
  -4 -10   6   23.08    1.20   1
   4 -10  -6   25.00    1.13   2
   4  10  -6   22.43    1.20   2
  -4  10   6   22.10    1.25   4
   4 -10  -6   23.52    1.22   1
   3  10  -6    3.23    0.63   2
  -3 -10   6    2.08    0.57   1
   3 -10  -6    2.22    0.54   2
  -3  10   6    3.68    0.66   4
  -3 -10   6    2.85    0.61   4
   2 -10  -6   13.61    0.94   2
  -2 -10   6   13.09    1.00   4
  -2  10   6   13.11    0.94   4
   2  10  -6   12.16    0.90   2
  -1  10   6   27.16    1.16   4
   1  10  -6   24.93    1.21   3
   1 -10  -6   24.19    1.17   2
  -1 -10   6   25.83    1.22   4
  -1  10   6   26.31    1.32   3
   1  10  -6   26.45    1.20   2
   0  10  -6  131.10    3.24   3
   0  10   6  127.20    3.29   3
   0 -10  -6  127.00    3.03   2
   0 -10   6  127.99    3.03   4
   1 -10   6    0.17    0.56   4
   1  10   6    0.69    0.58   3
  -1  10  -6    0.33    0.63   3
  -1 -10  -6    0.48    0.53   2
  -2  10  -6    2.00    0.77   3
  -2 -10  -6    3.10    0.80   2
   2 -10   6    3.92    0.78   4
   2  10   6    2.57    0.79   3
   6 -11  -6    0.18    0.55   1
  -6 -11   6   -0.78    0.62   1
   6  11  -6   -0.40    0.56   2
  -6  11   6   -0.27    0.64   4
  -5 -11   6    4.12    0.76   1
   5  11  -6    3.84    0.73   2
   5 -11  -6    4.12    0.73   1
  -5  11   6    2.81    0.73   4
   4  11  -6    7.92    0.81   2
  -4  11   6    8.28    0.88   4
  -4 -11   6    6.81    0.79   1
   4 -11  -6    8.16    0.81   1
  -3 -11   6   31.87    1.33   1
   3 -11  -6   28.40    1.21   2
  -3  11   6   29.96    1.30   4
   3  11  -6   29.81    1.32   2
  -3 -11   6   29.05    1.23   4
  -2  11   6    4.01    0.67   4
   2 -11  -6    5.37    0.71   2
   2  11  -6    5.51    0.70   2
  -2 -11   6    4.72    0.70   4
   1 -11  -6    0.62    0.48   2
   1  11  -6    0.20    0.50   3
  -1  11   6    0.04    0.48   3
  -1  11   6    0.05    0.46   4
  -1 -11   6    0.44    0.53   4
   1  11  -6    0.55    0.47   2
   0  11  -6   39.48    1.67   3
   0  11   6   40.47    1.72   3
   0 -11  -6   41.48    1.60   2
   0 -11   6   41.15    1.61   4
   1 -11   6   51.54    1.86   4
  -1  11  -6   52.46    2.04   3
  -1 -11  -6   52.58    1.89   2
   1  11   6   51.89    2.05   3
   2 -11   6   93.32    2.73   4
  -2  11  -6   99.21    3.03   3
  -2 -11  -6   95.80    2.79   2
   2  11   6   95.88    3.06   3
   6 -12  -6    0.90    0.63   1
   6  12  -6    1.62    0.70   2
  -6  12   6    0.72    0.69   4
  -6 -12   6   -0.17    0.68   1
   5  12  -6   49.20    1.85   2
  -5 -12   6   48.06    1.83   1
   5 -12  -6   50.45    1.84   1
  -5  12   6   46.54    1.80   4
  -4  12   6   45.38    1.72   4
   4 -12  -6   49.10    1.71   1
   4  12  -6   42.23    1.65   2
  -4 -12   6   46.72    1.71   1
  -3 -12   6   28.58    1.29   4
   3 -12  -6   25.43    1.17   2
   3  12  -6   29.24    1.35   2
  -3  12   6   26.34    1.24   4
  -3 -12   6   29.84    1.31   1
  -2 -12   6   42.51    1.53   4
  -2  12   6   41.38    1.50   4
   2 -12  -6   43.89    1.59   2
   2  12  -6   41.07    1.51   2
   1  12  -6   63.02    1.85   2
  -1  12   6   60.93    2.08   3
  -1 -12   6   64.75    1.96   4
   1 -12  -6   62.22    1.91   2
   1  12  -6   65.73    2.06   3
   0  12   6   39.38    1.71   3
   0  12  -6   38.18    1.65   3
   0 -12   6   37.02    1.53   4
   0 -12  -6   39.12    1.58   2
   1  12   6    8.59    0.99   3
  -1  12  -6    8.74    1.00   3
  -1 -12  -6    9.38    0.96   2
   1 -12   6    9.38    0.97   4
   2  12   6    8.35    1.10   3
  -2 -12  -6    9.01    1.04   2
  -2  12  -6    6.92    1.06   3
   2 -12   6   10.41    1.08   4
   5 -13  -6   33.34    1.59   1
  -5 -13   6   32.96    1.58   1
  -5  13   6   30.07    1.49   4
   5  13  -6   33.14    1.56   2
   4 -13  -6   80.38    2.27   1
  -4 -13   6   78.07    2.26   1
  -4  13   6   79.37    2.32   4
   4  13  -6   74.57    2.27   2
  -3 -13   6   10.66    1.01   1
  -3  13   6   10.34    0.92   4
   3  13  -6    9.84    0.91   2
   3 -13  -6    9.68    0.85   2
   2 -13  -6  315.56    5.69   2
   2  13  -6  299.72    5.65   2
  -2 -13   6  311.25    5.67   4
  -2  13   6  314.96    5.60   4
   1  13  -6    6.65    0.82   3
  -1  13   6    6.54    0.84   3
   1 -13  -6    7.69    0.80   2
  -1 -13   6    7.75    0.86   4
   0  13   6   20.35    1.33   3
   0 -13   6   20.74    1.24   4
   0  13  -6   21.58    1.36   3
   0 -13  -6   21.08    1.23   2
  -1  13  -6    4.38    0.84   3
  -1 -13  -6    4.21    0.80   2
   1 -13   6    6.43    0.92   4
   1  13   6    5.26    0.91   3
   5 -14  -6   50.57    1.95   1
   5  14  -6   49.10    1.91   2
  -5  14   6   52.38    1.92   4
  -5 -14   6   50.33    1.91   1
   4 -14  -6   14.93    1.08   1
  -4 -14   6   15.00    1.19   1
  -4  14   6   16.30    1.20   4
   4  14  -6   15.62    1.13   2
  -3 -14   6   13.65    1.10   1
   3  14  -6   11.87    0.99   2
  -3  14   6   13.86    1.01   4
   2  14  -6    0.57    0.59   2
  -2 -14   6    0.91    0.61   4
   2 -14  -6    0.13    0.54   2
  -1 -14   6    4.96    0.79   4
   1  14  -6    6.54    0.83   3
   1 -14  -6    6.65    0.78   2
  -1  14   6    4.57    0.78   3
   0  14   6    1.55    0.65   3
   0 -14  -6    1.57    0.65   2
   0  14  -6    1.57    0.67   3
   0 -14   6    1.63    0.66   4
  -1  14  -6   76.00    2.58   3
   1 -14   6   78.85    2.44   4
  -1 -14  -6   72.07    2.34   2
   1  14   6   71.91    2.65   3
   4 -15  -6    2.61    0.67   1
  -4 -15   6    1.88    0.70   1
   4  15  -6    1.60    0.64   2
  -4  15   6    1.08    0.69   4
  -3 -15   6    0.04    0.55   1
   3  15  -6   -0.37    0.52   2
  -3  15   6   -0.20    0.55   4
   2 -15  -6  112.43    2.76   2
  -1  15   6    5.14    0.83   3
   1 -15  -6    5.33    0.74   2
  -1 -15   6    4.91    0.79   4
   0 -15  -6   66.65    2.20   2
   0  15  -6   68.87    2.41   3
   0  15   6   69.88    2.46   3
   0 -15   6   71.88    2.20   4
   1  15   6  125.64    3.67   3
   1 -15   6  129.79    3.33   4
  -1  15  -6  125.44    3.54   3
  -1 -15  -6  119.86    3.22   2
  -4  16   6    4.45    0.83   4
   4  16  -6    4.29    0.81   2
   4 -16  -6    5.01    0.83   1
  -4 -16   6    3.72    0.84   1
  -3 -16   6    4.14    0.73   1
   3  16  -6    2.55    0.70   2
   1 -16  -6   14.32    1.07   2
  -1  16   6   16.34    1.31   3
   0  16   6    0.91    0.69   3
   0 -16   6    1.27    0.68   4
   0 -16  -6    0.44    0.63   2
   0  16  -6    0.13    0.71   3
   3  17  -6   41.46    1.72   2
  -3 -17   6   44.75    1.71   1
   1 -17  -6   54.86    1.89   2
  -1  17   6   54.69    2.22   3
   6   0  -7   -0.73    0.52   1
  -6   0   7    0.06    0.60   4
   6   0  -7    0.30    0.55   2
   5   0  -7   60.99    1.91   2
   5   0  -7   60.14    1.84   1
  -5   0   7   56.69    1.89   4
  -4   0   7   -0.12    0.51   4
   4   0  -7    0.31    0.46   2
  -3   0   7    0.87    0.53   4
   3   0  -7    0.27    0.47   2
  -2   0   7    0.35    0.51   4
   2   0  -7    0.62    0.50   2
   1   0  -7    0.73    0.53   2
  -1   0   7    0.41    0.54   4
   0   0  -7    0.37    0.56   2
   0   0   7   -0.68    0.51   3
   0   0   7    0.37    0.51   4
   1   0   7   37.27    1.72   3
   1   0   7   36.73    1.58   4
  -1   0  -7   36.87    1.53   2
  -2   0  -7    0.45    0.62   2
   2   0   7   -0.09    0.65   3
   2   0   7   -0.05    0.63   4
   6   1  -7   34.06    1.52   1
   6  -1  -7   33.43    1.47   2
   6  -1  -7   33.45    1.50   1
  -6   1   7   34.12    1.55   4
   6   1  -7   36.23    1.54   2
  -6  -1   7   34.13    1.53   4
   5  -1  -7    1.96    0.63   2
  -5   1   7    2.02    0.64   4
  -5  -1   7    1.25    0.62   4
   5   1  -7    1.63    0.57   1
   5  -1  -7    1.61    0.56   1
   5   1  -7    1.97    0.60   2
  -4  -1   7    3.84    0.68   4
  -4   1   7    3.27    0.69   4
   4  -1  -7    3.53    0.65   2
   4   1  -7    3.99    0.65   2
  -3  -1   7   60.76    1.86   4
   3   1  -7   62.05    1.88   2
   3  -1  -7   63.42    1.89   2
  -3   1   7   63.97    1.92   4
  -2  -1   7  164.22    3.52   4
   2  -1  -7  168.96    3.53   2
   2   1  -7  160.89    3.49   2
  -2   1   7  167.92    3.54   4
  -1  -1   7   22.93    1.20   4
  -1   1   7   21.85    1.17   4
   1   1  -7   22.05    1.16   2
   1   1  -7   22.43    1.20   3
   1  -1  -7   22.59    1.19   2
   0   1  -7   34.78    1.45   2
   0  -1   7   31.21    1.47   3
   0   1   7   32.10    1.53   3
   0  -1   7   31.68    1.38   4
   0  -1  -7   30.43    1.36   2
   0   1   7   30.85    1.37   4
   1   1   7    2.49    0.68   4
   1  -1   7    1.43    0.67   3
  -1   1  -7    1.77    0.63   2
   1   1   7    1.33    0.67   3
   1  -1   7    2.37    0.70   4
  -1  -1  -7    1.41    0.64   2
  -2  -1  -7   90.16    2.59   2
   2   1   7   92.74    2.65   4
  -2   1  -7   99.35    3.00   3
   2   1   7   88.98    2.94   3
  -2   1  -7   90.15    2.55   2
   2  -1   7   95.05    2.69   4
   6   2  -7   28.17    1.40   1
   6   2  -7   28.10    1.41   2
  -6  -2   7   28.35    1.40   4
   6  -2  -7   26.43    1.35   1
   6  -2  -7   27.14    1.34   2
  -6   2   7   27.54    1.43   4
   5   2  -7   40.23    1.51   1
   5  -2  -7   43.81    1.62   2
  -5   2   7   39.37    1.60   4
  -5  -2   7   40.47    1.58   4
   5  -2  -7   42.05    1.52   1
   5   2  -7   43.17    1.66   2
   4   2  -7   42.50    1.56   2
  -4  -2   7   40.73    1.54   4
   4  -2  -7   42.04    1.55   2
  -4   2   7   41.17    1.58   4
  -3  -2   7    8.50    0.84   4
  -3   2   7    8.38    0.85   4
   3  -2  -7    8.68    0.82   2
   3   2  -7    8.03    0.80   2
   2  -2  -7    2.35    0.60   2
  -2   2   7    2.42    0.60   4
   2   2  -7    2.88    0.64   2
  -2  -2   7    3.57    0.66   4
   1  -2  -7   93.43    2.42   2
  -1  -2   7   89.03    2.41   4
   1   2  -7   90.95    2.37   2
  -1   2   7   93.65    2.41   4
   0   2   7  156.10    3.47   4
   0   2  -7  159.51    3.49   2
   0   2  -7  169.19    3.78   3
   0   2   7  158.71    3.78   3
   0  -2   7  157.04    3.51   4
   0  -2  -7  155.68    3.50   2
  -1   2  -7   97.83    2.81   3
   1   2   7   90.63    2.79   3
  -1  -2  -7   89.32    2.51   2
   1   2   7   90.45    2.48   4
  -1   2  -7   89.05    2.46   2
   1  -2   7   90.54    2.54   4
  -2   2  -7    4.08    0.89   3
  -2   2  -7    3.65    0.75   2
  -2  -2  -7    2.48    0.76   2
   2  -2   7    4.55    0.85   4
   2   2   7    3.29    0.86   3
   2   2   7    4.40    0.85   4
  -6  -3   7   18.16    1.19   1
  -6  -3   7   16.41    1.13   4
   6  -3  -7   17.46    1.14   2
   6   3  -7   17.45    1.18   2
   6  -3  -7   15.75    1.15   1
  -6  -3   7   16.71    1.39   5
  -6   3   7   16.59    1.21   4
  -5  -3   7    2.89    0.63   1
  -5   3   7    3.25    0.74   4
  -5  -3   7    3.10    0.70   4
   5  -3  -7    3.42    0.66   2
  -5  -3   7    3.09    0.66   5
   5   3  -7    2.97    0.70   2
   4   3  -7   29.10    1.31   2
  -4  -3   7   28.77    1.31   4
   4  -3  -7   30.03    1.33   2
  -4   3   7   27.19    1.34   4
   3  -3  -7   91.81    2.34   2
  -3  -3   7   87.03    2.32   4
  -3   3   7   88.74    2.36   4
   3   3  -7   89.01    2.34   2
  -2   3   7   66.33    1.96   4
   2  -3  -7   67.93    1.99   2
   2   3  -7   66.74    1.95   2
  -2  -3   7   64.82    1.95   4
  -1   3   7   48.23    1.66   4
   1  -3  -7   48.69    1.69   2
   1   3  -7   48.87    1.67   2
  -1  -3   7   49.76    1.74   4
   0   3   7   26.99    1.27   4
   0  -3  -7   28.69    1.36   2
   0  -3   7   27.80    1.33   4
   0   3   7   28.51    1.45   3
   0   3  -7   28.51    1.50   3
   0   3  -7   25.00    1.26   2
   1   3   7   24.20    1.46   3
  -1   3  -7   25.90    1.58   3
   1   3   7   25.42    1.32   4
  -1   3  -7   24.76    1.29   2
  -1  -3  -7   22.72    1.28   2
   1  -3   7   23.79    1.34   4
   2  -3   7   40.44    1.77   4
  -2  -3  -7   39.14    1.71   2
   2   3   7   39.33    1.74   4
   2   3   7   39.67    1.93   3
  -2   3  -7   42.14    1.98   3
  -6   4   7   15.43    1.20   4
   6  -4  -7   17.51    1.24   1
  -6  -4   7   16.50    1.14   4
  -6  -4   7   17.92    1.44   5
   6   4  -7   16.57    1.18   2
   6  -4  -7   18.14    1.17   2
  -6  -4   7   18.81    1.24   1
  -5  -4   7   14.19    1.00   1
   5  -4  -7   12.21    0.98   2
  -5  -4   7   11.84    0.97   4
  -5   4   7   12.68    1.03   4
   5   4  -7   12.05    1.04   2
  -5  -4   7   11.96    1.09   5
   4  -4  -7  125.98    2.86   2
  -4   4   7  114.54    2.86   4
  -4  -4   7  114.64    2.81   4
   4   4  -7  119.35    2.88   2
  -3  -4   7   13.40    0.97   4
   3   4  -7   11.70    0.94   2
  -3   4   7   13.18    1.03   4
   3  -4  -7   14.54    0.97   2
  -2  -4   7   32.21    1.36   4
   2  -4  -7   33.04    1.39   2
   2   4  -7   30.61    1.33   2
  -2   4   7   31.52    1.34   4
   1   4  -7   19.21    1.11   2
  -1   4   7   21.21    1.16   4
   1  -4  -7   21.25    1.14   2
  -1  -4   7   22.67    1.24   4
   0   4   7   23.01    1.40   3
   0  -4   7   22.20    1.22   4
   0  -4  -7   23.22    1.27   2
   0   4   7   20.47    1.13   4
   0   4  -7   20.39    1.34   3
   0   4  -7   22.09    1.17   2
  -1   4  -7   16.44    1.14   2
   1  -4   7   17.66    1.21   4
  -1   4  -7   16.57    1.36   3
   1   4   7   16.02    1.26   3
   1   4   7   16.69    1.14   4
  -1  -4  -7   16.28    1.17   2
   2   4   7   -0.06    0.66   3
   2   4   7   -0.08    0.66   4
   2  -4   7   -0.26    0.59   4
  -2   4  -7   -0.35    0.70   3
  -2  -4  -7    0.20    0.63   2
   6  -5  -7   60.23    2.02   1
   6   5  -7   55.16    1.99   2
  -6  -5   7   54.84    1.93   4
  -6  -5   7   59.72    2.32   5
  -6   5   7   56.51    2.05   4
  -6  -5   7   61.19    2.02   1
   6  -5  -7   59.08    1.92   2
  -5  -5   7    1.75    0.61   4
  -5  -5   7    0.90    0.56   1
   5  -5  -7    0.28    0.52   2
  -5  -5   7    0.71    0.57   5
   5   5  -7    0.81    0.59   2
  -5   5   7    1.02    0.62   4
   4   5  -7    2.15    0.60   2
  -4   5   7    2.11    0.67   4
  -4  -5   7    2.30    0.64   4
   4  -5  -7    1.53    0.56   2
  -3  -5   7    2.51    0.63   4
  -3   5   7    1.56    0.62   4
   3  -5  -7    2.87    0.64   2
   3   5  -7    2.45    0.61   2
   2   5  -7   16.39    1.04   2
  -2  -5   7   16.23    1.03   4
  -2   5   7   15.42    1.02   4
   2  -5  -7   17.87    1.09   2
  -1   5   7   83.16    2.22   4
  -1  -5   7   80.80    2.28   4
   1  -5  -7   75.59    2.19   2
   1   5  -7   78.22    2.17   2
   0  -5  -7   21.28    1.24   2
   0   5  -7   18.27    1.10   2
   0  -5   7   19.17    1.16   4
   0   5   7   19.62    1.11   4
   0   5   7   20.17    1.25   3
   0   5  -7   17.14    1.31   3
  -1   5  -7   98.12    2.58   2
   1  -5   7   98.59    2.73   4
  -1   5  -7  104.51    2.97   3
   1   5   7   99.71    2.61   4
  -1  -5  -7   97.88    2.72   2
   1   5   7  106.09    3.09   3
  -2   5  -7    4.88    0.95   3
  -2  -5  -7    3.36    0.79   2
   2   5   7    3.41    0.88   3
   2  -5   7    4.38    0.83   4
   6   6  -7    5.54    0.89   2
  -6   6   7    5.16    0.90   4
   6  -6  -7    5.78    0.84   1
  -6  -6   7    4.63    0.83   4
  -6  -6   7    5.13    0.84   1
  -6  -6   7    4.16    0.85   5
  -5  -6   7   -0.22    0.54   5
  -5  -6   7    0.34    0.56   4
  -5  -6   7    0.13    0.54   1
   5  -6  -7    0.15    0.49   2
   5   6  -7   -0.14    0.52   2
  -5   6   7    0.64    0.63   4
  -4  -6   7  108.75    2.74   4
   4  -6  -7  112.42    2.70   2
   4   6  -7  113.33    2.83   2
  -4   6   7  115.66    2.84   4
  -3  -6   7   16.30    1.07   4
   3   6  -7   16.99    1.08   2
  -3   6   7   17.68    1.12   4
   3  -6  -7   18.40    1.12   2
   2   6  -7   89.93    2.35   2
  -2  -6   7   83.56    2.32   4
   2  -6  -7   90.81    2.37   2
  -2   6   7   87.59    2.32   4
   1  -6  -7    6.95    0.80   2
   1   6  -7    6.49    0.77   2
  -1  -6   7    7.30    0.85   4
  -1   6   7    6.65    0.78   4
   0   6  -7  132.46    3.26   3
   0  -6  -7  127.46    3.07   2
   0  -6   7  123.05    3.05   4
   0   6   7  125.65    3.30   3
   0   6  -7  121.82    2.91   2
   0   6   7  120.18    2.88   4
   1   6   7   93.05    2.46   4
   1  -6   7   85.90    2.54   4
  -1  -6  -7   85.87    2.53   2
   1   6   7   86.77    2.79   3
  -1   6  -7   95.71    2.84   3
  -2  -6  -7   21.93    1.36   2
   2  -6   7   20.28    1.32   4
   2   6   7   19.64    1.51   3
  -2   6  -7   20.86    1.56   3
  -6  -7   7    8.46    0.97   1
  -6   7   7    8.90    1.02   4
   6  -7  -7    7.84    0.94   1
   6   7  -7    7.03    0.94   2
  -6  -7   7    6.36    0.96   5
  -5  -7   7    2.49    0.68   1
  -5   7   7    2.27    0.70   4
   5   7  -7    2.16    0.66   2
   5  -7  -7    3.00    0.66   2
  -5  -7   7    2.41    0.66   4
   4  -7  -7  107.14    2.63   2
  -4   7   7  106.34    2.75   4
   4   7  -7  110.44    2.80   2
  -4  -7   7  109.13    2.70   4
  -3   7   7    9.84    0.97   4
  -3  -7   7   11.06    0.94   4
   3  -7  -7   10.57    0.96   2
   3   7  -7   11.93    0.96   2
   2  -7  -7   89.25    2.36   2
   2   7  -7   87.05    2.34   2
  -2  -7   7   87.90    2.38   4
  -2   7   7   88.80    2.33   4
  -1   7   7   35.69    1.46   4
   1   7  -7   36.36    1.43   2
  -1  -7   7   34.07    1.46   4
   1  -7  -7   34.10    1.49   2
   0  -7  -7    2.86    0.66   2
   0  -7   7    3.08    0.70   4
   0   7  -7    0.76    0.66   3
   0   7  -7    2.11    0.63   2
   0   7   7    2.15    0.66   3
   0   7   7    3.44    0.67   4
   1  -7   7   16.06    1.18   4
  -1   7  -7   15.17    1.42   3
  -1  -7  -7   15.56    1.16   2
   1   7   7   16.62    1.30   3
  -6  -8   7   -0.37    0.66   1
   6   8  -7    1.42    0.71   2
   6  -8  -7    1.11    0.65   1
  -6   8   7    1.83    0.79   4
   5  -8  -7   47.88    1.68   2
  -5  -8   7   42.69    1.66   4
  -5   8   7   47.27    1.81   4
  -5  -8   7   46.84    1.71   1
   5   8  -7   41.03    1.70   2
  -4   8   7   24.78    1.33   4
  -4  -8   7   22.83    1.23   4
   4   8  -7   20.79    1.25   2
   4  -8  -7   23.11    1.16   2
  -3   8   7   18.00    1.14   4
   3  -8  -7   20.06    1.15   2
   3   8  -7   17.58    1.12   2
  -3  -8   7   16.20    1.07   4
  -2  -8   7    1.24    0.62   4
   2  -8  -7    0.31    0.52   2
   2   8  -7    0.01    0.52   2
  -2   8   7    0.76    0.54   4
  -1   8   7   29.66    1.35   4
   1  -8  -7   29.54    1.43   2
   1   8  -7   28.84    1.33   2
  -1  -8   7   28.40    1.35   4
   0   8   7    5.92    0.86   3
   0  -8   7    6.77    0.87   4
   0  -8  -7    5.53    0.78   2
   0   8  -7    4.68    0.82   3
   0   8   7    5.84    0.77   4
   0   8  -7    5.76    0.78   2
  -1  -8  -7   12.33    1.09   2
  -1   8  -7   12.93    1.21   3
   1   8   7   13.00    1.22   3
   1  -8   7   12.09    1.09   4
   5   9  -7   15.67    1.13   2
  -5  -9   7   15.57    1.19   1
  -5   9   7   16.36    1.20   4
   4   9  -7    3.85    0.73   2
   4  -9  -7    3.56    0.67   2
  -4  -9   7    4.40    0.74   4
  -4   9   7    3.62    0.77   4
  -3  -9   7    5.51    0.76   4
  -3   9   7    5.81    0.80   4
   3   9  -7    5.59    0.76   2
   2  -9  -7   84.61    2.34   2
  -2   9   7   86.75    2.32   4
   2   9  -7   84.71    2.33   2
  -2  -9   7   90.10    2.44   4
   1   9  -7    1.01    0.56   2
   1  -9  -7    0.58    0.62   2
  -1  -9   7    1.39    0.62   4
  -1   9   7    0.88    0.58   4
   0  -9  -7    4.36    0.74   2
   0  -9   7    5.21    0.83   4
   0   9  -7    4.54    0.83   3
   0   9   7    3.67    0.79   3
   1  -9   7    3.06    0.78   4
   1   9   7    2.90    0.80   3
  -1  -9  -7    2.55    0.73   2
  -1   9  -7    1.62    0.82   3
  -5 -10   7  133.95    3.14   1
   5  10  -7  122.04    3.19   2
  -5  10   7  128.08    3.24   4
  -4 -10   7    1.98    0.64   4
   4 -10  -7    2.10    0.61   2
   4  10  -7    1.56    0.64   2
  -4  10   7    2.69    0.74   4
   3  10  -7    2.08    0.63   2
  -3  10   7    1.80    0.64   4
   3 -10  -7    1.90    0.62   2
  -3 -10   7    1.49    0.62   4
   2  10  -7   -0.41    0.51   2
  -2  10   7    0.51    0.55   4
  -2 -10   7    0.18    0.56   4
   2 -10  -7    0.58    0.53   2
   1  10  -7  195.31    4.03   2
  -1 -10   7  188.66    4.11   4
  -1  10   7  198.39    3.98   4
   1 -10  -7  189.50    4.11   2
   0 -10   7   18.46    1.27   4
   0  10  -7   21.10    1.40   3
   0  10   7   20.68    1.38   3
   0 -10  -7   19.17    1.22   2
   1 -10   7   31.14    1.57   4
  -1  10  -7   34.96    1.80   3
  -1 -10  -7   30.69    1.56   2
   1  10   7   32.47    1.76   3
  -5 -11   7    0.46    0.70   1
   5  11  -7    0.23    0.62   2
  -5  11   7    0.50    0.68   4
  -4  11   7    5.98    0.91   4
   4  11  -7    6.37    0.85   2
   4 -11  -7    5.88    0.75   2
  -3 -11   7   50.02    1.79   4
  -3  11   7   49.06    1.79   4
   3  11  -7   45.37    1.72   2
   3 -11  -7   47.93    1.72   2
  -2 -11   7    5.71    0.81   4
   2  11  -7    5.65    0.77   2
  -2  11   7    6.22    0.80   4
   2 -11  -7    5.81    0.77   2
   1 -11  -7    0.19    0.59   2
   1  11  -7    0.72    0.61   2
  -1 -11   7    0.74    0.63   4
   0  11   7    9.79    1.05   3
   0 -11   7    9.83    1.01   4
   0  11  -7    8.41    0.98   3
   0 -11  -7    8.71    0.95   2
  -5  12   7   23.47    1.40   4
   5  12  -7   21.88    1.35   2
  -5 -12   7   24.83    1.45   1
   4  12  -7    7.74    0.89   2
  -4  12   7    6.94    0.94   4
  -3 -12   7   17.36    1.23   4
  -3  12   7   16.11    1.19   4
   3 -12  -7   14.42    1.12   2
   3  12  -7   15.80    1.12   2
   2  12  -7    1.10    0.61   2
  -2  12   7    1.45    0.65   4
  -2 -12   7    1.14    0.62   4
   2 -12  -7    0.69    0.56   2
  -1 -12   7   37.76    1.66   4
   1 -12  -7   36.30    1.58   2
   0  12  -7   48.89    1.96   3
   0  12   7   49.01    2.07   3
   0 -12   7   45.97    1.84   4
   0 -12  -7   46.20    1.85   2
  -4  13   7    2.81    0.78   4
   4  13  -7    2.30    0.69   2
   3  13  -7  104.61    2.80   2
   3 -13  -7  106.33    2.72   2
  -3  13   7  108.62    2.78   4
  -2 -13   7    3.97    0.79   4
   2 -13  -7    2.97    0.68   2
   2  13  -7    2.98    0.71   2
   1 -13  -7   29.67    1.46   2
  -1 -13   7   32.26    1.57   4
   0 -13   7    7.75    0.98   4
   0  13   7    7.02    1.01   3
   0 -13  -7    6.30    0.93   2
   0  13  -7    6.65    0.99   3
   3  14  -7    0.95    0.63   2
  -3  14   7    0.27    0.63   4
   2 -14  -7    7.86    0.89   2
  -2 -14   7    8.59    0.97   4
   1 -14  -7    1.21    0.63   2
  -1 -14   7    0.94    0.66   4
   2 -15  -7   -0.44    0.58   2
  -5   0   8    0.67    0.69   4
   5   0  -8   -0.50    0.57   2
  -4   0   8   10.12    1.02   4
   4   0  -8   11.30    1.01   2
  -3   0   8   -0.48    0.54   4
   3   0  -8   -0.15    0.54   2
  -2   0   8    0.24    0.59   4
   2   0  -8   -0.38    0.53   2
  -1   0   8   -0.32    0.57   4
   1   0  -8    0.20    0.59   2
   0   0   8   24.68    1.35   4
   0   0  -8   21.94    1.29   2
   5  -1  -8   32.32    1.52   2
  -5  -1   8   32.57    1.57   4
  -5   1   8   30.06    1.57   4
   5   1  -8   30.53    1.50   2
  -4  -1   8    1.73    0.68   4
   4   1  -8    2.76    0.68   2
  -4   1   8    1.74    0.70   4
   4  -1  -8    2.40    0.67   2
  -3   1   8   21.69    1.24   4
   3  -1  -8   20.46    1.23   2
   3   1  -8   18.46    1.15   2
  -3  -1   8   21.36    1.23   4
   2  -1  -8   48.27    1.80   2
   2   1  -8   48.87    1.79   2
  -2  -1   8   46.54    1.78   4
  -2   1   8   47.88    1.79   4
   1   1  -8   53.42    1.88   2
  -1   1   8   52.08    1.89   4
   1  -1  -8   52.18    1.88   2
  -1  -1   8   51.48    1.89   4
   0  -1   8   -0.12    0.59   4
   0   1   8    0.79    0.62   4
   0   1  -8    0.63    0.65   3
   0  -1  -8    0.15    0.61   2
   0   1  -8    0.32    0.61   2
  -5  -2   8  142.62    3.46   4
  -5   2   8  140.65    3.48   4
   5  -2  -8  149.66    3.44   2
   5   2  -8  139.61    3.43   2
   4  -2  -8   32.10    1.47   2
  -4   2   8   30.67    1.49   4
   4   2  -8   30.55    1.45   2
  -4  -2   8   27.95    1.43   4
  -3  -2   8    1.35    0.66   4
   3  -2  -8    0.94    0.60   2
   3   2  -8    1.61    0.62   2
  -3   2   8    1.43    0.66   4
  -2  -2   8    8.22    0.94   4
  -2   2   8    7.85    0.92   4
   2  -2  -8    7.15    0.87   2
   2   2  -8    7.20    0.87   2
  -1   2   8    1.45    0.66   4
   1   2  -8    0.60    0.62   2
  -1  -2   8    2.18    0.75   4
   1  -2  -8    1.57    0.63   2
   0  -2   8   25.87    1.41   4
   0  -2  -8   26.69    1.42   2
   0   2  -8   27.31    1.41   2
   0   2   8   26.26    1.40   4
  -5   3   8   10.98    1.11   4
  -5  -3   8    9.90    1.07   4
   5  -3  -8   11.87    1.08   2
   5   3  -8   11.68    1.10   2
  -4  -3   8   10.31    1.03   4
   4   3  -8   11.04    1.02   2
   4  -3  -8   11.39    1.02   2
  -4   3   8   11.71    1.08   4
  -3   3   8   61.72    2.05   4
   3   3  -8   62.50    2.04   2
  -3  -3   8   62.49    2.05   4
   3  -3  -8   61.97    2.04   2
  -2   3   8  117.79    2.96   4
   2  -3  -8  120.49    2.99   2
   2   3  -8  115.86    2.94   2
  -2  -3   8  115.34    2.98   4
   1  -3  -8   16.84    1.15   2
  -1  -3   8   15.86    1.20   4
  -1   3   8   17.97    1.17   4
   1   3  -8   17.79    1.16   2
   0   3   8   34.77    1.57   4
   0  -3  -8   34.07    1.59   2
   0  -3   8   35.27    1.63   4
   0   3  -8   33.04    1.53   2
  -5   4   8   25.59    1.45   4
   5  -4  -8   27.93    1.43   2
   5   4  -8   28.66    1.55   2
  -5  -4   8   28.32    1.44   4
   4  -4  -8    0.12    0.55   2
   4   4  -8   -0.08    0.56   2
  -4  -4   8    0.08    0.60   4
  -4   4   8    0.20    0.65   4
   3   4  -8    5.88    0.83   2
  -3   4   8    5.71    0.85   4
   3  -4  -8    5.40    0.81   2
  -3  -4   8    6.64    0.88   4
  -2  -4   8    6.96    0.90   4
  -2   4   8    6.35    0.86   4
   2  -4  -8    6.69    0.87   2
   2   4  -8    6.51    0.82   2
   1  -4  -8   22.46    1.28   2
  -1  -4   8   21.70    1.29   4
   1   4  -8   22.21    1.25   2
  -1   4   8   24.39    1.32   4
   0   4   8   -0.16    0.57   4
   0   4  -8    0.48    0.59   2
   0  -4   8    0.12    0.63   4
   0  -4  -8   -0.42    0.59   2
   5   5  -8    0.24    0.61   2
   5  -5  -8    1.33    0.67   2
  -5   5   8    0.72    0.71   4
  -5  -5   8   -0.07    0.67   4
   4   5  -8    6.24    0.86   2
   4  -5  -8    6.95    0.83   2
  -4  -5   8    6.68    0.89   4
  -4   5   8    7.70    0.98   4
   3  -5  -8   -0.06    0.57   2
   3   5  -8   -0.61    0.52   2
  -3   5   8   -0.14    0.58   4
  -3  -5   8    0.12    0.60   4
   2   5  -8   26.94    1.36   2
  -2   5   8   25.49    1.40   4
  -2  -5   8   23.62    1.37   4
   2  -5  -8   25.51    1.35   2
  -1   5   8    0.54    0.62   4
   1   5  -8    0.34    0.59   2
  -1  -5   8    0.34    0.62   4
   1  -5  -8    0.31    0.55   2
   0   5  -8   10.37    1.00   2
   0  -5   8   11.03    1.08   4
   0  -5  -8   10.73    1.07   2
   0   5   8   10.15    1.00   4
   5  -6  -8   22.24    1.35   2
   5   6  -8   23.82    1.41   2
  -5  -6   8   23.47    1.36   4
  -5   6   8   22.90    1.41   4
  -4   6   8   12.09    1.14   4
   4  -6  -8   11.84    1.03   2
   4   6  -8   11.95    1.06   2
  -4  -6   8   11.59    1.08   4
   3  -6  -8   28.67    1.45   2
  -3   6   8   26.12    1.38   4
  -3  -6   8   28.95    1.42   4
   3   6  -8   26.38    1.40   2
   2   6  -8    2.40    0.67   2
  -2  -6   8    2.23    0.76   4
  -2   6   8    2.55    0.76   4
   2  -6  -8    1.70    0.68   2
   1   6  -8   16.04    1.15   2
  -1  -6   8   14.55    1.13   4
   1  -6  -8   15.65    1.16   2
  -1   6   8   16.67    1.18   4
   0  -6  -8   11.70    1.11   2
   0   6   8   11.11    1.02   4
   0  -6   8   11.03    1.10   4
   0   6  -8   10.74    1.02   2
   5   7  -8    4.56    0.80   2
   5  -7  -8    4.05    0.78   2
  -5   7   8    4.29    0.87   4
  -5  -7   8    3.36    0.82   4
  -4  -7   8    0.33    0.60   4
   4   7  -8    0.04    0.60   2
  -4   7   8   -0.24    0.66   4
   4  -7  -8    0.76    0.61   2
   3   7  -8   54.54    1.93   2
  -3   7   8   52.70    1.90   4
   3  -7  -8   53.25    1.93   2
  -3  -7   8   53.14    1.92   4
   2  -7  -8   51.64    1.92   2
   2   7  -8   51.86    1.87   2
  -2  -7   8   54.85    2.01   4
  -2   7   8   56.54    1.97   4
   1   7  -8   60.68    2.04   2
  -1   7   8   58.45    2.01   4
   1  -7  -8   59.14    2.07   2
  -1  -7   8   58.12    2.06   4
  -4   8   8   19.98    1.34   4
   4  -8  -8   19.28    1.19   2
   4   8  -8   18.78    1.33   2
  -4  -8   8   19.51    1.26   4
  -3  -8   8   -0.26    0.58   4
   3   8  -8   -0.24    0.61   2
  -3   8   8    0.70    0.65   4
   3  -8  -8    0.49    0.63   2
  -2   8   8    4.01    0.80   4
  -2  -8   8    2.97    0.77   4
   2   8  -8    3.58    0.77   2
   2  -8  -8    2.89    0.75   2
  -1  -8   8   15.61    1.21   4
   1  -8  -8   16.42    1.21   2
  -1   8   8   15.43    1.19   4
   1   8  -8   16.32    1.22   2
   4  -9  -8    0.69    0.61   2
   4   9  -8    0.69    0.66   2
  -4  -9   8    0.94    0.65   4
  -4   9   8    0.92    0.71   4
   3   9  -8   11.06    1.05   2
  -3  -9   8   12.50    1.13   4
  -3   9   8   11.82    1.10   4
   3  -9  -8   13.04    1.14   2
  -2  -9   8   25.09    1.40   4
  -2   9   8   25.41    1.42   4
   2   9  -8   25.40    1.40   2
   2  -9  -8   24.21    1.39   2
   1   9  -8   36.09    1.59   2
  -1   9   8   38.62    1.64   4
  -1  -9   8   34.14    1.66   4
   1  -9  -8   36.62    1.66   2
  -3 -10   8    3.30    0.82   4
  -3  10   8    2.66    0.76   4
   3 -10  -8    2.85    0.72   2
   3  10  -8    2.53    0.74   2
   2  10  -8   -0.39    0.65   2
   2 -10  -8   -0.31    0.58   2
  -2 -10   8   -0.01    0.61   4
  -2  10   8    0.47    0.67   4
   0   0   0    0.00    0.00   0
;
_shelx_hkl_checksum              9835
_olex2_submission_special_instructions 'No special instructions were received'
#END Tags that were not found in dictionaries
loop_
_space_group_symop_operation_xyz
'x, y, z'
'-x+1/2, y+1/2, -z+1/2'
'-x, -y, -z'
'x-1/2, -y-1/2, z-1/2'
loop_
_atom_site_label
_atom_site_type_symbol
_atom_site_fract_x
_atom_site_fract_y
_atom_site_fract_z
_atom_site_U_iso_or_equiv
_atom_site_adp_type
_atom_site_occupancy
_atom_site_site_symmetry_order
_atom_site_calc_flag
_atom_site_refinement_flags_posn
_atom_site_refinement_flags_occupancy
_atom_site_disorder_assembly
_atom_site_disorder_group
C1 C 0.5444(3) 0.41017(7) 0.1996(2) 0.0266(3) Uani 0.740(4) 1 d . P A 1
C2 C 0.4371(4) 0.40259(12) 0.3642(3) 0.0311(4) Uani 0.740(4) 1 d . P A 1
H2 H 0.2998 0.4349 0.3605 0.037 Uiso 0.740(4) 1 calc R P A 1
C3 C 0.5302(8) 0.3480(2) 0.5335(8) 0.0316(8) Uani 0.740(4) 1 d . P A 1
H3 H 0.4626 0.3443 0.6502 0.038 Uiso 0.740(4) 1 calc R P A 1
C4 C 0.7205(9) 0.2992(3) 0.5320(8) 0.0441(12) Uani 0.740(4) 1 d . P A 1
H4 H 0.7745 0.2589 0.6408 0.053 Uiso 0.740(4) 1 calc R P A 1
C5 C 0.8331(8) 0.3077(2) 0.3774(7) 0.0415(10) Uani 0.740(4) 1 d . P A 1
H5 H 0.9735 0.2759 0.3868 0.050 Uiso 0.740(4) 1 calc R P A 1
C6 C 0.7460(4) 0.36198(10) 0.2059(3) 0.0309(3) Uani 0.740(4) 1 d . P A 1
H6 H 0.8215 0.3665 0.0948 0.037 Uiso 0.740(4) 1 calc R P A 1
C7 C 0.4435(2) 0.46788(6) 0.01583(18) 0.0264(3) Uani 0.740(4) 1 d . P A 1
Cl1 Cl 0.14427(13) 0.44514(5) -0.17924(13) 0.0281(2) Uani 0.740(4) 1 d . P A 1
C1' C 0.6306(9) 0.4201(2) 0.2340(7) 0.0254(9) Uiso 0.260(4) 1 d . P A 2
C2' C 0.4919(12) 0.4128(4) 0.3733(12) 0.0336(16) Uiso 0.260(4) 1 d . P A 2
H2' H 0.3708 0.4511 0.3714 0.040 Uiso 0.260(4) 1 calc R P A 2
C3' C 0.531(3) 0.3493(9) 0.515(3) 0.050(4) Uiso 0.260(4) 1 d . P A 2
H3' H 0.4198 0.3410 0.5954 0.060 Uiso 0.260(4) 1 calc R P A 2
C4' C 0.7312(18) 0.2966(5) 0.5440(17) 0.0196(17) Uiso 0.260(4) 1 d . P A 2
H4' H 0.7823 0.2599 0.6635 0.024 Uiso 0.260(4) 1 calc R P A 2
C5' C 0.8528(18) 0.3022(5) 0.3806(14) 0.0186(14) Uiso 0.260(4) 1 d . P A 2
H5' H 0.9631 0.2622 0.3691 0.022 Uiso 0.260(4) 1 calc R P A 2
C6' C 0.8087(11) 0.3653(4) 0.2427(10) 0.0320(14) Uiso 0.260(4) 1 d . P A 2
H6' H 0.9054 0.3715 0.1486 0.038 Uiso 0.260(4) 1 calc R P A 2
C7' C 0.5982(6) 0.49048(19) 0.0896(5) 0.0270(10) Uiso 0.260(4) 1 d . P A 2
Cl1' Cl 0.8543(7) 0.5548(2) 0.1799(7) 0.0617(17) Uiso 0.260(4) 1 d . P A 2
loop_
_atom_site_aniso_label
_atom_site_aniso_U_11
_atom_site_aniso_U_22
_atom_site_aniso_U_33
_atom_site_aniso_U_23
_atom_site_aniso_U_13
_atom_site_aniso_U_12
C1 0.0243(7) 0.0250(5) 0.0288(6) -0.0009(4) 0.0075(5) -0.0015(5)
C2 0.0306(9) 0.0309(7) 0.0342(7) 0.0009(5) 0.0147(6) 0.0034(7)
C3 0.0347(11) 0.0341(11) 0.0281(9) 0.0041(5) 0.0140(7) 0.0002(4)
C4 0.0449(15) 0.0391(13) 0.0406(15) 0.0116(7) 0.0060(8) 0.0031(6)
C5 0.0327(13) 0.0369(13) 0.0506(13) -0.0008(7) 0.0096(7) 0.0093(7)
C6 0.0295(8) 0.0320(7) 0.0316(8) -0.0020(5) 0.0113(7) -0.0001(6)
C7 0.0229(5) 0.0284(6) 0.0260(5) -0.0018(4) 0.0065(4) -0.0004(4)
Cl1 0.0197(2) 0.0291(2) 0.0290(2) -0.00063(9) 0.00087(11) -0.00693(9)
loop_
_atom_type_symbol
_atom_type_description
_atom_type_scat_dispersion_real
_atom_type_scat_dispersion_imag
_atom_type_scat_source
C C 0.0033 0.0016 'International Tables Vol C Tables 4.2.6.8 and 6.1.1.4'
H H 0.0000 0.0000 'International Tables Vol C Tables 4.2.6.8 and 6.1.1.4'
Cl Cl 0.1484 0.1585 'International Tables Vol C Tables 4.2.6.8 and 6.1.1.4'
loop_
_geom_angle_atom_site_label_1
_geom_angle_atom_site_label_2
_geom_angle_atom_site_label_3
_geom_angle
_geom_angle_site_symmetry_1
C2 C1 C6 119.61(13) .
C2 C1 C7 120.34(13) .
C6 C1 C7 120.05(12) .
C1 C2 H2 120.0 .
C3 C2 C1 120.0(2) .
C3 C2 H2 120.0 .
C2 C3 H3 120.2 .
C4 C3 C2 119.6(3) .
C4 C3 H3 120.2 .
C3 C4 H4 119.5 .
C5 C4 C3 121.0(4) .
C5 C4 H4 119.5 .
C4 C5 H5 119.5 .
C4 C5 C6 120.9(3) .
C6 C5 H5 119.5 .
C1 C6 H6 120.7 .
C5 C6 C1 118.7(2) .
C5 C6 H6 120.7 .
C1 C7 Cl1 114.23(10) .
C7 C7 C1 127.28(14) 3_665
C7 C7 Cl1 118.48(12) 3_665
C2' C1' C7' 119.6(4) .
C6' C1' C2' 119.4(5) .
C6' C1' C7' 120.9(4) .
C1' C2' H2' 120.2 .
C1' C2' C3' 119.6(8) .
C3' C2' H2' 120.2 .
C2' C3' H3' 119.2 .
C2' C3' C4' 121.6(11) .
C4' C3' H3' 119.2 .
C3' C4' H4' 122.2 .
C3' C4' C5' 115.7(9) .
C5' C4' H4' 122.2 .
C4' C5' H5' 120.3 .
C6' C5' C4' 119.5(8) .
C6' C5' H5' 120.3 .
C1' C6' H6' 118.6 .
C5' C6' C1' 122.7(6) .
C5' C6' H6' 118.6 .
C1' C7' Cl1' 114.0(3) .
C7' C7' C1' 127.9(4) 3_665
C7' C7' Cl1' 118.1(4) 3_665
loop_
_geom_bond_atom_site_label_1
_geom_bond_atom_site_label_2
_geom_bond_distance
_geom_bond_site_symmetry_2
C1 C2 1.390(2) .
C1 C6 1.401(2) .
C1 C7 1.4830(16) .
C2 H2 0.9500 .
C2 C3 1.383(3) .
C3 H3 0.9500 .
C3 C4 1.370(4) .
C4 H4 0.9500 .
C4 C5 1.356(5) .
C5 H5 0.9500 .
C5 C6 1.386(4) .
C6 H6 0.9500 .
C7 C7 1.330(2) 3_665
C7 Cl1 1.7494(12) .
C1' C2' 1.383(7) .
C1' C6' 1.368(7) .
C1' C7' 1.491(5) .
C2' H2' 0.9500 .
C2' C3' 1.384(12) .
C3' H3' 0.9500 .
C3' C4' 1.415(13) .
C4' H4' 0.9500 .
C4' C5' 1.439(9) .
C5' H5' 0.9500 .
C5' C6' 1.361(9) .
C6' H6' 0.9500 .
C7' C7' 1.317(6) 3_665
C7' Cl1' 1.751(5) .
loop_
_geom_torsion_atom_site_label_1
_geom_torsion_atom_site_label_2
_geom_torsion_atom_site_label_3
_geom_torsion_atom_site_label_4
_geom_torsion
_geom_torsion_site_symmetry_4
C1 C2 C3 C4 -2.9(6) .
C2 C1 C6 C5 0.1(3) .
C2 C1 C7 C7 111.3(2) 3_665
C2 C1 C7 Cl1 -69.96(17) .
C2 C3 C4 C5 5.3(8) .
C3 C4 C5 C6 -5.0(8) .
C4 C5 C6 C1 2.2(6) .
C6 C1 C2 C3 0.3(4) .
C6 C1 C7 C7 -69.8(2) 3_665
C6 C1 C7 Cl1 108.93(15) .
C7 C1 C2 C3 179.2(3) .
C7 C1 C6 C5 -178.8(3) .
C1' C2' C3' C4' 8(2) .
C2' C1' C6' C5' 1.4(9) .
C2' C1' C7' C7' -70.8(7) 3_665
C2' C1' C7' Cl1' 107.7(5) .
C2' C3' C4' C5' -14(2) .
C3' C4' C5' C6' 13.4(15) .
C4' C5' C6' C1' -7.6(12) .
C6' C1' C2' C3' -1.5(12) .
C6' C1' C7' C7' 113.9(6) 3_665
C6' C1' C7' Cl1' -67.6(5) .
C7' C1' C2' C3' -176.9(11) .
C7' C1' C6' C5' 176.7(6) .
