#------------------------------------------------------------------------------
#$Date: 2016-03-24 14:36:54 +0200 (Thu, 24 Mar 2016) $
#$Revision: 179669 $
#$URL: svn://www.crystallography.net/cod/cif/4/51/22/4512284.cif $
#------------------------------------------------------------------------------
#
# This file is available in the Crystallography Open Database (COD),
# http://www.crystallography.net/
#
# All data on this site have been placed in the public domain by the
# contributors.
#
data_4512284
loop_
_publ_author_name
'Hain, Malia S.'
'Fukuda, Yoko'
'Rojas Ram\'irez, Carolina'
'Winer, Benjamin Y.'
'Winslow, Stephanie E.'
'Pike, Robert D.'
'Bebout, Deborah C.'
_publ_section_title
;
 Staging Bonding between Group 12 Metal Ions and Neutral Selenium Donors:
 Intermolecular Interactions of Mixed N,Se Donor Ligands and Anions
;
_journal_issue                   12
_journal_name_full               'Crystal Growth &amp; Design'
_journal_page_first              6497
_journal_paper_doi               10.1021/cg501395p
_journal_volume                  14
_journal_year                    2014
_chemical_formula_moiety
'0.854(C12 H12 Cd N4 O6 Se1), 0.146(C12 H12 Cd N4 O6 Se2)'
_chemical_formula_sum            'C12 H12 Cd N4 O6 Se1.14'
_chemical_formula_weight         511.06
_chemical_name_systematic
;
bis(nitrato-O,O')-(bis(2-pyridylmethyl)selenide-N,N',Se)-cadmium(ii)
bis(nitrato-O,O')-(1,2-bis(2-pyridylmethyl)diselane-N,N',Se)-cadmium(ii)
;
_space_group_crystal_system      triclinic
_space_group_IT_number           2
_space_group_name_Hall           '-P 1'
_space_group_name_H-M_alt        'P -1'
_symmetry_space_group_name_Hall  '-P 1'
_symmetry_space_group_name_H-M   'P -1'
_atom_sites_solution_hydrogens   geom
_audit_creation_method           SHELXL-2014/5
_cell_angle_alpha                80.8446(9)
_cell_angle_beta                 80.0131(9)
_cell_angle_gamma                66.1735(8)
_cell_formula_units_Z            2
_cell_length_a                   8.0371(2)
_cell_length_b                   8.4838(2)
_cell_length_c                   12.9112(3)
_cell_measurement_reflns_used    9992
_cell_measurement_temperature    100(2)
_cell_measurement_theta_max      71.90
_cell_measurement_theta_min      3.49
_cell_volume                     789.24(3)
_computing_cell_refinement       'SAINTPLUS (Bruker AXS, 2004)'
_computing_data_collection       'APEX2 (Bruker AXS, 2004)'
_computing_data_reduction        SAINTPLUS
_computing_molecular_graphics    'SHELXLE (Hubschle, 2011)'
_computing_publication_material  'Mercury 3.3 (CCDC, 2014)'
_computing_structure_refinement  'SHELXL-2014/5 (Sheldrick, 2014)'
_computing_structure_solution    'SHELXS97 (Sheldrick, 1997)'
_diffrn_ambient_temperature      100(2)
_diffrn_measured_fraction_theta_full 0.957
_diffrn_measured_fraction_theta_max 0.969
_diffrn_measurement_device_type  'Bruker SMART APEX II CCD'
_diffrn_measurement_method       '\w and \y'
_diffrn_radiation_monochromator  graphite
_diffrn_radiation_type           CuK\a
_diffrn_radiation_wavelength     1.54178
_diffrn_reflns_av_R_equivalents  0.0343
_diffrn_reflns_av_unetI/netI     0.0303
_diffrn_reflns_Laue_measured_fraction_full 0.957
_diffrn_reflns_Laue_measured_fraction_max 0.969
_diffrn_reflns_limit_h_max       9
_diffrn_reflns_limit_h_min       -9
_diffrn_reflns_limit_k_max       10
_diffrn_reflns_limit_k_min       -9
_diffrn_reflns_limit_l_max       15
_diffrn_reflns_limit_l_min       -15
_diffrn_reflns_number            13557
_diffrn_reflns_point_group_measured_fraction_full 0.957
_diffrn_reflns_point_group_measured_fraction_max 0.969
_diffrn_reflns_theta_full        67.679
_diffrn_reflns_theta_max         66.996
_diffrn_reflns_theta_min         3.493
_exptl_absorpt_coefficient_mu    14.476
_exptl_absorpt_correction_T_max  0.5158
_exptl_absorpt_correction_T_min  0.1289
_exptl_absorpt_correction_type   numerical
_exptl_absorpt_process_details   'SADABS (Sheldrick, 2004)'
_exptl_crystal_colour            colourless
_exptl_crystal_density_diffrn    2.151
_exptl_crystal_description       plate
_exptl_crystal_F_000             494
_exptl_crystal_size_max          0.332
_exptl_crystal_size_mid          0.188
_exptl_crystal_size_min          0.094
_refine_diff_density_max         1.105
_refine_diff_density_min         -0.990
_refine_diff_density_rms         0.122
_refine_ls_extinction_method     none
_refine_ls_goodness_of_fit_ref   1.085
_refine_ls_hydrogen_treatment    constr
_refine_ls_matrix_type           full
_refine_ls_number_parameters     281
_refine_ls_number_reflns         2734
_refine_ls_number_restraints     19
_refine_ls_restrained_S_all      1.081
_refine_ls_R_factor_all          0.0362
_refine_ls_R_factor_gt           0.0359
_refine_ls_shift/su_max          0.000
_refine_ls_shift/su_mean         0.000
_refine_ls_structure_factor_coef Fsqd
_refine_ls_weighting_details
'w=1/[\s^2^(Fo^2^)+8.1588P] where P=(Fo^2^+2Fc^2^)/3'
_refine_ls_weighting_scheme      calc
_refine_ls_wR_factor_gt          0.0914
_refine_ls_wR_factor_ref         0.0915
_reflns_Friedel_coverage         0.000
_reflns_number_gt                2706
_reflns_number_total             2734
_reflns_threshold_expression     'I > 2\s(I)'
_cod_data_source_file            cg501395p_si_002.cif
_cod_data_source_block           P1bar_Compound_4b+5b
_cod_depositor_comments
'Adding full bibliography for 4512278--4512284.cif.'
_cod_database_code               4512284
#BEGIN Tags that were not found in dictionaries:
_shelx_space_group_comment
;
The symmetry employed for this shelxl refinement is uniquely defined
by the following loop, which should always be used as a source of
symmetry information in preference to the above space-group names.
They are only intended as comments.
;
_shelx_estimated_absorpt_t_min   0.086
_shelx_estimated_absorpt_t_max   0.343
_shelxl_version_number           2014/5
_shelx_res_file
;
TITL P1bar in P-1
CELL 1.54178   8.03710   8.48380  12.91120  80.8446  80.0131  66.1735
ZERR    2.00   0.00020   0.00020   0.00030   0.0009   0.0009   0.0008
LATT  1
SFAC C H N O SE CD
UNIT 24 24 8 12 2.29 2
LIST 4
TEMP -173.000
SIZE 0.094 0.188 0.332

L.S. 40
BOND $H
CONF
ACTA
OMIT -2 134
OMIT -4 -1 6
OMIT -6 -3 1
OMIT 2 1 8
OMIT 6 4 0
OMIT -5 -2 3

FMAP 2
PLAN 5
EADP Cd1A Cd1B
EADP O1A O1B
EADP O2A O2B
EADP O3A O3B
EADP O4A O4B
EADP O5A O5B
EADP O6A O6B
EADP N1A N1B
EADP N2A N2B
EADP N3A N3B
EADP N4A N4B
EADP C1A C1B
EADP C2A C2B
EADP C3A C3B
EADP C4A C4B
EADP C5A C5B
EADP C6A C6B
EADP C7A C7B
EADP C8A C8B
EADP C9A C9B
EADP C10A C10B
EADP C11A C11B
EADP C12A C12B
FLAT N1B C4B C5B C6B
FLAT N2B C7B C8B C9B
DFIX 1.9 C6B Se2
DFIX 1.9 C7B Se3
DFIX 1.5 C5B C6B
DFIX 1.5 C7B C8B
DFIX 2.45 Cd1B O5B

WGHT    0.000000    8.158801
FVAR       0.15797   0.85599
MOLE   1
PART 1
CD1A  6    0.301474    0.326214    0.241999    21.00000    0.01262    0.01214 =
         0.02438   -0.00398   -0.00845   -0.00301
SE1   5    0.689096    0.200842    0.175515    21.00000    0.01630    0.01798 =
         0.02364   -0.00304   -0.00436   -0.00695
O1A   4    0.363134    0.136843    0.417021    21.00000    0.01634    0.02180 =
         0.02600   -0.00423   -0.00431   -0.00440
O2A   4    0.085101    0.296903    0.386014    21.00000    0.01594    0.02972 =
         0.03220   -0.00080   -0.01254   -0.01005
O3A   4    0.138496    0.143164    0.538791    21.00000    0.02168    0.03539 =
         0.02948    0.00330    0.00142   -0.00741
O4A   4    0.263027    0.486270    0.065254    21.00000    0.01709    0.01376 =
         0.03665    0.00068   -0.00753    0.00309
O5A   4    0.031695    0.535155    0.187882    21.00000    0.02303    0.02580 =
         0.02723   -0.00270   -0.00240   -0.00096
O6A   4   -0.004286    0.682664    0.033524    21.00000    0.02049    0.02125 =
         0.04451    0.01226   -0.01316    0.00351
N1A   3    0.393030    0.491641    0.321064    21.00000    0.01970    0.01726 =
         0.02280   -0.00383   -0.00834   -0.00742
N2A   3    0.359173    0.077064    0.176898    21.00000    0.01958    0.01556 =
         0.02230   -0.00229   -0.00520   -0.00675
N3A   3    0.193933    0.188882    0.449368    21.00000    0.01233    0.01763 =
         0.03112   -0.00481   -0.00871   -0.00643
N4A   3    0.093799    0.570528    0.093100    21.00000    0.02178    0.01077 =
         0.03425   -0.00202   -0.00712   -0.00464
C1A   1    0.270071    0.643893    0.350753    21.00000    0.01985    0.01728 =
         0.02109   -0.00205   -0.00410   -0.00766
AFIX  43
H1A   2    0.145765    0.676132    0.340727    21.00000   -1.20000
AFIX   0
C2A   1    0.315594    0.756437    0.395343    21.00000    0.02385    0.01722 =
         0.02368   -0.00159   -0.00652   -0.00843
AFIX  43
H2A   2    0.224471    0.862431    0.417317    21.00000   -1.20000
AFIX   0
C3A   1    0.496077    0.710819    0.406994    21.00000    0.03522    0.01899 =
         0.02083   -0.00333   -0.00709   -0.01603
AFIX  43
H3A   2    0.532746    0.787270    0.434863    21.00000   -1.20000
AFIX   0
C4A   1    0.623821    0.553315    0.377987    21.00000    0.02855    0.01993 =
         0.02210   -0.00152   -0.00953   -0.01256
AFIX  43
H4A   2    0.748867    0.519664    0.386879    21.00000   -1.20000
AFIX   0
C5A   1    0.568731    0.443373    0.335472    21.00000    0.02288    0.01584 =
         0.02116    0.00125   -0.00843   -0.01003
C6A   1    0.704168    0.261940    0.314446    21.00000    0.01843    0.01336 =
         0.03562   -0.00573   -0.01134   -0.00421
AFIX  23
H6AA  2    0.679359    0.177713    0.370866    21.00000   -1.20000
H6AB  2    0.829932    0.253720    0.316721    21.00000   -1.20000
AFIX   0
C7A   1    0.675578   -0.027932    0.217666    21.00000    0.01996    0.01291 =
         0.03188   -0.00445   -0.00732   -0.00167
AFIX  23
H7AA  2    0.795396   -0.118985    0.195441    21.00000   -1.20000
H7AB  2    0.651842   -0.044389    0.295661    21.00000   -1.20000
AFIX   0
C8A   1    0.526703   -0.049612    0.169845    21.00000    0.02243    0.01968 =
         0.01813   -0.00123   -0.00525   -0.00699
C9A   1    0.560846   -0.198048    0.124008    21.00000    0.03061    0.01308 =
         0.02083   -0.00299   -0.00201   -0.00323
AFIX  43
H9A   2    0.680901   -0.285547    0.117149    21.00000   -1.20000
AFIX   0
C10A  1    0.417773   -0.217985    0.088060    21.00000    0.03559    0.02494 =
         0.02072   -0.00811   -0.00107   -0.01482
AFIX  43
H10A  2    0.439142   -0.320621    0.057955    21.00000   -1.20000
AFIX   0
C11A  1    0.246409   -0.089753    0.096094    21.00000    0.03267    0.03408 =
         0.01907   -0.00420   -0.00946   -0.01411
AFIX  43
H11A  2    0.146791   -0.100220    0.071650    21.00000   -1.20000
AFIX   0
C12A  1    0.223922    0.056159    0.141356    21.00000    0.02355    0.02431 =
         0.02079   -0.00253   -0.00871   -0.00934
AFIX  43
H12A  2    0.105503    0.146386    0.147414    21.00000   -1.20000
AFIX   0
PART 2
CD1B  6    0.330132    0.312378    0.253225   -21.00000    0.01262    0.01214 =
         0.02438   -0.00398   -0.00845   -0.00301
SE2   5    0.701608    0.282716    0.180307   -21.00000    0.02092    0.01900 =
         0.03765   -0.00307   -0.00139   -0.01127
SE3   5    0.855602   -0.013913    0.177013   -21.00000    0.01870    0.02498 =
         0.04511   -0.00755    0.00416   -0.01094
SAME N3A O1A O2A O3A
N3B   3    0.227277    0.189765    0.451643   -21.00000    0.01233    0.01763 =
         0.03112   -0.00481   -0.00871   -0.00643
O1B   4    0.385446    0.128956    0.401092   -21.00000    0.01634    0.02180 =
         0.02600   -0.00423   -0.00431   -0.00440
O2B   4    0.102857    0.309302    0.401786   -21.00000    0.01594    0.02972 =
         0.03220   -0.00080   -0.01254   -0.01005
O3B   4    0.189489    0.117582    0.537239   -21.00000    0.02168    0.03539 =
         0.02948    0.00330    0.00142   -0.00741
SAME N4A O4A O5A O6A
N4B   3    0.119791    0.541431    0.094325   -21.00000    0.02178    0.01077 =
         0.03425   -0.00202   -0.00712   -0.00464
O4B   4    0.288985    0.447614    0.074833   -21.00000    0.01709    0.01376 =
         0.03665    0.00068   -0.00753    0.00309
O5B   4    0.041963    0.503045    0.184033   -21.00000    0.02303    0.02580 =
         0.02723   -0.00270   -0.00240   -0.00096
O6B   4    0.034592    0.652337    0.029209   -21.00000    0.02049    0.02125 =
         0.04451    0.01226   -0.01316    0.00351
AFIX  66
N1B   3    0.385721    0.497962    0.338524   -21.00000    0.01970    0.01726 =
         0.02280   -0.00383   -0.00834   -0.00742
C1B   1    0.236225    0.647849    0.364195   -21.00000    0.01985    0.01728 =
         0.02109   -0.00205   -0.00410   -0.00766
AFIX  43
H1B   2    0.117586    0.664167    0.350641   -21.00000   -1.20000
AFIX  65
C2B   1    0.260315    0.773861    0.409698   -21.00000    0.02385    0.01722 =
         0.02368   -0.00159   -0.00652   -0.00843
AFIX  43
H2B   2    0.158141    0.876302    0.427243   -21.00000   -1.20000
AFIX  65
C3B   1    0.433902    0.749987    0.429530   -21.00000    0.03522    0.01899 =
         0.02083   -0.00333   -0.00709   -0.01603
AFIX  43
H3B   2    0.450366    0.836111    0.460629   -21.00000   -1.20000
AFIX  65
C4B   1    0.583400    0.600100    0.403859   -21.00000    0.02855    0.01993 =
         0.02210   -0.00152   -0.00953   -0.01256
AFIX  43
H4B   2    0.702038    0.583783    0.417414   -21.00000   -1.20000
AFIX  65
C5B   1    0.559312    0.474087    0.358356   -21.00000    0.02288    0.01584 =
         0.02116    0.00125   -0.00843   -0.01003
AFIX   0
C6B   1    0.697841    0.305124    0.324908   -21.00000    0.01843    0.01336 =
         0.03562   -0.00573   -0.01134   -0.00421
AFIX  23
H6BA  2    0.670492    0.209904    0.369134   -21.00000   -1.20000
H6BB  2    0.820690    0.293705    0.337012   -21.00000   -1.20000
AFIX   0
C7B   1    0.664641   -0.079044    0.249810   -21.00000    0.01996    0.01291 =
         0.03188   -0.00445   -0.00732   -0.00167
AFIX  23
H7BA  2    0.720830   -0.198015    0.284372   -21.00000   -1.20000
H7BB  2    0.601189   -0.001899    0.306636   -21.00000   -1.20000
AFIX  66
N2B   3    0.354946    0.062946    0.181263   -21.00000    0.01958    0.01556 =
         0.02230   -0.00229   -0.00520   -0.00675
C8B   1    0.522731   -0.075589    0.187115   -21.00000    0.02243    0.01968 =
         0.01813   -0.00123   -0.00525   -0.00699
C9B   1    0.564969   -0.218634    0.132943   -21.00000    0.03061    0.01308 =
         0.02083   -0.00299   -0.00201   -0.00323
AFIX  43
H9B   2    0.679643   -0.313316    0.136944   -21.00000   -1.20000
AFIX  65
C10B  1    0.439423   -0.223145    0.072919   -21.00000    0.03559    0.02494 =
         0.02072   -0.00811   -0.00107   -0.01482
AFIX  43
H10B  2    0.468291   -0.320911    0.035895   -21.00000   -1.20000
AFIX  65
C11B  1    0.271637   -0.084612    0.067065   -21.00000    0.03267    0.03408 =
         0.01907   -0.00420   -0.00946   -0.01411
AFIX  43
H11B  2    0.185833   -0.087696    0.026041   -21.00000   -1.20000
AFIX  65
C12B  1    0.229397    0.058434    0.121236   -21.00000    0.02355    0.02431 =
         0.02079   -0.00253   -0.00871   -0.00934
AFIX  43
H12B  2    0.114723    0.153116    0.117236   -21.00000   -1.20000
PART 0
AFIX   0
HKLF 4

REM  P1bar in P-1
REM R1 =  0.0359 for    2706 Fo > 4sig(Fo)  and  0.0362 for all    2734 data
REM    281 parameters refined using     19 restraints

END

WGHT      0.0000      5.4992

REM Highest difference peak  1.105,  deepest hole -0.990,  1-sigma level  0.122
Q1    1   0.3715  0.2907  0.1777  11.00000  0.05    1.11
Q2    1   0.2342  0.3544  0.3116  11.00000  0.05    0.99
Q3    1   0.6211  0.2373  0.2417  11.00000  0.05    0.68
Q4    1   0.3110  0.4358  0.2025  11.00000  0.05    0.61
Q5    1   0.3179  0.1806  0.2920  11.00000  0.05    0.59
;
_shelx_res_checksum              18763
_shelx_hkl_file
;
  -1   0   0  184.55    9.38
  -1   0   0  181.03   10.35
   1   0   0  184.34    9.53
   1   0   0  195.75   10.36
  -2   0   0  336.94   20.05
  -2   0   0  335.38   19.71
  -2   0   0  332.16   16.95
  -2   0   0  344.87   18.71
   2   0   0  348.57   18.73
   2   0   0  328.39   17.22
  -3   0   0  384.62   23.77
  -3   0   0  409.87   22.51
  -3   0   0  426.73   24.12
  -3   0   0  404.91   20.39
   3   0   0  402.84   20.71
  -4   0   0    3.87    0.74
  -4   0   0    2.61    0.32
  -4   0   0    3.02    0.37
   4   0   0    2.39    0.24
  -5   0   0  200.50   11.43
  -5   0   0  180.79   11.21
  -5   0   0  179.32    8.53
  -5   0   0  190.41   11.50
  -6   0   0   34.33    1.70
  -6   0   0   38.50    1.36
  -6   0   0   34.81    1.71
  -6   0   0   37.31    1.81
  -6   0   0   35.46    1.38
  -6   0   0   36.85    1.58
  -6   0   0   35.05    1.54
  -6   0   0   38.90    3.04
  -6   0   0   35.65    1.69
   6   0   0   42.41    2.71
  -7   0   0   41.63    1.51
  -7   0   0   40.39    1.77
  -7   0   0   40.75    1.88
  -7   0   0   40.05    1.73
  -7   0   0   44.95    2.04
  -7   0   0   39.46    1.91
   7   0   0   40.14    3.01
  -8   0   0   46.25    2.01
  -8   0   0   47.28    1.93
  -8   0   0   45.24    1.84
  -8   0   0   43.54    2.22
   8  -1   0    1.13    0.63
  -8   1   0    1.45    0.22
  -8   1   0    1.90    0.29
  -8   1   0    1.65    0.21
  -8   1   0    1.48    0.25
   7  -1   0    4.13    0.90
  -7   1   0    4.37    0.41
  -7   1   0    3.92    0.38
  -7   1   0    3.71    0.31
  -7   1   0    4.02    0.27
  -7   1   0    3.17    0.35
  -7   1   0    3.39    0.28
  -7   1   0    2.52    0.34
  -7   1   0    3.82    0.43
  -7   1   0    4.31    0.39
   6  -1   0    4.15    0.81
  -6   1   0    4.29    0.44
  -6   1   0    4.04    0.38
  -6   1   0    4.03    0.32
  -6   1   0    4.01    0.33
  -6   1   0    4.79    0.43
  -6   1   0    4.23    0.41
  -6   1   0    5.05    0.45
  -6   1   0    3.92    0.29
  -6   1   0    4.05    0.40
  -5   1   0    2.07    0.27
  -5   1   0    2.05    0.40
  -5   1   0    1.32    0.19
  -5   1   0    1.35    0.20
  -5   1   0    2.09    0.61
  -4   1   0    6.31    0.40
  -4   1   0    5.98    0.60
  -4   1   0    6.63    0.80
   3  -1   0   23.19    1.30
  -3   1   0   24.80    1.73
  -3   1   0   25.23    1.45
  -3   1   0   24.33    1.49
   2  -1   0    3.90    0.26
  -2   1   0    3.79    0.28
  -2   1   0    3.97    0.29
  -2   1   0    3.83    0.45
   1  -1   0    9.70    0.55
   1  -1   0    9.72    0.62
  -1   1   0   10.35    0.67
  -1   1   0    9.63    0.61
   0  -1   0   24.77    1.39
   0   1   0   25.27    1.39
   0   1   0   22.20    1.28
  -1  -1   0   51.63    2.91
  -1  -1   0   49.56    2.55
   1   1   0   49.58    2.60
   1   1   0   51.36    2.93
  -2  -1   0   13.31    0.74
  -2  -1   0   13.75    0.84
  -2  -1   0   12.86    1.04
   2   1   0   14.41    0.92
   2   1   0   13.30    0.88
   2   1   0   14.01    0.75
  -3  -1   0   80.58    5.05
  -3  -1   0   84.14    4.16
  -3  -1   0   69.72    4.59
  -3  -1   0   89.04    5.08
   3   1   0   85.12    4.23
   3   1   0   80.60    4.94
  -4  -1   0   17.14    0.96
  -4  -1   0   16.28    1.47
  -4  -1   0   17.66    1.28
   4   1   0   16.42    0.97
  -5  -1   0   18.79    1.35
  -5  -1   0   17.71    0.92
  -5  -1   0   17.49    1.06
   5   1   0   16.63    1.06
   5   1   0   20.06    1.40
  -6  -1   0    6.41    0.67
  -6  -1   0    7.48    0.51
   6   1   0    9.04    1.02
  -7  -1   0    9.46    0.63
  -7  -1   0    8.96    0.53
  -7  -1   0    8.44    0.58
  -7  -1   0    9.75    0.63
   7   1   0    8.06    1.17
   7   1   0    8.77    1.06
  -8  -1   0    3.29    0.33
  -8  -1   0    3.44    0.40
  -8  -1   0    4.31    0.35
  -8  -1   0    3.72    0.40
   8   1   0    2.76    0.83
   8   1   0    2.78    0.74
  -9  -1   0    4.47    0.35
  -8   2   0   16.18    0.69
  -8   2   0   16.61    0.73
   7  -2   0   47.02    3.79
  -7   2   0   57.30    2.33
  -7   2   0   57.70    1.97
  -7   2   0   59.92    2.24
  -7   2   0   56.33    2.23
  -7   2   0   55.34    2.36
  -7   2   0   55.40    2.71
  -7   2   0   57.12    2.01
  -7   2   0   59.80    2.27
   6  -2   0    2.48    0.73
  -6   2   0    3.31    0.37
  -6   2   0    2.86    0.25
  -6   2   0    2.54    0.35
  -6   2   0    2.69    0.29
  -6   2   0    3.01    0.31
  -6   2   0    2.11    0.18
  -6   2   0    3.10    0.35
  -6   2   0    2.78    0.25
  -6   2   0    2.51    0.51
  -6   2   0    2.53    0.31
  -5   2   0   87.73    3.61
  -5   2   0   93.05    3.66
  -5   2   0   95.21    3.68
  -5   2   0   91.06    5.80
  -5   2   0   93.08    5.80
  -5   2   0   90.90    3.22
  -5   2   0   95.10    3.80
  -5   2   0   91.52    3.54
  -5   2   0   90.21    4.00
  -5   2   0   90.65    3.15
  -5   2   0   92.77    4.29
  -4   2   0  152.61    8.37
  -4   2   0  154.82    6.23
  -4   2   0  149.66    9.47
  -4   2   0  162.70    9.34
  -4   2   0  153.16    7.06
  -3   2   0    4.73    0.55
  -3   2   0    4.13    0.51
  -2   2   0  252.10   14.77
  -2   2   0  252.53   14.06
  -1   2   0    7.06    0.49
   0   2   0  171.26    9.55
  -1  -2   0  138.16    7.07
  -1  -2   0  143.21    7.95
   1   2   0  141.18    7.19
   1   2   0  138.15    8.32
  -2  -2   0   -0.01    0.07
  -2  -2   0    0.36    0.31
   2   2   0    0.01    0.09
  -3  -2   0  358.51   19.56
  -3  -2   0  356.50   17.65
  -3  -2   0  305.40   21.01
   3   2   0  369.77   17.94
   3   2   0  363.23   20.84
  -4  -2   0   90.05    5.85
  -4  -2   0   95.41    4.76
   4   2   0   96.17    5.65
   4   2   0   89.42    4.83
  -5  -2   0  109.91    5.24
   5   2   0  103.56    5.32
   5   2   0   90.56    6.29
  -6  -2   0  151.26    7.40
  -6  -2   0  154.66    6.59
  -6  -2   0  162.82    8.94
   6   2   0  145.13    7.52
   6   2   0  125.80    7.85
   6   2   0  121.66    8.87
  -7  -2   0    0.76    0.17
  -7  -2   0    1.04    0.25
   7   2   0    0.53    0.54
   7   2   0    1.00    0.53
  -8  -2   0   88.80    4.21
  -8  -2   0   92.82    4.20
  -8  -2   0  102.17    4.45
  -9  -2   0   40.38    1.79
  -9  -2   0   38.76    1.82
  -7   3   0   14.23    0.68
  -7   3   0   15.11    0.65
  -7   3   0   15.14    0.57
  -7   3   0   15.36    0.67
  -7   3   0   15.74    0.58
  -7   3   0   14.58    0.72
   6  -3   0    3.86    0.78
  -6   3   0    3.51    0.25
  -6   3   0    4.08    0.40
  -6   3   0    4.35    0.60
  -6   3   0    4.34    0.37
  -6   3   0    3.55    0.31
  -6   3   0    3.04    0.33
  -6   3   0    3.81    0.30
  -6   3   0    3.15    0.39
  -6   3   0    3.96    0.26
  -5   3   0   72.73    2.49
  -5   3   0   73.29    3.43
  -5   3   0   69.82    2.87
  -5   3   0   71.77    4.60
  -5   3   0   76.77    2.99
  -5   3   0   72.16    2.94
  -5   3   0   69.10    2.54
  -5   3   0   70.89    2.87
  -5   3   0   72.45    2.83
  -4   3   0   26.46    1.13
  -4   3   0   25.62    1.83
  -4   3   0   24.72    1.11
  -4   3   0   25.54    1.61
  -4   3   0   25.17    1.81
  -4   3   0   25.32    1.31
  -3   3   0    7.63    0.68
  -3   3   0    6.54    0.45
  -3   3   0    7.12    0.38
  -3   3   0    7.02    0.70
  -3   3   0    7.35    0.64
  -2   3   0  108.43    6.72
  -2   3   0  118.73    6.50
  -2   3   0  100.42    6.19
  -1   3   0   49.02    2.85
   0  -3   0   10.12    0.68
   0   3   0   12.28    0.81
   0   3   0   13.16    0.83
  -1  -3   0   40.89    2.29
  -1  -3   0   45.40    2.71
   1   3   0   45.33    2.36
   1   3   0   45.50    2.64
  -2  -3   0   25.99    1.43
  -2  -3   0   25.48    1.78
   2   3   0   27.78    1.46
   2   3   0   27.40    1.65
  -3  -3   0   48.47    3.28
  -3  -3   0   54.71    2.82
   3   3   0   55.28    2.88
   3   3   0   58.30    3.32
  -4  -3   0    4.59    0.35
  -4  -3   0    4.29    0.51
   4   3   0    4.03    0.40
   4   3   0    4.34    0.36
  -5  -3   0   18.75    1.11
  -5  -3   0   18.00    1.62
   5   3   0   18.99    1.14
   5   3   0   19.83    1.34
  -6  -3   0   20.45    1.25
  -6  -3   0   18.59    1.75
   6   3   0   20.83    1.34
   6   3   0   22.04    1.53
  -7  -3   0    1.29    0.20
   7   3   0    1.16    0.51
   7   3   0    0.78    0.53
   8   3   0    4.23    0.73
   8   3   0    4.19    0.82
  -9  -3   0    0.93    0.19
  -9  -3   0    0.64    0.21
   9   3   0    0.23    0.45
  -6   4   0   38.08    1.49
  -6   4   0   35.52    1.55
  -6   4   0   37.33    1.29
  -6   4   0   39.06    1.32
  -6   4   0   37.46    1.48
  -6   4   0   36.58    1.49
  -6   4   0   35.11    1.54
  -5   4   0    5.23    0.44
  -5   4   0    4.90    0.25
  -5   4   0    3.47    0.56
  -5   4   0    4.43    0.30
  -5   4   0    4.70    0.48
  -5   4   0    4.01    0.37
  -5   4   0    4.11    0.29
  -5   4   0    4.60    0.25
  -5   4   0    4.23    0.41
  -4   4   0  120.74    4.65
  -4   4   0  123.93    4.85
  -4   4   0  114.73    4.16
  -4   4   0  124.29    4.05
  -4   4   0  124.57    7.46
  -4   4   0  116.33    5.58
  -4   4   0  117.92    4.78
  -4   4   0  116.05    4.67
  -4   4   0  124.51    6.59
  -4   4   0  119.66    4.59
  -3   4   0    7.09    0.72
  -3   4   0    7.31    0.38
  -3   4   0    6.95    0.31
  -3   4   0    6.94    0.66
  -3   4   0    7.90    0.66
  -2   4   0   44.29    2.52
  -2   4   0   43.80    2.72
  -2   4   0   43.67    1.80
  -2   4   0   44.01    2.85
  -1   4   0  125.44    7.73
  -1   4   0  146.54    8.34
   0   4   0   13.58    0.98
  -1  -4   0  248.26   12.77
  -1  -4   0  258.14   14.32
  -2  -4   0  116.38    5.98
  -2  -4   0  113.81    6.81
   2   4   0  121.19    6.11
  -3  -4   0   13.01    0.76
  -3  -4   0   10.73    1.03
   3   4   0   13.16    0.83
   3   4   0   11.85    0.62
   3   4   0   12.50    0.79
  -4  -4   0  182.50   12.12
  -4  -4   0  226.70   10.83
   4   4   0  216.29    8.80
   4   4   0  217.77   11.01
   4   4   0  219.93   12.72
  -5  -4   0    3.65    0.37
   5   4   0    3.94    0.41
   5   4   0    3.10    0.54
   5   4   0    1.98    0.52
   5   4   0    3.58    0.41
   6   4   0   35.95    2.61
   6   4   0   38.37    2.33
   7   4   0   29.77    1.92
   7   4   0   26.04    2.11
   8   4   0    1.77    0.53
   8   4   0    1.86    0.61
  -9  -4   0   45.53    2.09
  -6   5   0   10.35    0.46
  -6   5   0   10.67    0.39
  -5   5   0    4.82    0.23
  -5   5   0    4.90    0.23
  -5   5   0    4.97    0.37
  -5   5   0    4.46    0.27
  -5   5   0    4.55    0.35
  -5   5   0    4.53    0.25
  -4   5   0   40.55    1.68
  -4   5   0   39.63    1.67
  -4   5   0   40.13    1.44
  -4   5   0   39.97    1.68
  -4   5   0   43.79    2.36
  -4   5   0   39.43    1.62
  -4   5   0   41.60    1.41
  -4   5   0   40.07    2.65
  -3   5   0    6.54    0.65
  -3   5   0    5.99    0.32
  -3   5   0    6.36    0.58
  -3   5   0    6.05    0.33
  -3   5   0    6.05    0.49
  -2   5   0   16.13    0.58
  -2   5   0   16.39    1.20
  -2   5   0   16.34    0.70
  -2   5   0   15.10    0.66
  -2   5   0   14.48    1.08
  -2   5   0   16.54    1.07
  -1   5   0   39.48    2.44
  -1   5   0   38.31    2.28
  -1   5   0   39.10    2.58
  -1   5   0   41.43    1.63
   0   5   0   29.47    1.91
   0   5   0   27.68    1.17
   1   5   0   49.80    3.07
   1   5   0   45.94    1.94
  -2  -5   0    4.65    0.41
   2   5   0    4.71    0.46
   2   5   0    4.91    0.56
   2   5   0    5.37    0.28
  -3  -5   0   31.86    1.84
   3   5   0   33.38    2.26
   3   5   0   33.25    1.45
   3   5   0   34.26    1.91
   3   5   0   33.18    1.39
  -4  -5   0   19.77    1.21
   4   5   0   20.69    1.30
   4   5   0   19.96    0.90
   4   5   0   20.08    1.26
   4   5   0   19.34    1.53
  -5  -5   0    1.94    0.33
   5   5   0    1.49    0.50
   5   5   0    1.39    0.24
   5   5   0    1.63    0.44
   5   5   0    1.61    0.30
   5   5   0    1.66    0.35
  -6  -5   0   22.27    1.09
   6   5   0   18.81    1.72
   6   5   0   23.14    1.51
   6   5   0   19.14    1.53
   6   5   0   22.61    0.94
  -7  -5   0   14.39    0.75
   7   5   0   11.12    1.27
   7   5   0   12.65    1.15
  -8  -5   0    1.32    0.24
   8   5   0    0.65    0.44
   8   5   0    1.15    0.57
  -9  -5   0    7.56    0.50
  -5   6   0    4.94    0.20
  -4   6   0   14.06    0.52
  -4   6   0   13.80    0.51
  -4   6   0   13.71    0.60
  -4   6   0   14.58    0.66
  -3   6   0   49.69    3.24
  -3   6   0   50.17    2.07
  -3   6   0   50.70    1.78
  -3   6   0   51.76    1.99
  -3   6   0   50.79    2.05
  -3   6   0   52.82    2.87
  -2   6   0    2.33    0.39
  -2   6   0    2.59    0.36
  -2   6   0    2.59    0.17
  -2   6   0    2.53    0.15
  -2   6   0    2.51    0.17
  -1   6   0   39.50    1.61
  -1   6   0   42.44    1.40
  -1   6   0   42.72    1.85
  -1   6   0   42.52    1.68
  -1   6   0   41.24    2.37
  -1   6   0   40.30    2.68
  -1   6   0   38.84    2.49
   0   6   0   85.90    5.43
   0   6   0   91.56    3.51
   0   6   0   85.04    2.92
   0   6   0   86.59    4.79
   1   6   0   23.95    0.87
   1   6   0   25.03    1.52
   1   6   0   23.89    1.13
   1   6   0   26.40    1.05
   1   6   0   24.52    1.71
   2   6   0  136.74    5.45
   2   6   0  135.99    8.36
   2   6   0  134.55    4.55
   2   6   0  136.18    7.38
   3   6   0   23.06    0.85
   3   6   0   23.07    1.03
   3   6   0   23.74    1.11
   3   6   0   23.73    1.71
   3   6   0   23.82    1.51
  -4  -6   0   77.12    4.42
   4   6   0   80.54    4.56
   4   6   0   82.83    4.67
   4   6   0   83.10    5.30
   4   6   0   85.27    3.42
   4   6   0   86.99    3.49
   4   6   0   86.29    2.84
   4   6   0   83.09    3.50
  -5  -6   0   81.54    4.73
   5   6   0   88.98    3.03
   5   6   0   86.97    3.94
   5   6   0   90.53    5.01
   5   6   0   89.81    5.68
   5   6   0   92.32    3.48
   5   6   0   89.09    3.70
   5   6   0   89.38    3.10
   5   6   0   91.46    3.84
   5   6   0   89.51    3.76
   5   6   0   86.88    3.65
   6   6   0    2.48    0.32
   6   6   0    1.48    0.47
   6   6   0    1.71    0.54
   6   6   0    1.38    0.25
   6   6   0    2.07    0.32
   6   6   0    1.60    0.23
  -7  -6   0   46.31    2.23
   7   6   0   46.98    1.92
   7   6   0   50.35    2.25
   7   6   0   47.25    3.25
  -8  -6   0    9.47    0.63
   8   6   0   11.36    0.68
  -9  -6   0   13.79    0.74
   9   6   0   15.10    0.77
  -3   7   0   28.16    0.98
  -3   7   0   27.57    0.95
  -2   7   0    1.70    0.32
  -2   7   0    1.68    0.29
  -2   7   0    1.38    0.12
  -1   7   0   79.44    4.97
  -1   7   0   82.83    3.41
  -1   7   0   80.81    4.38
  -1   7   0   78.61    2.67
  -1   7   0   77.31    3.20
   0   7   0   14.66    0.53
   0   7   0   15.45    0.64
   0   7   0   13.18    0.60
   0   7   0   14.11    0.97
   0   7   0   14.13    1.10
   0   7   0   15.74    0.77
   1   7   0   19.17    0.79
   1   7   0   17.98    0.76
   1   7   0   18.07    0.88
   1   7   0   18.25    0.92
   1   7   0   18.01    1.33
   1   7   0   18.06    0.66
   1   7   0   17.36    1.18
   2   7   0   59.54    2.39
   2   7   0   57.70    2.30
   2   7   0   58.33    3.75
   2   7   0   56.00    2.94
   2   7   0   60.23    3.31
   2   7   0   59.55    2.49
   2   7   0   58.85    2.56
   2   7   0   57.00    1.99
   3   7   0    0.52    0.29
   3   7   0    0.50    0.22
   3   7   0    0.29    0.29
   3   7   0    0.80    0.12
   3   7   0    0.49    0.22
   3   7   0    0.05    0.23
   3   7   0    0.85    0.14
   3   7   0    0.49    0.13
   3   7   0    0.74    0.20
   3   7   0    1.06    0.13
   4   7   0   54.59    1.96
   4   7   0   57.16    2.24
   4   7   0   55.67    3.20
   4   7   0   51.97    2.43
   4   7   0   56.81    1.91
   4   7   0   53.20    2.43
   4   7   0   50.98    2.83
   4   7   0   55.03    2.21
   4   7   0   57.16    2.30
   4   7   0   55.50    3.62
   4   7   0   57.14    2.37
   5   7   0    3.53    0.26
   5   7   0    3.56    0.35
   5   7   0    4.16    0.38
   5   7   0    3.69    0.36
   5   7   0    3.90    0.25
   5   7   0    3.71    0.38
   5   7   0    3.74    0.32
   5   7   0    4.05    0.65
   5   7   0    4.09    0.34
   6   7   0   15.41    0.83
   6   7   0   15.76    0.62
   6   7   0   15.07    0.82
   6   7   0   15.41    0.76
   7   7   0   17.38    0.81
   7   7   0   17.84    0.91
   8   7   0    2.66    0.28
   9   7   0    6.81    0.41
  -2   8   0   19.27    0.68
  -1   8   0    1.71    0.10
  -1   8   0    1.81    0.19
  -1   8   0    1.67    0.26
   0   8   0   62.75    2.68
   0   8   0   61.72    2.50
   0   8   0   62.51    2.10
   0   8   0   63.56    3.45
   0   8   0   61.88    3.91
   1   8   0   11.73    0.46
   1   8   0   11.41    0.49
   1   8   0   12.16    0.60
   1   8   0   11.12    0.52
   1   8   0   11.78    0.82
   1   8   0   11.55    0.93
   1   8   0   11.83    0.44
   1   8   0   12.44    0.64
   2   8   0    6.33    0.33
   2   8   0    5.91    0.28
   2   8   0    6.30    0.31
   2   8   0    5.81    0.41
   2   8   0    6.06    0.27
   2   8   0    6.26    0.44
   2   8   0    5.98    0.64
   2   8   0    6.09    0.58
   3   8   0   64.54    2.59
   3   8   0   65.46    2.31
   3   8   0   66.76    4.20
   3   8   0   64.87    3.30
   3   8   0   69.56    2.70
   3   8   0   66.08    2.86
   3   8   0   64.48    2.60
   3   8   0   67.01    2.25
   3   8   0   65.05    2.78
   4   8   0    0.41    0.20
   4   8   0    0.48    0.17
   4   8   0    0.48    0.12
   4   8   0    0.31    0.11
   4   8   0    0.66    0.26
   4   8   0    0.39    0.10
   4   8   0    0.29    0.15
   4   8   0    0.52    0.10
   5   8   0   43.00    1.80
   5   8   0   40.97    1.73
   5   8   0   42.67    1.53
   5   8   0   45.13    1.50
   5   8   0   41.25    2.24
   5   8   0   45.17    1.86
   5   8   0   41.03    1.90
   5   8   0   42.84    1.75
   6   8   0   24.96    1.08
   6   8   0   24.23    1.16
   6   8   0   24.76    1.43
   6   8   0   25.34    0.94
   6   8   0   26.37    1.10
   6   8   0   25.99    1.14
   6   8   0   25.25    1.18
   7   8   0    3.54    0.33
   7   8   0    3.11    0.41
   7   8   0    3.82    0.30
   7   8   0    4.28    0.31
  -8  -8   0   42.42    1.72
   8   8   0   43.78    2.22
   8   8   0   46.34    1.94
   0   9   0   23.91    1.03
   0   9   0   23.02    0.82
   1   9   0    2.22    0.12
   1   9   0    2.32    0.24
   1   9   0    2.19    0.12
   2   9   0   11.12    0.51
   2   9   0   12.03    0.57
   2   9   0   11.93    0.43
   2   9   0   11.39    0.44
   2   9   0   11.86    0.48
   2   9   0   12.08    0.60
   3   9   0   21.51    0.99
   3   9   0   21.15    0.94
   3   9   0   22.70    0.78
   3   9   0   22.22    0.90
   3   9   0   22.98    1.03
   3   9   0   22.30    0.80
   4   9   0    0.39    0.08
   4   9   0    0.47    0.13
   4   9   0    0.36    0.10
   4   9   0    0.54    0.18
   4   9   0    0.49    0.14
   4   9   0    0.57    0.22
   4   9   0    0.44    0.10
   4   9   0    0.31    0.08
   5   9   0    9.49    0.45
   5   9   0    9.11    0.46
   5   9   0    9.67    0.47
   5   9   0    9.66    0.39
   5   9   0    9.68    0.39
   5   9   0   10.12    0.54
   5   9   0    9.48    0.65
   5   9   0    9.42    0.50
   6   9   0    7.72    0.53
   6   9   0    6.92    0.36
   6   9   0    6.80    0.31
   6   9   0    7.26    0.42
   6   9   0    7.29    0.30
   6   9   0    6.60    0.39
   6   9   0    7.06    0.38
  -7  -9   0   18.82    0.78
   7   9   0   18.27    0.85
   7   9   0   19.39    0.79
   7   9   0   18.74    1.00
   2  10   0    1.63    0.16
   2  10   0    1.73    0.09
   3  10   0   20.01    0.71
   3  10   0   20.03    0.89
   4  10   0   25.87    1.10
   4  10   0   24.22    0.87
   4  10   0   25.44    0.88
   4  10   0   24.54    1.06
  -5 -10   0    0.98    0.12
   5  10   0    0.66    0.07
   5  10   0    0.79    0.12
   5  10   0    0.85    0.09
   5  10  -1   14.95    0.60
   4  10  -1    1.17    0.09
   4  10  -1    1.30    0.10
   4  10  -1    1.25    0.15
   3  10  -1   46.17    1.59
   3  10  -1   46.12    1.95
   2  10  -1    9.56    0.44
   2  10  -1    9.29    0.34
  -7  -9   1    0.53    0.12
   6   9  -1   34.92    1.37
   6   9  -1   34.53    1.74
   6   9  -1   33.29    1.48
   6   9  -1   31.16    1.43
  -6  -9   1   36.20    1.36
   5   9  -1   15.67    0.75
   5   9  -1   17.06    0.73
   5   9  -1   16.83    0.73
   5   9  -1   17.43    0.63
   5   9  -1   16.11    0.62
   5   9  -1   17.19    0.97
   5   9  -1   17.17    0.78
   5   9  -1   17.59    0.81
   4   9  -1    7.46    0.40
   4   9  -1    8.27    0.44
   4   9  -1    8.18    0.34
   4   9  -1    8.04    0.39
   4   9  -1    8.01    0.47
   4   9  -1    7.54    0.41
   4   9  -1    7.55    0.57
   4   9  -1    8.19    0.33
   3   9  -1   36.04    1.52
   3   9  -1   37.96    1.63
   3   9  -1   37.22    1.30
   3   9  -1   37.53    1.27
   3   9  -1   37.13    1.46
   3   9  -1   35.35    1.57
   2   9  -1    5.95    0.37
   2   9  -1    6.17    0.40
   2   9  -1    6.85    0.54
   2   9  -1    6.55    0.27
   2   9  -1    6.18    0.31
   2   9  -1    6.27    0.26
   2   9  -1    6.54    0.30
   1   9  -1    8.78    0.34
   1   9  -1    9.35    0.48
   1   9  -1    9.21    0.63
   1   9  -1    8.85    0.34
   0   9  -1   16.66    0.74
   0   9  -1   15.93    0.58
   0   9  -1   16.37    0.56
   8   8  -1    8.88    0.58
   8   8  -1    8.78    0.44
  -8  -8   1    8.06    0.41
   7   8  -1   24.10    1.09
   7   8  -1   23.12    1.30
  -7  -8   1   22.94    0.99
   6   8  -1    5.48    0.38
   6   8  -1    5.73    0.39
   6   8  -1    5.82    0.60
   6   8  -1    5.59    0.37
   6   8  -1    6.19    0.43
   5   8  -1   48.60    1.74
   5   8  -1   48.06    1.97
   5   8  -1   50.49    2.09
   5   8  -1   46.99    2.14
   5   8  -1   48.20    2.04
   5   8  -1   48.53    2.83
   5   8  -1   47.90    3.21
   5   8  -1   51.95    1.71
   5   8  -1   48.67    1.97
   5   8  -1   47.14    2.52
   4   8  -1    7.57    0.36
   4   8  -1    8.43    0.44
   4   8  -1    7.88    0.65
   4   8  -1    8.26    0.36
   4   8  -1    7.30    0.46
   4   8  -1    7.48    0.74
   4   8  -1    8.12    0.49
   4   8  -1    7.81    0.84
   4   8  -1    7.44    0.42
   4   8  -1    7.70    0.53
   3   8  -1   12.88    1.09
   3   8  -1   12.82    0.69
   3   8  -1   13.57    0.63
   3   8  -1   12.73    0.85
   3   8  -1   13.22    0.53
   3   8  -1   12.87    0.60
   3   8  -1   12.95    0.64
   3   8  -1   12.74    0.72
   3   8  -1   13.88    0.98
   3   8  -1   13.46    0.52
   2   8  -1   19.56    0.70
   2   8  -1   18.94    0.95
   2   8  -1   19.16    0.72
   2   8  -1   19.48    1.42
   2   8  -1   19.14    1.25
   2   8  -1   20.15    0.85
   2   8  -1   18.36    1.10
   2   8  -1   19.28    0.92
   2   8  -1   18.69    0.81
   1   8  -1    0.26    0.18
   1   8  -1    0.16    0.14
   1   8  -1    0.32    0.09
   1   8  -1    0.29    0.07
   1   8  -1    0.19    0.07
   1   8  -1    0.37    0.09
   1   8  -1    0.19    0.23
   1   8  -1    0.21    0.22
   0   8  -1   45.03    1.91
   0   8  -1   44.02    2.47
   0   8  -1   43.10    1.48
   0   8  -1   41.88    1.77
   0   8  -1   44.00    1.69
   0   8  -1   43.28    2.80
   0   8  -1   43.50    1.52
  -1   8  -1   24.12    1.40
  -1   8  -1   23.44    0.82
  -1   8  -1   24.07    1.07
  -1   8  -1   23.51    0.84
  -2   8  -1    8.22    0.31
   8   7  -1   57.52    2.49
  -8  -7   1   53.33    2.18
   7   7  -1   39.15    2.85
   7   7  -1   40.87    2.51
   7   7  -1   43.91    1.95
  -7  -7   1   43.94    1.72
   6   7  -1    4.56    0.45
   6   7  -1    3.46    0.66
   6   7  -1    3.17    0.58
   6   7  -1    3.83    0.39
   6   7  -1    3.85    0.36
   5   7  -1   64.50    2.29
   5   7  -1   64.37    2.25
   5   7  -1   65.34    2.59
   5   7  -1   64.93    3.74
   5   7  -1   62.78    2.90
   5   7  -1   62.85    2.61
   5   7  -1   62.92    2.83
   5   7  -1   65.42    4.25
   5   7  -1   68.39    2.72
   5   7  -1   66.09    2.75
   4   7  -1   23.79    0.89
   4   7  -1   23.40    1.03
   4   7  -1   23.66    0.89
   4   7  -1   24.17    1.79
   4   7  -1   24.79    1.07
   4   7  -1   22.06    1.12
   4   7  -1   23.36    1.58
   4   7  -1   22.07    1.36
   4   7  -1   23.10    1.16
   4   7  -1   23.84    1.07
   4   7  -1   24.26    1.13
   3   7  -1   41.32    1.73
   3   7  -1   41.86    1.70
   3   7  -1   44.41    1.85
   3   7  -1   37.53    1.83
   3   7  -1   40.32    1.89
   3   7  -1   43.37    1.47
   3   7  -1   44.27    2.83
   3   7  -1   41.35    1.50
   3   7  -1   41.30    2.48
   3   7  -1   40.09    2.19
   3   7  -1   42.97    1.76
   2   7  -1   52.84    2.27
   2   7  -1   53.22    2.10
   2   7  -1   53.67    2.35
   2   7  -1   53.14    3.44
   2   7  -1   55.02    2.18
   2   7  -1   49.18    2.68
   2   7  -1   52.25    3.03
   2   7  -1   51.11    1.86
   2   7  -1   53.83    1.82
   1   7  -1    3.82    0.35
   1   7  -1    3.45    0.20
   1   7  -1    3.60    0.24
   1   7  -1    3.63    0.25
   1   7  -1    3.58    0.48
   1   7  -1    3.65    0.37
   1   7  -1    3.64    0.53
   1   7  -1    2.79    0.37
   0   7  -1   19.18    1.26
   0   7  -1   20.72    0.86
   0   7  -1   19.34    0.98
   0   7  -1   18.99    0.82
   0   7  -1   20.03    1.44
   0   7  -1   20.03    0.71
  -1   7  -1    1.18    0.13
  -1   7  -1    1.20    0.12
  -1   7  -1    1.16    0.27
  -1   7  -1    1.28    0.11
  -1   7  -1    0.88    0.29
  -1   7  -1    1.16    0.21
  -2   7  -1   28.33    1.90
  -2   7  -1   27.66    1.17
  -2   7  -1   28.18    1.01
  -2   7  -1   28.28    1.67
  -2   7  -1   30.24    1.29
  -3   7  -1   13.58    0.49
  -3   7  -1   13.83    0.50
  -3   7  -1   13.51    0.86
   9   6  -1   23.88    1.08
  -9  -6   1   20.04    1.04
   8   6  -1    7.05    0.52
   8   6  -1    4.77    0.65
  -8  -6   1    5.61    0.46
   7   6  -1   25.02    2.01
   7   6  -1   26.47    1.34
   7   6  -1   26.72    1.77
  -7  -6   1   26.18    1.12
   6   6  -1    6.72    0.89
   6   6  -1    8.40    0.60
   6   6  -1    7.29    0.54
   6   6  -1    7.67    1.03
   6   6  -1    8.56    0.48
   5   6  -1    0.93    0.42
   5   6  -1    0.56    0.26
   5   6  -1    0.68    0.20
   5   6  -1    0.40    0.45
   5   6  -1    0.37    0.18
   5   6  -1    0.29    0.22
   5   6  -1    0.26    0.10
   4   6  -1   70.09    2.92
   4   6  -1   71.27    2.42
   4   6  -1   71.24    4.59
   4   6  -1   68.21    4.03
   4   6  -1   71.91    2.97
   3   6  -1   10.51    0.43
   3   6  -1   10.56    0.53
   3   6  -1   10.13    0.97
   3   6  -1    9.39    0.78
   3   6  -1   10.09    0.58
   3   6  -1    9.60    0.85
   2   6  -1   47.12    1.61
   2   6  -1   45.62    3.07
   2   6  -1   48.27    2.73
   2   6  -1   46.00    1.94
   2   6  -1   46.91    2.02
   1   6  -1   60.60    3.79
   1   6  -1   60.18    2.41
   1   6  -1   60.26    3.00
   1   6  -1   58.91    3.34
   1   6  -1   56.41    2.49
   1   6  -1   57.75    2.01
   0   6  -1    1.46    0.34
   0   6  -1    1.34    0.29
   0   6  -1    1.24    0.11
   0   6  -1    1.37    0.17
   0   6  -1    0.99    0.21
  -1   6  -1   21.06    0.74
  -1   6  -1   21.38    0.89
  -1   6  -1   19.05    1.36
  -1   6  -1   20.13    1.47
  -1   6  -1   20.37    1.03
  -1   6  -1   20.28    0.85
  -1   6  -1   20.60    1.30
  -2   6  -1   27.96    0.97
  -2   6  -1   28.18    1.17
  -2   6  -1   29.09    1.91
  -2   6  -1   27.79    1.68
  -2   6  -1   27.43    1.30
  -2   6  -1   25.70    1.11
  -3   6  -1   37.63    1.57
  -3   6  -1   37.38    1.57
  -3   6  -1   38.52    1.34
  -3   6  -1   39.55    2.20
  -3   6  -1   37.98    2.49
  -3   6  -1   36.76    1.50
  -4   6  -1   14.02    0.65
  -4   6  -1   13.85    0.51
  -4   6  -1   13.26    0.50
  -4   6  -1   13.16    0.59
  -5   6  -1    1.02    0.09
  -9  -5   1   15.28    0.80
   8   5  -1    0.93    0.46
   8   5  -1    0.90    0.58
  -8  -5   1    0.80    0.22
   7   5  -1   44.08    2.79
   7   5  -1   43.34    3.17
  -7  -5   1   48.22    2.13
   6   5  -1    9.94    0.84
   6   5  -1    8.50    1.10
   6   5  -1   10.60    0.52
   6   5  -1    8.86    1.01
  -6  -5   1   10.95    0.62
   5   5  -1   32.44    2.49
   5   5  -1   38.58    1.65
   5   5  -1   35.76    2.24
   5   5  -1   32.77    2.18
  -5  -5   1   34.81    1.99
   4   5  -1  130.06    7.53
   4   5  -1  140.54    8.26
   4   5  -1  140.78    7.24
   4   5  -1  137.76    5.75
   4   5  -1  131.22    8.55
   4   5  -1  142.06    5.55
  -4  -5   1  140.83    7.10
   3   5  -1    9.99    0.53
   3   5  -1    9.84    0.47
   3   5  -1    9.76    0.91
   3   5  -1    9.45    0.70
  -3  -5   1    8.50    0.64
   2   5  -1  148.38    5.92
   2   5  -1  147.53    9.10
   1   5  -1  199.07    7.99
   1   5  -1  202.18   12.22
   0   5  -1   22.98    1.00
   0   5  -1   23.06    1.46
   0   5  -1   25.55    1.67
  -1   5  -1  145.99    7.86
  -1   5  -1  149.65    8.91
  -1   5  -1  146.53    5.81
  -1   5  -1  138.71    4.84
  -2   5  -1   16.72    0.70
  -2   5  -1   14.69    0.85
  -2   5  -1   15.16    1.04
  -2   5  -1   15.36    1.18
  -2   5  -1   15.01    0.57
  -2   5  -1   15.03    0.66
  -2   5  -1   13.81    1.08
  -3   5  -1   40.12    1.64
  -3   5  -1   39.48    1.41
  -3   5  -1   39.64    2.31
  -3   5  -1   39.87    1.37
  -3   5  -1   36.68    1.57
  -3   5  -1   37.34    1.65
  -3   5  -1   41.38    2.62
  -4   5  -1   16.06    0.83
  -4   5  -1   17.23    1.27
  -4   5  -1   16.41    0.64
  -4   5  -1   17.93    0.64
  -4   5  -1   16.48    0.82
  -4   5  -1   16.02    0.76
  -4   5  -1   18.48    1.15
  -4   5  -1   16.47    0.73
  -5   5  -1    1.05    0.11
  -5   5  -1    1.18    0.12
  -5   5  -1    1.14    0.21
  -5   5  -1    1.18    0.14
  -5   5  -1    1.07    0.11
  -5   5  -1    1.16    0.21
  -5   5  -1    1.29    0.14
  -6   5  -1   25.84    1.10
  -6   5  -1   30.19    0.99
  -9  -4   1    3.53    0.40
  -9  -4   1    3.76    0.36
   8   4  -1    4.70    0.88
   8   4  -1    5.72    0.82
  -8  -4   1    7.75    0.48
   7   4  -1    2.19    0.68
   7   4  -1    2.62    0.61
  -7  -4   1    3.04    0.33
   6   4  -1   23.58    1.66
  -6  -4   1   24.91    1.17
  -6  -4   1   22.35    1.43
   5   4  -1    0.49    0.41
   5   4  -1    0.82    0.24
   5   4  -1    0.43    0.39
   5   4  -1    0.84    0.26
  -5  -4   1    0.88    0.21
   4   4  -1   55.35    2.86
   4   4  -1   53.44    3.26
   4   4  -1   51.83    2.30
  -4  -4   1   55.14    2.81
  -4  -4   1   46.87    3.35
   3   4  -1   88.71    6.37
   3   4  -1  109.85    5.38
   3   4  -1   99.45    4.29
   3   4  -1  112.88    6.18
  -3  -4   1   95.56    6.06
  -3  -4   1  108.77    5.28
   2   4  -1    1.96    0.23
   2   4  -1    1.83    0.16
   2   4  -1    2.01    0.21
  -2  -4   1    1.82    0.53
  -2  -4   1    1.39    0.19
   1   4  -1  125.13    6.60
   1   4  -1  129.26    7.27
   0   4  -1   94.04    5.52
   0   4  -1   83.22    5.11
  -1   4  -1   93.92    6.05
  -1   4  -1  114.99    6.56
  -1   4  -1  108.21    4.24
  -2   4  -1   91.22    5.68
  -2   4  -1   91.09    5.48
  -2   4  -1   92.35    5.01
  -2   4  -1   88.98    3.67
  -3   4  -1    3.21    0.25
  -3   4  -1    3.18    0.21
  -3   4  -1    3.29    0.52
  -3   4  -1    3.25    0.45
  -3   4  -1    2.70    0.47
  -4   4  -1   24.75    1.72
  -4   4  -1   21.86    0.87
  -4   4  -1   23.25    1.10
  -4   4  -1   23.14    1.08
  -4   4  -1   24.67    1.52
  -4   4  -1   24.78    1.05
  -4   4  -1   21.92    1.00
  -4   4  -1   23.43    1.06
  -5   4  -1   32.29    1.44
  -5   4  -1   33.97    1.25
  -5   4  -1   33.93    2.31
  -5   4  -1   34.44    1.41
  -5   4  -1   36.85    1.23
  -5   4  -1   33.43    1.46
  -5   4  -1   33.33    1.49
  -5   4  -1   35.76    1.47
  -6   4  -1    8.80    0.49
  -6   4  -1    9.16    0.39
  -6   4  -1   10.00    0.39
  -6   4  -1    9.01    0.44
  -6   4  -1    9.03    0.46
  -6   4  -1    8.50    0.53
  -6   4  -1   10.03    0.52
  -9  -3   1   27.89    1.31
  -9  -3   1   27.00    1.30
   8   3  -1   15.67    1.37
   8   3  -1   14.19    1.49
   7   3  -1    3.68    0.80
   7   3  -1    4.25    0.73
   6   3  -1   32.59    2.18
   6   3  -1   34.05    2.45
   5   3  -1   70.82    4.25
   5   3  -1   69.96    3.65
  -5  -3   1   59.67    4.52
  -5  -3   1   70.89    3.59
   4   3  -1   74.68    4.02
   4   3  -1   78.14    4.67
  -4  -3   1   76.52    3.96
   3   3  -1  164.87    9.16
   3   3  -1  156.93    7.90
  -3  -3   1  132.93    8.75
  -3  -3   1  156.88    7.77
   2   3  -1    3.97    0.30
   2   3  -1    4.05    0.29
  -2  -3   1    3.37    0.27
  -2  -3   1    3.98    0.63
   1   3  -1  143.83    7.82
   1   3  -1  142.71    8.20
   1   3  -1  132.92    8.21
  -1  -3   1  133.51    6.97
   0   3  -1   47.16    2.75
  -1   3  -1  128.89    7.27
  -2   3  -1  142.95    8.39
  -2   3  -1  156.82    8.83
  -2   3  -1  146.56    9.10
  -3   3  -1    0.52    0.27
  -3   3  -1    0.23    0.10
  -3   3  -1    0.77    0.28
  -3   3  -1    0.42    0.14
  -3   3  -1    0.72    0.31
  -4   3  -1  125.67    8.31
  -4   3  -1  136.73    6.18
  -4   3  -1  137.03    5.44
  -4   3  -1  136.94    5.08
  -4   3  -1  139.41    8.17
  -4   3  -1  131.16    7.35
  -5   3  -1   82.44    3.18
  -5   3  -1   81.87    3.85
  -5   3  -1   89.61    3.40
  -5   3  -1   81.86    3.30
  -5   3  -1   77.71    2.87
  -5   3  -1   78.94    3.24
  -5   3  -1   84.04    5.21
  -5   3  -1   79.18    2.82
  -5   3  -1   82.10    3.26
  -6   3  -1   29.33    1.29
  -6   3  -1   28.60    1.27
  -6   3  -1   30.13    1.25
  -6   3  -1   28.82    1.51
  -6   3  -1   29.21    1.31
  -6   3  -1   28.91    1.09
  -6   3  -1   28.15    2.04
  -6   3  -1   31.24    1.08
  -6   3  -1   29.80    1.28
  -7   3  -1   29.61    1.19
  -7   3  -1   28.96    1.18
  -7   3  -1   28.55    1.19
  -7   3  -1   29.11    1.03
  -7   3  -1   28.42    1.24
  -7   3  -1   29.80    1.05
  -9  -2   1    0.69    0.15
  -9  -2   1    0.56    0.17
   8   2  -1   18.63    1.57
   8   2  -1   17.14    1.72
  -7  -2   1   29.92    1.52
  -7  -2   1   27.60    1.37
   6   2  -1    1.34    0.51
   6   2  -1    1.86    0.59
  -6  -2   1    1.89    0.28
  -6  -2   1    2.34    0.57
   5   2  -1   17.26    1.04
   5   2  -1   14.14    1.34
  -5  -2   1   18.52    1.04
  -5  -2   1   19.40    1.48
   4   2  -1    1.80    0.21
   4   2  -1    2.12    0.29
   4   2  -1    1.40    0.39
  -4  -2   1    1.47    0.21
  -4  -2   1    1.17    0.44
   3   2  -1  116.71    5.87
   3   2  -1  116.31    6.83
  -3  -2   1  116.52    6.44
  -3  -2   1  116.56    5.78
  -3  -2   1  101.22    7.04
   2   2  -1    1.98    0.18
   2   2  -1    1.78    0.20
  -2  -2   1    1.53    0.16
  -2  -2   1    2.32    0.49
   1   2  -1  159.50    9.59
   1   2  -1  167.96    9.06
   1   2  -1  162.37    8.27
  -1  -2   1  156.77    8.13
   0   2  -1    6.24    0.42
   0   2  -1    5.67    0.36
   0  -2   1    5.83    0.32
  -1   2  -1   11.14    0.72
  -2   2  -1   14.82    0.94
  -2   2  -1   14.86    1.07
  -3   2  -1   12.70    1.03
  -3   2  -1   14.77    1.11
  -3   2  -1   13.07    0.90
  -4   2  -1    1.84    0.23
  -4   2  -1    1.62    0.21
  -4   2  -1    1.70    0.37
  -4   2  -1    2.10    0.52
  -5   2  -1   19.53    0.91
  -5   2  -1   20.01    1.66
  -5   2  -1   18.20    0.97
  -5   2  -1   19.47    0.93
  -5   2  -1   19.86    1.50
  -5   2  -1   19.03    0.92
  -5   2  -1   19.55    0.75
  -5   2  -1   18.51    0.94
  -5   2  -1   20.04    0.89
  -5   2  -1   18.72    0.77
  -5   2  -1   18.96    1.03
  -6   2  -1   10.17    0.47
  -6   2  -1   10.67    0.99
  -6   2  -1   10.21    0.58
  -6   2  -1   10.81    0.61
  -6   2  -1    9.60    0.59
  -6   2  -1   10.03    0.65
  -6   2  -1   10.40    0.65
  -6   2  -1   10.13    0.61
  -6   2  -1    9.42    0.50
  -6   2  -1    9.62    0.48
  -7   2  -1   24.04    1.09
  -7   2  -1   24.33    0.91
  -7   2  -1   24.25    1.04
  -7   2  -1   22.58    1.25
  -7   2  -1   24.53    1.07
  -7   2  -1   23.32    0.90
  -7   2  -1   24.76    1.06
  -7   2  -1   24.31    1.09
   7  -2   1   20.91    1.97
  -8   2  -1   11.38    0.49
  -8   2  -1   10.21    0.54
  -8   2  -1   10.59    0.50
  -9  -1   1    1.97    0.23
  -8  -1   1   95.69    3.78
  -8  -1   1   93.56    4.08
  -8  -1   1   89.02    4.15
  -8  -1   1   94.28    4.38
   7   1  -1    2.26    0.73
   7   1  -1    1.76    0.71
  -7  -1   1    2.49    0.36
  -7  -1   1    1.98    0.32
  -7  -1   1    2.17    0.28
  -7  -1   1    2.14    0.24
   6   1  -1   95.76    6.25
  -6  -1   1  100.64    5.98
  -6  -1   1   96.35    4.35
  -6  -1   1   98.04    4.54
   5   1  -1  165.59    8.96
   5   1  -1  188.45   10.66
  -5  -1   1  171.28   10.49
  -5  -1   1  173.48   10.78
  -5  -1   1  167.72    7.88
   4   1  -1   39.78    2.30
   4   1  -1   46.60    2.82
  -4  -1   1   41.90    3.06
  -4  -1   1   42.73    2.29
  -4  -1   1   44.90    2.83
   3   1  -1  347.09   21.40
   3   1  -1  372.89   18.41
  -3  -1   1  338.86   21.20
  -3  -1   1  368.87   19.98
  -3  -1   1  357.61   18.11
  -3  -1   1  375.33   21.55
   2   1  -1  168.94   10.15
   2   1  -1  191.77    9.25
   2   1  -1  183.98   10.76
  -2  -1   1  191.09   10.07
  -2  -1   1  170.57   10.70
  -2  -1   1  179.69   10.91
  -2  -1   1  178.59    9.10
   1   1  -1  248.93   12.84
  -1  -1   1  257.09   13.97
  -1  -1   1  249.17   12.63
   0   1  -1  398.24   21.59
   0   1  -1  456.59   23.58
   0  -1   1  416.79   23.48
  -1   1  -1   54.69    3.02
  -1   1  -1   52.10    3.20
  -2   1  -1  387.63   20.66
  -2   1  -1  392.22   21.70
  -2   1  -1  362.36   22.05
   2  -1   1  347.82   18.97
  -3   1  -1  135.21    7.56
  -3   1  -1  137.27    8.03
  -3   1  -1  131.19    8.09
  -4   1  -1   26.86    1.27
  -4   1  -1   30.09    1.94
  -4   1  -1   30.36    2.16
  -5   1  -1  114.23    6.79
  -5   1  -1   99.36    4.49
  -5   1  -1  117.66    6.97
  -5   1  -1  107.50    5.03
  -6   1  -1    1.32    0.24
  -6   1  -1    1.44    0.42
  -6   1  -1    1.07    0.27
  -6   1  -1    1.15    0.33
  -6   1  -1    1.09    0.23
  -6   1  -1    1.15    0.19
  -6   1  -1    1.38    0.68
  -6   1  -1    1.01    0.26
  -6   1  -1    1.24    0.21
  -6   1  -1    1.20    0.24
  -6   1  -1    1.18    0.16
  -7   1  -1   43.33    1.92
  -7   1  -1   42.48    1.61
  -7   1  -1   43.13    1.85
  -7   1  -1   42.87    1.84
  -7   1  -1   44.22    1.83
  -7   1  -1   45.21    2.14
  -7   1  -1   43.32    1.59
  -7   1  -1   44.47    1.80
  -7   1  -1   41.97    1.93
   7  -1   1   45.37    3.16
  -8   1  -1   26.07    1.08
  -8   1  -1   26.10    1.12
  -8   1  -1   27.21    1.10
  -8   1  -1   25.10    1.30
   8  -1   1   19.95    1.78
   8   0  -1    0.56    0.66
  -8   0   1    0.94    0.26
  -8   0   1    0.75    0.12
  -8   0   1    0.62    0.22
  -8   0   1    0.68    0.24
  -8   0   1    0.55    0.19
   7   0  -1    3.53    0.89
  -7   0   1    4.54    0.48
  -7   0   1    4.29    0.41
  -7   0   1    4.53    0.31
  -7   0   1    4.60    0.34
  -7   0   1    4.37    0.37
  -7   0   1    4.24    0.42
   6   0  -1    2.06    0.66
  -6   0   1    3.04    0.36
  -6   0   1    1.69    0.21
  -6   0   1    1.92    0.32
  -6   0   1    1.72    0.22
  -6   0   1    1.57    0.22
  -6   0   1    1.71    0.29
  -6   0   1    1.97    0.73
  -6   0   1    1.43    0.19
  -6   0   1    1.53    0.25
   5   0  -1    1.39    0.49
  -5   0   1    1.73    0.23
  -5   0   1    1.68    0.27
  -5   0   1    1.76    0.64
  -5   0   1    1.76    0.25
   4   0  -1  111.39    6.21
  -4   0   1  121.50    7.43
  -4   0   1  125.81    7.34
  -4   0   1  121.46    7.24
   3   0  -1    7.68    0.48
  -3   0   1    6.86    0.82
  -3   0   1    8.17    0.50
  -3   0   1    8.63    0.63
   2   0  -1    7.53    0.45
   2   0  -1    8.07    0.51
  -2   0   1    7.66    0.47
  -2   0   1    7.82    0.74
  -2   0   1    7.23    0.45
  -2   0   1    8.70    0.61
   1   0  -1  140.96    7.21
   1   0  -1  146.82    7.82
  -1   0   1  142.93    7.81
  -1   0   1  131.88    7.09
   0   0  -1   17.45    1.01
   0   0   1   17.50    1.01
  -1   0  -1   70.45    3.68
  -1   0  -1   77.60    4.09
   1   0   1   77.47    4.09
   1   0   1   67.18    3.74
  -2   0  -1    1.99    0.16
  -2   0  -1    2.59    0.29
  -2   0  -1    2.43    0.36
  -2   0  -1    2.53    0.21
   2   0   1    2.11    0.15
  -3   0  -1   62.64    4.00
  -3   0  -1   66.54    3.93
  -3   0  -1   63.08    3.64
  -3   0  -1   65.40    3.27
  -3   0  -1   62.81    3.91
   3   0   1   62.85    3.31
  -4   0  -1    4.29    0.75
  -4   0  -1    4.78    0.46
  -4   0  -1    4.80    0.46
  -4   0  -1    4.73    0.35
  -4   0  -1    5.09    0.41
  -5   0  -1   15.42    0.81
  -5   0  -1   16.52    1.15
  -5   0  -1   16.62    1.56
  -5   0  -1   15.19    1.08
  -5   0  -1   14.44    0.81
  -6   0  -1    2.32    0.30
  -6   0  -1    2.25    0.28
  -6   0  -1    2.11    0.27
  -6   0  -1    1.86    0.19
  -6   0  -1    1.48    0.22
   6   0   1    1.97    0.57
  -7   0  -1   10.20    0.64
  -7   0  -1    9.63    0.57
  -7   0  -1    8.78    0.58
  -7   0  -1    8.93    0.62
  -7   0  -1    8.97    0.45
   7   0   1   11.05    1.24
  -8   0  -1    6.84    0.53
  -8   0  -1    6.93    0.52
  -8   0  -1    6.74    0.39
  -8   0  -1    6.32    0.51
   8   0   1    5.54    0.99
   8   0   1    5.52    0.89
  -8   1   1   22.53    0.96
  -8   1   1   21.30    0.99
  -8   1   1   22.38    0.93
   7  -1  -1   50.64    4.13
  -7   1   1   59.92    2.40
  -7   1   1   62.56    2.46
  -7   1   1   60.29    2.62
  -7   1   1   60.53    2.50
  -7   1   1   61.72    2.41
  -7   1   1   59.65    2.15
  -7   1   1   63.22    2.56
  -7   1   1   62.68    2.91
   6  -1  -1    0.73    0.56
  -6   1   1    0.24    0.13
  -6   1   1    0.45    0.21
  -6   1   1    0.63    0.23
  -6   1   1    0.57    0.26
  -6   1   1    0.45    0.14
  -6   1   1    0.54    0.19
  -6   1   1    0.41    0.19
  -6   1   1    0.35    0.15
  -6   1   1    0.31    0.20
  -6   1   1    0.80    0.22
  -5   1   1  171.77    7.73
  -5   1   1  173.79   10.38
  -5   1   1  173.64   10.32
  -5   1   1  161.97    5.70
  -5   1   1  164.35    6.84
  -4   1   1   87.86    5.35
  -4   1   1   82.61    3.53
  -4   1   1   93.68    5.42
  -4   1   1   81.02    3.96
   3  -1  -1  251.29   12.88
  -3   1   1  251.67   14.83
   2  -1  -1  257.48   12.85
  -2   1   1  245.16   14.71
  -2   1   1  250.28   13.94
   1  -1  -1  259.44   12.86
   1  -1  -1  245.87   13.95
  -1   1   1  253.75   13.95
  -1   1   1  245.89   14.63
   0  -1  -1  338.23   17.58
   0  -1  -1  294.92   17.55
  -1  -1  -1  195.39   10.83
  -1  -1  -1  239.21   12.01
   1   1   1  232.24   12.02
   1   1   1  196.19   11.01
  -2  -1  -1  265.70   13.73
  -2  -1  -1  276.85   15.20
  -2  -1  -1  283.42   16.34
   2   1   1  264.46   16.22
   2   1   1  276.21   13.96
  -3  -1  -1  277.45   13.88
  -3  -1  -1  275.45   16.24
  -3  -1  -1  276.90   15.36
  -3  -1  -1  272.18   16.52
   3   1   1  277.55   14.11
  -4  -1  -1   75.33    4.36
  -4  -1  -1   79.29    4.79
  -4  -1  -1   78.20    3.94
  -4  -1  -1   75.26    4.87
   4   1   1   74.70    3.99
  -5  -1  -1  110.84    7.01
  -5  -1  -1  112.50    5.85
  -5  -1  -1  106.12    5.21
   5   1   1  127.13    7.07
  -6  -1  -1  128.88    6.06
  -6  -1  -1  126.62    8.04
   6   1   1  141.19    8.24
  -7  -1  -1    0.94    0.17
  -7  -1  -1    0.90    0.22
  -7  -1  -1    0.31    0.30
  -7  -1  -1    0.96    0.23
  -7  -1  -1    1.09    0.27
   7   1   1    1.08    0.54
  -8  -1  -1   73.35    3.31
  -8  -1  -1   77.46    3.05
  -8  -1  -1   77.80    3.53
  -8  -1  -1   70.26    3.34
  -9  -1  -1   12.42    0.60
  -8   2   1    5.94    0.30
  -8   2   1    5.74    0.34
   7  -2  -1    0.75    0.61
  -7   2   1    0.52    0.16
  -7   2   1    0.51    0.13
  -7   2   1    0.51    0.21
  -7   2   1    0.59    0.19
  -7   2   1    0.68    0.26
  -7   2   1    0.44    0.22
  -7   2   1    0.70    0.13
  -7   2   1    0.18    0.14
   6  -2  -1    9.29    1.23
  -6   2   1    8.01    0.61
  -6   2   1    7.63    0.54
  -6   2   1    7.68    0.40
  -6   2   1    8.80    0.50
  -6   2   1    7.60    0.55
  -6   2   1    7.56    0.39
  -6   2   1    7.73    0.46
  -6   2   1    7.62    0.54
  -5   2   1   10.61    0.68
  -5   2   1   10.23    1.08
  -5   2   1   10.31    0.65
  -5   2   1   10.60    0.62
  -5   2   1   10.95    0.98
  -5   2   1   10.76    0.48
  -5   2   1   10.95    0.62
  -5   2   1   10.82    0.58
  -5   2   1    9.97    0.53
  -5   2   1   10.89    0.49
  -5   2   1   10.60    0.57
  -4   2   1    5.01    0.60
  -4   2   1    4.58    0.37
  -4   2   1    4.12    0.27
  -4   2   1    4.89    0.64
  -3   2   1    6.24    0.59
  -3   2   1    4.18    0.52
  -3   2   1    4.79    0.29
   2  -2  -1   18.92    1.01
  -2   2   1   17.47    1.10
  -2   2   1   17.67    1.21
  -1   2   1   26.12    1.55
  -1   2   1   25.20    1.50
   0   2   1   93.42    5.27
  -1  -2  -1   55.10    3.18
  -1  -2  -1   51.16    2.77
   1   2   1   54.48    2.82
  -2  -2  -1   87.27    4.59
  -2  -2  -1   89.11    5.18
   2   2   1   95.09    4.67
   2   2   1   88.54    5.40
  -3  -2  -1   29.57    1.76
  -3  -2  -1   28.80    1.51
  -3  -2  -1   24.42    1.95
   3   2   1   29.84    1.54
   3   2   1   29.00    1.79
  -4  -2  -1   14.58    1.28
  -4  -2  -1   16.59    0.90
  -4  -2  -1   14.53    1.03
   4   2   1   16.46    1.09
   4   2   1   15.56    0.91
  -5  -2  -1   98.91    4.91
  -5  -2  -1   99.35    6.04
   5   2   1   88.09    5.89
   5   2   1   94.19    4.99
  -6  -2  -1   15.25    0.81
  -6  -2  -1   14.92    0.93
  -6  -2  -1   16.24    1.35
   6   2   1   13.72    1.13
   6   2   1   12.82    1.23
  -7  -2  -1   13.51    0.75
  -7  -2  -1   12.22    0.64
   7   2   1    9.07    1.16
   7   2   1   10.22    1.10
  -8  -2  -1    1.95    0.31
  -8  -2  -1    2.03    0.31
  -8  -2  -1    1.55    0.22
   8   2   1    0.65    0.52
   8   2   1    0.34    0.54
  -9  -2  -1    4.55    0.36
  -9  -2  -1    4.24    0.35
  -7   3   1   37.89    1.52
  -7   3   1   37.45    1.60
  -7   3   1   39.01    1.34
  -7   3   1   41.32    1.38
  -7   3   1   39.57    1.55
  -7   3   1   38.11    1.53
   6  -3  -1   16.91    1.56
  -6   3   1   18.45    0.67
  -6   3   1   16.70    0.77
  -6   3   1   17.60    1.01
  -6   3   1   17.40    0.82
  -6   3   1   18.15    0.85
  -6   3   1   16.91    0.87
  -6   3   1   17.28    0.68
  -6   3   1   17.04    0.81
  -5   3   1    5.40    0.36
  -5   3   1    5.83    0.52
  -5   3   1    6.70    0.39
  -5   3   1    5.61    0.30
  -5   3   1    5.55    0.30
  -5   3   1    5.69    0.47
  -5   3   1    6.07    0.49
  -5   3   1    6.36    0.32
  -5   3   1    5.82    0.47
  -4   3   1   85.18    3.35
  -4   3   1   88.57    2.90
  -4   3   1   87.16    4.73
  -4   3   1   85.01    3.44
  -4   3   1   85.59    3.29
  -4   3   1   84.58    3.46
  -4   3   1   83.66    3.34
  -4   3   1   82.03    5.23
  -4   3   1   83.39    3.98
  -4   3   1   84.98    5.35
  -3   3   1   21.44    1.51
  -3   3   1   20.58    0.91
  -3   3   1   22.46    1.36
  -3   3   1   22.08    1.47
  -3   3   1   19.64    1.08
  -2   3   1  155.46    8.99
  -2   3   1  150.60    9.33
  -1   3   1  228.00   12.75
   0   3   1   79.99    4.59
  -1  -3  -1  112.97    5.94
  -1  -3  -1  117.47    6.69
   1   3   1  119.14    6.06
  -2  -3  -1   41.11    2.21
  -2  -3  -1   44.19    2.63
   2   3   1   43.66    2.55
   2   3   1   45.45    2.26
   2   3   1   36.81    2.61
  -3  -3  -1  178.60   10.69
  -3  -3  -1  186.41    9.55
   3   3   1  190.33    9.71
   3   3   1  198.62   11.24
  -4  -3  -1  178.48   10.65
  -4  -3  -1  192.82    9.55
   4   3   1  196.35   11.26
   4   3   1  184.00    9.70
  -5  -3  -1    2.35    0.28
  -5  -3  -1    3.19    0.76
   5   3   1    2.49    0.31
   5   3   1    1.30    0.40
   5   3   1    2.71    0.36
  -6  -3  -1  183.17   12.38
  -6  -3  -1  204.45   10.28
   6   3   1  211.03   12.19
   6   3   1  204.86   10.48
   7   3   1   17.81    1.40
   7   3   1   18.00    1.55
   8   3   1    3.13    0.63
   8   3   1    3.14    0.70
  -9  -3  -1   62.04    2.81
  -9  -3  -1   62.50    2.81
  -6   4   1    8.34    0.45
  -6   4   1    8.09    0.47
  -6   4   1    8.13    0.34
  -6   4   1    8.36    0.49
  -6   4   1    8.60    0.35
  -6   4   1    8.45    0.40
  -5   4   1    7.88    0.50
  -5   4   1    7.70    0.52
  -5   4   1    7.79    0.42
  -5   4   1    8.50    0.35
  -5   4   1    8.26    0.35
  -5   4   1    8.14    0.41
  -5   4   1    7.60    0.54
  -5   4   1    7.34    0.61
  -5   4   1    7.98    0.75
  -4   4   1    8.39    0.45
  -4   4   1    8.77    0.66
  -4   4   1    9.19    0.58
  -4   4   1    8.88    0.38
  -4   4   1    9.24    0.39
  -4   4   1    9.17    0.47
  -4   4   1   10.12    0.77
  -4   4   1    9.38    0.60
  -4   4   1    9.45    0.58
  -4   4   1    9.57    0.83
  -3   4   1    5.94    0.56
  -3   4   1    5.16    0.48
  -3   4   1    5.45    0.56
  -3   4   1    6.86    0.49
  -3   4   1    6.25    0.63
  -3   4   1    6.03    0.32
  -2   4   1   13.62    0.94
  -2   4   1   13.95    0.96
  -2   4   1   13.87    0.61
  -2   4   1   14.68    1.07
  -1   4   1    3.71    0.43
  -1   4   1    3.58    0.31
  -1   4   1    3.59    0.42
   0  -4  -1   15.34    1.13
   0  -4  -1   13.97    0.85
  -1  -4  -1    4.48    0.38
  -1  -4  -1    5.54    0.61
  -2  -4  -1    3.72    0.51
  -2  -4  -1    2.62    0.29
   2   4   1    3.86    0.35
  -3  -4  -1  101.29    5.14
  -3  -4  -1   95.64    5.85
   3   4   1   96.79    4.14
   3   4   1   98.90    5.24
   3   4   1  104.89    5.97
  -4  -4  -1   12.32    1.09
  -4  -4  -1   12.87    0.81
   4   4   1   13.09    0.67
   4   4   1   12.69    0.84
   4   4   1   12.78    0.90
  -5  -4  -1   17.10    1.07
   5   4   1   17.52    1.22
   5   4   1   17.62    1.11
   6   4   1   10.49    1.03
   6   4   1   10.35    1.06
  -7  -4  -1    2.82    0.31
   7   4   1    1.91    0.53
   7   4   1    1.44    0.54
  -8  -4  -1   12.33    0.70
  -9  -4  -1    2.07    0.26
  -6   5   1   33.34    1.17
  -5   5   1   17.17    0.77
  -5   5   1   18.78    0.80
  -5   5   1   17.80    0.65
  -5   5   1   17.97    0.83
  -5   5   1   17.76    0.66
  -5   5   1   18.41    0.80
  -5   5   1   18.50    0.73
  -4   5   1   81.27    3.33
  -4   5   1   83.51    3.20
  -4   5   1   79.75    2.84
  -4   5   1   82.90    5.10
  -4   5   1   83.13    3.31
  -4   5   1   81.85    3.18
  -4   5   1   79.37    3.16
  -4   5   1   83.42    2.76
  -3   5   1   42.06    2.35
  -3   5   1   41.07    1.67
  -3   5   1   38.19    1.60
  -3   5   1   43.22    2.66
  -3   5   1   39.76    1.69
  -3   5   1   39.31    1.67
  -2   5   1   20.35    1.44
  -2   5   1   20.48    1.28
  -2   5   1   19.59    1.31
  -2   5   1   20.71    0.71
  -2   5   1   20.36    0.85
  -1   5   1  164.63    8.96
  -1   5   1  172.36    6.64
  -1   5   1  164.72    9.73
  -1   5   1  166.01   10.16
   0   5   1   77.44    4.64
   0   5   1   72.10    2.98
   1   5   1   49.29    2.04
   1   5   1   52.09    3.21
  -2  -5  -1   83.73    4.36
   2   5   1   82.84    3.35
   2   5   1   84.59    3.44
   2   5   1   81.75    5.17
  -3  -5  -1   14.97    0.91
   3   5   1   13.81    0.65
   3   5   1   13.18    1.08
   3   5   1   13.56    0.94
   3   5   1   13.37    0.63
  -4  -5  -1   74.33    3.83
   4   5   1   76.21    4.35
   4   5   1   69.78    3.04
   4   5   1   71.53    2.95
   4   5   1   66.72    4.56
   4   5   1   73.61    3.92
  -5  -5  -1  107.55    5.58
   5   5   1  112.71    6.46
   5   5   1  107.82    5.70
   5   5   1  107.74    4.48
   5   5   1   95.76    6.65
  -6  -5  -1    6.07    0.43
   6   5   1    5.11    0.54
   6   5   1    3.48    0.72
   6   5   1    5.14    0.37
   6   5   1    6.05    0.58
  -7  -5  -1   49.35    2.30
  -8  -5  -1    7.69    0.54
  -9  -5  -1   26.30    1.27
  -5   6   1    0.73    0.06
  -4   6   1   17.58    0.63
  -4   6   1   18.00    0.76
  -4   6   1   16.69    0.61
  -4   6   1   17.01    0.63
  -3   6   1    0.68    0.20
  -3   6   1    0.62    0.10
  -3   6   1    0.87    0.24
  -3   6   1    1.16    0.28
  -3   6   1    0.83    0.09
  -2   6   1    7.92    0.71
  -2   6   1    8.32    0.37
  -2   6   1    8.60    0.64
  -2   6   1    7.81    0.31
  -1   6   1   15.29    1.04
  -1   6   1   17.08    0.56
  -1   6   1   16.01    0.67
  -1   6   1   16.21    1.17
  -1   6   1   14.82    0.64
   0   6   1    2.52    0.40
   0   6   1    3.00    0.17
   0   6   1    2.99    0.38
   1   6   1   62.17    3.45
   1   6   1   62.45    2.51
   1   6   1   63.11    3.91
   1   6   1   60.75    2.09
   2   6   1   17.35    0.76
   2   6   1   17.99    1.28
   2   6   1   16.95    0.63
  -3  -6  -1    6.66    0.61
   3   6   1    7.43    0.39
   3   6   1    7.06    0.38
   3   6   1    6.99    0.73
   3   6   1    7.68    0.33
  -4  -6  -1   21.48    1.41
   4   6   1   23.55    1.09
   4   6   1   23.39    0.84
   4   6   1   22.28    1.03
   4   6   1   23.84    1.02
   4   6   1   20.97    1.47
  -5  -6  -1    4.76    0.57
   5   6   1    4.61    0.44
   5   6   1    4.60    0.40
   5   6   1    5.16    0.42
   5   6   1    3.96    0.28
   5   6   1    5.48    0.29
   5   6   1    4.12    0.34
   5   6   1    4.40    0.36
   5   6   1    5.07    0.42
  -6  -6  -1    9.19    0.60
   6   6   1    9.40    0.63
   6   6   1    8.99    0.54
   6   6   1    9.46    0.61
   6   6   1   10.45    0.58
  -7  -6  -1    5.58    0.46
   7   6   1    4.88    0.37
   7   6   1    4.73    0.47
   7   6   1    5.66    0.49
  -8  -6  -1    8.65    0.57
   8   6   1    8.73    0.61
  -9  -6  -1    2.86    0.32
   9   6   1    3.61    0.36
  -3   7   1   29.17    0.99
  -3   7   1   29.08    1.02
  -2   7   1   39.12    2.52
  -2   7   1   39.57    2.22
  -1   7   1   10.99    0.89
  -1   7   1   11.12    0.41
  -1   7   1   12.13    0.80
   0   7   1  125.71    4.12
   0   7   1  126.01    5.23
   0   7   1  120.25    7.59
   0   7   1  122.42    6.70
   0   7   1  124.57    4.93
   1   7   1   47.34    1.86
   1   7   1   45.82    1.95
   1   7   1   46.83    2.94
   1   7   1   44.52    1.55
   1   7   1   44.69    2.02
   1   7   1   44.23    1.78
   2   7   1   66.45    2.27
   2   7   1   63.02    3.34
   2   7   1   69.08    2.83
   2   7   1   69.38    2.92
   2   7   1   67.94    2.73
   2   7   1   67.64    2.62
   3   7   1   83.35    3.26
   3   7   1   86.52    3.48
   3   7   1   83.70    3.24
   3   7   1   80.70    2.89
   3   7   1   84.74    3.37
   3   7   1   83.95    3.57
   3   7   1   78.61    4.11
   3   7   1   83.39    2.81
   4   7   1    6.11    0.43
   4   7   1    5.39    0.29
   4   7   1    5.34    0.34
   4   7   1    5.19    0.28
   4   7   1    4.36    0.54
   4   7   1    6.05    0.43
   4   7   1    5.39    0.34
   4   7   1    5.21    0.33
   4   7   1    6.04    0.44
   5   7   1   68.63    2.77
   5   7   1   70.99    2.40
   5   7   1   72.65    2.88
   5   7   1   70.17    2.94
   5   7   1   72.35    2.78
   5   7   1   68.27    3.02
   5   7   1   68.91    2.45
   5   7   1   63.13    3.06
   5   7   1   71.04    2.94
   6   7   1    6.59    0.42
   6   7   1    6.29    0.45
   6   7   1    6.02    0.44
   6   7   1    6.26    0.32
   6   7   1    6.26    0.48
   7   7   1   24.98    1.21
   7   7   1   26.01    1.13
   7   7   1   27.82    1.25
   7   7   1   26.11    1.26
  -8  -7  -1   59.19    2.88
   8   7   1   69.42    2.86
   9   7   1    0.43    0.14
   0   8   1    4.21    0.17
   0   8   1    3.82    0.32
   1   8   1    2.18    0.24
   1   8   1    2.36    0.13
   1   8   1    2.33    0.15
   1   8   1    2.38    0.24
   2   8   1    4.93    0.23
   2   8   1    4.90    0.26
   2   8   1    4.62    0.38
   2   8   1    5.92    0.37
   2   8   1    4.82    0.27
   3   8   1    0.90    0.11
   3   8   1    0.50    0.17
   3   8   1    1.01    0.25
   3   8   1    0.93    0.13
   3   8   1    0.47    0.18
   3   8   1    1.26    0.22
   3   8   1    0.82    0.10
   3   8   1    0.76    0.12
   4   8   1   11.71    0.60
   4   8   1   10.81    0.64
   4   8   1   11.88    0.55
   4   8   1   11.17    0.46
   4   8   1   10.70    0.58
   4   8   1   11.32    0.77
   4   8   1   11.54    0.45
   4   8   1   10.63    0.52
   5   8   1   20.57    1.18
   5   8   1   19.41    0.87
   5   8   1   20.98    0.75
   5   8   1   20.13    0.95
   5   8   1   20.13    0.99
   5   8   1   19.17    0.76
   5   8   1   19.75    0.90
   5   8   1   20.22    0.91
   6   8   1    1.19    0.32
   6   8   1    1.52    0.23
   6   8   1    1.51    0.23
   6   8   1    1.10    0.16
   6   8   1    1.08    0.17
   6   8   1    0.87    0.16
   6   8   1    1.15    0.14
   6   8   1    1.07    0.20
   6   8   1    1.18    0.14
   7   8   1    4.17    0.31
   7   8   1    4.20    0.50
   7   8   1    4.48    0.36
   7   8   1    4.22    0.32
  -8  -8  -1    4.76    0.30
   8   8   1    5.29    0.47
   8   8   1    5.78    0.33
   1   9   1   35.81    1.22
   1   9   1   35.36    1.26
   1   9   1   37.94    1.58
   2   9   1    2.17    0.13
   2   9   1    2.07    0.13
   2   9   1    2.22    0.14
   2   9   1    2.32    0.25
   2   9   1    2.12    0.22
   3   9   1   91.32    3.22
   3   9   1   89.68    3.73
   3   9   1   95.55    3.12
   3   9   1   95.09    3.94
   3   9   1   93.34    3.82
   3   9   1   94.29    3.59
   4   9   1   45.40    1.53
   4   9   1   45.62    1.96
   4   9   1   45.80    2.26
   4   9   1   44.65    1.76
   4   9   1   42.74    1.83
   4   9   1   44.62    1.77
   4   9   1   45.32    1.90
   4   9   1   44.49    1.58
   5   9   1   42.93    1.48
   5   9   1   40.61    2.12
   5   9   1   39.29    1.73
   5   9   1   42.49    1.67
   5   9   1   42.03    1.83
   5   9   1   42.02    1.44
   5   9   1   42.25    1.78
   5   9   1   43.63    1.67
   6   9   1   96.15    4.02
   6   9   1  101.79    3.40
   6   9   1  102.01    3.79
   6   9   1   94.60    4.78
   6   9   1   99.62    3.82
   6   9   1   99.85    4.15
   6   9   1   96.19    3.31
   7   9   1    1.39    0.15
   7   9   1    1.52    0.23
   7   9   1    1.80    0.18
   7   9   1    1.40    0.14
   2  10   1    0.80    0.07
   2  10   1    0.81    0.11
   3  10   1    6.92    0.36
   3  10   1    6.74    0.26
   3  10   1    6.74    0.34
   3  10   1    7.26    0.27
   4  10   1    0.33    0.06
   4  10   1    0.26    0.10
   4  10   1    0.34    0.06
   4  10   1    0.52    0.12
   5  10   1    6.14    0.31
   5  10   1    5.95    0.29
   5  10   1    5.65    0.33
   5  10   1    6.24    0.24
   5  10   1    6.08    0.27
  -6 -10  -1    9.26    0.40
   6  10   1    9.16    0.39
   6  10   1    9.20    0.45
   3  10  -2   18.55    0.81
   3  10  -2   17.99    0.65
  -7  -9   2    9.48    0.43
   6   9  -2   14.76    0.64
   6   9  -2   14.57    0.83
  -6  -9   2   14.34    0.63
   5   9  -2   41.92    1.44
   5   9  -2   42.07    1.63
   5   9  -2   39.31    1.41
   5   9  -2   41.18    1.77
   5   9  -2   40.85    2.07
   5   9  -2   40.28    1.72
  -5  -9   2   40.27    1.62
   4   9  -2    4.37    0.33
   4   9  -2    4.27    0.23
   4   9  -2    4.19    0.46
   4   9  -2    3.95    0.27
   4   9  -2    4.18    0.42
   4   9  -2    4.35    0.31
   4   9  -2    4.50    0.22
   4   9  -2    4.97    0.27
  -4  -9   2    4.45    0.29
   3   9  -2   14.79    0.67
   3   9  -2   15.77    0.65
   3   9  -2   13.81    0.71
   3   9  -2   15.58    0.74
   3   9  -2   15.68    0.57
   3   9  -2   14.59    0.98
   3   9  -2   15.23    0.56
   2   9  -2   27.04    0.93
   2   9  -2   26.16    1.14
   2   9  -2   27.08    1.04
   2   9  -2   24.23    1.09
   2   9  -2   25.43    1.53
   2   9  -2   25.61    0.91
   2   9  -2   26.96    1.18
   1   9  -2    2.15    0.22
   1   9  -2    2.04    0.19
   1   9  -2    2.06    0.13
   1   9  -2    2.18    0.13
   1   9  -2    1.98    0.28
   0   9  -2   25.19    1.08
   0   9  -2   24.26    0.87
   7   8  -2   16.68    0.98
   7   8  -2   16.91    0.80
  -7  -8   2   16.03    0.73
   6   8  -2    2.26    0.51
   6   8  -2    2.96    0.47
   6   8  -2    3.10    0.42
   6   8  -2    3.17    0.30
  -6  -8   2    2.60    0.28
   5   8  -2    6.59    0.41
   5   8  -2    7.07    0.34
   5   8  -2    7.15    0.49
   5   8  -2    7.23    0.82
   5   8  -2    7.40    0.74
   5   8  -2    7.05    0.65
   5   8  -2    6.88    0.43
   5   8  -2    7.31    0.46
   5   8  -2    6.98    0.43
   5   8  -2    7.12    0.45
   5   8  -2    7.58    0.36
   4   8  -2    0.61    0.15
   4   8  -2    0.73    0.18
   4   8  -2    0.62    0.13
   4   8  -2    0.60    0.16
   4   8  -2    0.63    0.31
   4   8  -2    0.43    0.27
   4   8  -2    0.34    0.35
   4   8  -2    0.69    0.22
   4   8  -2    0.57    0.12
   4   8  -2    0.68    0.21
   3   8  -2   10.45    0.95
   3   8  -2   10.11    0.83
   3   8  -2    9.75    0.43
   3   8  -2   10.18    0.43
   3   8  -2    9.94    0.50
   3   8  -2   10.24    0.58
   3   8  -2    9.69    0.72
   3   8  -2   10.21    0.52
   3   8  -2    9.95    0.53
   3   8  -2   10.18    0.61
   2   8  -2    2.35    0.29
   2   8  -2    3.05    0.31
   2   8  -2    2.35    0.34
   2   8  -2    3.00    0.44
   2   8  -2    2.45    0.23
   2   8  -2    2.81    0.20
   2   8  -2    2.66    0.22
   2   8  -2    2.31    0.44
   2   8  -2    2.78    0.19
   1   8  -2   23.26    1.13
   1   8  -2   23.41    1.67
   1   8  -2   23.97    1.02
   1   8  -2   23.59    1.08
   1   8  -2   23.18    0.98
   1   8  -2   24.05    1.47
   1   8  -2   23.85    0.87
   1   8  -2   25.22    0.85
   0   8  -2   14.24    0.66
   0   8  -2   15.19    0.55
   0   8  -2   14.76    0.98
   0   8  -2   14.57    1.12
   0   8  -2   15.69    0.76
   0   8  -2   15.39    0.63
   0   8  -2   15.49    0.56
  -1   8  -2    0.49    0.07
  -1   8  -2    0.64    0.15
  -1   8  -2    0.48    0.08
  -1   8  -2    0.52    0.20
  -1   8  -2    0.44    0.07
  -2   8  -2    9.77    0.37
  -2   8  -2   10.16    0.47
   8   7  -2    0.32    0.18
  -8  -7   2    0.71    0.17
   7   7  -2   25.25    1.21
   7   7  -2   22.03    1.79
   7   7  -2   24.07    1.59
  -7  -7   2   24.75    1.05
   6   7  -2   22.44    1.14
   6   7  -2   22.75    1.01
   6   7  -2   22.38    1.55
   6   7  -2   22.13    1.77
   5   7  -2   32.76    1.46
   5   7  -2   33.93    2.09
   5   7  -2   32.41    1.20
   5   7  -2   30.89    1.54
   5   7  -2   32.40    1.38
   5   7  -2   32.77    1.54
   5   7  -2   33.10    2.37
   4   7  -2   42.44    1.51
   4   7  -2   42.95    1.77
   4   7  -2   42.51    1.87
   4   7  -2   46.77    1.84
   4   7  -2   41.86    1.75
   4   7  -2   39.11    1.93
   4   7  -2   43.16    2.93
   4   7  -2   42.24    1.53
   4   7  -2   43.59    2.59
   4   7  -2   40.51    2.26
   4   7  -2   41.38    1.93
   3   7  -2    3.59    0.62
   3   7  -2    2.90    0.30
   3   7  -2    3.50    0.25
   3   7  -2    3.79    0.31
   3   7  -2    3.32    0.54
   3   7  -2    3.94    0.38
   3   7  -2    3.53    0.24
   3   7  -2    3.39    0.36
   3   7  -2    2.91    0.29
   3   7  -2    3.02    0.42
   3   7  -2    3.68    0.31
   2   7  -2   95.69    3.22
   2   7  -2   96.74    3.73
   2   7  -2   93.12    3.31
   2   7  -2   94.53    5.28
   2   7  -2   93.96    3.96
   2   7  -2   97.57    3.87
   2   7  -2   98.50    5.99
   2   7  -2   89.95    4.69
   2   7  -2   94.49    4.08
   1   7  -2   20.83    0.87
   1   7  -2   18.97    1.28
   1   7  -2   18.97    0.97
   1   7  -2   18.12    0.92
   1   7  -2   18.00    1.12
   1   7  -2   19.72    0.71
   1   7  -2   19.16    0.83
   1   7  -2   19.93    1.45
   1   7  -2   17.94    0.72
   0   7  -2   12.85    0.50
   0   7  -2   12.63    0.92
   0   7  -2   12.70    0.67
   0   7  -2   13.08    0.72
   0   7  -2   12.57    1.04
   0   7  -2   12.28    0.50
   0   7  -2   13.00    0.58
   0   7  -2   13.30    0.61
  -1   7  -2   61.34    3.45
  -1   7  -2   64.39    2.10
  -1   7  -2   59.31    2.15
  -1   7  -2   63.52    2.68
  -1   7  -2   60.34    3.91
  -1   7  -2   63.54    2.51
  -1   7  -2   58.53    2.40
  -2   7  -2    1.42    0.12
  -2   7  -2    1.53    0.14
  -2   7  -2    1.25    0.27
  -2   7  -2    1.50    0.13
  -2   7  -2    1.29    0.30
  -2   7  -2    1.58    0.12
  -2   7  -2    1.30    0.20
  -3   7  -2   26.63    0.92
  -3   7  -2   25.61    1.50
  -3   7  -2   25.45    0.90
   8   6  -2    8.07    0.84
   7   6  -2   21.82    1.58
   7   6  -2   20.72    1.79
   7   6  -2   23.26    1.20
  -7  -6   2   22.86    0.97
   6   6  -2    1.29    0.56
   6   6  -2    1.02    0.27
   6   6  -2    1.32    0.20
   6   6  -2    1.30    0.47
   5   6  -2   43.82    2.99
   5   6  -2   42.15    1.52
   5   6  -2   40.99    2.01
   5   6  -2   41.04    2.62
   5   6  -2   44.33    1.74
   4   6  -2   16.94    0.78
   4   6  -2   16.40    0.91
   4   6  -2   15.97    0.64
   4   6  -2   16.31    0.81
   4   6  -2   15.65    0.79
   4   6  -2   15.71    0.63
   4   6  -2   17.30    1.45
   4   6  -2   17.35    1.28
   3   6  -2    2.53    0.25
   3   6  -2    1.73    0.41
   3   6  -2    1.94    0.49
   3   6  -2    2.41    0.27
   3   6  -2    2.68    0.41
   3   6  -2    1.75    0.17
   2   6  -2   43.37    1.52
   2   6  -2   42.88    1.84
   2   6  -2   44.36    2.94
   2   6  -2   44.59    2.31
   2   6  -2   44.10    1.90
   2   6  -2   43.96    2.60
   1   6  -2    2.72    0.19
   1   6  -2    3.65    0.55
   1   6  -2    3.05    0.42
   1   6  -2    2.54    0.28
   1   6  -2    3.61    0.50
   1   6  -2    3.38    0.25
   0   6  -2   13.21    0.73
   0   6  -2   12.56    0.67
   0   6  -2   13.23    0.60
   0   6  -2   13.06    1.07
   0   6  -2   12.05    0.49
   0   6  -2   12.78    0.94
   0   6  -2   12.76    0.61
  -1   6  -2   64.41    2.19
  -1   6  -2   57.86    3.93
  -1   6  -2   60.98    2.80
  -1   6  -2   63.34    3.61
  -1   6  -2   67.04    4.11
  -1   6  -2   67.43    2.53
  -1   6  -2   67.05    2.63
  -2   6  -2    1.46    0.13
  -2   6  -2    1.61    0.17
  -2   6  -2    2.32    0.41
  -2   6  -2    1.36    0.24
  -2   6  -2    1.69    0.15
  -2   6  -2    1.44    0.16
  -2   6  -2    1.44    0.31
  -3   6  -2    8.04    0.35
  -3   6  -2    8.06    0.42
  -3   6  -2    8.12    0.53
  -3   6  -2    9.02    0.70
  -3   6  -2    8.52    0.77
  -3   6  -2    8.69    0.51
  -3   6  -2    8.31    0.41
  -4   6  -2    3.28    0.18
  -4   6  -2    3.25    0.19
  -4   6  -2    2.92    0.27
  -4   6  -2    3.07    0.20
  -4   6  -2    3.14    0.18
  -4   6  -2    2.58    0.36
  -5   6  -2    5.27    0.22
  -9  -5   2   12.18    0.67
   8   5  -2   18.41    1.40
   8   5  -2   17.28    1.58
  -8  -5   2   19.34    0.97
   7   5  -2   46.36    3.31
   7   5  -2   48.28    2.92
  -7  -5   2   47.39    2.20
   6   5  -2   65.29    2.42
   6   5  -2   61.27    4.14
   6   5  -2   61.07    3.85
   6   5  -2   56.58    3.61
   5   5  -2    0.91    0.54
   5   5  -2    1.05    0.26
   5   5  -2    1.14    0.46
  -5  -5   2    0.93    0.26
   4   5  -2   86.47    4.73
   4   5  -2   88.07    5.65
   4   5  -2   90.06    4.99
   4   5  -2   92.69    3.78
   4   5  -2   91.04    5.37
  -4  -5   2   82.80    4.62
   3   5  -2  189.23   11.78
   3   5  -2  200.45    7.68
   3   5  -2  187.19   10.39
   3   5  -2  192.41   11.41
   3   5  -2  189.81    9.97
   2   5  -2    5.38    0.31
   2   5  -2    5.25    0.67
   1   5  -2  174.00    7.10
   1   5  -2  181.76   10.89
   0   5  -2    6.78    0.36
   0   5  -2    6.49    0.69
   0   5  -2    6.67    0.62
  -1   5  -2   34.58    2.05
  -1   5  -2   32.70    1.44
  -1   5  -2   35.87    2.33
  -1   5  -2   33.90    1.19
  -2   5  -2   88.83    4.78
  -2   5  -2   89.12    5.42
  -2   5  -2   80.13    3.69
  -2   5  -2   90.64    3.51
  -2   5  -2   89.10    3.37
  -2   5  -2   82.56    5.23
  -2   5  -2   84.24    3.35
  -2   5  -2   82.52    2.91
  -3   5  -2    9.28    0.77
  -3   5  -2    8.73    0.85
  -3   5  -2    8.33    0.44
  -3   5  -2    9.70    0.47
  -3   5  -2    8.29    0.57
  -3   5  -2    8.73    0.39
  -3   5  -2    8.35    0.57
  -3   5  -2    8.41    0.38
  -4   5  -2   44.77    2.95
  -4   5  -2   42.80    1.80
  -4   5  -2   48.43    2.62
  -4   5  -2   45.11    1.60
  -4   5  -2   43.06    1.85
  -4   5  -2   45.83    1.88
  -5   5  -2    1.42    0.15
  -5   5  -2    1.27    0.13
  -5   5  -2    1.51    0.14
  -5   5  -2    1.42    0.13
  -5   5  -2    1.37    0.22
  -5   5  -2    1.72    0.22
  -5   5  -2    1.35    0.16
  -9  -4   2   12.87    0.67
  -9  -4   2   11.21    0.67
   8   4  -2    2.92    0.76
   8   4  -2    3.32    0.65
   7   4  -2   14.55    1.58
   7   4  -2   14.43    1.38
  -7  -4   2   19.09    0.90
   6   4  -2   50.00    3.23
   5   4  -2    3.93    0.65
   5   4  -2    5.26    0.51
   5   4  -2    2.98    0.70
   5   4  -2    5.16    0.48
  -5  -4   2    5.54    0.47
   4   4  -2  102.91    6.38
   4   4  -2  109.34    5.54
  -4  -4   2  104.02    5.44
   3   4  -2   88.92    5.04
   3   4  -2   76.34    5.24
   3   4  -2   87.93    4.39
   3   4  -2   79.80    3.51
  -3  -4   2   88.37    4.30
  -3  -4   2   76.57    5.01
   2   4  -2   60.14    3.42
   2   4  -2   58.97    3.67
   2   4  -2   59.00    3.01
  -2  -4   2   48.87    3.48
  -2  -4   2   54.93    2.93
   1   4  -2   98.49    5.91
   1   4  -2  106.52    6.38
   0   4  -2    9.93    0.79
   0   4  -2   10.58    0.90
  -1   4  -2  174.47    7.11
  -1   4  -2  181.47   10.88
  -2   4  -2   63.68    3.95
  -2   4  -2   63.57    3.58
  -2   4  -2   62.88    2.60
  -2   4  -2   62.57    4.05
  -3   4  -2    9.89    0.49
  -3   4  -2    9.50    0.90
  -3   4  -2    9.85    0.83
  -3   4  -2    8.44    0.58
  -3   4  -2    8.73    0.41
  -3   4  -2    8.97    0.50
  -3   4  -2    9.26    0.88
  -4   4  -2   28.29    1.25
  -4   4  -2   27.61    1.30
  -4   4  -2   29.35    1.39
  -4   4  -2   29.82    1.24
  -4   4  -2   32.83    1.30
  -4   4  -2   29.44    1.84
  -4   4  -2   28.06    1.08
  -4   4  -2   28.34    2.06
  -5   4  -2    4.15    0.26
  -5   4  -2    3.98    0.59
  -5   4  -2    4.47    0.32
  -5   4  -2    3.90    0.35
  -5   4  -2    3.90    0.26
  -5   4  -2    3.83    0.30
  -5   4  -2    3.00    0.33
  -5   4  -2    3.02    0.35
  -6   4  -2    2.85    0.28
  -6   4  -2    2.43    0.26
  -6   4  -2    2.92    0.20
  -6   4  -2    2.55    0.27
  -6   4  -2    2.83    0.23
  -6   4  -2    3.15    0.21
  -9  -3   2    6.61    0.45
  -9  -3   2    6.72    0.44
   8   3  -2    8.70    1.24
  -8  -3   2   13.55    0.71
  -8  -3   2   13.25    0.76
   7   3  -2    1.46    0.71
   7   3  -2    1.33    0.62
  -7  -3   2    2.23    0.27
  -6  -3   2   24.53    2.09
  -6  -3   2   26.10    1.24
   5   3  -2   63.01    3.39
   5   3  -2   66.26    3.96
  -5  -3   2   55.14    4.25
  -5  -3   2   65.89    3.35
   4   3  -2    5.45    0.43
   4   3  -2    6.20    0.52
  -4  -3   2    6.24    1.01
  -4  -3   2    5.70    0.43
   3   3  -2   96.04    4.98
   3   3  -2  100.89    5.78
  -3  -3   2   87.19    5.62
  -3  -3   2   98.10    4.90
   2   3  -2   24.08    1.28
   2   3  -2   25.32    1.48
  -2  -3   2   23.02    1.25
  -2  -3   2   20.35    1.59
   1   3  -2  107.90    5.59
   1   3  -2  116.03    6.19
   1   3  -2  109.67    6.47
  -1  -3   2  101.07    5.49
   0   3  -2  204.67   11.46
  -1   3  -2    3.10    0.33
  -2   3  -2  268.75   15.90
  -2   3  -2  278.01   17.22
  -2   3  -2  295.62   11.32
  -2   3  -2  294.84   16.73
  -3   3  -2    9.65    0.91
  -3   3  -2    9.57    0.87
  -3   3  -2    8.73    0.48
  -3   3  -2    8.41    0.77
  -4   3  -2   17.01    1.37
  -4   3  -2   15.52    0.80
  -4   3  -2   15.39    0.76
  -4   3  -2   15.52    0.62
  -4   3  -2   15.23    0.77
  -4   3  -2   15.72    0.86
  -4   3  -2   16.70    1.17
  -4   3  -2   15.63    0.74
  -4   3  -2   16.15    1.31
  -4   3  -2   15.30    0.75
  -5   3  -2  126.46    4.98
  -5   3  -2  129.12    8.02
  -5   3  -2  126.61    7.08
  -5   3  -2  124.45    4.47
  -5   3  -2  130.54    5.05
  -5   3  -2  142.28    5.26
  -5   3  -2  129.08    5.94
  -5   3  -2  119.30    4.37
  -5   3  -2  128.42    5.09
  -5   3  -2  131.66    4.89
  -6   3  -2    7.17    0.50
  -6   3  -2    6.83    0.52
  -6   3  -2    7.30    0.81
  -6   3  -2    7.69    0.56
  -6   3  -2    7.03    0.51
  -6   3  -2    7.14    0.46
  -6   3  -2    7.34    0.38
  -6   3  -2    8.04    0.39
  -6   3  -2    7.93    0.45
  -7   3  -2   31.49    1.35
  -7   3  -2   33.61    1.31
  -7   3  -2   31.73    1.16
  -7   3  -2   32.19    1.14
  -7   3  -2   32.86    1.30
  -7   3  -2   30.45    1.30
  -9  -2   2   11.05    0.61
  -9  -2   2   11.14    0.55
  -8  -2   2   66.48    2.99
  -8  -2   2   65.51    2.95
   7   2  -2    1.12    0.73
   7   2  -2    1.00    0.67
  -7  -2   2    1.44    0.26
  -7  -2   2    1.55    0.21
  -6  -2   2   49.26    2.31
  -6  -2   2   52.35    3.39
   5   2  -2   45.84    2.50
  -5  -2   2   44.46    3.12
  -5  -2   2   46.44    2.47
   4   2  -2    3.87    0.58
   4   2  -2    3.23    0.29
   4   2  -2    3.18    0.38
  -4  -2   2    3.05    0.29
  -4  -2   2    3.10    0.64
   3   2  -2  159.15    9.06
   3   2  -2  149.46    7.78
  -3  -2   2  155.24    7.66
  -3  -2   2  135.64    9.30
  -3  -2   2  155.08    8.50
   2   2  -2   85.53    4.00
   2   2  -2   80.50    4.65
  -2  -2   2   76.06    3.93
  -2  -2   2   64.76    4.86
   1   2  -2    2.99    0.24
   1   2  -2    3.22    0.31
   1   2  -2    3.14    0.21
  -1  -2   2    2.55    0.19
   0   2  -2   35.11    1.96
   0   2  -2   33.52    2.03
   0   2  -2   33.40    1.75
   0  -2   2   32.77    1.70
  -1   2  -2    5.97    0.39
  -1   2  -2    6.10    0.45
  -1   2  -2    5.89    0.39
  -2   2  -2  175.08    9.65
  -2   2  -2  169.07   10.19
  -3   2  -2   44.18    1.90
  -3   2  -2   45.25    2.95
  -3   2  -2   46.85    3.00
  -3   2  -2   46.18    2.70
  -4   2  -2   13.21    0.71
  -4   2  -2   14.78    1.27
  -4   2  -2   12.09    0.66
  -4   2  -2   13.25    0.98
  -4   2  -2   13.15    1.07
  -5   2  -2  174.03    5.95
  -5   2  -2  168.70    7.45
  -5   2  -2  162.18    6.98
  -5   2  -2  168.87    6.59
  -5   2  -2  175.15    6.47
  -5   2  -2  163.78    5.82
  -5   2  -2  176.82    6.74
  -5   2  -2  174.46    6.74
  -5   2  -2  175.38    7.88
  -5   2  -2  174.50    9.36
  -5   2  -2  177.14   10.60
  -5   2  -2  177.26   10.56
  -6   2  -2    2.37    0.35
  -6   2  -2    3.18    0.35
  -6   2  -2    1.94    0.27
  -6   2  -2    3.09    0.57
  -6   2  -2    2.77    0.24
  -6   2  -2    2.25    0.21
  -6   2  -2    2.92    0.32
  -6   2  -2    2.47    0.29
  -6   2  -2    2.33    0.30
  -6   2  -2    2.41    0.23
  -7   2  -2   34.82    1.41
  -7   2  -2   34.38    1.41
  -7   2  -2   33.71    1.23
  -7   2  -2   31.45    1.22
  -7   2  -2   35.56    1.43
  -7   2  -2   30.66    1.47
  -7   2  -2   34.35    1.45
  -7   2  -2   32.08    1.66
   7  -2   2   34.15    2.55
  -8   2  -2    8.46    0.43
  -8   2  -2    8.71    0.41
  -8   2  -2    7.71    0.45
  -8  -1   2   13.18    0.65
  -8  -1   2   11.48    0.69
  -8  -1   2   12.11    0.83
   7   1  -2    7.17    1.22
   7   1  -2    8.83    1.23
  -7  -1   2   11.89    0.76
  -7  -1   2    9.78    0.59
  -7  -1   2   10.34    0.60
   6   1  -2    5.85    0.98
   6   1  -2    8.01    1.05
  -6  -1   2    8.01    0.40
  -6  -1   2    7.36    0.52
  -6  -1   2    8.14    0.49
  -6  -1   2    7.73    0.59
  -6  -1   2    7.65    0.64
   5   1  -2   39.69    2.20
   5   1  -2   38.93    2.75
  -5  -1   2   39.29    1.92
  -5  -1   2   41.35    2.62
   4   1  -2   25.73    1.76
   4   1  -2   23.39    1.38
  -4  -1   2   22.61    2.00
  -4  -1   2   25.30    1.38
  -4  -1   2   26.50    1.76
   3   1  -2   11.67    0.69
  -3  -1   2   10.63    1.13
  -3  -1   2   12.88    1.02
  -3  -1   2   12.19    0.70
   2   1  -2  238.02   11.76
   2   1  -2  232.53   13.68
  -2  -1   2  242.00   12.78
  -2  -1   2  227.52   13.85
  -2  -1   2  198.15   13.57
  -2  -1   2  240.78   12.76
  -2  -1   2  229.15   11.57
   1   1  -2   16.43    0.87
   1   1  -2   16.02    1.02
  -1  -1   2   16.48    0.94
  -1  -1   2   15.72    0.85
   0   1  -2   46.14    2.47
   0   1  -2   45.30    2.24
   0   1  -2   41.96    2.62
   0  -1   2   40.66    2.46
  -1   1  -2   30.58    1.75
  -1   1  -2   29.96    1.85
  -2   1  -2   39.37    2.44
  -2   1  -2   38.80    2.31
  -2   1  -2   42.23    2.53
  -3   1  -2  138.37    8.62
  -3   1  -2  148.84    8.59
  -3   1  -2  143.70    8.09
  -4   1  -2    4.35    0.76
  -4   1  -2    3.16    0.30
  -4   1  -2    3.36    0.28
  -4   1  -2    3.34    0.43
  -4   1  -2    2.96    0.36
  -5   1  -2   44.10    2.10
  -5   1  -2   41.67    1.92
  -5   1  -2   45.22    2.89
  -5   1  -2   45.34    1.58
  -5   1  -2   43.65    3.20
  -6   1  -2   28.58    1.40
  -6   1  -2   34.60    2.11
  -6   1  -2   27.57    1.37
  -6   1  -2   29.55    1.29
  -6   1  -2   26.99    1.12
  -6   1  -2   29.11    1.48
  -6   1  -2   29.81    1.26
  -6   1  -2   28.83    1.39
  -6   1  -2   31.48    2.67
  -7   1  -2   11.42    0.61
  -7   1  -2   11.71    0.67
  -7   1  -2   11.41    0.65
  -7   1  -2   12.15    0.72
  -7   1  -2   12.87    0.72
  -7   1  -2   11.16    0.69
  -7   1  -2   11.58    0.52
   7  -1   2   11.81    1.33
  -8   1  -2   19.37    0.86
  -8   1  -2   18.33    0.83
  -8   1  -2   17.57    0.96
  -8   1  -2   18.40    0.83
   8  -1   2   13.70    1.36
  -8   0   2   45.53    2.16
  -8   0   2   48.52    1.95
  -8   0   2   48.30    1.93
  -8   0   2   45.25    2.28
  -7   0   2   56.00    2.43
  -7   0   2   57.95    2.58
  -7   0   2   56.98    2.43
  -7   0   2   57.16    2.33
  -7   0   2   62.93    2.84
  -7   0   2   57.28    2.66
  -7   0   2   58.26    2.09
   6   0  -2    5.55    0.97
  -6   0   2    6.35    0.56
  -6   0   2    7.85    0.57
  -6   0   2    6.47    0.37
  -6   0   2    7.05    0.53
  -6   0   2    6.24    0.44
  -6   0   2    5.68    0.41
  -6   0   2    6.15    0.51
  -6   0   2    5.61    0.40
  -6   0   2    4.91    0.98
   5   0  -2  226.69   12.62
  -5   0   2  206.57   12.43
  -5   0   2  196.58    9.31
  -5   0   2  197.42    8.26
  -5   0   2  195.68    6.88
   4   0  -2   20.95    1.31
   4   0  -2   26.33    1.72
  -4   0   2   22.60    1.52
  -4   0   2   25.36    1.86
   3   0  -2  222.44   11.46
  -3   0   2  236.45   13.36
  -3   0   2  211.18   13.26
   2   0  -2  308.76   15.06
  -2   0   2  305.11   17.55
  -2   0   2  269.45   17.27
   1   0  -2   46.22    2.28
  -1   0   2   46.08    2.73
  -1   0   2   38.32    2.70
   0   0  -2  342.51   18.60
   0   0   2  328.48   18.57
  -1   0  -2  248.25   12.68
  -1   0  -2  207.97   11.46
   1   0   2  229.02   12.68
  -2   0  -2   81.96    4.13
  -2   0  -2   87.74    4.91
  -2   0  -2   84.21    4.60
  -2   0  -2   80.09    4.94
   2   0   2   75.17    4.20
  -3   0  -2  308.14   17.72
  -3   0  -2  306.24   17.96
  -3   0  -2  304.72   15.15
  -3   0  -2  297.63   16.77
   3   0   2  290.04   15.40
  -4   0  -2   13.05    0.94
  -4   0  -2   12.78    0.92
  -4   0  -2   12.93    0.87
  -5   0  -2   92.95    5.55
  -5   0  -2   88.75    4.13
  -5   0  -2   89.22    5.84
  -5   0  -2   87.97    5.47
  -6   0  -2   75.17    3.07
  -6   0  -2   75.32    3.44
  -6   0  -2   77.90    3.58
  -6   0  -2   80.01    2.70
  -6   0  -2   73.72    2.96
  -7   0  -2    4.47    0.40
  -7   0  -2    4.75    0.42
  -7   0  -2    3.21    0.34
  -7   0  -2    4.42    0.40
   7   0   2    5.79    0.90
  -8   0  -2   50.98    2.19
  -8   0  -2   50.93    2.00
  -8   0  -2   52.91    2.06
  -8   0  -2   48.95    2.38
   8   0   2   41.53    2.96
  -8   1   2    1.16    0.16
  -8   1   2    1.26    0.19
  -8   1   2    1.54    0.22
   7  -1  -2    8.49    1.43
  -7   1   2   11.70    0.71
  -7   1   2   12.47    0.55
  -7   1   2   12.81    0.66
  -7   1   2   12.93    0.68
  -7   1   2   11.92    0.80
  -7   1   2   12.41    0.53
  -7   1   2   12.39    0.71
  -7   1   2   12.71    0.64
   6  -1  -2    3.77    0.87
  -6   1   2    4.02    0.29
  -6   1   2    4.64    0.46
  -6   1   2    4.57    0.40
  -6   1   2    3.76    0.38
  -6   1   2    4.00    0.29
  -6   1   2    4.16    0.37
  -6   1   2    3.60    0.38
  -6   1   2    4.06    0.38
  -6   1   2    4.40    0.47
  -6   1   2    4.19    0.31
   5  -1  -2   18.22    1.54
  -5   1   2   16.38    0.89
  -5   1   2   15.93    1.43
  -5   1   2   13.76    0.78
  -5   1   2   15.39    0.66
  -5   1   2   14.66    0.78
  -4   1   2   60.31    3.73
  -4   1   2   56.65    2.39
  -4   1   2   54.59    2.69
  -4   1   2   57.97    3.65
   3  -1  -2    4.24    0.33
   2  -1  -2  179.23    8.78
  -2   1   2  165.71    9.48
  -2   1   2  167.22   10.06
   1  -1  -2   16.81    0.98
   1  -1  -2   17.34    1.03
   1  -1  -2   17.44    0.96
  -1   1   2   16.68    1.12
   0  -1  -2    3.43    0.28
   0   1   2    2.75    0.30
   0   1   2    2.60    0.30
  -1  -1  -2  132.83    6.71
   1   1   2  102.27    7.01
   1   1   2  125.14    6.71
   1   1   2  119.93    6.18
   1   1   2  118.40    7.15
  -2  -1  -2    4.79    0.38
  -2  -1  -2    4.58    0.51
  -2  -1  -2    4.18    0.29
   2   1   2    5.02    0.32
   2   1   2    5.00    0.39
  -3  -1  -2   11.62    0.76
  -3  -1  -2   11.31    0.63
  -3  -1  -2   11.12    0.90
  -3  -1  -2   11.52    0.94
   3   1   2   11.42    0.66
   3   1   2   10.45    0.79
  -4  -1  -2   28.32    1.79
  -4  -1  -2   29.59    2.14
  -4  -1  -2   30.28    1.58
  -4  -1  -2   31.47    2.03
   4   1   2   28.78    1.61
  -5  -1  -2   27.18    1.39
  -5  -1  -2   26.19    1.97
  -5  -1  -2   29.86    1.59
   5   1   2   32.84    1.99
  -6  -1  -2   84.71    5.47
  -6  -1  -2   84.86    4.09
   6   1   2   95.52    5.60
  -7  -1  -2   15.23    0.84
  -7  -1  -2   13.64    0.75
  -7  -1  -2   15.13    0.79
  -7  -1  -2   14.48    0.76
   7   1   2   14.03    1.34
  -8  -1  -2    3.82    0.42
  -8  -1  -2    3.67    0.39
  -8  -1  -2    3.90    0.33
  -8  -1  -2    4.16    0.40
   8   1   2    2.77    0.69
   8   1   2    1.99    0.61
  -9  -1  -2   11.56    0.57
  -9  -1  -2   11.13    0.62
  -7   2   2   52.73    2.63
  -7   2   2   56.54    2.18
  -7   2   2   51.61    2.26
  -7   2   2   53.68    2.13
  -7   2   2   56.13    2.14
  -7   2   2   53.28    2.24
  -7   2   2   56.95    1.93
  -7   2   2   55.84    1.89
   6  -2  -2   25.73    2.03
  -6   2   2   22.28    1.06
  -6   2   2   22.26    1.02
  -6   2   2   22.40    1.11
  -6   2   2   22.36    1.04
  -6   2   2   23.29    0.88
  -6   2   2   24.70    1.29
  -6   2   2   23.50    0.89
  -6   2   2   23.65    1.07
  -5   2   2   51.47    2.16
  -5   2   2   55.95    2.26
  -5   2   2   53.44    2.24
  -5   2   2   51.01    2.17
  -5   2   2   54.16    1.92
  -5   2   2   52.09    2.34
  -5   2   2   54.20    1.88
  -5   2   2   55.78    3.56
  -5   2   2   51.76    2.18
  -5   2   2   55.47    3.51
  -5   2   2   54.12    2.60
  -4   2   2  208.93    8.44
  -4   2   2  205.99    9.60
  -4   2   2  214.44   12.54
  -4   2   2  212.20    7.05
  -4   2   2  212.43   12.84
  -3   2   2    0.61    0.26
  -3   2   2    1.16    0.30
  -3   2   2    0.77    0.12
   2  -2  -2  375.00   18.51
  -2   2   2  347.60   21.03
  -1   2   2  155.21    8.61
  -1   2   2  152.82    8.97
   0  -2  -2   15.28    1.02
  -1  -2  -2 1000.00   54.48
   1   2   2  964.21   56.96
  -2  -2  -2   45.43    2.45
  -2  -2  -2   47.59    2.80
   2   2   2   46.49    2.87
   2   2   2   49.43    2.51
  -3  -2  -2  178.80   11.66
  -3  -2  -2  186.17    9.74
  -3  -2  -2  198.76   10.84
   3   2   2  205.36    9.92
   3   2   2  195.25   11.51
  -4  -2  -2  119.55    7.11
  -4  -2  -2  126.00    7.75
  -4  -2  -2  128.92    6.38
   4   2   2  129.25    7.57
   4   2   2  122.64    6.50
  -5  -2  -2   41.10    2.83
  -5  -2  -2   40.21    2.48
  -5  -2  -2   41.97    2.20
   5   2   2   39.42    2.25
   5   2   2   39.56    2.66
   5   2   2   43.76    2.68
  -6  -2  -2   70.91    4.70
  -6  -2  -2   72.11    3.82
  -6  -2  -2   77.13    3.40
  -6  -2  -2   77.27    4.76
   6   2   2   65.91    4.61
  -7  -2  -2    9.60    0.54
  -7  -2  -2   10.65    0.63
  -7  -2  -2   10.25    0.61
   7   2   2    6.66    0.93
   7   2   2    6.82    0.98
  -8  -2  -2   15.77    0.94
  -8  -2  -2   17.48    0.94
  -8  -2  -2   14.79    0.82
  -9  -2  -2   25.47    1.26
  -9  -2  -2   27.75    1.27
  -7   3   2    0.52    0.10
  -7   3   2    0.40    0.16
  -7   3   2    0.43    0.10
  -7   3   2    0.60    0.13
  -7   3   2    0.82    0.09
  -7   3   2    0.54    0.15
   6  -3  -2    1.10    0.56
  -6   3   2    2.16    0.28
  -6   3   2    2.01    0.27
  -6   3   2    2.00    0.21
  -6   3   2    1.31    0.31
  -6   3   2    1.88    0.20
  -6   3   2    1.81    0.16
  -6   3   2    2.11    0.17
  -6   3   2    1.68    0.29
  -5   3   2    4.36    0.25
  -5   3   2    4.68    0.44
  -5   3   2    4.10    0.41
  -5   3   2    4.98    0.44
  -5   3   2    4.61    0.33
  -5   3   2    4.73    0.51
  -5   3   2    5.00    0.32
  -5   3   2    4.53    0.26
  -5   3   2    4.51    0.60
  -4   3   2    2.45    0.19
  -4   3   2    1.90    0.29
  -4   3   2    2.26    0.32
  -4   3   2    2.02    0.30
  -4   3   2    2.24    0.23
  -4   3   2    2.35    0.44
  -4   3   2    2.24    0.22
  -4   3   2    1.96    0.46
  -4   3   2    2.10    0.30
  -3   3   2    8.14    0.67
  -3   3   2    8.67    0.73
  -3   3   2    8.60    0.75
  -3   3   2    7.70    0.54
  -3   3   2    8.84    0.42
  -2   3   2   17.85    1.27
  -2   3   2   18.39    1.20
   1  -3  -2    6.87    0.62
   0  -3  -2   69.05    4.04
  -1  -3  -2   15.61    1.09
   1   3   2   14.87    0.98
  -2  -3  -2  375.56   19.12
  -2  -3  -2  405.29   21.26
   2   3   2  386.82   22.47
   2   3   2  328.88   22.49
   2   3   2  402.22   19.45
  -3  -3  -2    1.59    0.20
  -3  -3  -2    2.30    0.46
   3   3   2    1.49    0.22
   3   3   2    1.61    0.25
  -4  -3  -2    3.42    0.48
  -4  -3  -2    3.61    0.33
   4   3   2    4.34    0.41
   4   3   2    3.69    0.35
  -5  -3  -2   30.00    1.70
   5   3   2   30.03    1.75
   5   3   2   32.05    2.04
  -6  -3  -2    2.88    0.66
  -6  -3  -2    4.25    0.37
  -6  -3  -2    3.35    0.38
   6   3   2    3.80    0.55
   6   3   2    4.09    0.47
   6   3   2    3.10    0.58
  -7  -3  -2   21.23    1.02
  -7  -3  -2   19.30    1.79
  -7  -3  -2   22.04    1.13
  -7  -3  -2   17.51    1.70
  -8  -3  -2    2.90    0.32
  -8  -3  -2    3.08    0.39
  -9  -3  -2   12.66    0.75
  -9  -3  -2   12.51    0.68
  -6   4   2   48.18    1.89
  -6   4   2   48.91    1.89
  -6   4   2   48.82    1.89
  -6   4   2   49.42    1.70
  -6   4   2   48.46    1.97
  -6   4   2   46.72    1.65
  -5   4   2    0.97    0.25
  -5   4   2    1.19    0.24
  -5   4   2    0.84    0.15
  -5   4   2    1.20    0.12
  -5   4   2    1.27    0.29
  -5   4   2    1.02    0.15
  -5   4   2    1.39    0.23
  -5   4   2    1.30    0.32
  -5   4   2    1.12    0.12
  -4   4   2   47.02    1.91
  -4   4   2   45.79    2.04
  -4   4   2   48.40    1.96
  -4   4   2   46.83    2.38
  -4   4   2   51.04    3.12
  -4   4   2   49.50    1.99
  -4   4   2   47.50    1.96
  -4   4   2   48.11    1.65
  -3   4   2   51.10    2.11
  -3   4   2   55.18    2.19
  -3   4   2   52.98    2.14
  -3   4   2   55.34    3.03
  -3   4   2   50.84    2.59
  -3   4   2   56.67    3.43
  -3   4   2   53.21    3.31
  -2   4   2   14.02    0.91
  -2   4   2   13.42    0.99
  -2   4   2   13.36    0.89
  -2   4   2   12.35    0.77
  -2   4   2   13.00    0.57
  -1   4   2  262.84   15.86
   0  -4  -2    0.53    0.32
  -1  -4  -2  278.23   15.68
  -1  -4  -2  278.54   14.08
  -2  -4  -2  217.09   10.92
  -2  -4  -2  223.44   12.19
   2   4   2  204.47   11.10
  -3  -4  -2    3.08    0.59
  -3  -4  -2    3.38    0.34
   3   4   2    2.39    0.33
   3   4   2    3.33    0.29
   3   4   2    2.54    0.23
  -4  -4  -2  255.03   12.07
  -4  -4  -2  201.89   13.44
   4   4   2  237.49    9.75
   4   4   2  253.16   14.16
  -5  -4  -2  125.49    6.54
   5   4   2  127.55    7.68
   5   4   2  126.78    6.68
  -6  -4  -2   63.42    3.46
   6   4   2   65.00    4.06
  -7  -4  -2  108.09    4.89
   7   4   2  111.19    6.83
  -8  -4  -2    1.18    0.22
  -9  -4  -2   44.31    2.05
  -5   5   2    3.83    0.19
  -5   5   2    4.16    0.33
  -5   5   2    4.01    0.19
  -5   5   2    3.85    0.33
  -5   5   2    3.97    0.23
  -5   5   2    3.90    0.30
  -4   5   2    7.42    0.69
  -4   5   2    7.88    0.37
  -4   5   2    8.20    0.40
  -4   5   2    8.05    0.33
  -4   5   2    8.06    0.49
  -4   5   2    7.99    0.53
  -4   5   2    8.29    0.50
  -4   5   2    8.05    0.33
  -3   5   2    3.18    0.40
  -3   5   2    2.66    0.19
  -3   5   2    2.77    0.42
  -3   5   2    2.28    0.30
  -3   5   2    2.96    0.16
  -3   5   2    2.37    0.18
  -3   5   2    2.80    0.31
  -2   5   2    7.61    0.35
  -2   5   2    7.56    0.69
  -2   5   2    8.58    0.54
  -2   5   2    7.93    0.62
  -2   5   2    7.33    0.34
  -1   5   2    2.91    0.39
  -1   5   2    3.36    0.39
   0   5   2   21.99    1.48
  -1  -5  -2    2.67    0.30
   1   5   2    2.66    0.15
  -2  -5  -2    1.96    0.29
   2   5   2    1.72    0.15
   2   5   2    2.12    0.15
  -3  -5  -2    3.26    0.41
   3   5   2    4.58    0.27
   3   5   2    4.52    0.26
   3   5   2    4.22    0.46
  -4  -5  -2   10.03    0.73
   4   5   2    9.42    0.51
   4   5   2    9.52    0.50
   4   5   2   10.29    0.77
  -5  -5  -2   36.81    2.15
   5   5   2   35.86    1.61
   5   5   2   38.48    2.23
   5   5   2   40.48    2.40
   5   5   2   36.70    1.67
  -6  -5  -2    1.94    0.26
   6   5   2    1.83    0.37
   6   5   2    1.45    0.32
  -7  -5  -2   16.35    0.89
   7   5   2   16.24    0.93
  -8  -5  -2   28.77    1.42
  -9  -5  -2    5.62    0.43
  -4   6   2    7.08    0.28
  -4   6   2    7.08    0.28
  -4   6   2    7.53    0.40
  -3   6   2  120.56    3.99
  -3   6   2  121.32    4.77
  -3   6   2  115.19    7.31
  -3   6   2  121.42    4.56
  -2   6   2   25.65    1.06
  -2   6   2   25.87    1.54
  -2   6   2   26.25    1.74
  -1   6   2    7.29    0.58
  -1   6   2    7.05    0.65
   0   6   2  118.32    4.70
   1   6   2    4.32    0.22
   2   6   2  118.00    4.66
   2   6   2  114.92    3.89
  -3  -6  -2   53.38    3.06
   3   6   2   57.71    1.93
   3   6   2   56.08    2.36
   3   6   2   57.94    2.31
  -4  -6  -2   23.50    1.48
   4   6   2   22.64    1.53
   4   6   2   24.67    1.05
   4   6   2   22.99    1.06
   4   6   2   24.24    0.87
   4   6   2   24.15    1.11
  -5  -6  -2  121.36    6.44
   5   6   2  118.22    4.24
   5   6   2  123.39    5.09
   5   6   2  125.04    5.03
   5   6   2  118.45    5.33
   5   6   2  122.24    4.95
   5   6   2  123.68    4.13
   5   6   2  120.53    4.73
   5   6   2  126.42    5.21
  -6  -6  -2    1.35    0.25
   6   6   2    1.14    0.16
   6   6   2    1.66    0.24
   6   6   2    1.47    0.27
   6   6   2    1.58    0.22
   6   6   2    1.33    0.22
  -7  -6  -2   64.18    3.03
   7   6   2   69.46    2.92
   7   6   2   65.45    3.00
  -8  -6  -2   46.90    2.32
   8   6   2   53.89    2.33
  -9  -6  -2    5.61    0.42
   9   6   2    6.57    0.45
   1   7   2   16.43    0.57
   1   7   2   16.22    0.82
   1   7   2   16.08    0.65
   1   7   2   16.50    0.68
   1   7   2   15.71    0.78
   2   7   2    0.47    0.09
   2   7   2    0.76    0.08
   2   7   2    0.59    0.16
   2   7   2    0.48    0.17
   2   7   2    0.40    0.16
   2   7   2    0.69    0.10
   3   7   2    6.25    0.43
   3   7   2    5.71    0.32
   3   7   2    6.37    0.27
   3   7   2    5.72    0.40
   3   7   2    5.79    0.31
   3   7   2    5.40    0.40
   4   7   2    8.79    0.52
   4   7   2    8.71    0.37
   4   7   2    8.82    0.45
   4   7   2    9.18    0.51
   4   7   2    8.33    0.39
   4   7   2    9.36    0.45
   4   7   2    8.26    0.44
   4   7   2    8.53    0.55
   5   7   2    4.33    0.26
   5   7   2    4.16    0.31
   5   7   2    3.74    0.31
   5   7   2    4.70    0.39
   5   7   2    4.01    0.25
   5   7   2    4.03    0.30
   5   7   2    3.97    0.30
   5   7   2    3.98    0.36
   5   7   2    4.34    0.41
   6   7   2    3.67    0.27
   6   7   2    3.81    0.40
   6   7   2    3.91    0.35
   6   7   2    3.72    0.36
   6   7   2    4.07    0.26
   6   7   2    4.35    0.40
   6   7   2    4.06    0.33
   6   7   2    4.23    0.32
   6   7   2    4.69    0.34
  -7  -7  -2    1.98    0.25
   7   7   2    2.54    0.30
   7   7   2    2.17    0.25
   7   7   2    1.68    0.23
   7   7   2    1.74    0.24
  -8  -7  -2    1.69    0.22
   8   7   2    1.83    0.24
   8   7   2    1.55    0.23
  -9  -7  -2    1.77    0.19
   9   7   2    1.74    0.19
   1   8   2   36.82    1.23
   1   8   2   35.75    1.47
   1   8   2   37.01    1.61
   1   8   2   36.10    1.56
   2   8   2   34.77    1.24
   2   8   2   36.77    1.58
   2   8   2   36.89    1.43
   2   8   2   36.67    1.63
   2   8   2   37.21    1.49
   3   8   2  128.12    5.05
   3   8   2  130.78    5.03
   3   8   2  132.24    5.36
   3   8   2  137.98    5.25
   3   8   2  129.97    4.38
   3   8   2  129.15    5.52
   3   8   2  129.41    4.52
   4   8   2   16.27    0.70
   4   8   2   15.15    0.67
   4   8   2   15.40    0.60
   4   8   2   15.30    0.76
   4   8   2   16.40    0.73
   4   8   2   14.47    0.80
   4   8   2   15.45    0.58
   5   8   2   93.03    3.83
   5   8   2  100.00    4.07
   5   8   2  101.03    3.99
   5   8   2  101.92    3.33
   5   8   2  100.03    3.83
   5   8   2   95.72    4.19
   5   8   2   97.70    3.42
   6   8   2   86.66    2.86
   6   8   2   80.49    3.63
   6   8   2   85.01    2.94
   6   8   2   82.92    3.30
   6   8   2   83.45    4.18
   6   8   2   85.18    3.29
   6   8   2   82.92    3.60
   6   8   2   88.75    3.49
   6   8   2   82.48    3.43
   7   8   2    1.40    0.22
   7   8   2    1.05    0.15
   7   8   2    1.10    0.16
   7   8   2    1.26    0.18
   7   8   2    1.21    0.30
  -8  -8  -2   46.17    1.88
   8   8   2   49.02    2.07
   8   8   2   50.02    2.11
   1   9   2    1.81    0.18
   2   9   2   18.31    0.66
   2   9   2   18.56    0.83
   2   9   2   18.65    0.64
   2   9   2   18.13    0.86
   3   9   2    6.03    0.35
   3   9   2    6.32    0.29
   3   9   2    6.46    0.26
   3   9   2    6.00    0.30
   3   9   2    6.34    0.38
   3   9   2    6.26    0.27
   3   9   2    7.45    0.42
   4   9   2    6.98    0.30
   4   9   2    7.18    0.34
   4   9   2    7.22    0.39
   4   9   2    6.98    0.29
   4   9   2    6.95    0.35
   4   9   2    6.79    0.41
   4   9   2    7.47    0.45
   5   9   2    6.87    0.29
   5   9   2    6.21    0.42
   5   9   2    6.10    0.33
   5   9   2    6.57    0.37
   5   9   2    6.56    0.33
   5   9   2    6.79    0.28
   5   9   2    6.81    0.38
   6   9   2    2.76    0.22
   6   9   2    2.83    0.18
   6   9   2    3.42    0.18
   6   9   2    3.23    0.25
   6   9   2    3.73    0.30
   6   9   2    2.51    0.25
   6   9   2    3.32    0.22
   7   9   2    3.48    0.22
   7   9   2    3.12    0.26
   7   9   2    3.50    0.23
   2  10   2    4.27    0.17
   3  10   2   19.30    0.69
   3  10   2   19.88    0.84
   3  10   2   19.71    0.87
   4  10   2   51.09    2.11
   4  10   2   51.29    1.72
   4  10   2   47.88    1.90
   4  10   2   48.52    2.04
   4  10   2   49.10    1.66
   5  10   2    0.52    0.10
   5  10   2    0.50    0.09
   5  10   2    0.34    0.12
   5  10   2    0.61    0.07
   5  10   2    0.52    0.06
   5  10   2    0.54    0.06
   6  10   2   46.99    1.87
   6  10   2   50.86    1.88
   6  10   2   49.52    2.06
   6  10   2   47.39    1.68
   6   9  -3    1.06    0.13
   6   9  -3    1.36    0.23
  -6  -9   3    1.17    0.15
   5   9  -3    2.89    0.23
   5   9  -3    3.48    0.37
   5   9  -3    2.69    0.24
  -5  -9   3    2.83    0.24
   4   9  -3    0.50    0.12
   4   9  -3    0.43    0.08
   4   9  -3    0.43    0.21
   4   9  -3    0.34    0.09
   4   9  -3    0.68    0.15
   4   9  -3    0.14    0.15
   4   9  -3    0.39    0.22
  -4  -9   3    0.58    0.14
   3   9  -3   12.36    0.52
   3   9  -3   11.22    0.45
   3   9  -3   11.28    0.80
   3   9  -3   12.13    0.45
   3   9  -3   11.59    0.60
   3   9  -3   11.56    0.57
   2   9  -3    0.99    0.24
   2   9  -3    0.95    0.15
   2   9  -3    1.07    0.10
   2   9  -3    1.01    0.12
   2   9  -3    1.26    0.19
   2   9  -3    1.13    0.10
   1   9  -3    6.58    0.37
   1   9  -3    8.22    0.32
   1   9  -3    7.70    0.30
   1   9  -3    7.60    0.29
   1   9  -3    7.80    0.41
  -1  -9   3    6.91    0.40
   0   9  -3    5.93    0.32
   0   9  -3    6.34    0.24
   7   8  -3   32.27    1.65
   7   8  -3   31.64    1.42
   7   8  -3   32.30    1.42
  -7  -8   3   30.86    1.29
   6   8  -3    3.16    0.32
   6   8  -3    2.68    0.46
   6   8  -3    2.99    0.40
   6   8  -3    3.17    0.30
  -6  -8   3    3.62    0.32
   5   8  -3   45.84    2.73
   5   8  -3   44.67    1.66
   5   8  -3   46.09    3.10
   5   8  -3   47.89    1.91
   5   8  -3   49.09    2.01
   5   8  -3   48.43    2.42
   5   8  -3   46.80    2.07
  -5  -8   3   45.71    1.89
   4   8  -3   38.17    2.00
   4   8  -3   37.45    1.36
   4   8  -3   39.18    1.35
   4   8  -3   37.71    1.71
   4   8  -3   40.81    1.68
   4   8  -3   37.66    2.27
   4   8  -3   38.12    1.62
   4   8  -3   37.33    1.56
   4   8  -3   35.49    2.56
   4   8  -3   38.47    1.57
  -4  -8   3   35.29    1.55
   3   8  -3   15.93    0.78
   3   8  -3   16.71    1.18
   3   8  -3   16.85    0.65
   3   8  -3   15.14    1.01
   3   8  -3   16.14    0.86
   3   8  -3   17.05    1.34
   3   8  -3   18.44    0.86
   3   8  -3   17.91    0.66
   3   8  -3   16.52    0.76
   2   8  -3  121.92    6.58
   2   8  -3  116.03    4.68
   2   8  -3  119.54    5.10
   2   8  -3  124.28    4.96
   2   8  -3  127.07    4.06
   2   8  -3  119.36    4.17
   2   8  -3  114.82    7.45
   2   8  -3  121.54    4.87
   1   8  -3    2.89    0.42
   1   8  -3    3.99    0.21
   1   8  -3    3.55    0.37
   1   8  -3    3.54    0.31
   1   8  -3    3.38    0.25
   1   8  -3    2.91    0.48
   1   8  -3    3.78    0.22
   1   8  -3    3.30    0.25
   0   8  -3   57.45    2.21
   0   8  -3   56.00    3.15
   0   8  -3   54.10    3.57
   0   8  -3   58.12    1.97
   0   8  -3   53.57    2.30
   0   8  -3   59.72    2.45
   0   8  -3   56.66    1.92
  -1   8  -3   63.14    2.61
  -1   8  -3   62.69    2.13
  -1   8  -3   59.96    3.37
  -1   8  -3   59.72    2.07
  -2   8  -3    0.49    0.06
  -2   8  -3    0.58    0.10
   8   7  -3    0.66    0.18
   8   7  -3    0.56    0.27
  -8  -7   3    0.82    0.16
   7   7  -3   14.29    1.11
   7   7  -3   15.68    0.82
  -7  -7   3   14.45    0.70
   6   7  -3    2.78    0.64
   6   7  -3    4.47    0.44
   6   7  -3    2.96    0.56
  -6  -7   3    4.01    0.38
   5   7  -3   12.68    0.66
   5   7  -3   12.91    1.24
   5   7  -3   12.59    0.75
   5   7  -3   13.07    0.68
   5   7  -3   13.74    0.95
   5   7  -3   12.83    1.10
   4   7  -3    2.02    0.32
   4   7  -3    2.11    0.55
   4   7  -3    2.16    0.21
   4   7  -3    1.52    0.44
   4   7  -3    1.61    0.23
   4   7  -3    1.61    0.25
   4   7  -3    1.71    0.24
   4   7  -3    2.56    0.44
   4   7  -3    2.25    0.20
   4   7  -3    2.01    0.28
   4   7  -3    2.01    0.26
   3   7  -3    1.83    0.45
   3   7  -3    1.53    0.22
   3   7  -3    2.24    0.28
   3   7  -3    2.87    0.58
   3   7  -3    2.10    0.24
   3   7  -3    2.10    0.24
   3   7  -3    2.07    0.20
   3   7  -3    2.12    0.18
   3   7  -3    1.99    0.25
   3   7  -3    2.95    0.42
   3   7  -3    2.47    0.34
   2   7  -3   12.97    0.73
   2   7  -3   13.70    0.67
   2   7  -3   13.19    0.56
   2   7  -3   13.97    0.56
   2   7  -3   15.12    1.09
   2   7  -3   13.55    0.91
   2   7  -3   15.54    1.23
   2   7  -3   14.51    0.69
   2   7  -3   12.67    0.78
   1   7  -3    0.66    0.16
   1   7  -3    0.77    0.31
   1   7  -3    0.75    0.28
   1   7  -3    1.35    0.23
   1   7  -3    0.76    0.23
   1   7  -3    0.55    0.32
   1   7  -3    0.99    0.14
   1   7  -3    0.88    0.12
   1   7  -3    0.74    0.16
   0   7  -3    6.10    0.43
   0   7  -3    6.91    0.32
   0   7  -3    5.92    0.50
   0   7  -3    7.32    0.40
   0   7  -3    6.76    0.72
   0   7  -3    6.54    0.31
   0   7  -3    7.05    0.64
   0   7  -3    6.79    0.38
  -1   7  -3    1.16    0.15
  -1   7  -3    1.33    0.32
  -1   7  -3    1.25    0.24
  -1   7  -3    1.52    0.18
  -1   7  -3    1.53    0.15
  -1   7  -3    1.36    0.13
  -1   7  -3    1.51    0.37
  -2   7  -3    2.58    0.17
  -2   7  -3    2.54    0.20
  -2   7  -3    2.80    0.26
  -2   7  -3    2.52    0.35
  -2   7  -3    2.73    0.18
  -2   7  -3    2.84    0.43
  -2   7  -3    2.50    0.20
  -3   7  -3   12.10    0.78
  -3   7  -3   12.10    0.58
  -3   7  -3   12.13    0.45
  -3   7  -3   12.33    0.46
   8   6  -3    0.27    0.36
   7   6  -3   51.43    2.35
   7   6  -3   46.65    3.35
   7   6  -3   48.60    2.95
  -7  -6   3   49.69    1.97
   6   6  -3   70.39    3.34
   6   6  -3   72.06    4.81
   6   6  -3   73.83    4.24
  -6  -6   3   75.49    2.87
   5   6  -3    9.38    0.99
   5   6  -3    8.48    0.69
   5   6  -3    9.00    0.51
   5   6  -3    9.78    1.15
   4   6  -3   68.71    2.63
   4   6  -3   63.73    3.86
   4   6  -3   65.87    2.34
   4   6  -3   67.96    3.05
   4   6  -3   67.07    2.79
   4   6  -3   65.66    4.40
   3   6  -3   22.73    0.83
   3   6  -3   22.53    0.83
   3   6  -3   21.18    1.35
   3   6  -3   21.91    1.73
   3   6  -3   21.62    1.13
   3   6  -3   21.58    0.96
   3   6  -3   22.77    1.03
   3   6  -3   22.66    1.02
   3   6  -3   21.48    1.52
   2   6  -3   38.72    1.66
   2   6  -3   40.47    2.64
   2   6  -3   38.08    2.04
   2   6  -3   37.84    1.37
   2   6  -3   39.40    2.33
   2   6  -3   37.09    1.33
   2   6  -3   36.88    1.62
   2   6  -3   35.34    1.75
   1   6  -3   67.10    2.76
   1   6  -3   65.26    2.70
   1   6  -3   68.83    3.75
   1   6  -3   66.40    2.24
   1   6  -3   60.23    2.86
   1   6  -3   64.46    2.61
   1   6  -3   64.11    2.29
   1   6  -3   68.15    3.33
   1   6  -3   68.51    4.24
   1   6  -3   61.46    2.86
   0   6  -3    0.69    0.30
   0   6  -3    0.98    0.26
   0   6  -3    0.80    0.17
   0   6  -3    1.27    0.22
   0   6  -3    0.83    0.35
   0   6  -3    0.83    0.11
   0   6  -3    0.91    0.17
   0   6  -3    0.65    0.11
  -1   6  -3   53.96    2.48
  -1   6  -3   51.97    1.97
  -1   6  -3   59.10    2.33
  -1   6  -3   57.06    2.24
  -1   6  -3   56.55    3.21
  -1   6  -3   53.91    1.93
  -1   6  -3   60.03    3.66
  -2   6  -3   30.05    1.15
  -2   6  -3   31.46    1.14
  -2   6  -3   35.10    1.39
  -2   6  -3   30.44    1.48
  -2   6  -3   33.46    1.95
  -2   6  -3   33.03    2.21
  -2   6  -3   31.03    1.31
  -3   6  -3   13.16    0.60
  -3   6  -3   14.15    0.71
  -3   6  -3   13.26    0.63
  -3   6  -3   13.02    0.53
  -3   6  -3   14.05    1.08
  -3   6  -3   13.46    0.71
  -3   6  -3   14.27    0.96
  -4   6  -3   56.12    1.88
  -4   6  -3   53.62    2.15
  -4   6  -3   56.80    1.92
  -4   6  -3   55.96    3.06
  -4   6  -3   53.34    2.34
  -4   6  -3   54.43    2.14
   8   5  -3    1.06    0.50
  -8  -5   3    1.14    0.25
   7   5  -3   31.15    2.55
   7   5  -3   35.56    2.29
  -7  -5   3   32.26    1.65
  -7  -5   3   38.10    1.42
   6   5  -3   10.31    1.13
   6   5  -3    9.56    1.23
  -6  -5   3   10.74    0.54
   5   5  -3   16.90    1.51
   5   5  -3   18.17    0.75
   5   5  -3   15.17    1.14
   5   5  -3   15.96    1.32
  -5  -5   3   13.61    1.06
   4   5  -3   44.68    2.59
   4   5  -3   43.22    2.93
   4   5  -3   42.21    2.62
   4   5  -3   40.48    2.35
  -4  -5   3   38.58    2.32
   3   5  -3    1.86    0.43
   3   5  -3    1.26    0.16
   3   5  -3    2.04    0.25
   3   5  -3    1.80    0.48
   2   5  -3   57.73    2.39
   2   5  -3   58.84    3.36
   2   5  -3   57.59    3.80
   1   5  -3   34.77    1.49
   1   5  -3   36.69    2.44
   1   5  -3   34.27    2.14
   0   5  -3    4.03    0.27
   0   5  -3    4.40    0.57
   0   5  -3    3.10    0.20
   0   5  -3    3.29    0.54
  -1   5  -3   15.76    0.78
  -1   5  -3   15.76    0.63
  -1   5  -3   17.78    1.34
  -1   5  -3   18.21    1.20
  -2   5  -3    3.07    0.56
  -2   5  -3    3.88    0.31
  -2   5  -3    3.17    0.22
  -2   5  -3    3.99    0.55
  -2   5  -3    3.53    0.36
  -2   5  -3    3.06    0.28
  -2   5  -3    2.96    0.53
  -2   5  -3    2.71    0.23
  -2   5  -3    3.82    0.36
  -3   5  -3   10.29    0.52
  -3   5  -3   10.85    0.97
  -3   5  -3   10.30    0.62
  -3   5  -3    9.49    0.62
  -3   5  -3    9.44    0.43
  -3   5  -3   10.65    0.47
  -3   5  -3   10.13    0.85
  -3   5  -3   11.26    0.55
  -4   5  -3    1.56    0.16
  -4   5  -3    1.28    0.36
  -4   5  -3    1.26    0.19
  -4   5  -3    1.37    0.34
  -4   5  -3    0.90    0.26
  -4   5  -3    0.83    0.22
  -4   5  -3    1.22    0.18
  -5   5  -3    0.40    0.18
  -5   5  -3    0.47    0.11
  -5   5  -3    0.51    0.13
  -5   5  -3    0.49    0.10
  -5   5  -3    0.54    0.12
  -9  -4   3    6.45    0.44
  -9  -4   3    6.93    0.46
   8   4  -3   24.87    1.80
   8   4  -3   21.80    2.00
  -8  -4   3   28.12    1.27
   7   4  -3    0.87    0.60
   7   4  -3   -0.01    0.62
  -7  -4   3    0.78    0.20
   6   4  -3   91.85    5.67
   6   4  -3  106.71    6.20
   6   4  -3   91.56    6.43
  -6  -4   3   94.97    6.61
  -6  -4   3  111.30    4.47
   5   4  -3   13.73    1.32
   5   4  -3   17.64    1.20
   5   4  -3   13.74    1.49
  -5  -4   3   17.90    1.06
   4   4  -3    9.61    0.98
   4   4  -3    9.81    0.68
   4   4  -3    8.76    1.03
   4   4  -3   10.21    0.76
  -4  -4   3    9.81    0.68
   3   4  -3  178.62    8.87
   3   4  -3  160.82   10.53
   3   4  -3  173.20   10.25
  -3  -4   3  172.17    8.71
   2   4  -3    2.87    0.28
   2   4  -3    2.56    0.27
   2   4  -3    2.87    0.52
  -2  -4   3    2.54    0.61
   1   4  -3  196.41   11.05
   1   4  -3  162.01   10.18
   1   4  -3  180.89   10.66
   0   4  -3   92.15    5.56
   0   4  -3   84.13    3.54
  -1   4  -3   76.63    3.21
  -1   4  -3   81.88    5.03
  -2   4  -3  154.04    9.24
  -2   4  -3  154.63    5.13
  -2   4  -3  152.72    8.34
  -2   4  -3  151.84    9.45
  -2   4  -3  152.54    6.18
  -3   4  -3    7.55    0.51
  -3   4  -3    7.74    0.77
  -3   4  -3    7.74    0.36
  -3   4  -3    8.71    0.40
  -3   4  -3    7.65    0.54
  -3   4  -3    8.39    0.47
  -3   4  -3    7.91    0.87
  -3   4  -3    7.79    0.48
  -3   4  -3    8.33    0.90
  -3   4  -3    7.82    0.41
  -4   4  -3  132.53    5.26
  -4   4  -3  133.26    5.79
  -4   4  -3  138.83    5.35
  -4   4  -3  135.47    4.74
  -4   4  -3  133.93    7.50
  -4   4  -3  136.75    8.51
  -4   4  -3  138.01    5.18
  -4   4  -3  146.15    5.57
  -5   4  -3   39.43    1.75
  -5   4  -3   43.23    1.73
  -5   4  -3   40.97    1.71
  -5   4  -3   45.49    1.51
  -5   4  -3   42.46    1.89
  -5   4  -3   41.63    1.77
  -5   4  -3   42.24    1.53
  -5   4  -3   43.09    1.80
  -5   4  -3   40.36    2.80
  -6   4  -3    0.96    0.20
  -6   4  -3    1.14    0.14
  -6   4  -3    1.08    0.14
  -6   4  -3    1.18    0.16
  -6   4  -3    1.10    0.20
  -6   4  -3    0.69    0.19
  -9  -3   3   15.25    0.76
  -9  -3   3   15.72    0.80
   8   3  -3   23.87    2.08
  -8  -3   3   32.71    1.50
  -8  -3   3   33.57    1.49
   7   3  -3    0.39    0.66
   7   3  -3    1.19    0.75
  -7  -3   3    1.15    0.21
   6   3  -3   21.91    1.93
   6   3  -3   21.69    1.75
   5   3  -3   11.98    0.96
   5   3  -3   12.26    0.82
  -5  -3   3   12.09    0.81
  -5  -3   3   10.36    1.32
   4   3  -3    6.66    0.59
   4   3  -3    6.61    0.49
  -4  -3   3    5.92    1.03
  -4  -3   3    7.12    0.50
   3   3  -3  172.82   10.16
   3   3  -3  166.57    8.74
  -3  -3   3  169.18    8.60
   2   3  -3   18.39    1.10
   2   3  -3   17.36    0.95
  -2  -3   3   14.96    1.26
  -2  -3   3   15.22    0.92
   1   3  -3   63.44    3.76
   1   3  -3   61.60    3.24
   1   3  -3   61.73    3.64
   0   3  -3   78.37    4.53
   0   3  -3   72.76    4.35
  -1   3  -3   23.82    1.58
  -1   3  -3   27.23    1.83
  -2   3  -3   44.34    3.06
  -2   3  -3   46.49    3.06
  -2   3  -3   48.51    1.94
  -3   3  -3    0.83    0.33
  -3   3  -3    0.70    0.35
  -3   3  -3    0.69    0.17
  -3   3  -3    0.89    0.13
  -3   3  -3    1.11    0.43
  -4   3  -3   67.87    2.65
  -4   3  -3   65.49    3.76
  -4   3  -3   66.41    2.85
  -4   3  -3   64.38    4.25
  -4   3  -3   62.44    2.75
  -4   3  -3   67.99    4.32
  -4   3  -3   66.74    2.31
  -4   3  -3   65.39    2.61
  -4   3  -3   66.33    2.55
  -4   3  -3   64.34    2.88
  -4   3  -3   64.05    2.66
  -5   3  -3    9.63    0.99
  -5   3  -3   10.38    0.56
  -5   3  -3   10.06    0.49
  -5   3  -3    9.97    0.64
  -5   3  -3   10.49    0.91
  -5   3  -3    9.92    0.60
  -5   3  -3    9.84    0.46
  -5   3  -3    9.65    0.62
  -5   3  -3    9.66    0.56
  -5   3  -3   10.44    0.59
  -5   3  -3    9.98    0.63
  -5   3  -3    9.61    0.49
  -6   3  -3    2.02    0.20
  -6   3  -3    2.14    0.27
  -6   3  -3    2.48    0.27
  -6   3  -3    2.52    0.29
  -6   3  -3    2.24    0.49
  -6   3  -3    2.32    0.32
  -6   3  -3    2.79    0.24
  -6   3  -3    1.92    0.27
  -6   3  -3    1.96    0.28
  -7   3  -3   12.84    0.54
  -7   3  -3   13.47    0.64
  -7   3  -3   14.52    0.62
  -7   3  -3   12.95    0.65
  -7   3  -3   14.10    0.64
  -9  -2   3    0.71    0.18
  -8  -2   3   37.57    1.77
  -8  -2   3   37.62    1.73
  -7  -2   3   11.91    0.68
  -7  -2   3   11.96    0.71
   6   2  -3    5.46    1.08
  -6  -2   3    8.68    0.90
  -6  -2   3    7.98    0.50
   5   2  -3   35.56    2.60
   5   2  -3   36.91    2.34
   4   2  -3    0.84    0.19
   4   2  -3    0.63    0.38
  -4  -2   3    0.44    0.39
  -4  -2   3    0.56    0.15
   3   2  -3  122.26    6.60
   3   2  -3  135.15    7.70
  -3  -2   3  130.36    6.51
  -3  -2   3  122.93    8.00
   2   2  -3   98.69    4.50
   2   2  -3   92.44    5.24
  -2  -2   3   89.50    4.43
  -2  -2   3   78.01    5.07
  -2  -2   3   72.24    5.49
   1   2  -3   57.71    2.79
   1   2  -3   55.77    3.11
   1   2  -3   52.38    3.25
  -1  -2   3   49.13    2.74
   0   2  -3  197.10    9.97
   0   2  -3  194.93   10.91
   0   2  -3  193.85   11.61
  -1   2  -3  221.71   12.35
  -1   2  -3  220.74   13.13
  -2   2  -3  159.53    9.05
  -2   2  -3  159.16    9.58
  -2   2  -3  163.77    9.57
  -3   2  -3  156.44    9.45
  -3   2  -3  154.53    9.57
  -3   2  -3  158.25    6.29
  -4   2  -3    0.92    0.17
  -4   2  -3    0.63    0.17
  -4   2  -3    0.94    0.33
  -4   2  -3    0.98    0.33
  -5   2  -3   49.49    1.82
  -5   2  -3   52.36    2.97
  -5   2  -3   51.04    2.09
  -5   2  -3   50.46    2.10
  -5   2  -3   51.41    3.35
  -5   2  -3   47.76    2.20
  -5   2  -3   52.00    3.59
  -5   2  -3   50.35    2.42
  -5   2  -3   53.31    1.82
  -5   2  -3   52.67    2.25
  -5   2  -3   51.50    2.02
  -5   2  -3   48.06    2.14
  -5   2  -3   49.28    2.28
  -6   2  -3   22.00    0.99
  -6   2  -3   21.44    1.12
  -6   2  -3   23.28    1.04
  -6   2  -3   20.18    1.04
  -6   2  -3   21.19    1.61
  -6   2  -3   20.77    1.06
  -6   2  -3   20.28    0.84
  -6   2  -3   21.28    0.96
  -6   2  -3   20.96    1.00
  -7   2  -3   12.25    0.52
  -7   2  -3   12.81    0.64
  -7   2  -3   10.35    0.64
  -7   2  -3   11.47    0.71
  -7   2  -3   12.20    0.65
  -7   2  -3   12.54    0.65
  -7   2  -3   12.15    0.64
  -8   2  -3   23.10    0.99
  -8  -1   3   20.70    0.95
  -8  -1   3   19.51    1.02
  -7  -1   3   25.12    1.26
  -7  -1   3   27.77    1.44
  -7  -1   3   24.25    1.22
   6   1  -3    8.97    1.20
   6   1  -3    8.60    1.27
  -6  -1   3   10.64    0.60
  -6  -1   3    9.75    0.61
  -6  -1   3   10.54    0.75
  -6  -1   3   10.78    0.49
   5   1  -3   57.47    2.95
   5   1  -3   44.82    3.59
   5   1  -3   49.74    3.25
  -5  -1   3   55.92    2.59
  -5  -1   3   59.70    3.46
   4   1  -3   11.26    1.11
   4   1  -3   13.52    0.79
  -4  -1   3   13.12    1.05
  -4  -1   3   12.25    1.35
   3   1  -3   83.48    4.34
  -3  -1   3   92.59    5.27
  -3  -1   3   73.35    5.28
   2   1  -3   30.69    2.00
   2   1  -3   32.80    1.71
  -2  -1   3   31.95    2.21
  -2  -1   3   32.77    1.84
   1   1  -3  364.14   21.94
   1   1  -3  392.92   18.87
   1   1  -3  416.50   20.53
  -1  -1   3  371.89   20.48
  -1  -1   3  301.90   22.11
   0   1  -3  974.25   53.42
   0   1  -3  984.60   49.05
   0   1  -3  928.36   56.93
  -1   1  -3   35.30    2.20
  -1   1  -3   36.26    2.07
  -2   1  -3  205.53   11.73
  -2   1  -3  214.24   12.36
  -2   1  -3  210.50   12.51
  -3   1  -3   50.74    3.34
  -3   1  -3   52.72    3.18
  -3   1  -3   51.93    3.03
  -4   1  -3    1.42    0.19
  -4   1  -3    1.78    0.20
  -4   1  -3    2.20    0.59
  -4   1  -3    1.62    0.25
  -4   1  -3    1.60    0.32
  -5   1  -3   71.02    4.93
  -5   1  -3   76.19    2.56
  -5   1  -3   72.22    3.42
  -5   1  -3   69.75    3.09
  -5   1  -3   78.01    4.64
  -6   1  -3   21.38    0.98
  -6   1  -3   23.23    1.59
  -6   1  -3   21.12    0.90
  -6   1  -3   21.63    1.12
  -6   1  -3   21.12    1.11
  -6   1  -3   20.92    1.07
  -6   1  -3   20.16    0.95
  -6   1  -3   21.26    1.10
  -7   1  -3   45.08    2.17
  -7   1  -3   43.95    1.88
  -7   1  -3   43.23    2.01
  -7   1  -3   44.01    1.62
  -7   1  -3   45.28    1.83
  -7   1  -3   43.78    1.87
   7  -1   3   48.56    3.16
  -8   1  -3    9.65    0.55
  -8   1  -3    9.49    0.54
  -8   1  -3    9.98    0.54
  -8   1  -3    8.76    0.61
   8   0  -3    1.31    0.67
  -8   0   3    1.14    0.22
  -8   0   3    0.89    0.22
  -8   0   3    1.45    0.21
  -7   0   3   32.90    1.61
  -7   0   3   33.09    1.52
  -7   0   3   33.56    1.25
  -7   0   3   33.74    1.42
  -7   0   3   33.20    1.47
  -7   0   3   34.86    1.75
  -7   0   3   33.31    1.50
   6   0  -3    1.10    0.75
  -6   0   3    0.75    0.16
  -6   0   3    0.98    0.19
  -6   0   3    0.63    0.28
  -6   0   3    0.98    0.24
  -6   0   3    0.73    0.26
  -6   0   3    0.60    0.29
  -6   0   3    0.89    0.17
  -6   0   3    0.95    0.21
  -6   0   3    1.09    0.25
   5   0  -3   56.33    3.81
   5   0  -3   52.69    3.05
  -5   0   3   55.54    2.41
  -5   0   3   56.51    2.68
  -5   0   3   61.12    3.91
  -5   0   3   55.02    1.99
   4   0  -3   29.24    1.72
   4   0  -3   34.34    2.22
  -4   0   3   33.48    2.32
  -4   0   3   30.80    1.96
  -4   0   3   28.48    1.39
   3   0  -3    0.17    0.10
  -3   0   3    0.35    0.17
  -3   0   3    0.12    0.27
   2   0  -3  173.79    8.57
  -2   0   3  153.07    9.91
  -2   0   3  172.85   10.03
   1   0  -3    3.56    0.25
  -1   0   3    2.11    0.45
  -1   0   3    2.69    0.43
   0   0  -3  143.11    7.20
   0   0   3  109.35    7.68
   0   0   3  142.79    7.20
   0   0   3  120.54    7.84
  -1   0  -3    6.02    0.47
  -1   0  -3    6.12    0.40
   1   0   3    4.79    0.56
  -2   0  -3    0.65    0.16
  -2   0  -3    0.61    0.08
  -2   0  -3    0.87    0.22
  -2   0  -3    0.74    0.20
   2   0   3    0.77    0.22
  -3   0  -3   39.78    2.44
  -3   0  -3   38.48    2.26
  -3   0  -3   36.69    2.50
  -4   0  -3   38.14    2.41
  -4   0  -3   38.55    2.44
  -4   0  -3   36.57    2.28
  -4   0  -3   39.12    2.66
  -5   0  -3   16.10    0.84
  -5   0  -3   16.09    1.16
  -5   0  -3   16.47    1.17
  -6   0  -3  107.86    3.71
  -6   0  -3  104.23    4.21
  -6   0  -3  101.93    6.41
  -6   0  -3  102.55    4.05
  -6   0  -3  112.71    6.59
  -6   0  -3  105.58    4.73
  -6   0  -3  107.24    4.92
   6   0   3  109.16    4.62
  -7   0  -3   12.39    0.72
  -7   0  -3   11.82    0.66
  -7   0  -3   11.96    0.73
  -7   0  -3   11.94    0.67
   7   0   3   13.13    1.26
  -8   0  -3   47.45    2.35
  -8   0  -3   51.32    1.99
  -8   0  -3   53.15    2.05
  -8   0  -3   51.32    2.19
   8   0   3   40.24    2.97
  -8   1   3   12.54    0.59
  -8   1   3   12.66    0.57
  -7   1   3   72.85    2.89
  -7   1   3   68.96    3.22
  -7   1   3   72.34    2.83
  -7   1   3   71.79    2.76
  -7   1   3   65.98    2.93
  -7   1   3   72.30    2.75
  -7   1   3   70.28    3.38
  -7   1   3   72.91    2.45
  -7   1   3   69.79    2.50
   6  -1  -3    1.19    0.73
  -6   1   3    0.52    0.15
  -6   1   3    0.60    0.20
  -6   1   3    0.48    0.25
  -6   1   3    0.45    0.12
  -6   1   3    0.58    0.14
  -6   1   3    0.29    0.25
  -6   1   3    0.27    0.17
  -6   1   3    0.25    0.21
  -6   1   3    0.57    0.26
  -6   1   3    0.34    0.17
   5  -1  -3  105.19    5.99
  -5   1   3   94.22    3.20
  -5   1   3   91.26    3.58
  -5   1   3   87.81    4.09
  -5   1   3   85.97    3.97
  -5   1   3   94.06    4.28
  -5   1   3   92.15    3.14
  -5   1   3   84.25    3.61
  -5   1   3   91.32    3.76
  -5   1   3   85.74    3.53
  -5   1   3   92.61    5.80
   4  -1  -3  150.08    8.76
   4  -1  -3  196.03   10.50
  -4   1   3  161.08    7.73
  -4   1   3  167.16   10.33
  -4   1   3  179.71   10.21
  -4   1   3  162.93    6.81
   3  -1  -3   25.02    1.45
  -3   1   3   27.87    1.82
  -3   1   3   25.31    1.73
   2  -1  -3  203.39   10.02
  -2   1   3  185.68   11.45
   1  -1  -3   43.56    2.17
  -1   1   3   37.46    2.50
   0  -1  -3   25.88    1.43
   0   1   3   25.80    1.62
   0   1   3   22.38    1.54
   0   1   3   24.36    1.46
  -1  -1  -3  116.34    6.15
   1   1   3   98.70    6.48
   1   1   3  113.38    6.60
  -2  -1  -3   41.86    2.27
  -2  -1  -3   44.94    2.55
  -2  -1  -3   45.41    2.79
   2   1   3   43.63    2.73
   2   1   3   44.53    2.36
  -3  -1  -3  197.25   10.88
  -3  -1  -3  193.84   11.49
  -3  -1  -3  196.48   11.71
  -3  -1  -3  190.03    9.79
   3   1   3  199.74   10.00
   3   1   3  188.33   11.63
  -4  -1  -3   22.21    1.47
  -4  -1  -3   23.31    1.66
  -4  -1  -3   23.52    1.28
  -4  -1  -3   25.70    1.70
   4   1   3   23.14    1.34
   4   1   3   24.04    1.63
  -5  -1  -3   39.75    1.97
  -5  -1  -3   41.10    2.64
  -5  -1  -3   39.73    2.76
   5   1   3   46.83    2.73
  -6  -1  -3   42.70    2.11
  -6  -1  -3   41.79    2.89
   6   1   3   47.97    2.96
  -7  -1  -3    0.85    0.20
  -7  -1  -3    0.74    0.25
  -7  -1  -3    0.99    0.28
  -7  -1  -3    1.04    0.23
   7   1   3    1.17    0.48
  -8  -1  -3   35.87    1.80
  -8  -1  -3   34.16    1.54
  -8  -1  -3   37.89    1.73
  -8  -1  -3   36.70    1.58
  -9  -1  -3   11.97    0.66
  -9  -1  -3   13.16    0.63
   7  -2  -3    5.34    0.78
  -7   2   3    6.30    0.40
  -7   2   3    6.66    0.39
  -7   2   3    5.96    0.52
  -7   2   3    6.23    0.31
  -7   2   3    6.72    0.46
  -7   2   3    6.99    0.31
  -7   2   3    7.03    0.37
   6  -2  -3   57.83    4.01
  -6   2   3   58.11    2.34
  -6   2   3   61.42    2.10
  -6   2   3   54.67    2.44
  -6   2   3   55.63    2.36
  -6   2   3   62.18    2.88
  -6   2   3   62.42    2.05
  -6   2   3   61.23    2.47
  -6   2   3   57.59    2.34
  -6   2   3   58.38    2.74
   5  -2  -3    3.77    0.77
  -5   2   3    2.98    0.29
  -5   2   3    3.24    0.24
  -5   2   3    3.74    0.39
  -5   2   3    3.22    0.25
  -5   2   3    3.85    0.71
  -5   2   3    4.06    0.42
  -5   2   3    3.62    0.31
  -5   2   3    2.88    0.38
  -5   2   3    3.56    0.35
  -5   2   3    3.20    0.35
  -4   2   3   37.78    1.34
  -4   2   3   37.72    1.88
  -4   2   3   37.28    1.61
  -4   2   3   38.09    2.52
  -4   2   3   38.37    2.56
   3  -2  -3  107.17    6.03
  -3   2   3  125.84    6.95
  -3   2   3  112.83    5.33
  -3   2   3  115.96    7.09
  -3   2   3  115.45    4.64
   2  -2  -3   30.89    1.72
  -2   2   3   30.19    1.95
   1  -2  -3   20.01    1.23
  -1   2   3   19.38    1.25
   0  -2  -3   80.31    4.50
   0   2   3   76.56    4.63
  -1  -2  -3  104.80    6.13
   1   2   3  110.88    6.36
  -2  -2  -3   71.10    3.79
  -2  -2  -3   75.98    4.25
   2   2   3   75.91    3.88
   2   2   3   71.17    4.44
  -3  -2  -3   31.21    1.89
  -3  -2  -3   28.20    2.13
  -3  -2  -3   29.49    1.63
   3   2   3   32.39    1.95
   3   2   3   31.57    1.69
  -4  -2  -3  145.12    8.38
  -4  -2  -3  147.62    7.51
  -4  -2  -3  145.66    9.09
   4   2   3  157.09    8.93
   4   2   3  143.87    7.67
  -5  -2  -3    9.65    0.57
  -5  -2  -3   10.66    1.04
  -5  -2  -3   10.40    0.66
   5   2   3   11.67    0.91
   5   2   3   10.14    0.73
  -6  -2  -3   22.42    1.14
  -6  -2  -3   21.87    1.75
  -7  -2  -3   14.05    0.75
  -7  -2  -3   14.65    0.83
  -7  -2  -3   14.51    0.76
   7   2   3   13.35    0.96
  -8  -2  -3    5.88    0.52
  -8  -2  -3    6.26    0.61
  -8  -2  -3    6.92    0.53
  -8  -2  -3    6.18    0.42
  -9  -2  -3   19.43    0.98
  -9  -2  -3   20.17    1.00
  -7   3   3   22.60    0.94
  -7   3   3   23.21    0.94
  -7   3   3   23.81    0.94
  -7   3   3   23.67    0.99
  -7   3   3   24.52    0.84
   6  -3  -3   27.29    2.28
  -6   3   3   33.36    1.34
  -6   3   3   33.88    1.33
  -6   3   3   33.15    1.34
  -6   3   3   30.73    1.37
  -6   3   3   33.11    1.67
  -6   3   3   32.77    1.42
  -6   3   3   33.30    1.15
  -6   3   3   33.80    1.17
   5  -3  -3    4.20    0.74
  -5   3   3    3.20    0.41
  -5   3   3    2.90    0.33
  -5   3   3    3.75    0.28
  -5   3   3    2.68    0.34
  -5   3   3    3.76    0.23
  -5   3   3    3.43    0.27
  -5   3   3    2.97    0.31
  -5   3   3    3.38    0.21
  -4   3   3   68.68    2.82
  -4   3   3   71.33    2.44
  -4   3   3   71.76    2.83
  -4   3   3   70.17    2.94
  -4   3   3   74.37    4.53
  -4   3   3   70.40    2.93
  -4   3   3   69.62    4.47
  -4   3   3   77.52    2.53
  -4   3   3   71.69    3.43
  -4   3   3   73.43    2.51
  -4   3   3   68.72    2.81
  -3   3   3   39.40    2.21
  -3   3   3   39.53    2.49
  -3   3   3   37.13    1.57
  -3   3   3   38.59    2.44
  -3   3   3   37.60    1.31
  -3   3   3   36.14    1.88
   2  -3  -3   95.77    5.49
  -2   3   3  109.08    6.18
  -2   3   3  110.73    6.39
  -2   3   3  100.57    4.15
  -1   3   3   59.80    3.54
   0  -3  -3    1.30    0.32
  -1  -3  -3  782.64   43.34
   1   3   3  778.01   45.17
  -2  -3  -3  141.56    7.32
  -2  -3  -3  144.94    8.18
  -3  -3  -3   96.47    5.89
  -3  -3  -3  101.04    5.24
   3   3   3  110.88    6.14
   3   3   3   98.14    5.34
  -4  -3  -3  165.55    8.31
  -4  -3  -3  153.89    9.29
   4   3   3  174.69    9.80
   4   3   3  157.27    8.47
  -5  -3  -3   14.12    0.90
   5   3   3   15.56    1.12
   5   3   3   14.76    0.97
  -6  -3  -3   81.93    4.22
  -6  -3  -3   82.23    3.73
  -6  -3  -3   72.43    5.23
   6   3   3   82.50    5.05
  -7  -3  -3   31.76    2.63
  -7  -3  -3   38.29    1.81
  -7  -3  -3   37.00    1.70
   7   3   3   37.18    2.57
   7   3   3   35.56    1.78
  -8  -3  -3    1.39    0.28
  -8  -3  -3    1.31    0.20
  -9  -3  -3   25.78    1.23
  -9  -3  -3   25.23    1.28
  -6   4   3    1.45    0.19
  -6   4   3    1.17    0.11
  -6   4   3    1.44    0.12
  -6   4   3    1.47    0.12
  -6   4   3    1.44    0.20
  -6   4   3    1.35    0.20
   5  -4  -3    5.09    0.79
  -5   4   3    5.98    0.27
  -5   4   3    5.52    0.26
  -5   4   3    5.34    0.53
  -5   4   3    5.74    0.32
  -5   4   3    6.15    0.44
  -5   4   3    5.51    0.32
  -5   4   3    6.25    0.48
  -5   4   3    5.46    0.40
  -4   4   3    0.30    0.20
  -4   4   3    0.18    0.08
  -4   4   3    0.25    0.22
  -4   4   3    0.26    0.08
  -4   4   3    0.23    0.10
  -4   4   3    0.21    0.22
  -4   4   3    0.39    0.11
  -4   4   3    0.36    0.09
  -4   4   3    0.68    0.23
  -4   4   3    0.29    0.18
  -3   4   3   28.31    1.22
  -3   4   3   27.08    1.22
  -3   4   3   28.20    1.84
  -3   4   3   29.53    1.89
  -3   4   3   29.83    1.68
  -3   4   3   28.25    1.18
  -3   4   3   27.61    0.98
  -3   4   3   27.58    1.14
  -3   4   3   26.37    1.46
  -3   4   3   27.42    1.28
  -2   4   3    9.16    0.70
  -2   4   3    9.80    0.43
  -2   4   3   10.53    0.78
  -2   4   3    8.55    0.62
  -2   4   3   10.36    0.71
   0  -4  -3   49.20    3.00
  -1  -4  -3    4.86    0.54
  -2  -4  -3  170.96    8.58
  -2  -4  -3  170.31    9.58
   2   4   3  162.90    6.87
  -3  -4  -3   44.56    2.77
  -3  -4  -3   44.71    2.39
   3   4   3   42.67    2.43
   3   4   3   43.23    1.85
  -4  -4  -3   57.93    2.96
   4   4   3   52.92    2.34
   4   4   3   56.45    3.39
   4   4   3   52.23    3.01
  -5  -4  -3   46.17    2.42
   5   4   3   43.33    2.49
   5   4   3   41.63    1.93
   5   4   3   44.16    2.80
  -6  -4  -3   27.12    1.66
   6   4   3   28.92    1.95
  -7  -4  -3   23.09    1.11
   7   4   3   20.43    1.18
  -8  -4  -3   14.42    0.82
   8   4   3   16.28    0.96
  -9  -4  -3    1.76    0.24
  -5   5   3   11.64    0.45
  -5   5   3   12.49    0.59
  -5   5   3   11.47    0.44
  -5   5   3   11.47    0.56
  -5   5   3   12.87    0.56
  -4   5   3   15.20    0.88
  -4   5   3   15.01    0.62
  -4   5   3   14.46    0.76
  -4   5   3   15.25    0.72
  -4   5   3   15.54    0.73
  -4   5   3   15.52    0.55
  -4   5   3   15.17    0.66
  -4   5   3   15.18    0.56
  -4   5   3   13.96    1.08
  -3   5   3   64.28    3.81
  -3   5   3   58.55    2.92
  -3   5   3   60.36    2.49
  -3   5   3   60.48    2.45
  -3   5   3   59.49    2.35
  -3   5   3   60.38    2.04
  -3   5   3   61.09    2.40
  -3   5   3   59.25    2.38
  -2   5   3    9.17    0.41
  -2   5   3    9.70    0.76
  -2   5   3    9.35    0.55
  -1  -5  -3   37.16    1.94
   1   5   3   33.12    1.40
  -2  -5  -3  128.95    6.35
   2   5   3  120.52    4.90
   2   5   3  119.47    5.03
  -3  -5  -3   14.46    0.91
   3   5   3   12.99    0.61
   3   5   3   13.27    0.62
  -4  -5  -3  126.89    6.33
   4   5   3  120.19    4.88
   4   5   3  119.26    5.01
   4   5   3  118.32    6.44
  -5  -5  -3  123.55    6.39
   5   5   3  119.41    4.94
   5   5   3  117.25    6.51
   5   5   3  132.19    7.37
   5   5   3  120.03    5.08
   5   5   3  118.91    4.12
  -6  -5  -3    1.46    0.24
   6   5   3    1.41    0.30
   6   5   3    1.04    0.24
   6   5   3    1.46    0.39
   6   5   3    1.16    0.23
  -7  -5  -3  117.69    5.27
   7   5   3  118.31    5.07
  -8  -5  -3   11.59    0.72
   8   5   3   13.00    0.76
  -9  -5  -3   16.05    0.84
  -4   6   3    7.42    0.37
  -4   6   3    6.60    0.26
  -4   6   3    6.38    0.26
  -3   6   3    0.56    0.07
  -3   6   3    0.68    0.17
   1   6   3   28.19    1.17
   1   6   3   29.32    1.27
  -2  -6  -3    6.59    0.55
   2   6   3    6.06    0.25
   2   6   3    6.27    0.30
  -3  -6  -3    6.06    0.56
   3   6   3    6.17    0.33
   3   6   3    6.68    0.42
   3   6   3    6.16    0.27
   3   6   3    6.29    0.32
  -4  -6  -3   12.82    1.01
   4   6   3   14.91    0.74
   4   6   3   15.51    0.70
   4   6   3   15.05    0.70
   4   6   3   15.52    0.58
  -5  -6  -3   47.11    2.67
   5   6   3   44.79    1.96
   5   6   3   46.20    1.67
   5   6   3   49.64    1.94
   5   6   3   44.63    1.90
   5   6   3   45.62    1.63
   5   6   3   48.05    2.01
   5   6   3   47.41    2.10
   5   6   3   45.63    2.10
   5   6   3   46.94    2.01
  -6  -6  -3   55.40    2.70
   6   6   3   64.05    2.54
   6   6   3   59.05    2.65
   6   6   3   57.90    2.35
   6   6   3   56.14    2.08
   6   6   3   59.20    2.61
  -7  -6  -3    2.22    0.28
   7   6   3    1.90    0.27
   7   6   3    1.95    0.27
   7   6   3    2.13    0.30
  -8  -6  -3   23.68    1.26
   8   6   3   26.74    1.23
   8   6   3   26.22    1.26
  -9  -6  -3    4.02    0.36
   9   6   3    4.61    0.38
   1   7   3   32.59    1.15
   1   7   3   34.53    1.48
   1   7   3   34.17    1.53
   1   7   3   34.51    1.37
   2   7   3   16.22    0.78
   2   7   3   15.96    0.69
   2   7   3   16.93    0.74
   2   7   3   15.89    0.58
   2   7   3   16.02    0.82
   2   7   3   16.21    0.66
   3   7   3   70.94    2.75
   3   7   3   71.44    2.78
   3   7   3   70.30    2.39
   3   7   3   72.05    2.95
   3   7   3   70.29    2.86
   3   7   3   68.76    3.04
   4   7   3   13.38    0.64
   4   7   3   12.58    0.59
   4   7   3   12.30    0.51
   4   7   3   12.76    0.50
   4   7   3   12.47    0.69
   4   7   3   12.68    0.58
   4   7   3   12.68    0.59
   4   7   3   13.00    0.66
   5   7   3   50.60    2.14
   5   7   3   49.01    2.23
   5   7   3   49.41    2.02
   5   7   3   49.68    1.75
   5   7   3   51.38    2.05
   5   7   3   49.18    2.23
   5   7   3   50.49    2.16
   5   7   3   53.57    2.10
   5   7   3   50.21    1.80
  -6  -7  -3   32.48    1.70
   6   7   3   35.76    1.51
   6   7   3   34.96    1.65
   6   7   3   36.37    1.66
   6   7   3   38.26    1.56
   6   7   3   36.03    1.50
   6   7   3   36.70    1.59
   6   7   3   38.56    1.30
   6   7   3   35.74    1.32
   6   7   3   37.28    1.59
  -7  -7  -3    6.96    0.47
   7   7   3    7.21    0.50
   7   7   3    6.60    0.42
   7   7   3    6.32    0.41
   7   7   3    6.54    0.44
  -8  -7  -3   48.61    2.34
   8   7   3   51.58    2.30
   8   7   3   54.10    2.24
  -9  -7  -3    7.18    0.44
   9   7   3    8.48    0.44
   1   8   3   16.03    0.56
   1   8   3   16.70    0.81
   2   8   3   21.06    1.02
   2   8   3   21.71    0.86
   2   8   3   22.09    0.99
   2   8   3   21.42    0.76
   2   8   3   22.53    0.90
   3   8   3    3.57    0.21
   3   8   3    3.46    0.31
   3   8   3    3.83    0.30
   3   8   3    3.98    0.34
   3   8   3    3.98    0.20
   3   8   3    3.79    0.22
   3   8   3    3.41    0.18
   4   8   3    8.54    0.35
   4   8   3    7.83    0.52
   4   8   3    8.05    0.39
   4   8   3    8.18    0.34
   4   8   3    8.08    0.46
   4   8   3    8.71    0.41
   5   8   3    0.90    0.14
   5   8   3    0.96    0.21
   5   8   3    0.79    0.13
   5   8   3    0.79    0.11
   5   8   3    0.93    0.12
   5   8   3    0.83    0.18
   5   8   3    0.77    0.17
   6   8   3   15.31    0.74
   6   8   3   14.54    0.70
   6   8   3   14.61    0.67
   6   8   3   15.50    0.59
   6   8   3   15.39    0.59
   6   8   3   15.37    0.79
   6   8   3   15.10    0.72
   7   8   3   13.95    0.63
   7   8   3   14.12    0.64
   7   8   3   13.80    0.71
   7   8   3   13.66    0.65
  -8  -8  -3    3.26    0.29
   8   8   3    3.98    0.29
   8   8   3    3.50    0.23
   2   9   3    1.34    0.09
   2   9   3    1.70    0.18
   2   9   3    1.75    0.19
   3   9   3   81.15    3.28
   3   9   3   81.49    3.37
   3   9   3   82.09    3.15
   3   9   3   80.48    2.83
   3   9   3   84.27    3.47
   3   9   3   82.56    2.74
   4   9   3   62.71    2.45
   4   9   3   60.90    2.54
   4   9   3   63.49    2.62
   4   9   3   64.63    2.70
   4   9   3   64.00    2.44
   4   9   3   61.79    2.19
   4   9   3   63.97    2.13
   5   9   3    9.00    0.44
   5   9   3    8.86    0.46
   5   9   3    9.19    0.37
   5   9   3    9.00    0.52
   5   9   3   10.04    0.43
   5   9   3    9.24    0.48
   5   9   3    9.93    0.37
   6   9   3   79.42    3.35
   6   9   3   80.21    2.76
   6   9   3   85.90    3.16
   6   9   3   84.27    2.84
   6   9   3   76.06    3.30
   6   9   3   82.91    3.18
   6   9   3   85.18    3.47
   7   9   3    7.58    0.42
   7   9   3    7.98    0.38
   7   9   3    7.70    0.36
   3  10   3    2.65    0.19
   3  10   3    2.77    0.12
   3  10   3    2.55    0.20
   4  10   3    2.65    0.21
   4  10   3    3.44    0.23
   4  10   3    3.19    0.15
   4  10   3    3.14    0.19
   4  10   3    3.13    0.14
   5  10   3    4.49    0.19
   5  10   3    4.28    0.23
   5  10   3    4.43    0.18
   5  10   3    4.41    0.19
   5  10   3    4.49    0.25
   5  10   3    3.87    0.27
   6  10   3    2.38    0.19
   6  10   3    2.26    0.13
   6  10   3    2.43    0.12
   6  10   3    2.14    0.16
   5   9  -4   49.48    2.32
   5   9  -4   46.61    1.85
  -5  -9   4   44.53    1.82
   4   9  -4   15.66    0.64
   4   9  -4   15.27    0.68
   4   9  -4   14.22    0.69
   4   9  -4   14.12    0.54
   3   9  -4   17.20    0.70
   3   9  -4   16.47    0.60
   3   9  -4   15.78    0.60
   3   9  -4   15.69    0.74
   3   9  -4   17.06    0.77
   2   9  -4   30.79    1.37
   2   9  -4   32.26    1.12
   2   9  -4   33.26    1.14
   2   9  -4   33.89    1.42
   2   9  -4   32.78    1.28
  -2  -9   4   31.68    1.39
   1   9  -4    1.46    0.12
   1   9  -4    1.20    0.11
   1   9  -4    1.29    0.16
   7   8  -4    2.19    0.21
   7   8  -4    2.77    0.34
  -7  -8   4    2.09    0.20
   6   8  -4    2.51    0.24
   6   8  -4    1.93    0.40
   6   8  -4    2.87    0.36
  -6  -8   4    2.38    0.25
   5   8  -4    2.33    0.53
   5   8  -4    2.53    0.44
   5   8  -4    2.57    0.29
   5   8  -4    2.22    0.25
   5   8  -4    2.47    0.37
  -5  -8   4    2.90    0.28
   4   8  -4    0.57    0.33
   4   8  -4    0.70    0.12
   4   8  -4    0.60    0.28
   4   8  -4    0.36    0.16
   4   8  -4    0.55    0.20
   4   8  -4    0.63    0.37
   4   8  -4    0.44    0.17
   4   8  -4    0.33    0.22
  -4  -8   4    0.85    0.20
   3   8  -4   19.33    1.46
   3   8  -4   18.05    0.88
   3   8  -4   19.31    0.73
   3   8  -4   18.29    1.28
   3   8  -4   18.96    0.86
   3   8  -4   19.36    1.12
   3   8  -4   19.85    0.94
   3   8  -4   19.65    0.96
   3   8  -4   19.72    0.74
   2   8  -4    2.43    0.31
   2   8  -4    2.47    0.25
   2   8  -4    2.46    0.46
   2   8  -4    2.39    0.28
   2   8  -4    2.48    0.25
   2   8  -4    2.49    0.21
   2   8  -4    2.59    0.21
   2   8  -4    2.03    0.38
   1   8  -4    8.91    0.84
   1   8  -4    9.10    0.49
   1   8  -4   10.26    0.41
   1   8  -4   10.29    0.54
   1   8  -4   10.35    0.48
   1   8  -4    9.53    0.76
   1   8  -4    9.88    0.58
   1   8  -4   10.24    0.41
   0   8  -4    2.08    0.16
   0   8  -4    1.72    0.30
   0   8  -4    2.12    0.24
   0   8  -4    1.76    0.18
   0   8  -4    1.94    0.16
   0   8  -4    2.09    0.18
  -1   8  -4    9.20    0.37
  -1   8  -4    9.91    0.41
  -1   8  -4    9.49    0.37
  -1   8  -4    9.74    0.49
  -1   8  -4    9.24    0.65
  -2   8  -4    3.59    0.16
   8   7  -4    0.18    0.15
   7   7  -4   23.59    1.34
   7   7  -4   22.86    1.52
   7   7  -4   25.10    1.17
  -7  -7   4   23.28    1.01
   6   7  -4   15.40    1.39
   6   7  -4   16.58    1.08
   6   7  -4   16.85    0.91
   6   7  -4   16.32    1.25
  -6  -7   4   17.39    0.79
   5   7  -4   10.69    0.68
   5   7  -4   11.39    0.88
   5   7  -4   10.30    1.11
   5   7  -4   11.95    0.63
   5   7  -4   10.62    1.01
  -5  -7   4   10.61    0.61
   4   7  -4   53.24    2.75
   4   7  -4   50.44    1.87
   4   7  -4   56.43    3.14
   4   7  -4   54.34    3.54
   4   7  -4   51.51    2.39
   4   7  -4   55.01    2.26
   4   7  -4   49.76    2.19
  -4  -7   4   51.04    2.12
   3   7  -4    2.90    0.30
   3   7  -4    3.54    0.34
   3   7  -4    2.94    0.35
   3   7  -4    3.51    0.27
   3   7  -4    3.84    0.36
   3   7  -4    3.59    0.23
   3   7  -4    3.87    0.68
   3   7  -4    2.52    0.45
   3   7  -4    2.70    0.29
   3   7  -4    2.75    0.53
  -3  -7   4    3.42    0.33
   2   7  -4   82.89    3.50
   2   7  -4   80.04    3.60
   2   7  -4   84.47    3.32
   2   7  -4   83.37    2.86
   2   7  -4   83.23    4.17
   2   7  -4   88.60    3.45
   2   7  -4   86.15    4.71
   2   7  -4   84.17    2.92
   2   7  -4   88.24    5.34
   2   7  -4   74.83    3.62
   1   7  -4   63.17    2.29
   1   7  -4   64.60    4.19
   1   7  -4   64.09    2.60
   1   7  -4   64.21    2.24
   1   7  -4   71.78    2.72
   1   7  -4   68.64    3.72
   1   7  -4   61.88    2.84
   1   7  -4   62.56    2.76
   0   7  -4    3.38    0.28
   0   7  -4    3.03    0.21
   0   7  -4    3.87    0.24
   0   7  -4    2.77    0.32
   0   7  -4    3.27    0.28
   0   7  -4    3.17    0.53
   0   7  -4    2.63    0.29
   0   7  -4    3.30    0.47
  -1   7  -4   44.01    1.45
  -1   7  -4   40.19    1.48
  -1   7  -4   40.24    2.73
  -1   7  -4   40.89    1.67
  -1   7  -4   44.15    2.43
  -1   7  -4   40.92    1.74
  -1   7  -4   41.18    1.86
  -2   7  -4   22.45    0.97
  -2   7  -4   23.26    0.83
  -2   7  -4   21.77    1.37
  -2   7  -4   22.93    0.93
  -2   7  -4   22.28    1.05
  -2   7  -4   22.97    0.81
  -3   7  -4   21.77    0.76
  -3   7  -4   21.79    0.78
  -3   7  -4   21.32    0.96
   8   6  -4    0.33    0.23
   7   6  -4    5.89    0.63
   7   6  -4    4.22    0.66
   7   6  -4    4.34    0.75
  -7  -6   4    4.47    0.37
   6   6  -4    1.27    0.52
   6   6  -4    1.55    0.36
   6   6  -4    1.13    0.58
  -6  -6   4    1.81    0.24
   5   6  -4   18.01    1.08
   5   6  -4   18.75    1.66
   5   6  -4   17.90    1.45
  -5  -6   4   18.82    0.85
   4   6  -4    1.67    0.57
   4   6  -4    1.98    0.18
   4   6  -4    1.77    0.34
   4   6  -4    1.63    0.24
   4   6  -4    1.46    0.49
   4   6  -4    1.44    0.20
   3   6  -4    7.69    0.47
   3   6  -4    8.80    0.63
   3   6  -4    9.45    1.02
   3   6  -4    9.19    0.52
   3   6  -4    8.40    0.54
   3   6  -4    8.33    0.38
   3   6  -4    8.84    0.80
   3   6  -4    8.57    0.50
   3   6  -4    9.12    0.90
   3   6  -4    8.64    0.40
   2   6  -4   12.64    0.51
   2   6  -4   12.10    0.64
   2   6  -4   12.83    1.18
   2   6  -4   11.44    0.71
   2   6  -4   11.95    0.63
   2   6  -4   11.70    0.48
   2   6  -4   11.82    1.03
   2   6  -4   11.41    0.64
   2   6  -4   11.10    0.70
   2   6  -4   12.66    0.89
   1   6  -4    2.93    0.31
   1   6  -4    2.83    0.29
   1   6  -4    2.37    0.40
   1   6  -4    2.93    0.29
   1   6  -4    3.37    0.21
   1   6  -4    2.92    0.55
   1   6  -4    4.58    0.44
   1   6  -4    3.03    0.24
   1   6  -4    3.11    0.30
   1   6  -4    3.04    0.52
   0   6  -4   12.80    0.68
   0   6  -4   11.36    0.73
   0   6  -4   13.05    1.00
   0   6  -4   12.75    0.65
   0   6  -4   12.65    0.64
   0   6  -4   12.73    0.52
   0   6  -4   12.37    0.53
   0   6  -4   14.18    1.15
  -1   6  -4    6.83    0.52
  -1   6  -4    7.41    0.44
  -1   6  -4    8.39    0.75
  -1   6  -4    9.24    0.86
  -1   6  -4    8.04    0.45
  -1   6  -4    7.04    0.36
  -1   6  -4    6.93    0.34
  -2   6  -4    1.52    0.15
  -2   6  -4    1.67    0.41
  -2   6  -4    1.32    0.26
  -2   6  -4    1.66    0.21
  -2   6  -4    1.65    0.17
  -2   6  -4    1.86    0.38
  -2   6  -4    1.66    0.20
  -3   6  -4   10.88    0.44
  -3   6  -4   10.40    0.53
  -3   6  -4   11.01    0.81
  -3   6  -4   11.00    0.51
  -3   6  -4   10.68    0.91
  -3   6  -4   10.70    0.60
  -3   6  -4   10.05    0.59
  -4   6  -4    0.90    0.11
  -4   6  -4    0.49    0.23
  -4   6  -4    0.78    0.10
  -4   6  -4    0.65    0.16
  -4   6  -4    0.89    0.18
  -4   6  -4    0.77    0.12
   8   5  -4   23.37    1.60
   7   5  -4    4.83    0.79
   7   5  -4    4.82    0.89
  -7  -5   4    5.07    0.36
   6   5  -4   62.47    3.71
   6   5  -4   59.84    4.18
  -6  -5   4   62.07    2.42
   5   5  -4    2.67    0.42
   5   5  -4    2.17    0.69
   5   5  -4    2.27    0.61
  -5  -5   4    3.67    0.31
   4   5  -4   99.64    5.65
   4   5  -4   93.30    6.07
   4   5  -4  104.94    3.87
   4   5  -4  102.92    6.43
   3   5  -4   51.44    3.18
   3   5  -4   51.96    3.29
   3   5  -4   56.70    2.26
   3   5  -4   54.77    3.63
   2   5  -4    1.65    0.50
   2   5  -4    1.68    0.15
   2   5  -4    2.46    0.25
   2   5  -4    1.79    0.20
   2   5  -4    2.37    0.50
   1   5  -4  128.23    7.04
   1   5  -4  128.16    5.22
   1   5  -4  126.64    5.16
   1   5  -4  124.11    4.28
   1   5  -4  131.85    7.98
   0   5  -4    9.31    0.39
   0   5  -4    9.79    0.96
   0   5  -4    8.47    0.50
   0   5  -4    8.82    0.75
   0   5  -4    9.49    0.51
   0   5  -4    8.93    0.84
  -1   5  -4   59.28    2.02
  -1   5  -4   59.08    2.58
  -1   5  -4   54.49    2.36
  -1   5  -4   51.61    2.58
  -1   5  -4   66.33    3.90
  -1   5  -4   56.61    2.45
  -1   5  -4   58.50    2.05
  -1   5  -4   65.40    3.43
  -1   5  -4   58.03    2.46
  -2   5  -4   79.70    4.42
  -2   5  -4   75.89    2.72
  -2   5  -4   77.63    3.05
  -2   5  -4   78.81    3.11
  -2   5  -4   77.90    3.22
  -2   5  -4   78.35    4.95
  -2   5  -4   83.49    5.03
  -2   5  -4   74.70    2.67
  -2   5  -4   75.31    3.37
  -3   5  -4    0.26    0.31
  -3   5  -4    0.42    0.17
  -3   5  -4    0.38    0.11
  -3   5  -4    0.43    0.15
  -3   5  -4    0.38    0.16
  -3   5  -4    0.34    0.35
  -3   5  -4    0.74    0.22
  -3   5  -4    0.19    0.19
  -4   5  -4   45.09    1.87
  -4   5  -4   42.54    2.00
  -4   5  -4   46.97    1.92
  -4   5  -4   48.30    2.66
  -4   5  -4   44.78    2.99
  -4   5  -4   46.46    1.84
  -4   5  -4   43.71    1.62
  -5   5  -4   23.96    0.98
  -5   5  -4   22.29    1.01
  -5   5  -4   24.01    0.87
  -5   5  -4   23.82    0.87
  -5   5  -4   23.80    0.86
   8   4  -4    4.73    0.74
  -8  -4   4    6.03    0.47
   7   4  -4   22.85    1.75
   7   4  -4   19.77    1.91
  -7  -4   4   20.90    1.08
   6   4  -4   13.78    1.58
   6   4  -4   16.67    1.49
  -6  -4   4   14.42    0.84
  -6  -4   4   17.53    0.73
   5   4  -4    1.65    0.59
   5   4  -4    2.17    0.74
   5   4  -4    2.24    0.41
  -5  -4   4    3.02    0.27
   4   4  -4   23.87    1.42
   4   4  -4   23.96    1.69
   4   4  -4   24.57    1.92
   4   4  -4   24.61    1.62
  -4  -4   4   22.96    1.39
   3   4  -4    6.61    0.51
   3   4  -4    6.72    0.55
   3   4  -4    6.13    0.82
   3   4  -4    6.86    0.90
  -3  -4   4    5.99    0.49
   2   4  -4    5.84    0.33
   2   4  -4    5.41    0.46
   2   4  -4    6.49    0.79
  -2  -4   4    4.60    0.86
   1   4  -4   20.33    1.52
   1   4  -4   19.73    0.84
   1   4  -4   17.58    1.20
   0   4  -4   14.49    1.20
   0   4  -4   12.52    0.61
  -1   4  -4    3.73    0.28
  -1   4  -4    3.97    0.57
  -1   4  -4    3.32    0.58
  -2   4  -4   11.51    0.95
  -2   4  -4   10.68    1.12
  -2   4  -4   10.83    1.05
  -2   4  -4   11.15    0.60
  -2   4  -4   11.29    0.46
  -3   4  -4   25.35    1.68
  -3   4  -4   25.28    0.96
  -3   4  -4   25.01    1.12
  -3   4  -4   24.23    1.16
  -3   4  -4   25.21    1.18
  -3   4  -4   25.30    1.90
  -3   4  -4   25.73    1.21
  -3   4  -4   26.90    1.98
  -3   4  -4   25.37    0.94
  -3   4  -4   25.13    1.14
  -4   4  -4    9.82    0.99
  -4   4  -4    9.26    0.43
  -4   4  -4    9.08    0.59
  -4   4  -4   10.31    0.91
  -4   4  -4    9.97    0.58
  -4   4  -4    9.39    0.55
  -4   4  -4    9.76    0.54
  -4   4  -4    9.35    0.58
  -5   4  -4    0.40    0.15
  -5   4  -4    0.78    0.15
  -5   4  -4    0.35    0.24
  -5   4  -4    0.18    0.31
  -5   4  -4    0.61    0.22
  -5   4  -4    0.23    0.33
  -5   4  -4    0.22    0.17
  -5   4  -4    0.32    0.17
  -5   4  -4    0.83    0.22
  -6   4  -4    4.77    0.37
  -6   4  -4    5.41    0.31
  -6   4  -4    4.77    0.26
  -6   4  -4    5.06    0.28
  -6   4  -4    4.68    0.37
   8   3  -4   46.25    3.10
  -8  -3   4   54.86    2.36
  -8  -3   4   51.37    2.33
   7   3  -4   35.60    2.58
   7   3  -4   31.61    2.87
  -7  -3   4   44.04    1.82
   6   3  -4   41.09    3.51
   6   3  -4   40.46    3.11
  -6  -3   4   59.22    3.59
  -6  -3   4   55.75    2.29
   5   3  -4   38.86    2.54
   5   3  -4   39.70    2.90
   4   3  -4    0.66    0.45
   4   3  -4    1.03    0.27
   4   3  -4    1.23    0.25
   4   3  -4    0.99    0.53
  -4  -3   4    0.56    0.54
   3   3  -4  171.95   10.09
   3   3  -4  169.77    8.68
  -3  -3   4  162.22    8.54
   2   3  -4   46.85    3.22
   2   3  -4   51.38    2.59
   2   3  -4   53.69    3.01
  -2  -3   4   47.22    2.54
  -2  -3   4   42.54    3.07
   1   3  -4   78.68    4.69
   1   3  -4   76.53    4.51
   0   3  -4  260.51   14.99
   0   3  -4  243.75   14.13
  -1   3  -4   15.64    1.25
  -1   3  -4   13.11    1.00
  -1   3  -4   14.73    0.92
  -2   3  -4   47.89    3.31
  -2   3  -4   51.93    3.37
  -2   3  -4   51.03    2.09
  -3   3  -4  127.51    4.16
  -3   3  -4  120.08    7.68
  -3   3  -4  122.61    6.80
  -3   3  -4  119.35    7.63
  -3   3  -4  126.26    5.03
  -4   3  -4   18.17    0.91
  -4   3  -4   19.03    0.92
  -4   3  -4   17.83    1.32
  -4   3  -4   16.41    0.90
  -4   3  -4   18.12    0.87
  -4   3  -4   17.51    1.65
  -4   3  -4   17.56    1.47
  -4   3  -4   18.95    0.83
  -4   3  -4   19.30    0.71
  -4   3  -4   19.53    0.86
  -4   3  -4   18.08    0.93
  -5   3  -4   41.76    1.74
  -5   3  -4   40.84    1.84
  -5   3  -4   41.88    1.51
  -5   3  -4   41.14    1.75
  -5   3  -4   39.75    1.76
  -5   3  -4   42.16    1.84
  -5   3  -4   43.00    2.84
  -5   3  -4   41.41    1.68
  -5   3  -4   41.45    1.87
  -5   3  -4   41.70    2.51
  -5   3  -4   39.90    1.51
  -6   3  -4    4.33    0.39
  -6   3  -4    4.54    0.38
  -6   3  -4    4.05    0.31
  -6   3  -4    4.20    0.28
  -6   3  -4    3.79    0.37
  -6   3  -4    4.10    0.39
  -6   3  -4    4.19    0.36
  -6   3  -4    3.35    0.56
   6  -3   4    3.72    0.49
  -7   3  -4   23.07    1.04
  -7   3  -4   23.19    1.01
  -7   3  -4   25.25    1.01
  -7   3  -4   25.36    1.02
   8   2  -4    4.22    0.86
  -8  -2   4    6.62    0.47
  -8  -2   4    6.63    0.42
   7   2  -4    0.49    0.80
   7   2  -4    0.89    0.77
  -7  -2   4    0.86    0.22
  -7  -2   4    0.85    0.22
  -6  -2   4   23.87    1.19
  -6  -2   4   24.30    1.75
   5   2  -4    1.54    0.66
   5   2  -4    0.09    0.55
  -5  -2   4    2.55    0.60
   4   2  -4    1.87    0.57
  -4  -2   4    2.74    0.62
   3   2  -4   97.66    5.64
   3   2  -4   89.42    4.81
  -3  -2   4   89.51    5.97
   2   2  -4   16.98    1.17
   2   2  -4   20.13    1.00
  -2  -2   4   13.82    1.52
   1   2  -4  152.06    7.56
   1   2  -4  145.98    8.80
   1   2  -4  143.30    8.28
   0   2  -4   65.08    3.71
   0   2  -4   63.86    3.91
  -1   2  -4   10.37    0.74
  -1   2  -4   10.78    0.73
  -2   2  -4   79.88    4.91
  -2   2  -4   77.68    4.55
  -2   2  -4   79.26    4.75
  -3   2  -4    7.93    0.93
  -3   2  -4    8.04    0.75
  -3   2  -4    7.86    0.45
  -3   2  -4    7.88    0.55
  -4   2  -4    7.46    0.50
  -4   2  -4    7.91    0.72
  -4   2  -4    7.62    0.47
  -4   2  -4    7.48    1.05
  -4   2  -4    7.68    0.76
  -5   2  -4    2.60    0.35
  -5   2  -4    2.20    0.19
  -5   2  -4    2.23    0.25
  -5   2  -4    2.31    0.27
  -5   2  -4    2.48    0.27
  -5   2  -4    2.42    0.75
  -5   2  -4    3.31    0.39
  -5   2  -4    1.99    0.46
  -5   2  -4    1.81    0.22
  -5   2  -4    2.63    0.33
  -5   2  -4    2.40    0.27
  -5   2  -4    2.55    0.46
  -5   2  -4    2.49    0.26
  -6   2  -4    3.56    0.31
  -6   2  -4    3.32    0.30
  -6   2  -4    2.90    0.36
  -6   2  -4    3.33    0.26
  -6   2  -4    2.98    0.53
  -6   2  -4    3.76    0.41
  -6   2  -4    2.79    0.29
  -6   2  -4    3.54    0.34
  -6   2  -4    3.18    0.35
  -6   2  -4    2.98    0.37
   6  -2   4    3.24    0.47
  -7   2  -4    1.58    0.24
  -7   2  -4    2.12    0.27
  -7   2  -4    1.86    0.27
  -7   2  -4    1.79    0.26
  -7   2  -4    2.42    0.31
   8   1  -4    7.22    1.06
  -8  -1   4   11.12    0.52
  -8  -1   4   10.43    0.62
  -7  -1   4   19.25    0.96
  -7  -1   4   19.29    1.01
   6   1  -4    0.72    0.78
   6   1  -4    0.36    0.72
  -6  -1   4    0.56    0.33
  -6  -1   4    0.61    0.18
  -6  -1   4    0.77    0.19
  -5  -1   4   52.76    2.58
   4   1  -4   95.58    4.99
  -4  -1   4   93.41    6.12
  -4  -1   4   95.07    5.90
   3   1  -4   15.83    0.95
  -3  -1   4   17.96    1.34
  -3  -1   4   15.34    1.49
   2   1  -4  340.26   20.42
   2   1  -4  363.10   17.56
  -2  -1   4  299.30   20.24
  -2  -1   4  368.97   20.66
   1   1  -4   84.43    4.43
   1   1  -4   83.21    4.05
   1   1  -4   76.22    4.73
  -1  -1   4   67.04    4.95
   0   1  -4  213.99   12.09
   0   1  -4  207.85   12.93
   0   1  -4  229.64   11.10
  -1   1  -4  264.96   14.62
  -1   1  -4  260.20   15.62
  -2   1  -4    1.13    0.29
  -2   1  -4    1.69    0.30
  -2   1  -4    1.93    0.26
  -3   1  -4  419.20   24.50
  -3   1  -4  414.80   24.20
  -3   1  -4  402.94   22.97
  -4   1  -4   26.89    1.20
  -4   1  -4   26.51    2.08
  -4   1  -4   26.67    1.72
  -4   1  -4   27.25    1.79
  -4   1  -4   26.04    1.29
  -5   1  -4   18.85    0.98
  -5   1  -4   20.52    1.26
  -5   1  -4   18.34    0.83
  -5   1  -4   17.63    1.79
  -5   1  -4   18.67    1.37
  -6   1  -4   68.15    3.24
  -6   1  -4   69.00    2.44
  -6   1  -4   75.75    4.39
  -6   1  -4   65.51    3.09
  -6   1  -4   66.11    2.80
  -6   1  -4   66.27    2.68
  -6   1  -4   67.83    2.78
   6  -1   4   72.05    3.10
  -7   1  -4    1.77    0.33
  -7   1  -4    2.18    0.27
  -7   1  -4    2.55    0.29
  -7   1  -4    2.18    0.25
  -7   1  -4    1.78    0.26
   7  -1   4    2.04    0.61
  -8   1  -4   40.35    1.67
  -8   1  -4   39.90    1.61
  -8   0   4    5.96    0.37
  -8   0   4    5.78    0.43
  -7   0   4   19.65    0.91
  -7   0   4   19.37    0.95
  -7   0   4   18.49    1.00
  -7   0   4   19.48    0.90
  -7   0   4   18.93    0.77
  -7   0   4   18.20    1.11
   6   0  -4    0.24    0.76
   6   0  -4    0.31    0.72
  -6   0   4    0.96    0.26
  -6   0   4    0.58    0.28
  -6   0   4    0.05    0.19
  -6   0   4    0.11    0.28
  -6   0   4    0.44    0.15
  -6   0   4    0.72    0.16
  -6   0   4    0.92    0.26
  -6   0   4    0.07    0.17
  -6   0   4    0.31    0.17
  -6   0   4    0.69    0.27
  -5   0   4   32.45    1.19
  -5   0   4   29.88    1.60
  -5   0   4   30.93    2.41
  -5   0   4   30.02    1.41
  -5   0   4   29.74    1.17
  -5   0   4   31.47    1.38
   4   0  -4   19.40    1.18
   4   0  -4   17.64    1.59
  -4   0   4   20.32    1.06
  -4   0   4   20.76    1.29
  -4   0   4   20.66    1.67
  -4   0   4   18.15    0.94
   3   0  -4   21.55    1.26
  -3   0   4   22.96    1.49
  -3   0   4   21.63    1.69
   2   0  -4   63.73    3.33
  -2   0   4   58.54    3.99
  -2   0   4   67.37    3.96
   1   0  -4   75.53    3.75
  -1   0   4   67.91    4.48
  -1   0   4   71.85    4.48
   0   0  -4    7.03    0.43
   0   0  -4    6.49    0.44
   0   0   4    6.91    0.72
   0   0   4    7.07    0.75
  -1   0  -4   26.97    1.68
  -1   0  -4   26.24    1.54
   1   0   4   24.88    1.79
  -2   0  -4   25.05    1.35
  -2   0  -4   26.69    1.57
  -2   0  -4   27.20    1.72
  -2   0  -4   26.10    1.70
   2   0   4   25.27    1.77
  -3   0  -4  101.27    5.88
  -3   0  -4  105.92    6.31
  -4   0  -4    0.67    0.19
  -4   0  -4    0.84    0.26
  -4   0  -4    0.64    0.37
  -5   0  -4   20.53    1.37
  -5   0  -4   19.63    1.40
  -5   0  -4   19.34    1.00
  -6   0  -4  112.94    7.11
  -6   0  -4  124.68    7.26
  -6   0  -4  117.12    5.25
  -6   0  -4  114.04    4.64
  -6   0  -4  116.08    4.47
  -6   0  -4  114.78    5.43
   6   0   4  125.78    5.09
  -7   0  -4   14.26    0.73
  -7   0  -4   14.75    0.74
  -7   0  -4   14.72    0.82
  -7   0  -4   14.11    0.83
   7   0   4   13.29    0.94
  -8   0  -4   25.89    1.14
  -8   0  -4   25.60    1.13
  -8   0  -4   25.91    1.20
  -8   0  -4   23.87    1.29
  -7   1   4   40.65    2.14
  -7   1   4   43.60    1.54
  -7   1   4   43.09    1.78
  -7   1   4   45.00    1.74
  -7   1   4   40.72    1.85
  -7   1   4   41.87    2.05
  -7   1   4   46.15    1.83
  -7   1   4   45.62    1.75
  -7   1   4   46.27    1.57
   6  -1  -4   50.67    3.61
   6  -1  -4   47.33    3.98
  -6   1   4   57.56    2.43
  -6   1   4   62.46    2.46
  -6   1   4   61.92    2.55
  -6   1   4   58.70    2.31
  -6   1   4   58.62    2.04
  -6   1   4   63.09    2.86
  -6   1   4   55.53    2.36
  -6   1   4   59.46    2.08
  -6   1   4   57.49    2.32
  -6   1   4   60.51    2.70
   5  -1  -4    7.02    1.08
  -5   1   4    7.21    0.95
  -5   1   4    6.96    0.45
  -5   1   4    6.05    0.49
  -5   1   4    6.56    0.55
  -5   1   4    6.91    0.37
  -5   1   4    6.87    0.45
  -5   1   4    6.77    0.61
  -5   1   4    6.35    0.57
  -5   1   4    6.57    0.37
  -5   1   4    6.66    0.40
  -5   1   4    6.85    0.52
   4  -1  -4   57.14    3.65
   4  -1  -4   51.61    2.96
  -4   1   4   52.54    2.60
  -4   1   4   53.22    1.89
  -4   1   4   57.00    3.58
  -4   1   4   53.07    2.26
   3  -1  -4    8.94    0.92
   3  -1  -4    7.82    0.59
  -3   1   4    8.59    0.84
  -3   1   4    8.13    0.45
   2  -1  -4   48.47    2.57
  -2   1   4   46.59    3.01
   1  -1  -4  190.38    9.44
  -1   1   4  184.18   10.88
  -1   1   4  174.26   10.79
   0  -1  -4   54.58    2.98
   0   1   4   50.08    3.24
   0   1   4   51.82    3.01
   0   1   4   53.31    3.27
  -1  -1  -4  200.95   10.38
   1   1   4  169.54   11.14
   1   1   4  186.74   10.95
  -2  -1  -4   15.85    1.19
  -2  -1  -4   18.30    0.95
  -2  -1  -4   19.01    1.08
   2   1   4   16.13    1.17
   2   1   4   14.00    1.17
  -3  -1  -4  173.38    9.60
  -3  -1  -4  171.74    8.62
  -3  -1  -4  165.51   10.32
   3   1   4  172.14   10.28
  -4  -1  -4  215.25   13.06
  -4  -1  -4  206.71   12.14
   4   1   4  226.83   13.05
  -5  -1  -4    2.02    0.44
  -5  -1  -4    1.94    0.22
  -6  -1  -4  112.09    4.52
  -6  -1  -4  109.83    7.08
  -6  -1  -4  113.48    4.35
  -6  -1  -4  114.36    5.28
   6   1   4  123.82    4.98
  -7  -1  -4   90.36    4.08
  -7  -1  -4   87.42    3.38
  -7  -1  -4   82.62    3.96
  -7  -1  -4   87.23    3.50
   7   1   4   87.58    3.86
  -8  -1  -4   26.05    1.18
  -8  -1  -4   24.79    1.33
  -8  -1  -4   26.69    1.31
  -8  -1  -4   25.23    1.16
  -9  -1  -4   38.01    1.63
  -9  -1  -4   39.96    1.74
  -7   2   4   38.97    1.59
  -7   2   4   34.16    1.80
  -7   2   4   41.10    1.38
  -7   2   4   37.91    1.51
  -7   2   4   38.80    1.34
  -7   2   4   39.59    1.53
  -7   2   4   39.99    1.56
   6  -2  -4    9.55    1.33
  -6   2   4   12.89    0.65
  -6   2   4   13.59    0.67
  -6   2   4   14.00    0.88
  -6   2   4   13.16    0.66
  -6   2   4   13.64    0.55
  -6   2   4   13.63    0.69
  -6   2   4   13.82    0.81
  -6   2   4   13.67    0.74
  -6   2   4   14.78    0.55
   5  -2  -4    6.85    0.96
  -5   2   4    5.02    0.42
  -5   2   4    4.75    0.55
  -5   2   4    4.11    0.46
  -5   2   4    5.36    0.29
  -5   2   4    5.09    0.49
  -5   2   4    4.81    0.28
  -5   2   4    5.59    0.45
  -5   2   4    5.19    0.35
  -5   2   4    5.10    0.35
  -4   2   4   78.50    4.92
  -4   2   4   76.61    3.72
  -4   2   4   74.82    3.05
  -4   2   4   79.25    3.21
  -4   2   4   82.34    2.68
   3  -2  -4   13.10    0.93
  -3   2   4   14.07    1.07
  -3   2   4   14.18    0.65
  -3   2   4   13.13    0.82
  -3   2   4   16.46    1.16
   2  -2  -4  103.69    5.70
  -2   2   4  113.01    6.49
  -1   2   4  111.20    6.59
   0  -2  -4    2.93    0.32
   0   2   4    2.54    0.35
  -1  -2  -4    7.97    0.61
   1   2   4    6.70    0.54
   1   2   4    8.48    0.54
   1   2   4    7.89    0.63
  -2  -2  -4   80.24    4.48
  -2  -2  -4   74.26    4.02
   2   2   4   77.98    4.72
  -3  -2  -4    9.60    0.76
  -3  -2  -4    9.17    0.62
   3   2   4   10.61    0.78
   3   2   4   10.51    0.69
  -4  -2  -4   60.51    3.67
  -4  -2  -4   64.90    4.06
  -4  -2  -4   60.59    3.23
   4   2   4   67.63    3.90
   4   2   4   57.21    3.34
  -5  -2  -4    3.01    0.29
  -5  -2  -4    3.05    0.60
  -5  -2  -4    2.76    0.25
   5   2   4    3.61    0.52
  -6  -2  -4   40.53    1.90
  -6  -2  -4   37.42    2.77
  -7  -2  -4   10.92    0.64
  -7  -2  -4   11.26    0.68
  -7  -2  -4   10.83    0.61
   7   2   4   10.44    0.80
  -8  -2  -4    2.93    0.34
  -8  -2  -4    3.56    0.38
  -8  -2  -4    2.91    0.30
   8   2   4    3.22    0.44
  -9  -2  -4   16.34    0.85
  -9  -2  -4   15.91    0.80
  -7   3   4    0.70    0.13
  -6   3   4   20.92    1.17
  -6   3   4   21.73    0.93
  -6   3   4   22.58    0.91
  -6   3   4   20.71    0.94
  -6   3   4   21.83    0.99
  -6   3   4   21.44    0.92
  -6   3   4   22.44    0.80
  -6   3   4   21.45    0.78
   5  -3  -4    7.15    0.95
  -5   3   4    6.62    0.56
  -5   3   4    6.46    0.48
  -5   3   4    6.64    0.31
  -5   3   4    6.03    0.30
  -5   3   4    6.40    0.45
  -5   3   4    6.39    0.60
  -5   3   4    6.73    0.38
  -5   3   4    5.51    0.50
  -5   3   4    6.34    0.37
  -4   3   4   29.31    1.99
  -4   3   4   26.81    1.23
  -4   3   4   28.66    1.45
  -4   3   4   29.81    1.92
  -4   3   4   28.26    1.01
  -4   3   4   27.35    1.21
  -4   3   4   29.43    1.22
  -4   3   4   27.15    1.29
  -4   3   4   28.73    1.03
  -4   3   4   27.04    1.50
  -4   3   4   26.89    1.17
  -3   3   4  132.69    4.50
  -3   3   4  138.33    8.06
  -3   3   4  140.67    8.25
  -3   3   4  135.40    5.40
  -3   3   4  126.60    6.23
   2  -3  -4    4.61    0.53
  -2   3   4    5.90    0.54
  -2   3   4    5.76    0.28
  -2   3   4    4.94    0.45
  -1   3   4  167.54    9.81
   0  -3  -4   72.37    4.16
   0   3   4   71.33    4.25
  -1  -3  -4    9.97    0.77
   1   3   4    9.64    0.70
  -2  -3  -4  298.16   14.98
  -2  -3  -4  293.72   16.61
  -3  -3  -4   47.80    2.64
   3   3   4   51.00    3.07
  -4  -3  -4   51.83    3.35
  -4  -3  -4   59.89    2.94
   4   3   4   52.33    2.35
   4   3   4   59.87    3.46
   4   3   4   50.94    3.00
  -5  -3  -4   72.03    3.68
  -5  -3  -4   67.52    3.24
   5   3   4   71.39    4.38
   5   3   4   68.36    3.80
  -6  -3  -4    3.42    0.41
  -6  -3  -4    4.52    0.36
   6   3   4    4.55    0.65
  -7  -3  -4   34.35    1.62
  -7  -3  -4   35.49    1.72
   7   3   4   32.36    1.67
  -8  -3  -4    3.66    0.40
  -8  -3  -4    2.40    0.27
   8   3   4    2.45    0.41
  -9  -3  -4   14.54    0.91
  -9  -3  -4   16.51    0.81
  -6   4   4   38.88    1.52
  -6   4   4   38.82    1.34
  -6   4   4   38.25    1.52
  -6   4   4   40.75    1.60
  -6   4   4   39.46    1.37
  -5   4   4    6.32    0.42
  -5   4   4    5.86    0.32
  -5   4   4    6.04    0.45
  -5   4   4    5.64    0.26
  -5   4   4    6.11    0.27
  -5   4   4    6.28    0.52
  -5   4   4    5.56    0.32
  -5   4   4    5.94    0.39
  -4   4   4   40.22    1.40
  -4   4   4   40.19    1.65
  -4   4   4   40.71    1.66
  -4   4   4   39.74    1.62
  -4   4   4   41.77    1.69
  -4   4   4   39.53    2.61
  -4   4   4   40.92    2.05
  -4   4   4   41.13    1.75
  -4   4   4   40.36    1.43
  -3   4   4   26.07    1.09
  -3   4   4   27.06    0.94
  -3   4   4   25.68    1.42
  -3   4   4   26.81    1.78
  -3   4   4   27.27    1.18
  -3   4   4   28.23    1.14
  -3   4   4   27.94    1.17
  -3   4   4   25.69    1.23
  -2   4   4   37.80    1.50
  -2   4   4   38.09    2.28
  -2   4   4   33.64    1.82
   0   4   4   43.81    2.59
  -1  -4  -4   46.38    2.82
  -2  -4  -4  321.60   15.14
  -2  -4  -4  295.90   16.79
   2   4   4  278.95   12.17
  -3  -4  -4   17.41    1.27
  -3  -4  -4   16.44    1.04
   3   4   4   15.97    0.74
  -4  -4  -4   68.01    3.54
   4   4   4   69.80    4.08
   4   4   4   64.88    3.61
   4   4   4   62.43    2.71
   4   4   4   65.95    2.79
  -5  -4  -4  115.99    6.04
   5   4   4  111.15    6.17
   5   4   4  114.43    4.85
   5   4   4  121.21    7.07
  -6  -4  -4    4.17    0.47
   6   4   4    4.30    0.61
  -7  -4  -4   39.82    1.78
   7   4   4   34.59    1.79
  -8  -4  -4    4.40    0.40
   8   4   4    4.92    0.53
  -9  -4  -4    9.47    0.57
  -5   5   4    7.83    0.31
  -5   5   4    7.82    0.31
  -5   5   4    8.20    0.43
  -5   5   4    8.29    0.41
  -5   5   4    8.36    0.42
  -4   5   4    2.64    0.16
  -4   5   4    1.96    0.25
  -4   5   4    3.08    0.28
  -4   5   4    2.28    0.17
  -4   5   4    2.48    0.15
  -4   5   4    2.42    0.32
  -4   5   4    2.37    0.27
  -3   5   4   10.52    0.56
  -3   5   4   10.18    0.39
  -3   5   4    9.76    0.59
  -3   5   4   10.09    0.46
  -3   5   4   10.60    0.57
  -3   5   4   10.07    0.44
  -3   5   4    9.50    0.68
  -2   5   4   15.09    0.71
  -2   5   4   14.08    0.71
  -2   5   4   14.37    0.85
  -2   5   4   14.37    0.62
  -2   5   4   14.30    0.75
  -1  -5  -4   38.60    2.04
   1   5   4   35.31    1.48
  -2  -5  -4   35.22    1.83
   2   5   4   31.32    1.33
   2   5   4   31.28    1.35
  -3  -5  -4  217.17   10.67
   3   5   4  206.89    8.31
   3   5   4  201.59    8.53
  -4  -5  -4   31.60    1.75
   4   5   4   28.52    1.25
   4   5   4   28.13    1.28
  -5  -5  -4   73.97    4.00
   5   5   4   74.24    3.04
   5   5   4   71.90    2.53
   5   5   4   75.36    3.13
   6   5   4   23.45    1.08
   6   5   4   20.78    1.17
   6   5   4   22.92    1.58
   6   5   4   21.69    1.16
   6   5   4   22.18    1.13
  -7  -5  -4   67.31    3.05
   7   5   4   65.54    2.96
  -8  -5  -4   54.82    2.63
   8   5   4   59.59    2.56
  -9  -5  -4    0.91    0.21
  -4   6   4    5.17    0.30
  -4   6   4    4.65    0.19
  -4   6   4    4.28    0.19
  -4   6   4    5.16    0.30
  -3   6   4   45.96    1.57
  -3   6   4   47.68    1.85
   1   6   4   19.06    0.87
   1   6   4   18.30    0.76
  -2  -6  -4   52.09    2.81
   2   6   4   52.26    2.19
   2   6   4   51.75    2.09
   2   6   4   50.88    1.74
  -3  -6  -4   71.53    3.70
   3   6   4   66.97    2.79
   3   6   4   70.63    2.88
   3   6   4   67.56    2.85
   3   6   4   68.32    2.33
  -4  -6  -4    7.09    0.64
   4   6   4    7.07    0.39
   4   6   4    7.12    0.44
   4   6   4    7.51    0.39
   4   6   4    7.62    0.33
   5   6   4   35.85    1.27
   5   6   4   32.63    1.71
   5   6   4   36.52    1.55
   5   6   4   35.27    1.52
   5   6   4   35.72    1.47
   5   6   4   36.31    1.56
   5   6   4   35.27    1.29
   5   6   4   36.36    1.65
   5   6   4   34.73    1.48
   5   6   4   35.04    1.62
   6   6   4   10.99    0.58
   6   6   4   10.33    0.69
   6   6   4    9.93    0.46
   6   6   4    9.61    0.56
   6   6   4   10.32    0.66
   6   6   4   10.50    0.61
  -7  -6  -4   45.27    2.18
   7   6   4   47.52    2.11
   7   6   4   45.39    2.13
   7   6   4   47.80    2.05
  -8  -6  -4   60.34    2.94
   8   6   4   64.72    2.90
   8   6   4   68.89    2.83
  -9  -6  -4    0.69    0.19
   9   6   4    0.66    0.18
   9   6   4    0.53    0.17
   1   7   4   27.57    1.22
   2   7   4   10.94    0.47
   2   7   4   11.42    0.60
   2   7   4   10.29    0.39
   2   7   4   10.65    0.56
   2   7   4   10.61    0.45
   2   7   4   10.47    0.53
   3   7   4   33.13    1.37
   3   7   4   32.67    1.14
   3   7   4   32.66    1.32
   3   7   4   34.30    1.37
   3   7   4   33.05    1.45
   3   7   4   32.25    1.50
   4   7   4   16.67    0.81
   4   7   4   17.02    0.74
   4   7   4   16.66    0.75
   4   7   4   17.63    0.78
   4   7   4   16.24    0.64
   4   7   4   16.51    0.62
   4   7   4   16.21    0.72
   5   7   4    2.60    0.27
   5   7   4    2.51    0.23
   5   7   4    2.80    0.21
   5   7   4    2.73    0.23
   5   7   4    3.19    0.25
   5   7   4    3.15    0.21
   5   7   4    2.76    0.32
   5   7   4    2.80    0.24
   5   7   4    2.90    0.29
  -6  -7  -4   36.75    1.81
   6   7   4   39.49    1.77
   6   7   4   39.65    1.37
   6   7   4   38.97    1.68
   6   7   4   37.30    1.75
   6   7   4   37.87    1.58
   6   7   4   41.00    1.65
   6   7   4   38.75    1.40
   6   7   4   38.37    1.85
   6   7   4   38.86    1.68
   6   7   4   38.26    1.60
  -7  -7  -4    4.53    0.39
   7   7   4    4.60    0.35
   7   7   4    4.63    0.34
   7   7   4    4.60    0.43
   7   7   4    5.01    0.36
  -8  -7  -4   24.93    1.23
   8   7   4   26.55    1.19
   8   7   4   25.59    1.20
  -9  -7  -4   21.41    1.05
   9   7   4   22.82    1.00
   9   7   4   23.19    1.03
   2   8   4    4.91    0.34
   2   8   4    4.19    0.19
   2   8   4    4.50    0.30
   2   8   4    4.63    0.22
   2   8   4    4.37    0.31
   3   8   4   80.48    2.76
   3   8   4   76.85    2.66
   3   8   4   78.80    3.38
   3   8   4   81.06    3.18
   3   8   4   81.02    3.28
   3   8   4   78.91    3.08
   3   8   4   77.64    3.06
   4   8   4   33.62    1.55
   4   8   4   35.62    1.43
   4   8   4   35.40    1.41
   4   8   4   34.23    1.19
   4   8   4   33.44    1.23
   4   8   4   34.09    1.37
   5   8   4   37.42    1.36
   5   8   4   36.28    1.52
   5   8   4   39.44    1.33
   5   8   4   38.63    1.64
   5   8   4   38.53    1.55
   5   8   4   37.25    1.71
   5   8   4   38.70    1.59
   6   8   4  114.58    4.33
   6   8   4  106.58    4.53
   6   8   4  112.08    3.89
   6   8   4  109.64    4.75
   6   8   4  116.65    4.60
   6   8   4  117.11    3.78
   6   8   4  109.95    4.36
  -7  -8  -4    0.93    0.16
   7   8   4    1.24    0.21
   7   8   4    0.79    0.15
   7   8   4    0.96    0.14
  -8  -8  -4   22.84    1.10
   8   8   4   24.56    1.07
   2   9   4   12.55    0.44
   2   9   4   12.88    0.59
   3   9   4    2.20    0.22
   3   9   4    2.01    0.21
   3   9   4    1.93    0.13
   3   9   4    2.14    0.13
   3   9   4    2.00    0.12
   3   9   4    1.78    0.18
   4   9   4   24.52    1.13
   4   9   4   24.76    0.88
   4   9   4   25.32    0.98
   4   9   4   24.63    1.09
   4   9   4   23.52    1.02
   4   9   4   24.99    0.86
   4   9   4   25.06    1.02
   5   9   4    4.72    0.25
   5   9   4    4.53    0.24
   5   9   4    4.35    0.21
   5   9   4    4.43    0.21
   5   9   4    4.05    0.29
   5   9   4    4.41    0.28
   5   9   4    4.19    0.33
   6   9   4    4.47    0.31
   6   9   4    3.57    0.23
   6   9   4    4.02    0.23
   6   9   4    3.70    0.26
   6   9   4    3.54    0.26
   6   9   4    3.78    0.19
   6   9   4    4.37    0.20
   7   9   4    6.61    0.32
   7   9   4    6.53    0.33
   7   9   4    6.89    0.38
   7   9   4    6.21    0.26
   3  10   4   15.33    0.54
   3  10   4   15.43    0.69
   4  10   4   45.92    1.59
   4  10   4   46.25    1.54
   4  10   4   45.56    1.76
   4  10   4   47.65    1.94
   4  10   4   43.82    1.88
   5  10   4    3.48    0.24
   5  10   4    3.52    0.16
   5  10   4    3.59    0.16
   5  10   4    3.39    0.21
   5  10   4    3.62    0.20
   6  10   4   27.92    1.21
   6  10   4   26.94    1.10
   6  10   4   29.11    1.09
   6  10   4   28.75    0.98
   4   9  -5    6.57    0.33
   3   9  -5    3.25    0.21
  -3  -9   5    3.02    0.27
   2   9  -5    8.05    0.35
   2   9  -5    7.57    0.39
   2   9  -5    7.17    0.30
   6   8  -5    8.95    0.57
   6   8  -5    7.91    0.42
  -6  -8   5    7.92    0.43
   5   8  -5   26.28    1.14
   5   8  -5   24.31    1.55
   5   8  -5   25.93    1.37
  -5  -8   5   24.10    1.06
   4   8  -5   51.83    2.02
   4   8  -5   50.97    2.12
   4   8  -5   46.89    2.84
   4   8  -5   51.34    2.53
  -4  -8   5   47.67    1.98
   3   8  -5    5.35    0.66
   3   8  -5    6.22    0.41
   3   8  -5    5.71    0.44
   3   8  -5    5.82    0.53
   3   8  -5    5.95    0.29
   3   8  -5    5.51    0.31
   3   8  -5    4.86    0.36
   3   8  -5    6.11    0.38
   3   8  -5    4.71    0.59
   2   8  -5   56.66    1.95
   2   8  -5   52.04    3.59
   2   8  -5   59.97    2.26
   2   8  -5   53.77    2.34
   2   8  -5   53.91    3.18
   2   8  -5   59.85    2.46
   2   8  -5   56.61    2.39
   2   8  -5   59.12    1.99
   1   8  -5   22.05    1.42
   1   8  -5   21.81    1.02
   1   8  -5   24.39    0.98
   1   8  -5   23.59    1.06
   1   8  -5   24.67    0.86
   1   8  -5   24.55    1.10
   1   8  -5   24.12    0.85
  -1  -8   5   22.08    1.08
   0   8  -5   18.96    0.72
   0   8  -5   19.54    1.22
   0   8  -5   20.55    0.83
   0   8  -5   20.50    0.93
   0   8  -5   20.80    0.74
  -1   8  -5   39.70    1.39
  -1   8  -5   38.55    1.70
  -1   8  -5   40.98    1.55
   7   7  -5    0.70    0.28
   7   7  -5    0.38    0.19
  -7  -7   5    0.10    0.16
   6   7  -5    8.63    0.71
   6   7  -5    7.05    0.82
   6   7  -5    8.81    0.59
  -6  -7   5    8.42    0.50
   5   7  -5    1.83    0.41
   5   7  -5    1.73    0.48
   5   7  -5    1.47    0.28
   5   7  -5    1.23    0.51
  -5  -7   5    1.62    0.25
   4   7  -5    1.45    0.44
   4   7  -5    1.97    0.40
   4   7  -5    1.39    0.27
   4   7  -5    1.90    0.25
   4   7  -5    1.83    0.52
  -4  -7   5    1.51    0.25
   3   7  -5    2.84    0.59
   3   7  -5    3.12    0.44
   3   7  -5    2.81    0.24
   3   7  -5    3.75    0.36
   3   7  -5    3.22    0.38
   3   7  -5    2.94    0.21
   3   7  -5    3.34    0.33
   3   7  -5    2.44    0.48
   3   7  -5    2.53    0.29
   3   7  -5    3.06    0.32
  -3  -7   5    3.03    0.30
   2   7  -5    6.16    0.44
   2   7  -5    6.13    0.40
   2   7  -5    6.10    0.32
   2   7  -5    6.93    0.81
   2   7  -5    6.10    0.61
   2   7  -5    6.72    0.71
   2   7  -5    6.09    0.34
   2   7  -5    5.03    0.50
   2   7  -5    6.07    0.44
   1   7  -5   13.28    0.98
   1   7  -5   11.84    0.62
   1   7  -5   12.25    0.67
   1   7  -5   11.89    0.51
   1   7  -5   11.31    1.06
   1   7  -5   11.82    0.71
   1   7  -5   12.43    0.65
   1   7  -5   12.51    0.52
   0   7  -5   18.91    1.23
   0   7  -5   18.31    0.82
   0   7  -5   17.08    0.69
   0   7  -5   17.05    1.35
   0   7  -5   18.01    0.84
   0   7  -5   17.92    0.87
   0   7  -5   18.37    0.92
   0   7  -5   18.48    0.70
  -1   7  -5    1.15    0.18
  -1   7  -5    0.84    0.14
  -1   7  -5    1.15    0.16
  -1   7  -5    1.01    0.16
  -1   7  -5    1.28    0.14
  -1   7  -5    1.27    0.23
  -1   7  -5    1.37    0.34
  -1   7  -5    1.17    0.29
  -2   7  -5    6.59    0.42
  -2   7  -5    7.04    0.35
  -2   7  -5    6.74    0.55
  -2   7  -5    6.82    0.30
  -3   7  -5    0.69    0.08
  -3   7  -5    0.57    0.08
  -3   7  -5    0.62    0.12
   7   6  -5   24.23    1.70
   7   6  -5   27.55    1.39
  -7  -6   5   25.62    1.09
   6   6  -5   43.98    2.71
   6   6  -5   44.94    2.13
   6   6  -5   41.49    3.05
  -6  -6   5   44.35    1.78
   5   6  -5    1.68    0.36
   5   6  -5    1.32    0.59
   5   6  -5    1.77    0.56
  -5  -6   5    2.13    0.25
   4   6  -5   83.92    4.21
   4   6  -5   82.87    4.74
   4   6  -5   85.32    5.38
   4   6  -5   80.49    3.75
   4   6  -5   80.29    3.41
  -4  -6   5   82.00    3.22
   3   6  -5   82.65    3.33
   3   6  -5   79.71    4.59
   3   6  -5   79.31    2.79
   3   6  -5   83.01    5.21
   3   6  -5   79.73    4.07
   3   6  -5   79.70    3.62
  -3  -6   5   75.89    3.12
   2   6  -5   11.64    1.13
   2   6  -5    9.75    0.61
   2   6  -5   10.34    0.68
   2   6  -5   10.46    0.58
   2   6  -5   10.64    0.64
   2   6  -5   10.41    0.98
   2   6  -5   10.62    0.44
   2   6  -5   10.51    0.59
   2   6  -5    9.95    0.86
   2   6  -5   10.04    0.46
   1   6  -5  149.63    5.09
   1   6  -5  143.37    6.22
   1   6  -5  146.45    6.03
   1   6  -5  145.57    4.96
   1   6  -5  135.63    6.41
   1   6  -5  154.15    8.10
   1   6  -5  160.80    9.19
   1   6  -5  149.65    7.22
   1   6  -5  137.41    5.76
   1   6  -5  152.07    5.98
   0   6  -5    0.55    0.19
   0   6  -5    0.38    0.24
   0   6  -5    0.36    0.16
   0   6  -5    0.40    0.36
   0   6  -5    0.52    0.19
   0   6  -5    0.90    0.15
   0   6  -5    0.56    0.11
   0   6  -5    0.26    0.15
   0   6  -5    0.13    0.30
  -1   6  -5   39.09    2.57
  -1   6  -5   36.35    1.56
  -1   6  -5   36.36    1.64
  -1   6  -5   36.70    1.34
  -1   6  -5   37.31    1.35
  -1   6  -5   41.98    2.29
  -1   6  -5   38.14    1.63
  -1   6  -5   36.59    1.72
  -1   6  -5   37.27    1.57
   1  -6   5   34.77    1.68
  -2   6  -5   50.78    3.33
  -2   6  -5   55.11    2.95
  -2   6  -5   46.89    2.24
  -2   6  -5   51.39    1.78
  -2   6  -5   51.67    2.06
  -2   6  -5   47.31    1.80
  -2   6  -5   53.55    2.15
  -3   6  -5    0.50    0.11
  -3   6  -5    0.58    0.30
  -3   6  -5    0.88    0.20
  -3   6  -5    0.61    0.21
  -3   6  -5    0.66    0.16
  -3   6  -5    0.52    0.25
  -3   6  -5    0.56    0.15
  -4   6  -5   31.70    1.44
  -4   6  -5   32.56    1.18
  -4   6  -5   33.92    1.16
  -4   6  -5   34.41    1.32
  -4   6  -5   33.59    1.33
   7   5  -5   -0.19    0.56
   7   5  -5    0.02    0.49
  -7  -5   5    0.41    0.16
   6   5  -5    9.11    1.11
   6   5  -5    9.19    1.26
  -6  -5   5    8.27    0.49
   5   5  -5    5.31    0.95
   5   5  -5    5.19    0.82
  -5  -5   5    4.83    0.36
   4   5  -5   10.04    1.16
   4   5  -5    6.85    0.64
   4   5  -5    8.67    1.03
  -4  -5   5    7.11    0.44
   3   5  -5    4.29    0.70
   3   5  -5    4.47    0.43
   3   5  -5    4.36    0.33
   3   5  -5    3.63    0.72
   2   5  -5    6.66    0.80
   2   5  -5    7.21    0.83
   2   5  -5    5.50    0.30
   2   5  -5    5.85    0.38
   2   5  -5    6.21    0.38
   2   5  -5    6.18    0.86
   2   5  -5    5.65    0.44
   1   5  -5    3.68    0.23
   1   5  -5    3.03    0.61
   1   5  -5    3.03    0.30
   1   5  -5    4.20    0.64
   1   5  -5    4.84    0.58
   1   5  -5    3.53    0.31
   0   5  -5   27.80    1.25
   0   5  -5   29.79    1.86
   0   5  -5   28.68    1.02
   0   5  -5   28.49    1.39
   0   5  -5   25.97    1.61
   0   5  -5   28.21    1.02
   0   5  -5   26.28    1.24
   0   5  -5   28.91    2.07
  -1   5  -5   10.12    0.45
  -1   5  -5   10.28    0.41
  -1   5  -5   10.34    1.00
  -1   5  -5    8.94    0.53
  -1   5  -5    9.38    0.60
  -1   5  -5    9.54    0.57
  -1   5  -5    9.30    0.56
  -1   5  -5   10.68    0.92
  -1   5  -5    8.87    0.58
  -2   5  -5    1.83    0.16
  -2   5  -5    1.98    0.26
  -2   5  -5    1.57    0.25
  -2   5  -5    1.62    0.42
  -2   5  -5    1.72    0.49
  -2   5  -5    1.72    0.19
  -2   5  -5    1.82    0.18
  -2   5  -5    1.52    0.24
  -2   5  -5    1.51    0.25
  -3   5  -5   16.34    0.69
  -3   5  -5   18.50    0.83
  -3   5  -5   16.68    0.68
  -3   5  -5   16.24    0.83
  -3   5  -5   18.77    0.86
  -3   5  -5   18.26    1.25
  -3   5  -5   16.95    1.38
  -3   5  -5   16.40    0.89
  -4   5  -5    3.23    0.28
  -4   5  -5    2.81    0.28
  -4   5  -5    2.73    0.31
  -4   5  -5    2.60    0.46
  -4   5  -5    2.09    0.39
  -4   5  -5    2.41    0.22
  -4   5  -5    1.94    0.27
  -5   5  -5    6.65    0.31
  -5   5  -5    7.29    0.37
  -5   5  -5    6.58    0.32
  -5   5  -5    7.16    0.43
  -5   5  -5    6.87    0.31
   8   4  -5   33.48    2.04
  -8  -4   5   29.64    1.48
  -8  -4   5   31.19    1.50
   7   4  -5    2.30    0.71
   7   4  -5    2.23    0.79
  -7  -4   5    2.56    0.34
   6   4  -5   39.94    3.10
   6   4  -5   42.01    2.77
  -6  -4   5   43.13    1.69
   5   4  -5  102.14    6.69
   5   4  -5  102.73    5.90
   5   4  -5   94.62    6.35
  -5  -4   5  112.95    3.99
   4   4  -5   23.72    1.68
   4   4  -5   25.05    2.04
   4   4  -5   25.74    1.80
   3   4  -5   65.12    4.08
   3   4  -5   68.82    3.88
   3   4  -5   64.68    4.37
   2   4  -5    9.72    0.95
   2   4  -5   10.16    0.75
   2   4  -5    9.88    1.06
   1   4  -5   57.71    3.33
   1   4  -5   58.06    3.77
   1   4  -5   58.35    2.33
   1   4  -5   52.80    3.44
   0   4  -5   95.63    5.22
   0   4  -5   91.18    3.75
   0   4  -5   90.16    5.87
  -1   4  -5    2.50    0.56
  -1   4  -5    2.37    0.26
  -1   4  -5    2.40    0.20
  -1   4  -5    2.24    0.51
  -2   4  -5  108.82    4.45
  -2   4  -5  113.61    3.68
  -2   4  -5  113.34    6.07
  -2   4  -5  104.20    6.84
  -2   4  -5   98.25    6.80
  -2   4  -5  109.96    4.62
  -2   4  -5  114.81    3.76
  -2   4  -5  104.63    4.78
  -3   4  -5   20.33    0.93
  -3   4  -5   20.47    1.76
  -3   4  -5   20.43    1.61
  -3   4  -5   19.70    0.99
  -3   4  -5   19.89    0.99
  -3   4  -5   20.22    1.43
  -3   4  -5   20.32    0.79
  -3   4  -5   19.91    0.76
  -3   4  -5   18.89    0.97
  -3   4  -5   20.70    0.98
  -4   4  -5   36.69    1.58
  -4   4  -5   35.94    1.55
  -4   4  -5   33.35    2.50
  -4   4  -5   36.56    1.33
  -4   4  -5   38.98    1.50
  -4   4  -5   35.21    1.60
  -4   4  -5   36.44    1.67
  -4   4  -5   38.45    1.65
  -4   4  -5   36.53    2.25
  -5   4  -5  102.52    3.68
  -5   4  -5   96.67    3.62
  -5   4  -5   89.82    3.95
  -5   4  -5   93.20    3.24
  -5   4  -5   94.85    3.54
  -5   4  -5   89.50    3.18
  -5   4  -5   80.44    5.77
  -5   4  -5   95.23    3.82
  -6   4  -5    3.66    0.27
  -6   4  -5    3.16    0.28
  -6   4  -5    3.16    0.30
  -6   4  -5    3.19    0.20
   8   3  -5   11.18    1.13
  -8  -3   5   11.87    0.68
  -8  -3   5   11.77    0.66
   7   3  -5    7.56    1.23
   7   3  -5   10.14    1.36
  -7  -3   5    8.66    0.59
  -7  -3   5    8.71    0.64
   6   3  -5    7.68    1.11
   6   3  -5    9.59    1.47
  -6  -3   5   10.09    0.61
   5   3  -5    4.42    0.84
   5   3  -5    5.31    1.04
  -5  -3   5    4.17    0.94
  -5  -3   5    6.42    0.38
   4   3  -5    9.71    0.81
   4   3  -5    7.65    1.20
   4   3  -5    7.95    1.08
   4   3  -5    9.90    0.68
  -4  -3   5    8.67    1.31
   3   3  -5    2.22    0.62
   3   3  -5    3.22    0.33
   3   3  -5    2.99    0.39
  -3  -3   5    4.05    1.03
   2   3  -5   15.16    1.06
   2   3  -5   16.32    1.35
   2   3  -5   14.60    0.89
   1   3  -5    3.93    0.48
   1   3  -5    4.77    0.73
   1   3  -5    3.41    0.36
   0   3  -5   11.55    1.03
   0   3  -5    9.40    0.78
   0   3  -5    9.83    0.71
  -1   3  -5    2.64    0.28
  -1   3  -5    3.22    0.25
  -1   3  -5    3.25    0.58
  -2   3  -5    0.91    0.39
  -2   3  -5    0.74    0.15
  -2   3  -5    0.81    0.39
  -2   3  -5    0.54    0.41
  -3   3  -5    0.24    0.33
  -3   3  -5    0.78    0.38
  -3   3  -5    0.09    0.48
  -3   3  -5    0.37    0.18
  -4   3  -5    4.18    0.38
  -4   3  -5    4.54    0.27
  -4   3  -5    3.72    0.41
  -4   3  -5    4.58    0.39
  -4   3  -5    4.90    0.46
  -4   3  -5    5.22    0.67
  -4   3  -5    4.63    0.93
  -4   3  -5    4.70    0.69
  -4   3  -5    4.24    0.38
  -4   3  -5    4.24    0.34
  -5   3  -5    3.22    0.57
  -5   3  -5    3.44    0.32
  -5   3  -5    3.74    0.31
  -5   3  -5    3.74    0.54
  -5   3  -5    4.33    0.42
  -5   3  -5    4.45    0.40
  -5   3  -5    3.57    0.34
  -5   3  -5    3.21    0.35
  -5   3  -5    3.44    0.38
  -5   3  -5    3.50    0.30
  -6   3  -5    4.34    0.32
  -6   3  -5    5.48    0.42
  -6   3  -5    4.00    0.40
  -6   3  -5    5.24    0.29
  -6   3  -5    4.08    0.38
  -6   3  -5    4.79    0.41
  -6   3  -5    4.49    0.37
   6  -3   5    4.94    0.53
  -7   3  -5    0.78    0.17
  -7   3  -5    1.50    0.17
  -7   3  -5    0.92    0.17
  -7   3  -5    0.91    0.18
   8   2  -5   19.40    1.56
  -8  -2   5   20.56    0.97
  -8  -2   5   20.91    1.04
   7   2  -5   31.28    2.69
  -7  -2   5   42.21    1.88
  -7  -2   5   44.60    1.92
   6   2  -5    5.86    1.19
   6   2  -5    5.81    1.09
  -6  -2   5    9.82    0.57
  -6  -2   5    9.13    0.60
  -5  -2   5  153.52    6.90
  -5  -2   5  158.85    9.64
   4   2  -5   30.97    1.76
  -4  -2   5   30.66    2.36
   3   2  -5   59.88    3.21
  -3  -2   5   60.97    4.17
   2   2  -5  498.92   28.15
   2   2  -5  486.43   24.20
  -2  -2   5  433.49   28.49
   1   2  -5    6.43    0.54
   1   2  -5    7.21    0.43
   1   2  -5    5.89    0.55
  -1  -2   5    4.60    0.93
   0   2  -5  271.98   15.78
   0   2  -5  257.55   14.80
  -1   2  -5  108.44    6.39
  -1   2  -5  116.35    6.77
  -2   2  -5   46.88    2.98
  -2   2  -5   44.90    2.92
  -2   2  -5   43.29    2.77
  -3   2  -5  208.46   12.45
  -3   2  -5  203.10   12.28
  -3   2  -5  206.94   12.55
  -3   2  -5  206.38    8.27
  -4   2  -5    6.57    0.67
  -4   2  -5    6.49    1.11
  -4   2  -5    5.93    0.37
  -4   2  -5    5.83    0.68
  -4   2  -5    6.52    0.43
  -4   2  -5    5.96    0.46
  -5   2  -5   95.54    3.80
  -5   2  -5   97.08    4.09
  -5   2  -5   97.44    4.44
  -5   2  -5  102.06    5.32
  -5   2  -5   94.80    4.01
  -5   2  -5   95.49    3.66
  -5   2  -5  102.33    6.01
  -5   2  -5   94.03    4.25
  -5   2  -5   95.72    3.31
  -5   2  -5   84.36    3.88
  -5   2  -5   95.65    3.75
  -6   2  -5   12.42    1.05
  -6   2  -5   12.68    0.65
  -6   2  -5   12.12    0.64
  -6   2  -5   12.71    0.74
  -6   2  -5   12.75    0.73
  -6   2  -5   12.00    0.74
  -6   2  -5   12.32    0.68
  -6   2  -5   13.45    0.54
   6  -2   5   13.66    0.87
  -7   2  -5    1.09    0.21
  -7   2  -5    0.48    0.23
  -7   2  -5    0.93    0.23
  -7   2  -5    0.93    0.21
  -7   2  -5    0.88    0.23
   7  -2   5    0.31    0.32
  -8  -1   5    2.01    0.26
   7   1  -5    3.48    1.02
   7   1  -5    4.11    0.97
  -7  -1   5    6.67    0.49
  -7  -1   5    6.94    0.43
   6   1  -5    1.06    0.90
   6   1  -5    1.06    0.86
  -6  -1   5    2.35    0.30
  -6  -1   5    2.17    0.26
  -5  -1   5   15.35    0.83
  -5  -1   5   16.37    0.68
  -5  -1   5   16.02    1.13
  -5  -1   5   14.03    0.83
   4   1  -5    6.18    0.50
   4   1  -5    3.76    0.84
   4   1  -5    3.69    0.83
  -4  -1   5    6.60    0.69
   3   1  -5    8.19    0.57
  -3  -1   5    7.77    1.08
  -3  -1   5    7.99    0.84
   2   1  -5   29.47    1.61
  -2  -1   5   32.21    2.18
  -2  -1   5   25.30    2.21
   1   1  -5  109.25    5.50
   1   1  -5  105.52    6.43
   1   1  -5  106.90    6.00
  -1  -1   5  102.72    6.67
   0   1  -5   25.65    1.29
   0   1  -5   24.01    1.45
   0   1  -5   24.64    1.56
   0  -1   5   20.27    1.82
  -1   1  -5    5.19    0.43
  -1   1  -5    5.03    0.46
   1  -1   5    5.55    0.91
  -2   1  -5   69.44    4.13
  -2   1  -5   66.49    4.17
  -2   1  -5   65.25    3.89
  -3   1  -5   11.46    1.07
  -3   1  -5   11.39    0.85
  -4   1  -5    1.33    0.29
  -4   1  -5    1.10    0.16
  -4   1  -5    1.44    0.28
  -4   1  -5    1.43    0.54
  -5   1  -5   13.83    1.04
  -5   1  -5   13.70    0.74
  -5   1  -5   13.62    0.54
  -5   1  -5   13.16    0.74
  -5   1  -5   14.22    0.71
  -5   1  -5   12.87    0.63
  -5   1  -5   13.02    0.64
  -5   1  -5   13.60    0.87
  -5   1  -5   13.09    0.92
  -6   1  -5    1.33    0.26
  -6   1  -5    1.36    0.21
  -6   1  -5    1.07    0.21
  -6   1  -5    1.11    0.21
  -6   1  -5    1.67    0.33
   6  -1   5    1.35    0.33
  -7   1  -5    1.06    0.21
  -7   1  -5    1.00    0.21
  -7   1  -5    0.77    0.21
  -7   1  -5    0.95    0.31
  -7   1  -5    0.87    0.23
   7  -1   5    0.67    0.36
  -8   1  -5    4.34    0.36
  -8   1  -5    3.98    0.35
  -8   0   5    0.36    0.14
  -8   0   5    0.19    0.16
  -7   0   5   42.91    1.73
  -7   0   5   38.55    2.02
  -7   0   5   40.60    1.71
  -7   0   5   40.53    1.94
  -7   0   5   41.86    1.80
   6   0  -5    5.15    1.11
   6   0  -5    5.25    1.18
  -6   0   5    8.26    0.71
  -6   0   5    7.43    0.53
  -6   0   5    7.53    0.60
  -6   0   5    7.38    0.52
  -6   0   5    8.64    0.57
  -6   0   5    7.89    0.42
  -6   0   5    8.10    0.56
  -6   0   5    7.27    0.45
  -6   0   5    7.24    0.60
  -6   0   5    8.07    0.47
  -5   0   5   31.86    2.50
  -5   0   5   31.79    1.71
  -5   0   5   32.72    1.47
  -5   0   5   32.26    1.41
  -5   0   5   33.20    1.56
  -5   0   5   34.30    1.23
  -5   0   5   32.19    1.44
  -5   0   5   31.00    1.50
  -5   0   5   32.80    1.49
  -5   0   5   30.70    1.43
  -5   0   5   31.02    1.22
   4   0  -5   77.33    4.00
  -4   0   5   72.36    3.09
  -4   0   5   69.18    2.58
  -4   0   5   74.87    3.53
  -4   0   5   77.04    4.85
   3   0  -5    4.62    0.41
   3   0  -5    3.56    0.72
  -3   0   5    5.04    0.48
  -3   0   5    4.63    0.37
  -3   0   5    3.90    0.71
   2   0  -5  177.97    9.59
  -2   0   5  199.94   11.23
  -2   0   5  179.71   11.15
   1   0  -5  184.56    9.58
  -1   0   5  176.26   11.14
  -1   0   5  197.24   11.27
   0   0  -5  128.20    7.10
   0   0  -5  138.15    6.56
   0   0   5  119.19    7.77
   0   0   5  121.00    7.66
  -1   0  -5  307.54   17.46
  -1   0  -5  304.74   16.29
   1   0   5  264.66   17.58
  -2   0  -5  103.46    5.80
  -2   0  -5  109.49    6.25
   2   0   5   93.48    6.32
  -3   0  -5  245.02   14.09
  -3   0  -5  258.37   15.09
  -4   0  -5   92.89    4.33
  -4   0  -5   96.17    5.83
  -5   0  -5   21.77    1.51
  -5   0  -5   20.52    1.06
  -6   0  -5  210.51   13.26
  -6   0  -5  215.01    8.62
  -6   0  -5  219.81    8.28
  -6   0  -5  220.79   10.09
   6   0   5  242.78    9.36
  -7   0  -5   42.26    2.04
  -7   0  -5   40.59    1.76
  -7   0  -5   42.06    1.72
  -7   0  -5   42.02    2.00
   7   0   5   42.87    2.02
  -8   0  -5   23.03    1.26
  -8   0  -5   25.74    1.10
  -8   0  -5   25.62    1.18
  -8   0  -5   24.76    1.11
  -7   1   5   15.94    0.89
  -7   1   5   17.05    0.78
  -7   1   5   16.71    0.64
  -7   1   5   16.82    0.75
  -7   1   5   15.42    0.63
  -7   1   5   17.01    0.73
  -7   1   5   16.50    0.74
  -7   1   5   16.32    0.93
   6  -1  -5    8.21    1.18
   6  -1  -5    6.69    1.16
  -6   1   5    9.82    0.58
  -6   1   5   10.40    0.56
  -6   1   5    9.78    0.63
  -6   1   5    9.96    0.59
  -6   1   5   10.37    0.57
  -6   1   5   10.46    0.47
  -6   1   5   10.40    0.47
  -6   1   5   10.54    0.67
  -6   1   5   11.12    0.77
   5  -1  -5    6.99    1.14
  -5   1   5    7.13    1.17
  -5   1   5    6.18    0.62
  -5   1   5    5.33    0.55
  -5   1   5    5.66    0.44
  -5   1   5    6.19    0.49
  -5   1   5    7.29    0.53
  -5   1   5    6.15    0.39
  -5   1   5    7.25    0.45
  -5   1   5    7.08    0.36
  -5   1   5    6.14    0.51
  -5   1   5    6.30    0.35
   4  -1  -5   55.07    3.21
   4  -1  -5   55.39    3.91
  -4   1   5   59.79    2.43
  -4   1   5   61.10    3.85
  -4   1   5   56.80    2.81
  -4   1   5   59.26    2.02
   3  -1  -5    7.44    0.98
   3  -1  -5    6.96    0.60
  -3   1   5    8.44    0.45
  -3   1   5    7.40    0.60
  -3   1   5    9.16    0.89
   2  -1  -5   64.72    3.44
  -2   1   5   63.66    4.03
   1  -1  -5   30.60    1.76
  -1   1   5   31.54    2.12
  -1   1   5   32.09    1.97
   0  -1  -5    2.06    0.21
   0   1   5    1.65    0.39
   0   1   5    1.72    0.32
  -1  -1  -5   36.32    2.08
   1   1   5   37.84    2.34
   1   1   5   31.98    2.30
  -2  -1  -5    1.82    0.30
  -2  -1  -5    1.19    0.29
   2   1   5    1.97    0.37
   2   1   5    1.80    0.35
  -3  -1  -5   88.30    4.61
  -3  -1  -5   88.19    5.18
  -3  -1  -5   90.76    5.60
   3   1   5   94.16    5.60
  -4  -1  -5    2.78    0.50
   4   1   5    3.28    0.57
  -5  -1  -5    1.97    0.22
  -5  -1  -5    1.74    0.45
  -6  -1  -5   18.10    0.84
  -6  -1  -5   17.74    0.85
  -6  -1  -5   17.71    0.96
  -6  -1  -5   18.18    1.44
   6   1   5   20.33    1.03
  -7  -1  -5    5.37    0.42
  -7  -1  -5    5.44    0.43
  -7  -1  -5    3.90    0.38
   7   1   5    5.77    0.60
  -8  -1  -5   11.81    0.76
  -8  -1  -5   11.44    0.65
  -8  -1  -5   11.80    0.66
  -8  -1  -5   11.78    0.72
   8   1   5   12.18    0.83
  -9  -1  -5    2.74    0.27
  -9  -1  -5    3.01    0.29
  -7   2   5    6.28    0.43
  -7   2   5    7.61    0.37
  -7   2   5    7.19    0.36
  -7   2   5    6.89    0.40
  -7   2   5    6.97    0.37
  -7   2   5    7.25    0.30
  -6   2   5   51.01    2.43
  -6   2   5   51.89    1.79
  -6   2   5   50.60    2.52
  -6   2   5   53.08    2.14
  -6   2   5   52.41    2.04
  -6   2   5   51.42    2.05
  -6   2   5   53.29    1.84
  -6   2   5   50.07    2.16
  -6   2   5   51.90    2.08
   5  -2  -5    2.11    0.68
  -5   2   5    1.31    0.15
  -5   2   5    1.75    0.21
  -5   2   5    2.05    0.29
  -5   2   5    1.25    0.28
  -5   2   5    1.25    0.15
  -5   2   5    1.26    0.25
  -5   2   5    1.19    0.30
  -5   2   5    1.79    0.23
  -5   2   5    1.50    0.29
   4  -2  -5   90.67    5.20
  -4   2   5   81.70    5.03
  -4   2   5   81.63    3.12
  -4   2   5   78.76    3.10
  -4   2   5   78.75    3.80
  -4   2   5   79.69    3.26
  -4   2   5   75.25    3.14
  -4   2   5   78.31    3.45
  -4   2   5   77.26    3.25
  -4   2   5   76.76    2.79
  -4   2   5   79.67    3.64
  -4   2   5   78.75    2.72
   3  -2  -5   57.56    3.28
  -3   2   5   59.21    2.44
  -3   2   5   59.79    2.03
  -3   2   5   62.21    3.78
  -3   2   5   57.56    2.85
   2  -2  -5    4.83    0.46
  -2   2   5    4.70    0.54
  -2   2   5    3.60    0.25
   1  -2  -5  176.32    9.63
  -1   2   5  194.11   10.94
   0  -2  -5   35.30    2.12
   0   2   5   36.93    2.29
  -1  -2  -5  124.37    7.25
   1   2   5  138.90    7.63
   1   2   5  122.03    7.67
  -2  -2  -5  245.42   13.54
   2   2   5  231.85   14.43
   2   2   5  246.72   14.18
  -3  -2  -5    0.60    0.26
  -3  -2  -5    0.43    0.14
   3   2   5    0.25    0.22
  -4  -2  -5  139.88    7.14
   4   2   5  139.92    8.52
  -5  -2  -5   37.56    2.79
  -5  -2  -5   39.80    1.91
   5   2   5   42.73    2.73
  -6  -2  -5   17.40    1.65
  -6  -2  -5   20.82    1.05
  -6  -2  -5   19.81    0.91
   6   2   5   21.69    1.10
  -7  -2  -5  120.00    5.33
  -7  -2  -5  112.79    4.44
  -7  -2  -5  114.47    4.57
   7   2   5  112.18    4.98
  -8  -2  -5    1.74    0.29
  -8  -2  -5    1.84    0.30
   8   2   5    1.26    0.35
  -9  -2  -5   75.33    3.01
  -9  -2  -5   75.57    3.35
  -6   3   5   33.62    1.44
  -6   3   5   34.73    1.44
  -6   3   5   33.79    1.69
  -6   3   5   34.96    1.38
  -6   3   5   34.47    1.37
  -6   3   5   33.03    1.19
  -6   3   5   35.28    1.22
  -6   3   5   34.74    1.37
  -5   3   5    3.73    0.22
  -5   3   5    3.57    0.27
  -5   3   5    3.33    0.36
  -5   3   5    3.07    0.31
  -5   3   5    3.25    0.39
  -5   3   5    3.43    0.28
  -5   3   5    4.06    0.45
  -5   3   5    3.57    0.21
  -5   3   5    3.47    0.34
  -4   3   5   24.90    0.89
  -4   3   5   25.05    1.11
  -4   3   5   24.54    0.91
  -4   3   5   25.73    1.32
  -4   3   5   24.28    1.36
  -4   3   5   24.22    1.08
  -4   3   5   23.51    1.04
  -4   3   5   24.28    1.15
  -4   3   5   25.68    1.08
  -3   3   5   25.95    0.91
  -3   3   5   27.54    1.15
  -3   3   5   25.96    1.80
  -3   3   5   25.34    1.10
  -3   3   5   24.01    1.37
   2  -3  -5   16.63    1.26
  -2   3   5   18.84    1.06
  -2   3   5   20.08    0.83
  -2   3   5   20.95    1.37
   1  -3  -5   63.24    3.80
  -1   3   5   67.54    2.80
  -1   3   5   76.90    4.23
  -1   3   5   71.01    2.87
   0   3   5    6.82    0.55
   0   3   5    6.53    0.33
  -1  -3  -5   73.84    4.39
   1   3   5   76.76    4.51
  -2  -3  -5   72.44    4.46
   2   3   5   79.29    4.60
  -3  -3  -5   15.66    0.94
  -3  -3  -5   13.44    1.10
   3   3   5   14.54    0.70
   3   3   5   14.51    1.05
  -4  -3  -5  109.61    5.64
   4   3   5  106.04    4.54
   4   3   5  110.81    6.65
  -5  -3  -5   34.77    1.96
  -5  -3  -5   34.24    1.70
   5   3   5   36.41    2.38
  -6  -3  -5   20.66    1.12
   6   3   5   21.79    1.19
   6   3   5   22.74    1.68
  -7  -3  -5   18.37    1.00
  -7  -3  -5   17.88    0.92
  -7  -3  -5   17.54    0.88
   7   3   5   16.93    1.03
  -8  -3  -5    1.41    0.23
  -8  -3  -5    0.92    0.25
   8   3   5    1.14    0.34
  -9  -3  -5   10.90    0.60
  -6   4   5   17.48    0.63
  -6   4   5   17.73    0.75
  -6   4   5   17.62    0.72
  -6   4   5   17.29    0.71
  -5   4   5   29.28    1.09
  -5   4   5   31.57    1.32
  -5   4   5   30.02    1.07
  -5   4   5   32.55    1.23
  -5   4   5   30.41    1.25
  -5   4   5   31.52    1.55
  -5   4   5   28.57    1.28
  -5   4   5   31.82    1.26
  -4   4   5    6.99    0.48
  -4   4   5    7.61    0.39
  -4   4   5    7.82    0.38
  -4   4   5    7.21    0.32
  -4   4   5    7.59    0.46
  -4   4   5    6.96    0.31
  -4   4   5    7.34    0.52
  -4   4   5    7.81    0.61
  -3   4   5   64.18    2.67
  -3   4   5   64.08    2.54
  -3   4   5   65.08    2.55
  -3   4   5   64.65    3.02
  -3   4   5   64.78    2.55
  -3   4   5   63.70    2.20
  -3   4   5   63.34    3.13
  -3   4   5   65.33    2.64
  -3   4   5   69.74    4.01
  -2   4   5   24.64    1.56
  -2   4   5   23.72    0.99
  -2   4   5   22.53    1.25
  -2   4   5   23.84    0.82
  -2   4   5   23.32    1.06
  -1   4   5  148.41    8.34
  -1   4   5  139.15    5.66
  -1   4   5  138.94    6.53
   0   4   5   61.41    3.48
   0   4   5   55.49    2.34
  -1  -4  -5    3.82    0.47
   1   4   5    4.11    0.37
   1   4   5    3.97    0.20
  -2  -4  -5   91.64    4.55
  -2  -4  -5   86.56    5.09
   2   4   5   82.57    3.58
  -3  -4  -5   42.48    2.29
   3   4   5   40.24    1.75
   3   4   5   41.31    1.71
  -4  -4  -5   16.49    1.02
   4   4   5   14.68    0.71
   4   4   5   14.26    0.70
   4   4   5   14.43    1.06
  -5  -4  -5   90.55    4.63
  -5  -4  -5   81.82    4.03
   5   4   5   89.03    5.39
   5   4   5   86.73    3.67
  -6  -4  -5    4.42    0.41
  -6  -4  -5    4.95    0.53
   6   4   5    4.82    0.52
   6   4   5    3.64    0.42
   6   4   5    5.34    0.68
  -7  -4  -5   85.14    3.97
  -7  -4  -5   89.92    3.83
   7   4   5   78.18    3.71
  -8  -4  -5   29.32    1.53
  -8  -4  -5   30.50    1.46
   8   4   5   29.64    1.47
  -9  -4  -5    3.19    0.32
   9   4   5    3.59    0.37
  -5   5   5   18.88    0.77
  -5   5   5   19.44    0.66
  -5   5   5   17.80    0.67
  -5   5   5   18.97    0.80
  -5   5   5   18.76    0.77
  -4   5   5   11.97    0.45
  -4   5   5   11.83    0.46
  -4   5   5   12.61    0.72
  -4   5   5   12.17    0.53
  -4   5   5   12.03    0.62
  -4   5   5   12.07    0.58
  -4   5   5   12.29    0.59
  -3   5   5   83.76    3.30
  -3   5   5   80.88    3.17
  -3   5   5   81.51    3.15
  -3   5   5   79.76    2.75
  -3   5   5   81.38    3.29
  -3   5   5   85.26    3.87
  -2   5   5   23.40    0.99
  -2   5   5   23.90    0.83
  -2   5   5   24.70    1.04
  -2   5   5   24.29    1.09
  -2   5   5   23.38    1.03
  -2   5   5   23.95    1.27
  -1   5   5   34.71    1.40
  -1   5   5   34.58    1.71
   0   5   5   46.05    2.25
   0   5   5   47.14    1.87
   1   5   5    5.47    0.26
  -2  -5  -5  255.30   12.49
   2   5   5  243.62    9.74
   2   5   5  237.02    9.99
  -3  -5  -5    5.58    0.50
   3   5   5    4.96    0.29
   3   5   5    5.28    0.29
  -4  -5  -5   67.08    3.62
   4   5   5   70.25    2.74
   4   5   5   64.11    2.28
   4   5   5   65.83    2.80
  -5  -5  -5   31.56    1.90
   5   5   5   31.15    1.41
   5   5   5   30.41    1.37
   5   5   5   33.21    1.41
   5   5   5   31.69    1.15
   6   5   5    1.90    0.26
   6   5   5    0.84    0.22
   6   5   5    1.06    0.27
   6   5   5    1.02    0.34
   6   5   5    0.89    0.28
  -7  -5  -5   42.86    2.04
   7   5   5   42.88    2.00
   7   5   5   43.20    2.02
  -8  -5  -5   11.46    0.70
   8   5   5   12.37    0.74
  -9  -5  -5    2.55    0.28
   9   5   5    2.96    0.30
  -4   6   5   10.72    0.47
  -4   6   5   11.06    0.48
  -4   6   5   10.03    0.39
  -3   6   5    8.12    0.43
  -3   6   5    7.62    0.29
  -3   6   5    7.91    0.42
  -1  -6  -5   29.72    1.77
   1   6   5   32.34    1.36
   1   6   5   31.24    1.26
   2   6   5   14.41    0.62
   2   6   5   13.94    0.52
   2   6   5   14.94    0.70
  -3  -6  -5  169.93    8.52
   3   6   5  160.80    6.75
   3   6   5  164.77    6.60
   3   6   5  162.98    5.51
   3   6   5  167.84    6.72
  -4  -6  -5   11.05    0.88
   4   6   5   12.55    0.59
   4   6   5   13.24    0.65
   4   6   5   12.62    0.59
   4   6   5   12.24    0.49
   5   6   5   39.32    1.62
   5   6   5   38.79    1.66
   5   6   5   40.57    1.70
   5   6   5   39.55    1.80
   5   6   5   39.07    1.77
   5   6   5   39.21    1.39
   5   6   5   37.28    1.42
   5   6   5   40.03    1.61
   5   6   5   38.96    1.70
   5   6   5   38.49    1.89
   6   6   5   49.64    2.24
   6   6   5   49.86    2.24
   6   6   5   49.25    1.78
   6   6   5   49.38    2.12
   6   6   5   53.50    2.15
   6   6   5   47.47    2.34
   6   6   5   48.03    2.01
  -7  -6  -5    4.05    0.40
   7   6   5    3.79    0.40
   7   6   5    3.45    0.36
   7   6   5    3.80    0.34
  -8  -6  -5   49.18    2.28
   8   6   5   48.56    2.23
   8   6   5   49.90    2.19
  -9  -6  -5   11.48    0.65
   9   6   5   12.28    0.62
   9   6   5   12.58    0.64
   2   7   5   32.99    1.29
   2   7   5   31.06    1.36
   2   7   5   30.46    1.06
   2   7   5   29.69    1.22
   2   7   5   31.42    1.27
   3   7   5   59.74    2.64
   3   7   5   63.16    2.41
   3   7   5   60.14    2.06
   3   7   5   60.10    2.47
   3   7   5   61.11    2.38
   3   7   5   62.00    2.56
   4   7   5    0.52    0.15
   4   7   5    0.40    0.14
   4   7   5    0.52    0.20
   4   7   5    0.54    0.18
   4   7   5    1.04    0.11
   4   7   5    0.55    0.11
   4   7   5    0.41    0.09
   5   7   5   84.33    3.24
   5   7   5   80.68    3.44
   5   7   5   82.02    3.57
   5   7   5   81.06    3.24
   5   7   5   88.09    3.38
   5   7   5   86.31    3.45
   5   7   5   80.33    3.75
   5   7   5   83.57    2.82
   5   7   5   79.76    3.58
   5   7   5   82.70    2.89
   6   7   5   40.10    1.86
   6   7   5   41.90    1.98
   6   7   5   41.49    1.50
   6   7   5   42.48    1.80
   6   7   5   41.77    1.89
   6   7   5   43.44    1.76
   6   7   5   41.76    1.79
   6   7   5   39.68    1.69
   6   7   5   43.06    1.47
   6   7   5   41.19    1.70
  -7  -7  -5    3.58    0.34
   7   7   5    3.78    0.37
   7   7   5    3.77    0.31
   7   7   5    2.90    0.30
   7   7   5    3.32    0.29
  -8  -7  -5   45.14    2.12
   8   7   5   46.86    2.07
   8   7   5   47.36    2.03
  -9  -7  -5    5.03    0.32
   9   7   5    4.81    0.31
   9   7   5    5.02    0.30
   2   8   5   33.41    1.35
   2   8   5   32.98    1.13
   2   8   5   34.13    1.44
   2   8   5   33.01    1.34
   3   8   5   15.84    0.59
   3   8   5   16.34    0.70
   3   8   5   16.50    0.73
   3   8   5   16.81    0.81
   3   8   5   16.47    0.78
   3   8   5   16.85    0.67
   4   8   5   28.29    1.15
   4   8   5   26.73    1.10
   4   8   5   27.97    1.15
   4   8   5   27.28    0.96
   4   8   5   27.40    1.21
   4   8   5   27.14    1.26
   4   8   5   26.40    0.98
   5   8   5    1.55    0.16
   5   8   5    1.89    0.21
   5   8   5    1.49    0.13
   5   8   5    1.78    0.17
   5   8   5    1.73    0.15
   5   8   5    1.88    0.25
   5   8   5    2.15    0.22
  -6  -8  -5   47.08    2.16
   6   8   5   47.14    2.01
   6   8   5   48.05    2.10
   6   8   5   45.38    1.97
   6   8   5   47.25    1.89
   6   8   5   49.49    1.65
   6   8   5   48.26    1.90
   6   8   5   48.87    1.69
  -7  -8  -5   24.62    1.24
   7   8   5   26.61    1.09
   7   8   5   26.92    0.96
   7   8   5   26.49    1.22
   7   8   5   27.86    1.10
  -8  -8  -5    4.75    0.30
   8   8   5    4.71    0.32
   2   9   5    7.80    0.39
   3   9   5   17.49    0.78
   3   9   5   16.74    0.62
   3   9   5   17.43    0.60
   3   9   5   18.09    0.80
   3   9   5   16.39    0.70
   3   9   5   17.32    0.73
   4   9   5   32.66    1.25
   4   9   5   31.18    1.12
   4   9   5   32.07    1.36
   4   9   5   32.30    1.09
   4   9   5   32.61    1.41
   4   9   5   30.30    1.30
   4   9   5   32.18    1.28
   5   9   5    3.56    0.30
   5   9   5    3.43    0.19
   5   9   5    3.23    0.17
   5   9   5    3.42    0.24
   5   9   5    2.99    0.20
   5   9   5    3.31    0.24
   5   9   5    3.19    0.17
   6   9   5   44.92    1.74
   6   9   5   42.88    1.51
   6   9   5   45.37    1.55
   6   9   5   44.98    1.92
   6   9   5   42.25    1.85
   6   9   5   46.11    1.74
   7   9   5    9.82    0.43
   7   9   5   10.16    0.44
   7   9   5    9.57    0.37
   7   9   5    9.61    0.49
   3  10   5    3.35    0.14
   4  10   5    7.65    0.34
   4  10   5    7.67    0.29
   4  10   5    7.29    0.37
   4  10   5    7.97    0.38
   5  10   5    8.05    0.29
   5  10   5    7.61    0.35
   5  10   5    8.05    0.39
   5  10   5    7.16    0.37
   6  10   5    1.85    0.10
   6  10   5    1.83    0.17
   6  10   5    1.64    0.13
  -6  -8   6    6.37    0.34
   5   8  -6    0.92    0.24
  -5  -8   6    0.66    0.16
   4   8  -6   12.34    0.88
   4   8  -6   13.74    0.77
   4   8  -6   12.64    0.61
  -4  -8   6   11.57    0.65
  -4  -8   6   11.08    0.57
   3   8  -6    1.61    0.21
   3   8  -6    1.49    0.32
  -3  -8   6    1.82    0.29
   2   8  -6    2.67    0.26
   2   8  -6    1.57    0.31
   2   8  -6    1.56    0.16
   2   8  -6    2.26    0.25
   2   8  -6    2.08    0.17
  -2  -8   6    1.68    0.28
   1   8  -6    0.68    0.14
   1   8  -6    0.76    0.10
   1   8  -6    0.76    0.19
   1   8  -6    0.71    0.14
   1   8  -6    0.33    0.23
   1   8  -6    0.66    0.11
  -1  -8   6    0.95    0.21
   0   8  -6    0.58    0.09
   0   8  -6    0.58    0.10
   0   8  -6    0.77    0.12
   0   8  -6    0.40    0.15
  -1   8  -6   12.33    0.57
   7   7  -6   43.83    1.79
  -7  -7   6   35.37    1.55
   6   7  -6   27.72    1.81
   6   7  -6   31.00    1.42
   6   7  -6   29.28    1.58
   6   7  -6   30.46    1.42
  -6  -7   6   30.10    1.24
   5   7  -6    4.02    0.60
   5   7  -6    6.82    0.62
   5   7  -6    5.46    0.51
   5   7  -6    5.96    0.80
  -5  -7   6    5.32    0.42
   4   7  -6   51.35    2.19
   4   7  -6   47.54    3.40
   4   7  -6   53.20    2.36
   4   7  -6   55.07    2.67
   4   7  -6   52.64    3.03
  -4  -7   6   49.71    2.07
   3   7  -6   17.20    1.25
   3   7  -6   17.80    0.84
   3   7  -6   17.18    0.89
   3   7  -6   15.62    1.40
   3   7  -6   18.06    1.09
  -3  -7   6   15.99    0.81
   2   7  -6   26.04    0.99
   2   7  -6   30.81    1.55
   2   7  -6   25.84    1.27
   2   7  -6   25.97    1.26
   2   7  -6   26.48    1.20
   2   7  -6   27.15    1.01
   2   7  -6   28.11    1.24
   2   7  -6   26.95    1.95
   2   7  -6   25.67    1.23
   2   7  -6   28.39    1.74
   1   7  -6   43.30    1.87
   1   7  -6   46.06    1.79
   1   7  -6   44.27    2.53
   1   7  -6   40.52    2.84
   1   7  -6   41.45    1.84
   1   7  -6   43.20    1.52
   1   7  -6   41.84    1.92
   1   7  -6   42.66    1.54
   0   7  -6    3.57    0.31
   0   7  -6    3.33    0.52
   0   7  -6    2.50    0.30
   0   7  -6    2.42    0.21
   0   7  -6    3.36    0.45
   0   7  -6    3.18    0.29
   0   7  -6    3.17    0.22
   0   7  -6    2.46    0.27
   0  -7   6    2.30    0.31
  -1   7  -6   43.17    1.48
  -1   7  -6   39.16    1.75
  -1   7  -6   42.22    1.84
  -1   7  -6   40.19    2.38
  -1   7  -6   41.24    1.46
  -1   7  -6   44.11    1.68
  -2   7  -6    3.17    0.23
  -2   7  -6    3.24    0.27
  -2   7  -6    2.87    0.19
   7   6  -6    0.54    0.33
   7   6  -6    0.62    0.27
   7   6  -6    0.55    0.39
  -7  -6   6    1.03    0.18
   6   6  -6    6.31    0.71
   6   6  -6    5.38    0.74
   6   6  -6    5.05    0.82
   6   6  -6    5.90    0.62
  -6  -6   6    6.15    0.41
   5   6  -6   19.52    1.29
   5   6  -6   19.94    1.50
   5   6  -6   20.71    1.15
   5   6  -6   17.41    1.63
  -5  -6   6   18.96    0.88
   4   6  -6    1.37    0.36
   4   6  -6    1.53    0.20
   4   6  -6    2.00    0.55
   4   6  -6    1.77    0.48
   4   6  -6    2.58    0.67
  -4  -6   6    1.02    0.22
   3   6  -6   19.30    1.10
   3   6  -6   21.05    1.67
   3   6  -6   20.81    1.29
   3   6  -6   20.29    1.49
   3   6  -6   19.17    0.92
  -3  -6   6   18.51    0.89
   2   6  -6   32.12    1.63
   2   6  -6   35.16    2.46
   2   6  -6   33.59    1.90
   2   6  -6   34.05    1.49
   2   6  -6   34.79    2.17
   2   6  -6   33.55    1.22
   1   6  -6    4.07    0.53
   1   6  -6    4.84    0.45
   1   6  -6    4.67    0.26
   1   6  -6    5.30    0.78
   1   6  -6    4.44    0.36
   1   6  -6    4.58    0.43
   1   6  -6    4.58    0.41
   1   6  -6    4.38    0.30
   1   6  -6    4.76    0.66
   1   6  -6    4.84    0.40
   0   6  -6   19.98    1.37
   0   6  -6   19.60    0.77
   0   6  -6   18.60    0.92
   0   6  -6   19.13    0.93
   0   6  -6   18.46    0.93
   0   6  -6   20.51    1.54
   0   6  -6   18.22    0.95
   0   6  -6   19.16    0.98
   0   6  -6   19.85    0.74
  -1   6  -6    1.88    0.25
  -1   6  -6    1.69    0.44
  -1   6  -6    0.88    0.24
  -1   6  -6    1.28    0.18
  -1   6  -6    1.75    0.41
  -1   6  -6    1.49    0.16
  -1   6  -6    1.47    0.22
   1  -6   6    1.36    0.29
  -2   6  -6   22.62    1.04
  -2   6  -6   22.23    0.86
  -2   6  -6   23.16    1.10
  -2   6  -6   24.19    1.47
  -2   6  -6   21.71    1.64
  -2   6  -6   23.44    1.01
  -2   6  -6   22.59    0.86
  -3   6  -6    1.76    0.21
  -3   6  -6    1.45    0.23
  -3   6  -6    1.74    0.32
  -3   6  -6    1.36    0.14
  -3   6  -6    1.90    0.20
  -3   6  -6    1.38    0.23
  -4   6  -6    5.64    0.26
  -4   6  -6    5.97    0.30
   7   5  -6    0.56    0.47
  -7  -5   6    0.23    0.15
   6   5  -6   38.84    2.37
   6   5  -6   32.98    2.62
  -6  -5   6   34.19    1.44
   5   5  -6   18.00    1.75
   5   5  -6   20.45    1.60
  -5  -5   6   18.98    0.87
   4   5  -6   18.10    1.45
   4   5  -6   17.09    1.65
  -4  -5   6   16.78    0.79
   3   5  -6   49.01    2.05
   3   5  -6   51.04    2.69
   3   5  -6   51.47    3.42
   3   5  -6   48.89    2.41
   3   5  -6   48.78    2.99
   3   5  -6   44.58    3.01
  -3  -5   6   47.33    1.93
   2   5  -6    5.08    0.27
   2   5  -6    5.53    0.88
   2   5  -6    5.62    0.59
   2   5  -6    5.22    0.79
   2   5  -6    6.06    0.37
   2   5  -6    5.65    0.69
   2   5  -6    4.73    0.43
   2   5  -6    4.16    0.51
  -2  -5   6    5.22    0.37
   1   5  -6  112.76    5.20
   1   5  -6  117.48    4.04
   1   5  -6  122.29    6.54
   1   5  -6  115.42    4.79
   1   5  -6  111.98    4.96
   1   5  -6  115.64    3.95
   1   5  -6  124.59    7.43
   0   5  -6   32.69    2.07
   0   5  -6   30.16    1.56
   0   5  -6   30.16    1.40
   0   5  -6   33.77    2.33
   0   5  -6   32.28    1.43
   0   5  -6   31.54    1.46
   0   5  -6   32.43    1.15
   0   5  -6   30.58    1.40
   0   5  -6   33.28    1.15
  -1   5  -6   42.04    1.81
  -1   5  -6   45.00    2.88
  -1   5  -6   42.45    1.48
  -1   5  -6   41.31    1.48
  -1   5  -6   43.40    2.54
  -1   5  -6   37.84    1.76
  -1   5  -6   41.28    1.86
  -1   5  -6   39.13    1.92
  -2   5  -6   58.18    2.47
  -2   5  -6   60.15    3.38
  -2   5  -6   60.81    2.55
  -2   5  -6   60.32    2.32
  -2   5  -6   56.05    2.46
  -2   5  -6   57.58    2.03
  -2   5  -6   59.22    2.05
  -2   5  -6   60.10    3.82
  -2   5  -6   55.23    2.56
  -2   5  -6   52.67    2.37
  -3   5  -6    3.51    0.34
  -3   5  -6    2.99    0.48
  -3   5  -6    2.55    0.50
  -3   5  -6    3.57    0.34
  -3   5  -6    3.41    0.24
  -3   5  -6    2.71    0.31
  -3   5  -6    3.42    0.34
  -4   5  -6   48.11    1.69
  -4   5  -6   53.31    1.95
  -4   5  -6   46.96    2.01
  -4   5  -6   48.44    1.93
  -4   5  -6   41.18    2.68
  -4   5  -6   47.77    2.09
  -5   5  -6   34.48    1.30
  -5   5  -6   37.53    1.47
  -5   5  -6   38.91    1.48
  -8  -4   6    1.19    0.21
   7   4  -6    0.76    0.58
   7   4  -6    1.19    0.68
   6   4  -6    1.15    0.74
   6   4  -6    1.23    0.68
  -6  -4   6    0.78    0.17
   5   4  -6    0.42    0.66
   5   4  -6    1.54    0.67
  -5  -4   6    1.67    0.22
   4   4  -6    3.97    0.54
   4   4  -6    4.35    0.81
   4   4  -6    4.50    0.91
  -4  -4   6    4.30    0.33
   3   4  -6    8.89    1.03
   3   4  -6    7.42    0.70
   3   4  -6    8.81    1.17
   3   4  -6    8.78    0.45
   2   4  -6   14.64    1.36
   2   4  -6   14.67    0.67
   2   4  -6   15.12    1.24
   2   4  -6   12.79    1.00
   1   4  -6    2.02    0.31
   1   4  -6    3.70    0.66
   1   4  -6    3.95    0.72
   1   4  -6    2.80    0.24
   0   4  -6   20.91    1.67
   0   4  -6   19.10    1.30
   0   4  -6   20.49    0.93
   0   4  -6   20.96    0.77
   0   4  -6   22.31    1.51
   0   4  -6   20.84    0.94
  -1   4  -6    5.41    0.38
  -1   4  -6    5.20    0.30
  -1   4  -6    6.15    0.77
  -1   4  -6    5.21    0.34
  -1   4  -6    5.19    0.77
  -2   4  -6    8.73    0.64
  -2   4  -6    8.40    0.96
  -2   4  -6    9.78    0.55
  -2   4  -6    8.05    0.57
  -2   4  -6    9.47    0.57
  -2   4  -6    9.26    0.39
  -2   4  -6    9.49    0.43
  -2   4  -6    7.56    1.11
  -2   4  -6    9.00    0.52
  -2   4  -6    8.21    0.86
  -3   4  -6   24.95    1.11
  -3   4  -6   23.33    1.16
  -3   4  -6   24.84    1.87
  -3   4  -6   25.62    1.20
  -3   4  -6   25.29    0.96
  -3   4  -6   26.32    0.94
  -3   4  -6   23.89    1.20
  -3   4  -6   27.89    1.20
  -3   4  -6   22.78    1.65
  -4   4  -6   23.96    1.07
  -4   4  -6   23.68    1.06
  -4   4  -6   23.06    1.12
  -4   4  -6   22.37    1.53
  -4   4  -6   23.56    1.13
  -4   4  -6   22.09    1.70
  -4   4  -6   24.01    0.89
  -4   4  -6   23.41    1.10
  -5   4  -6    9.86    0.44
  -5   4  -6   11.41    0.58
  -5   4  -6    9.78    0.58
  -5   4  -6   10.13    0.54
  -5   4  -6    8.88    0.56
  -5   4  -6    8.71    0.45
  -6   4  -6   11.51    0.56
  -6   4  -6   11.81    0.55
  -8  -3   6   37.05    1.78
  -8  -3   6   39.67    1.73
   7   3  -6   16.93    1.76
   7   3  -6   18.27    1.58
  -7  -3   6   19.54    1.00
  -7  -3   6   17.84    0.98
   6   3  -6    3.26    0.96
   6   3  -6    4.80    0.93
  -6  -3   6    4.29    0.42
  -6  -3   6    4.24    0.33
   5   3  -6   78.60    5.35
   5   3  -6   77.14    4.71
  -5  -3   6   73.66    5.26
  -5  -3   6   86.24    3.10
   4   3  -6    6.83    0.71
   4   3  -6    6.76    0.96
   4   3  -6    6.02    1.04
  -4  -3   6    6.66    1.23
   3   3  -6   81.86    4.98
   3   3  -6   87.11    4.68
   3   3  -6   83.21    5.28
   3   3  -6   79.69    4.25
  -3  -3   6   67.82    5.39
   2   3  -6   23.48    1.84
   2   3  -6   21.77    1.52
   1   3  -6    7.07    0.89
   1   3  -6    5.60    0.52
   0   3  -6  114.42    7.22
   0   3  -6  115.55    6.94
  -1   3  -6   45.53    3.22
  -1   3  -6   50.88    2.03
  -1   3  -6   48.74    2.99
  -2   3  -6   47.09    1.58
  -2   3  -6   46.69    2.76
  -2   3  -6   44.41    2.70
  -2   3  -6   42.52    3.01
  -2   3  -6   45.24    3.17
  -3   3  -6  109.30    4.02
  -3   3  -6   97.73    6.80
  -3   3  -6  113.34    3.62
  -3   3  -6  103.32    4.25
  -3   3  -6  103.87    5.89
  -3   3  -6  106.28    6.66
  -3   3  -6  103.36    4.09
  -3   3  -6  106.75    4.74
  -3   3  -6  111.40    4.50
  -4   3  -6   -0.11    0.14
  -4   3  -6    0.61    0.12
  -4   3  -6    0.45    0.34
  -4   3  -6    0.36    0.25
  -4   3  -6    0.31    0.18
  -4   3  -6    0.30    0.20
  -4   3  -6    0.51    0.23
  -4   3  -6    0.86    0.19
  -4   3  -6    0.31    0.33
  -5   3  -6   51.57    2.02
  -5   3  -6   47.03    1.76
  -5   3  -6   47.01    2.09
  -5   3  -6   44.48    3.20
  -5   3  -6   48.77    2.19
  -5   3  -6   51.36    2.85
  -5   3  -6   48.84    1.95
  -5   3  -6   51.02    1.76
  -5   3  -6   49.88    2.17
  -5   3  -6   49.77    2.02
  -6   3  -6   21.42    0.97
  -6   3  -6   20.95    0.97
  -6   3  -6   19.95    0.92
  -6   3  -6   20.10    0.90
   6  -3   6   20.64    1.12
  -8  -2   6    0.30    0.21
  -8  -2   6    0.46    0.12
   7   2  -6    0.07    0.75
   7   2  -6    0.37    0.69
  -7  -2   6    0.71    0.24
  -7  -2   6    0.63    0.20
   6   2  -6   14.19    1.84
   6   2  -6   15.14    1.73
  -6  -2   6   18.40    0.96
  -6  -2   6   18.83    0.96
   5   2  -6    1.37    0.86
   5   2  -6    1.98    0.82
  -5  -2   6    1.74    0.51
  -5  -2   6    1.81    0.28
  -5  -2   6    2.02    0.22
   4   2  -6   11.34    1.42
   4   2  -6   11.33    1.35
  -4  -2   6   13.66    1.31
   3   2  -6    0.47    0.59
   3   2  -6    1.15    0.25
  -3  -2   6    1.95    0.63
   2   2  -6   55.33    3.75
   2   2  -6   55.07    2.98
   2   2  -6   59.65    3.53
  -2  -2   6   52.97    3.88
   1   2  -6   92.71    4.80
   1   2  -6   99.71    5.65
  -1  -2   6   82.70    6.00
   0   2  -6   33.14    2.06
   0   2  -6   30.70    1.97
  -1   2  -6   31.56    1.96
  -1   2  -6   29.00    1.89
  -2   2  -6    3.42    0.37
  -2   2  -6    2.69    0.52
  -3   2  -6    3.26    0.76
  -3   2  -6    3.03    0.35
  -4   2  -6    4.81    0.27
  -4   2  -6    5.52    0.37
  -4   2  -6    4.53    0.34
  -4   2  -6    5.84    0.55
  -4   2  -6    4.38    0.33
  -4   2  -6    4.98    0.40
  -5   2  -6   13.01    0.51
  -5   2  -6   12.56    0.69
  -5   2  -6   10.89    0.62
  -5   2  -6   12.78    0.68
  -5   2  -6   12.76    0.76
  -5   2  -6   11.87    0.61
  -6   2  -6   12.21    0.65
  -6   2  -6   13.02    0.75
  -6   2  -6   12.33    0.65
  -6   2  -6   12.69    0.74
  -6   2  -6   12.24    0.70
   6  -2   6   14.13    0.85
  -7   2  -6    3.81    0.34
  -7   2  -6    3.63    0.31
  -7   2  -6    4.64    0.38
  -7   2  -6    3.45    0.36
   7  -2   6    2.94    0.42
  -8  -1   6    3.16    0.33
  -7  -1   6   49.87    2.32
  -7  -1   6   49.85    2.22
  -6  -1   6   10.76    0.68
  -6  -1   6   10.58    0.63
  -5  -1   6  139.53    6.19
  -5  -1   6  147.34    4.90
  -5  -1   6  131.03    6.08
   4   1  -6   24.49    2.15
   4   1  -6   24.15    1.93
   3   1  -6    0.54    0.21
   3   1  -6    0.34    0.57
  -3  -1   6    0.86    0.37
   2   1  -6  225.81   11.32
  -2  -1   6  202.36   13.35
  -2  -1   6  229.70   13.41
   1   1  -6   66.82    4.05
   1   1  -6   63.23    3.39
  -1  -1   6   63.30    4.25
   0   1  -6   76.58    4.42
   0   1  -6   78.33    4.02
   0   1  -6   81.46    4.75
   0  -1   6   71.88    5.01
  -1   1  -6  187.61   10.08
  -1   1  -6  196.90   10.78
   1  -1   6  150.60   11.04
  -2   1  -6    6.74    0.59
  -2   1  -6    7.14    0.62
  -3   1  -6   48.39    3.06
  -4   1  -6  127.41    7.65
  -4   1  -6  124.92    5.76
  -5   1  -6   40.45    1.98
  -5   1  -6   38.78    2.48
  -5   1  -6   41.39    1.69
  -5   1  -6   38.85    1.60
  -5   1  -6   39.75    1.65
  -5   1  -6   39.89    1.92
  -6   1  -6   68.10    2.82
  -6   1  -6   68.07    3.16
  -6   1  -6   68.32    2.80
  -6   1  -6   69.46    2.70
  -6   1  -6   69.64    3.26
   6  -1   6   72.77    3.10
  -7   1  -6    4.33    0.44
  -7   1  -6    4.42    0.37
  -7   1  -6    4.92    0.41
  -7   1  -6    4.25    0.39
  -7   1  -6    4.92    0.41
   7  -1   6    5.33    0.54
  -8   1  -6   35.86    1.42
  -8   1  -6   34.22    1.46
   7   0  -6    0.30    0.52
  -7   0   6    0.92    0.20
  -7   0   6    0.70    0.24
   6   0  -6    0.31    0.74
   6   0  -6    0.97    0.75
  -6   0   6    0.69    0.17
  -6   0   6    1.47    0.29
  -6   0   6    0.84    0.23
  -6   0   6    1.13    0.27
  -6   0   6    1.42    0.30
  -6   0   6    0.70    0.31
  -6   0   6    1.05    0.18
  -5   0   6   17.57    0.90
  -5   0   6   17.61    0.74
  -5   0   6   16.84    0.74
  -5   0   6   17.05    0.95
  -5   0   6   16.25    1.76
  -5   0   6   17.64    0.97
  -5   0   6   16.29    0.88
  -5   0   6   18.99    0.93
  -5   0   6   17.51    0.89
  -5   0   6   18.78    0.92
  -5   0   6   17.91    1.10
   4   0  -6    0.04    0.69
   4   0  -6    0.58    0.77
  -4   0   6    1.19    0.20
  -4   0   6    0.48    0.20
  -4   0   6    0.52    0.30
  -4   0   6    0.41    0.49
   3   0  -6    2.98    0.43
  -3   0   6    2.27    0.60
  -3   0   6    2.48    0.29
  -3   0   6    3.06    0.41
  -3   0   6    2.50    0.38
   2   0  -6   24.22    1.40
  -2   0   6   24.92    1.91
  -2   0   6   23.89    1.68
   1   0  -6    6.73    0.49
  -1   0   6    6.39    0.83
  -1   0   6    7.48    0.73
   0   0  -6   14.74    0.84
   0   0  -6   13.34    0.89
   0   0   6   13.81    1.17
   0   0   6   13.33    1.20
  -1   0  -6    1.04    0.18
  -1   0  -6    1.15    0.29
  -1   0  -6    1.08    0.24
   1   0   6    1.13    0.44
   1   0   6    0.80    0.36
  -2   0  -6   13.84    0.96
  -2   0  -6   14.80    1.08
   2   0   6   13.61    1.25
  -3   0  -6   13.37    1.02
   3   0   6   11.43    1.22
  -4   0  -6   11.74    0.62
  -4   0  -6   11.02    0.96
  -5   0  -6   10.13    0.50
  -5   0  -6    9.71    0.87
  -5   0  -6    9.40    0.56
  -6   0  -6   10.97    0.56
  -6   0  -6    9.38    0.61
  -6   0  -6    9.80    0.76
  -6   0  -6    9.49    0.83
   6   0   6   11.59    0.71
  -7   0  -6    1.23    0.23
  -7   0  -6    1.14    0.24
  -7   0  -6    1.29    0.23
  -7   0  -6    1.70    0.33
   7   0   6    1.16    0.34
  -8   0  -6    0.70    0.19
  -8   0  -6    0.54    0.20
  -8   0  -6    0.64    0.20
  -8   0  -6    1.02    0.23
   8   0   6    0.34    0.31
  -7   1   6   32.47    1.31
  -7   1   6   30.84    1.51
  -7   1   6   30.60    1.25
  -7   1   6   32.42    1.30
  -7   1   6   31.65    1.13
  -7   1   6   31.66    1.26
  -6   1   6   68.14    3.25
  -6   1   6   68.19    2.93
  -6   1   6   73.13    2.74
  -6   1   6   70.42    2.77
  -6   1   6   73.24    2.87
  -6   1   6   69.85    2.83
  -6   1   6   72.67    3.38
  -6   1   6   71.68    2.50
  -6   1   6   70.52    2.44
   5  -1  -6    0.74    0.66
   5  -1  -6    0.17    0.67
  -5   1   6    1.79    0.19
  -5   1   6    1.56    0.23
  -5   1   6    1.19    0.27
  -5   1   6    1.47    0.29
  -5   1   6    0.93    0.28
  -5   1   6    0.91    0.16
  -5   1   6    0.84    0.16
  -5   1   6    1.11    0.32
  -5   1   6    0.99    0.20
  -5   1   6    1.58    0.28
  -4   1   6  107.65    3.91
  -4   1   6  110.04    4.33
  -4   1   6  114.36    4.49
  -4   1   6  110.40    4.88
  -4   1   6  113.78    7.01
  -4   1   6  112.87    4.58
  -4   1   6  113.00    3.81
  -4   1   6  115.84    5.04
  -4   1   6  117.57    4.30
  -4   1   6  109.74    5.26
  -4   1   6  108.80    4.41
   3  -1  -6   70.18    3.84
  -3   1   6   65.84    3.36
  -3   1   6   72.21    2.45
  -3   1   6   70.07    2.91
  -3   1   6   74.65    4.55
   2  -1  -6   31.00    1.78
  -2   1   6   32.96    2.20
  -2   1   6   29.14    1.33
   1  -1  -6  262.11   13.65
  -1   1   6  270.90   15.76
  -1   1   6  260.39   15.63
   0  -1  -6    5.43    0.47
   0   1   6    5.50    0.56
   0   1   6    6.00    0.66
  -1  -1  -6  326.60   17.99
   1   1   6  319.28   19.33
  -2  -1  -6  150.57    8.08
   2   1   6  134.98    8.58
   2   1   6  142.25    8.73
  -3  -1  -6  106.37    6.31
  -3  -1  -6  114.09    6.84
   3   1   6  110.56    6.84
  -4  -1  -6  352.93   15.61
  -4  -1  -6  345.08   20.76
   4   1   6  338.49   20.78
  -5  -1  -6   11.17    1.05
  -5  -1  -6   10.43    0.61
  -6  -1  -6   43.44    1.77
  -6  -1  -6   40.72    2.86
  -6  -1  -6   41.27    2.05
  -6  -1  -6   41.44    1.71
   6   1   6   45.01    1.98
  -7  -1  -6   73.47    3.03
  -7  -1  -6   74.35    2.93
  -7  -1  -6   76.71    3.53
   7   1   6   74.67    3.33
  -8  -1  -6    6.82    0.58
  -8  -1  -6    6.21    0.47
  -8  -1  -6    6.25    0.49
  -8  -1  -6    6.42    0.50
   8   1   6    6.99    0.63
  -9  -1  -6   45.15    1.87
  -9  -1  -6   46.63    2.03
  -7   2   6    3.56    0.21
  -6   2   6    4.30    0.39
  -6   2   6    4.49    0.36
  -6   2   6    4.43    0.32
  -6   2   6    4.86    0.37
  -6   2   6    5.25    0.48
  -6   2   6    4.39    0.31
  -6   2   6    4.95    0.26
  -6   2   6    4.54    0.26
  -6   2   6    4.89    0.45
   5  -2  -6    1.26    0.61
  -5   2   6    1.44    0.24
  -5   2   6    1.46    0.16
  -5   2   6    1.23    0.14
  -5   2   6    1.31    0.19
  -5   2   6    1.77    0.22
  -5   2   6    1.46    0.35
  -5   2   6    1.12    0.26
  -5   2   6    1.02    0.28
  -5   2   6    1.32    0.25
  -4   2   6    5.69    0.39
  -4   2   6    6.41    0.52
  -4   2   6    5.40    0.49
  -4   2   6    5.71    0.30
  -4   2   6    5.91    0.60
  -4   2   6    6.27    0.54
  -4   2   6    6.19    0.46
  -4   2   6    5.67    0.82
  -4   2   6    6.42    0.32
  -4   2   6    6.04    0.38
   3  -2  -6   19.84    1.45
  -3   2   6   23.42    0.84
  -3   2   6   24.23    1.73
  -3   2   6   23.81    1.02
  -3   2   6   22.15    1.25
  -2   2   6    6.71    0.56
  -2   2   6    7.32    0.39
  -2   2   6    7.26    0.76
   1  -2  -6    4.72    0.50
  -1   2   6    4.56    0.30
  -1   2   6    4.67    0.29
  -1   2   6    5.69    0.60
   0   2   6   16.42    1.17
   0   2   6   15.47    0.74
  -1  -2  -6   52.09    3.28
   1   2   6   56.31    3.45
   1   2   6   60.79    3.51
  -2  -2  -6   12.63    0.95
   2   2   6   13.42    1.05
   2   2   6   13.28    1.02
  -3  -2  -6   17.76    1.06
  -3  -2  -6   16.63    1.22
   3   2   6   17.88    1.31
  -4  -2  -6   21.62    1.26
   4   2   6   22.36    1.62
  -5  -2  -6   10.10    0.59
   5   2   6    9.88    1.00
  -6  -2  -6    8.66    0.51
  -6  -2  -6    7.48    1.04
  -6  -2  -6    8.71    0.56
  -6  -2  -6    8.31    0.51
   6   2   6    7.67    1.02
   6   2   6    8.80    0.65
  -7  -2  -6    9.79    0.60
  -7  -2  -6   10.94    0.67
  -7  -2  -6   10.09    0.59
   7   2   6    9.96    0.76
  -8  -2  -6   19.98    1.10
  -8  -2  -6   20.85    0.97
   8   2   6   19.15    1.10
  -9  -2  -6    1.91    0.27
  -9  -2  -6    1.33    0.22
   9   2   6    1.96    0.27
  -6   3   6   37.93    1.45
  -6   3   6   35.60    1.68
  -6   3   6   36.58    1.44
  -6   3   6   37.36    1.50
  -6   3   6   36.12    1.26
  -6   3   6   35.08    1.42
  -6   3   6   37.13    1.29
  -5   3   6   22.31    1.20
  -5   3   6   23.75    0.99
  -5   3   6   24.86    1.07
  -5   3   6   21.87    0.99
  -5   3   6   22.31    1.01
  -5   3   6   24.14    1.26
  -5   3   6   23.67    0.84
  -5   3   6   23.51    1.01
  -5   3   6   22.39    0.85
  -4   3   6   25.75    1.07
  -4   3   6   24.04    0.88
  -4   3   6   26.12    1.35
  -4   3   6   23.42    1.05
  -4   3   6   23.39    1.12
  -4   3   6   24.81    1.29
  -4   3   6   24.18    1.03
  -4   3   6   22.28    0.88
  -4   3   6   23.87    1.07
  -3   3   6  104.26    3.60
  -3   3   6  105.98    4.32
  -3   3   6  105.73    5.01
  -3   3   6  105.88    4.85
  -3   3   6  109.81    6.53
  -3   3   6  105.80    4.17
  -3   3   6  106.98    4.11
  -3   3   6  108.59    4.27
  -3   3   6  109.94    4.09
   2  -3  -6    4.27    0.59
  -2   3   6    5.79    0.26
  -2   3   6    6.40    0.65
  -2   3   6    5.46    0.31
  -2   3   6    5.94    0.31
  -2   3   6    5.27    0.48
   1  -3  -6  111.65    6.59
  -1   3   6  126.00    4.97
  -1   3   6  125.60    5.73
  -1   3   6  124.16    5.09
  -1   3   6  132.15    7.40
   0   3   6   71.09    4.18
   0   3   6   66.66    2.86
   0   3   6   69.38    2.79
   1   3   6   42.02    2.50
   1   3   6   37.56    1.68
  -2  -3  -6  107.96    6.62
   2   3   6  123.17    6.88
   2   3   6  113.58    4.75
  -3  -3  -6   25.85    1.88
  -3  -3  -6   31.65    1.67
   3   3   6   29.99    1.26
   3   3   6   25.86    1.88
  -4  -3  -6   95.38    4.49
  -4  -3  -6  102.85    5.10
   4   3   6   93.78    5.99
   4   3   6   96.63    4.08
  -5  -3  -6  137.40    6.35
  -5  -3  -6  139.04    7.16
   5   3   6  138.54    8.50
  -6  -3  -6    2.04    0.28
  -6  -3  -6    2.44    0.28
  -6  -3  -6    1.77    0.25
   6   3   6    1.13    0.28
   6   3   6    1.63    0.52
   6   3   6    2.39    0.39
  -7  -3  -6   63.87    2.93
  -7  -3  -6   56.75    2.49
  -7  -3  -6   65.20    2.79
   7   3   6   57.24    2.75
  -8  -3  -6   61.42    2.92
  -8  -3  -6   60.18    2.50
  -8  -3  -6   63.03    2.78
   8   3   6   58.74    2.73
   9   3   6   22.09    1.07
  -5   4   6    1.16    0.21
  -5   4   6    0.96    0.12
  -5   4   6    1.01    0.11
  -5   4   6    0.89    0.22
  -5   4   6    0.97    0.18
  -5   4   6    1.11    0.18
  -5   4   6    1.11    0.11
  -5   4   6    0.99    0.10
  -4   4   6   14.05    0.69
  -4   4   6   14.52    0.76
  -4   4   6   14.48    0.84
  -4   4   6   15.14    0.67
  -4   4   6   15.26    0.65
  -4   4   6   14.69    0.71
  -4   4   6   13.66    0.55
  -4   4   6   15.44    0.56
  -4   4   6   15.26    0.89
  -3   4   6   16.44    0.76
  -3   4   6   15.86    0.70
  -3   4   6   16.37    0.93
  -3   4   6   15.21    0.81
  -3   4   6   16.26    0.96
  -3   4   6   16.02    0.60
  -3   4   6   16.19    0.78
  -3   4   6   16.71    0.73
  -2   4   6    0.57    0.21
  -2   4   6    0.87    0.26
  -2   4   6    0.61    0.22
  -2   4   6    0.89    0.12
  -2   4   6    0.78    0.24
  -2   4   6    0.79    0.09
  -2   4   6    0.80    0.26
  -2   4   6    1.05    0.14
  -2   4   6    1.34    0.21
   1  -4  -6   24.67    1.77
  -1   4   6   30.47    1.23
  -1   4   6   31.13    1.87
  -1   4   6   30.42    1.50
  -1   4   6   29.90    1.01
   0   4   6   28.03    1.45
   0   4   6   30.08    1.82
   0   4   6   29.11    1.20
   1   4   6   11.69    0.50
   1   4   6   10.56    0.50
   1   4   6   11.29    0.81
  -2  -4  -6   13.95    1.07
   2   4   6   13.21    0.63
   2   4   6   14.43    0.62
  -3  -4  -6    2.56    0.37
   3   4   6    2.33    0.21
   3   4   6    2.66    0.22
  -4  -4  -6   34.01    1.86
  -4  -4  -6   29.77    1.54
   4   4   6   30.85    1.38
   4   4   6   29.49    2.03
   4   4   6   32.76    1.35
  -5  -4  -6   22.90    1.47
  -5  -4  -6   20.53    1.20
   5   4   6   24.01    1.11
   5   4   6   24.87    1.70
   5   4   6   25.95    1.14
  -6  -4  -6    6.29    0.49
   6   4   6    6.60    0.82
   6   4   6    6.63    0.57
   6   4   6    5.37    0.54
  -7  -4  -6   20.25    1.10
   7   4   6   19.78    1.11
  -8  -4  -6    1.92    0.26
  -8  -4  -6    2.23    0.32
   8   4   6    2.30    0.37
  -9  -4  -6    9.71    0.58
   9   4   6   10.66    0.60
  -5   5   6   41.06    1.60
  -5   5   6   41.73    1.45
  -5   5   6   41.80    1.66
  -5   5   6   42.60    1.60
  -4   5   6    2.67    0.17
  -4   5   6    2.88    0.16
  -4   5   6    3.06    0.30
  -4   5   6    2.52    0.29
  -4   5   6    2.66    0.24
  -4   5   6    3.00    0.16
  -4   5   6    3.21    0.27
  -3   5   6   29.63    1.26
  -3   5   6   31.09    1.32
  -3   5   6   30.18    1.06
  -3   5   6   30.11    1.26
  -3   5   6   30.42    1.26
  -3   5   6   31.88    1.55
  -2   5   6   98.17    4.58
  -2   5   6   97.47    3.91
  -2   5   6   96.77    3.29
  -2   5   6  101.18    4.43
  -2   5   6   99.01    3.77
  -2   5   6   94.92    3.73
  -2   5   6   98.92    3.94
  -2   5   6  100.14    3.78
  -1   5   6    1.43    0.11
  -1   5   6    1.42    0.25
  -1   5   6    1.58    0.13
  -1   5   6    1.40    0.23
  -1   5   6    1.67    0.21
  -1   5   6    1.49    0.13
  -1   5   6    1.26    0.24
   0   5   6  117.09    4.64
   0   5   6  115.43    5.35
   1   5   6   37.00    1.25
   1   5   6   37.15    1.50
   1   5   6   35.60    1.77
  -2  -5  -6   38.08    2.09
   2   5   6   38.57    1.83
   2   5   6   36.62    1.53
   2   5   6   36.24    1.55
  -3  -5  -6   92.35    4.84
   3   5   6   89.36    3.80
   3   5   6   93.14    3.10
   3   5   6   93.00    3.71
  -4  -5  -6    2.10    0.37
   4   5   6    2.77    0.21
   4   5   6    3.33    0.25
   4   5   6    3.15    0.31
   4   5   6    2.93    0.24
  -5  -5  -6  135.15    6.85
   5   5   6  134.48    5.34
   5   5   6  125.51    5.83
   5   5   6  133.41    5.40
   5   5   6  128.21    5.57
   5   5   6  129.55    5.68
   5   5   6  128.23    5.26
   5   5   6  126.04    4.52
   6   5   6   75.56    2.93
   6   5   6   62.97    3.15
   6   5   6   65.93    3.02
   6   5   6   67.47    3.05
  -7  -5  -6   21.27    1.06
   7   5   6   19.46    1.03
   7   5   6   18.53    1.06
  -8  -5  -6   43.91    2.11
   8   5   6   45.36    2.05
   8   5   6   46.22    2.09
  -9  -5  -6    0.73    0.18
   9   5   6    1.42    0.23
   9   5   6    1.26    0.22
  -4   6   6    1.89    0.17
  -4   6   6    1.50    0.10
  -3   6   6   20.72    0.87
  -3   6   6   20.98    0.71
  -3   6   6   20.89    0.91
  -3   6   6   20.80    0.87
  -2   6   6    5.39    0.35
  -2   6   6    5.28    0.21
  -2   6   6    5.00    0.36
  -1  -6  -6    5.17    0.53
   1   6   6    4.82    0.23
   1   6   6    5.67    0.34
   1   6   6    5.01    0.24
   1   6   6    4.93    0.21
   1   6   6    5.07    0.40
   1   6   6    5.23    0.34
  -2  -6  -6   16.61    1.09
   2   6   6   17.19    0.81
   2   6   6   17.70    0.73
   2   6   6   17.35    0.77
   2   6   6   16.92    0.70
   2   6   6   16.71    0.61
   3   6   6   68.93    2.80
   3   6   6   71.42    2.71
   3   6   6   68.47    2.85
   3   6   6   68.06    2.69
   3   6   6   69.80    2.88
   3   6   6   67.63    2.33
   4   6   6    4.27    0.28
   4   6   6    4.21    0.40
   4   6   6    4.65    0.28
   4   6   6    4.49    0.33
   4   6   6    4.45    0.29
   4   6   6    4.59    0.24
   4   6   6    4.73    0.34
   4   6   6    4.63    0.26
   4   6   6    4.43    0.45
   4   6   6    4.38    0.28
   5   6   6    8.73    0.48
   5   6   6    9.08    0.58
   5   6   6    8.78    0.39
   5   6   6    8.11    0.45
   5   6   6    8.17    0.46
   5   6   6    8.45    0.60
   5   6   6    8.49    0.38
   5   6   6    7.95    0.48
   5   6   6    8.33    0.48
   5   6   6    8.28    0.46
   6   6   6    9.41    0.55
   6   6   6    9.80    0.53
   6   6   6    9.37    0.44
   6   6   6    9.21    0.66
   6   6   6    9.50    0.52
   6   6   6    9.88    0.53
   6   6   6    9.61    0.63
  -7  -6  -6    4.46    0.40
   7   6   6    4.25    0.41
   7   6   6    3.88    0.36
   7   6   6    3.89    0.33
  -8  -6  -6   12.02    0.68
   8   6   6   11.80    0.68
   8   6   6   12.36    0.66
  -9  -6  -6    0.55    0.16
   9   6   6    0.65    0.15
   9   6   6    0.70    0.17
   1   7   6  102.47    3.52
   1   7   6  109.51    4.07
   2   7   6   19.81    0.90
   2   7   6   20.35    0.82
   2   7   6   19.38    0.78
   2   7   6   20.09    0.85
   2   7   6   18.70    0.68
   3   7   6   74.52    2.85
   3   7   6   72.64    3.30
   3   7   6   73.51    3.04
   3   7   6   72.13    2.83
   3   7   6   74.34    2.95
   3   7   6   71.00    2.46
   4   7   6   96.59    4.42
   4   7   6   97.45    4.20
   4   7   6   97.39    3.83
   4   7   6   99.73    4.07
   4   7   6   94.15    3.42
   4   7   6  101.50    3.83
   4   7   6  100.04    3.32
   4   7   6  103.39    3.98
   5   7   6   27.65    1.19
   5   7   6   27.26    1.30
   5   7   6   27.70    1.01
   5   7   6   29.46    1.19
   5   7   6   26.76    1.13
   5   7   6   26.53    0.98
   5   7   6   27.70    1.16
   5   7   6   26.92    1.35
   5   7   6   26.58    1.22
   6   7   6   72.44    3.18
   6   7   6   75.83    2.51
   6   7   6   74.23    3.35
   6   7   6   72.20    2.88
   6   7   6   71.85    3.20
   6   7   6   73.95    3.05
   6   7   6   76.73    3.01
   6   7   6   73.61    2.58
   6   7   6   70.60    2.89
   6   7   6   73.33    3.07
  -7  -7  -6   34.11    1.62
   7   7   6   35.29    1.56
   7   7   6   35.12    1.57
   7   7   6   33.24    1.50
  -8  -7  -6   26.20    1.22
   8   7   6   26.13    1.18
   8   7   6   24.65    1.16
  -9  -7  -6   27.30    1.25
   9   7   6   26.77    1.20
   9   7   6   28.07    1.20
   2   8   6    4.07    0.27
   2   8   6    3.89    0.28
   2   8   6    3.79    0.17
   3   8   6   33.41    1.32
   3   8   6   32.88    1.41
   3   8   6   31.09    1.15
   3   8   6   32.68    1.27
   3   8   6   32.58    1.11
   3   8   6   32.34    1.33
   4   8   6   13.96    0.64
   4   8   6   13.77    0.59
   4   8   6   14.32    0.62
   4   8   6   13.21    0.53
   4   8   6   14.61    0.52
   4   8   6   13.99    0.71
   5   8   6   14.62    0.57
   5   8   6   15.10    0.67
   5   8   6   15.79    0.56
   5   8   6   14.74    0.76
   5   8   6   14.90    0.64
   5   8   6   15.49    0.72
   5   8   6   14.63    0.79
   5   8   6   15.18    0.69
   6   8   6   24.56    1.17
   6   8   6   24.37    1.13
   6   8   6   25.15    1.01
   6   8   6   24.05    0.99
   6   8   6   24.87    0.88
   6   8   6   24.76    0.86
   6   8   6   22.04    1.03
   6   8   6   23.48    1.06
  -7  -8  -6    1.43    0.18
   7   8   6    1.59    0.21
   7   8   6    1.42    0.16
   7   8   6    1.25    0.14
   7   8   6    1.36    0.12
  -8  -8  -6   11.84    0.60
   8   8   6   12.86    0.60
   3   9   6    1.97    0.12
   3   9   6    2.24    0.19
   3   9   6    2.09    0.11
   3   9   6    2.17    0.20
   4   9   6   31.44    1.16
   4   9   6   28.48    1.22
   4   9   6   29.15    1.06
   4   9   6   29.64    1.02
   4   9   6   29.97    1.28
   4   9   6   30.75    1.32
   4   9   6   30.10    1.20
   5   9   6    8.62    0.36
   5   9   6    8.57    0.40
   5   9   6    8.11    0.45
   5   9   6    8.23    0.32
   5   9   6    7.87    0.38
   5   9   6    8.46    0.33
   5   9   6    8.33    0.42
   6   9   6   21.97    0.96
   6   9   6   21.16    0.76
   6   9   6   19.76    0.91
   6   9   6   21.65    0.85
   6   9   6   20.49    0.74
   6   9   6   21.00    0.86
   7   9   6   43.46    1.71
   7   9   6   44.71    1.54
   7   9   6   44.16    1.89
   7   9   6   44.88    1.73
   4  10   6   12.79    0.45
   4  10   6   12.39    0.52
   5  10   6    7.96    0.35
   5  10   6    8.34    0.30
   3   8  -7    1.00    0.17
  -3  -8   7    1.14    0.23
   2   8  -7   11.87    0.54
  -2  -8   7   10.63    0.60
   1   8  -7   10.94    0.48
   1   8  -7   10.55    0.52
  -1  -8   7    9.39    0.53
   0   8  -7    0.99    0.12
   6   7  -7   15.69    0.77
  -6  -7   7   13.69    0.66
   5   7  -7    6.89    0.51
   5   7  -7    5.58    0.66
   5   7  -7    6.24    0.56
  -5  -7   7    6.33    0.41
   4   7  -7    9.77    0.87
   4   7  -7   11.15    0.77
   4   7  -7   11.13    0.64
  -4  -7   7    9.05    0.54
  -4  -7   7    9.49    0.58
   3   7  -7   37.97    2.30
   3   7  -7   41.12    2.04
   3   7  -7   36.14    2.59
   3   7  -7   38.99    1.77
  -3  -7   7   37.85    1.70
   2   7  -7    3.38    0.52
   2   7  -7    3.64    0.58
   2   7  -7    3.90    0.38
   2   7  -7    3.68    0.36
  -2  -7   7    4.15    0.41
   1   7  -7    4.03    0.62
   1   7  -7    5.06    0.40
   1   7  -7    4.66    0.40
   1   7  -7    4.87    0.26
   1   7  -7    4.83    0.57
  -1  -7   7    4.93    0.46
   0   7  -7   13.31    0.57
   0   7  -7   14.25    0.97
   0   7  -7   12.99    0.69
   0   7  -7   16.14    0.68
   0   7  -7   14.34    0.55
   0   7  -7   14.61    0.73
   0  -7   7   12.80    0.73
  -1   7  -7    5.70    0.27
  -1   7  -7    5.45    0.50
  -1   7  -7    5.55    0.39
  -1   7  -7    5.47    0.30
  -1   7  -7    6.19    0.35
  -2   7  -7   17.80    0.66
  -2   7  -7   18.63    0.75
  -2   7  -7   17.80    0.83
  -7  -6   7    3.45    0.27
   6   6  -7   28.36    1.80
   6   6  -7   28.90    1.43
  -6  -6   7   27.49    1.17
   5   6  -7    0.83    0.51
   5   6  -7    1.08    0.33
   5   6  -7    0.99    0.41
   5   6  -7    0.42    0.45
  -5  -6   7    0.92    0.23
   4   6  -7   33.85    1.79
   4   6  -7   32.56    2.07
   4   6  -7   30.77    2.31
   4   6  -7   29.55    1.59
   4   6  -7   31.56    1.61
  -4  -6   7   30.64    1.31
  -4  -6   7   29.22    1.38
   3   6  -7   35.18    1.55
   3   6  -7   37.39    2.00
   3   6  -7   35.81    2.56
   3   6  -7   33.91    1.75
   3   6  -7   37.87    2.28
  -3  -6   7   35.98    1.58
  -3  -6   7   32.87    1.47
   2   6  -7    3.87    0.41
   2   6  -7    4.21    0.65
   2   6  -7    3.82    0.72
   2   6  -7    4.28    0.55
   2   6  -7    3.82    0.33
   1   6  -7   26.94    1.86
   1   6  -7   23.38    0.89
   1   6  -7   22.41    1.11
   1   6  -7   24.01    1.22
   1   6  -7   23.13    1.14
  -1  -6   7   24.92    1.16
   0   6  -7    8.70    0.58
   0   6  -7    9.58    0.47
   0   6  -7   10.90    1.01
   0   6  -7    9.72    0.60
   0   6  -7   11.91    0.93
   0   6  -7    9.74    0.59
   0   6  -7   10.61    0.43
   0   6  -7    9.33    0.60
   0  -6   7   10.74    0.64
  -1   6  -7   28.46    1.18
  -1   6  -7   27.27    0.98
  -1   6  -7   26.89    1.25
  -1   6  -7   25.26    1.89
  -1   6  -7   24.54    1.20
  -1   6  -7   29.10    1.70
  -1   6  -7   25.15    0.99
   1  -6   7   25.71    1.25
  -2   6  -7   11.21    0.86
  -2   6  -7   11.90    0.65
  -2   6  -7   11.98    0.51
  -2   6  -7   12.52    0.61
  -2   6  -7   12.26    0.49
  -2   6  -7   11.61    0.62
  -3   6  -7    0.28    0.18
  -3   6  -7    0.08    0.09
  -3   6  -7    0.20    0.15
  -3   6  -7    0.37    0.14
   7   5  -7    6.27    0.80
  -7  -5   7    6.86    0.38
   6   5  -7    1.65    0.55
   6   5  -7    1.29    0.64
  -6  -5   7    1.52    0.22
   5   5  -7   20.11    1.53
   5   5  -7   17.01    1.68
  -5  -5   7   18.83    0.85
   4   5  -7    1.51    0.61
   4   5  -7    1.37    0.67
  -4  -5   7    1.07    0.21
   3   5  -7   18.52    1.67
   3   5  -7   18.11    1.19
   3   5  -7   17.64    0.85
   3   5  -7   19.93    1.50
  -3  -5   7   17.57    0.83
   2   5  -7   35.88    1.46
   2   5  -7   28.07    2.05
   2   5  -7   36.35    2.52
   2   5  -7   31.30    1.95
   2   5  -7   34.94    1.75
   2   5  -7   34.35    2.21
   1   5  -7    3.40    0.30
   1   5  -7    4.21    0.75
   1   5  -7    2.75    0.41
   1   5  -7    3.48    0.22
   1   5  -7    3.96    0.64
   1   5  -7    3.34    0.53
   0   5  -7   85.17    5.33
   0   5  -7   81.20    3.46
   0   5  -7   86.00    4.72
   0   5  -7   82.15    3.73
   0   5  -7   83.05    2.88
   0   5  -7   78.17    3.52
   0  -5   7   82.87    3.46
  -1   5  -7    8.23    0.58
  -1   5  -7   10.18    0.67
  -1   5  -7   10.32    0.94
  -1   5  -7    9.51    0.61
  -1   5  -7    9.82    0.58
  -1   5  -7    9.42    0.60
  -1   5  -7   10.42    0.42
  -1   5  -7   10.49    0.47
  -1   5  -7    9.16    1.00
   1  -5   7    9.77    0.60
  -2   5  -7   31.61    1.15
  -2   5  -7   32.18    1.42
  -2   5  -7   28.58    1.35
  -2   5  -7   30.97    1.43
  -2   5  -7   31.34    1.13
  -2   5  -7   28.50    2.16
  -2   5  -7   31.66    1.31
  -2   5  -7   30.36    1.40
  -2   5  -7   31.55    1.93
  -3   5  -7   40.27    2.50
  -3   5  -7   36.19    2.81
  -3   5  -7   45.49    1.77
  -3   5  -7   46.66    1.55
  -3   5  -7   39.21    1.85
  -3   5  -7   46.79    1.81
  -3   5  -7   47.24    1.93
  -4   5  -7    0.68    0.12
  -4   5  -7    1.25    0.21
  -4   5  -7    0.60    0.13
  -4   5  -7    1.03    0.20
  -4   5  -7    0.99    0.22
   7   4  -7    7.95    0.93
   6   4  -7    6.09    1.05
   6   4  -7    6.70    0.93
  -6  -4   7    7.14    0.42
   5   4  -7   40.43    2.60
   5   4  -7   37.67    2.91
  -5  -4   7   37.02    1.55
   4   4  -7    0.48    0.58
   4   4  -7   -0.30    0.65
  -4  -4   7    0.54    0.17
   3   4  -7   35.09    2.31
   3   4  -7   34.40    2.62
   3   4  -7   31.51    2.24
  -3  -4   7   35.17    1.41
  -3  -4   7   34.38    1.49
   2   4  -7   17.51    1.32
   2   4  -7   19.46    1.52
   2   4  -7   18.26    1.71
   2   4  -7   20.29    0.87
   1   4  -7   19.36    1.66
   1   4  -7   18.16    1.31
   1   4  -7   19.97    1.50
   1   4  -7   20.30    0.89
   0   4  -7  141.67    7.94
   0   4  -7  137.27    8.96
   0   4  -7  148.16    5.86
   0   4  -7  139.64    8.60
   0  -4   7  151.44    5.88
  -1   4  -7    2.05    0.25
  -1   4  -7    2.85    0.44
  -1   4  -7    1.97    0.51
  -1   4  -7    2.18    0.16
  -1   4  -7    1.52    0.49
  -1   4  -7    2.45    0.27
   1  -4   7    2.27    0.29
  -2   4  -7   28.92    1.39
  -2   4  -7   32.13    1.43
  -2   4  -7   30.99    1.32
  -2   4  -7   32.47    1.13
  -2   4  -7   31.74    1.42
  -2   4  -7   33.72    1.59
  -2   4  -7   29.88    2.22
  -2   4  -7   29.02    1.97
  -2   4  -7   31.84    1.15
   2  -4   7   30.53    1.41
  -3   4  -7   53.51    2.47
  -3   4  -7   64.21    2.62
  -3   4  -7   57.76    3.89
  -3   4  -7   59.83    3.45
  -3   4  -7   60.68    2.57
  -3   4  -7   60.48    2.11
  -3   4  -7   61.31    2.11
  -3   4  -7   61.36    2.40
  -3   4  -7   60.24    2.71
  -4   4  -7    1.45    0.39
  -4   4  -7    2.02    0.28
  -4   4  -7    2.29    0.33
  -4   4  -7    1.90    0.20
  -4   4  -7    1.65    0.17
  -4   4  -7    1.79    0.30
  -4   4  -7    1.53    0.24
  -5   4  -7   25.58    1.08
  -5   4  -7   26.07    1.08
  -5   4  -7   21.42    0.90
   7   3  -7   12.76    1.19
  -7  -3   7   11.58    0.71
  -7  -3   7   10.76    0.67
   6   3  -7    0.79    0.68
   6   3  -7    1.42    0.84
  -6  -3   7    1.50    0.20
   5   3  -7    8.83    1.16
   5   3  -7    9.51    1.46
  -5  -3   7    7.71    0.46
   4   3  -7   23.57    2.08
   4   3  -7   22.12    1.85
  -4  -3   7   22.47    0.96
  -4  -3   7   19.48    2.00
   3   3  -7    1.54    0.70
   3   3  -7    1.74    0.41
   3   3  -7    2.12    0.68
  -3  -3   7    1.31    0.79
   2   3  -7   32.84    2.15
   2   3  -7   30.33    2.32
   2   3  -7   29.32    2.04
   1   3  -7   14.11    1.04
   1   3  -7   13.60    1.34
   1   3  -7   14.51    1.28
   0   3  -7   25.34    1.99
   0   3  -7   27.37    1.76
   0   3  -7   26.89    1.88
  -1   3  -7   63.13    4.59
  -1   3  -7   74.00    4.40
   1  -3   7   77.43    2.99
  -2   3  -7    7.48    0.56
   2  -3   7    6.80    0.45
  -3   3  -7   22.58    1.08
  -3   3  -7   23.08    1.28
  -3   3  -7   22.34    1.02
  -3   3  -7   23.63    0.85
  -4   3  -7    8.50    0.55
  -4   3  -7    9.07    0.40
  -4   3  -7    8.93    0.49
  -4   3  -7    8.77    0.63
  -4   3  -7    9.45    0.54
  -5   3  -7   27.26    1.10
  -5   3  -7   27.33    1.17
  -5   3  -7   21.15    1.18
  -5   3  -7   26.16    1.22
  -5   3  -7   25.88    0.97
  -6   3  -7   30.05    1.24
  -6   3  -7   32.35    1.32
  -6   3  -7   28.44    1.31
   6  -3   7   31.25    1.48
   7   2  -7   32.49    2.20
  -7  -2   7   34.15    1.53
  -7  -2   7   32.46    1.59
   6   2  -7    1.28    0.74
   6   2  -7   -1.03    0.72
  -6  -2   7    0.25    0.21
  -6  -2   7    0.51    0.25
   5   2  -7   36.85    2.69
   5   2  -7   35.05    3.01
  -5  -2   7   39.05    1.85
  -5  -2   7   41.60    1.56
  -5  -2   7   36.15    1.88
   4   2  -7  106.80    6.53
   4   2  -7  103.68    7.37
  -4  -2   7  129.07    4.41
  -4  -2   7  115.42    7.23
   3   2  -7   30.14    2.40
   3   2  -7   29.16    1.74
   3   2  -7   32.78    2.22
  -3  -2   7   30.85    2.41
   2   2  -7  146.86    7.57
   2   2  -7  147.31    8.88
  -2  -2   7  142.90    9.22
   1   2  -7   35.49    2.21
  -1  -2   7   30.20    2.60
   0   2  -7   46.75    2.97
  -1   2  -7   77.53    4.77
  -2   2  -7    0.59    0.22
  -3   2  -7  117.38    7.09
  -4   2  -7   44.96    1.83
  -4   2  -7   45.28    1.90
  -4   2  -7   46.77    2.04
  -4   2  -7   47.06    1.90
  -4   2  -7   46.40    2.28
  -4   2  -7   48.01    1.66
  -5   2  -7   20.00    0.96
  -5   2  -7   18.99    1.07
  -5   2  -7   20.20    0.90
  -5   2  -7   18.85    0.87
  -6   2  -7   46.73    2.10
  -6   2  -7   45.03    1.84
  -6   2  -7   47.70    1.94
  -6   2  -7   42.98    1.89
   6  -2   7   48.68    2.14
  -7   2  -7    0.01    0.17
  -7   2  -7    0.20    0.15
  -7   2  -7    0.24    0.20
   7  -2   7    0.04    0.25
   7   1  -7    1.58    0.56
  -7  -1   7    2.96    0.26
  -7  -1   7    2.13    0.31
   6   1  -7    9.03    1.23
   6   1  -7    9.02    1.47
  -6  -1   7   12.49    0.74
  -6  -1   7   12.02    0.65
   5   1  -7    0.79    0.86
   5   1  -7    0.32    0.81
  -5  -1   7    0.57    0.25
  -5  -1   7    0.54    0.21
  -4  -1   7   29.69    1.49
  -4  -1   7   30.63    2.07
  -4  -1   7   32.47    1.28
  -4  -1   7   29.49    1.52
   3   1  -7   11.07    0.80
  -3  -1   7   11.72    1.07
   2   1  -7   18.11    1.09
  -2  -1   7   17.93    1.50
   1   1  -7   10.37    0.66
  -1  -1   7    9.72    1.09
   0   1  -7   21.28    1.45
   0  -1   7   19.23    1.74
  -1   1  -7   21.23    1.42
  -1   1  -7   23.77    1.54
   1  -1   7   20.01    1.89
  -2   1  -7    1.24    0.32
  -3   1  -7    8.92    0.78
  -4   1  -7   35.73    1.68
  -4   1  -7   33.50    1.40
  -4   1  -7   35.36    2.29
  -5   1  -7    3.92    0.53
  -5   1  -7    3.37    0.30
  -5   1  -7    3.50    0.31
  -5   1  -7    2.68    0.33
  -5   1  -7    2.94    0.32
  -6   1  -7   10.10    0.56
  -6   1  -7    9.46    0.55
  -6   1  -7    9.89    0.62
  -6   1  -7   10.21    0.74
  -6   1  -7   10.57    0.68
   6  -1   7    9.88    0.71
  -7   1  -7   14.10    0.68
  -7   1  -7   12.76    0.76
  -7   1  -7   13.43    0.68
  -7   1  -7   12.78    0.75
  -7   1  -7   13.94    0.75
   7  -1   7   13.98    0.85
  -8   1  -7    0.67    0.16
  -7   0   7   40.63    1.88
  -7   0   7   39.79    1.63
  -6   0   7   93.55    4.34
  -6   0   7   97.64    3.72
  -6   0   7   95.77    3.37
  -6   0   7   98.95    4.18
  -6   0   7   94.41    3.81
  -5   0   7   17.42    1.03
  -5   0   7   18.60    0.78
  -5   0   7   17.48    0.92
  -5   0   7   20.61    0.96
  -5   0   7   17.48    0.79
  -5   0   7   17.00    0.91
  -5   0   7   19.95    1.12
  -5   0   7   19.44    0.96
  -4   0   7  124.81    4.24
  -4   0   7  125.93    4.63
  -4   0   7  113.78    7.59
  -4   0   7  122.74    5.41
  -4   0   7  115.63    4.12
  -4   0   7  120.04    4.95
  -4   0   7  120.85    5.63
  -4   0   7  123.68    4.68
  -4   0   7  116.20    5.27
   3   0  -7    6.46    0.58
  -3   0   7    6.25    0.60
  -3   0   7    6.11    0.56
  -3   0   7    6.69    1.08
  -3   0   7    5.28    0.47
  -3   0   7    6.03    0.42
   2   0  -7   61.54    3.39
  -2   0   7   62.18    3.96
  -2   0   7   61.47    2.65
  -2   0   7   66.25    4.19
   1   0  -7  237.18   12.06
  -1   0   7  237.08   13.97
  -1   0   7  226.70   14.09
   0   0  -7   11.79    0.75
   0   0   7   12.13    1.09
   0   0   7   11.39    1.14
  -1   0  -7  235.96   13.17
   1   0   7  233.97   14.28
  -2   0  -7   16.89    1.16
  -2   0  -7   17.43    1.29
   2   0   7   15.94    1.50
  -3   0  -7   79.27    4.71
  -3   0  -7   76.55    3.44
   3   0   7   66.84    4.87
  -4   0  -7  143.79    6.55
  -4   0  -7  143.08    8.78
  -5   0  -7    0.50    0.33
  -5   0  -7    0.25    0.13
  -5   0  -7    0.69    0.27
  -5   0  -7    0.42    0.14
  -5   0  -7    0.30    0.15
   5   0   7    0.75    0.25
  -6   0  -7   95.43    4.15
  -6   0  -7  109.90    4.92
  -6   0  -7  106.60    4.21
   6   0   7  112.63    4.59
  -7   0  -7   19.96    0.97
  -7   0  -7   20.34    1.11
  -7   0  -7   21.79    0.97
  -7   0  -7   21.72    1.18
   7   0   7   21.89    1.15
  -8   0  -7    6.39    0.44
  -8   0  -7    6.16    0.43
  -8   0  -7    6.17    0.45
   8   0   7    6.09    0.55
  -7   1   7    0.85    0.18
  -7   1   7    1.05    0.13
  -6   1   7    0.26    0.12
  -6   1   7    0.48    0.17
  -6   1   7    0.87    0.20
  -6   1   7    0.26    0.16
  -6   1   7    0.66    0.21
  -6   1   7    0.53    0.20
  -6   1   7    0.36    0.22
  -6   1   7    0.71    0.26
  -5   1   7    1.74    0.19
  -5   1   7    2.31    0.29
  -5   1   7    2.49    0.31
  -5   1   7    2.57    0.38
  -5   1   7    1.80    0.25
  -5   1   7    1.98    0.34
  -5   1   7    1.52    0.18
  -5   1   7    2.29    0.32
  -5   1   7    1.91    0.20
  -5   1   7    1.95    0.26
  -4   1   7    2.16    0.31
  -4   1   7    1.36    0.57
  -4   1   7    1.81    0.25
  -4   1   7    1.13    0.29
  -4   1   7    1.48    0.25
  -4   1   7    1.36    0.33
  -4   1   7    1.50    0.18
  -4   1   7    1.67    0.20
  -4   1   7    1.96    0.29
  -4   1   7    2.53    0.34
  -4   1   7    1.03    0.18
  -3   1   7    6.04    0.36
  -3   1   7    6.66    0.44
  -3   1   7    6.55    0.92
  -3   1   7    6.89    0.62
   2  -1  -7    4.48    0.50
  -2   1   7    5.35    0.54
  -2   1   7    5.41    0.37
  -2   1   7    5.36    0.78
   1  -1  -7    6.05    0.55
  -1   1   7    5.77    0.40
  -1   1   7    6.12    0.40
  -1   1   7    7.01    0.78
  -1   1   7    6.29    0.54
   0  -1  -7   45.49    2.54
   0   1   7   49.10    3.02
   0   1   7   44.61    1.99
   0   1   7   44.77    2.92
  -1  -1  -7    8.28    0.67
   1   1   7   11.30    0.96
   1   1   7    8.76    0.84
  -2  -1  -7    2.08    0.38
   2   1   7    2.33    0.52
   2   1   7    1.45    0.43
   3   1   7    8.33    0.93
  -4  -1  -7    4.92    0.73
   4   1   7    4.33    0.80
  -5  -1  -7    8.40    0.53
  -5  -1  -7    8.18    0.48
  -5  -1  -7    9.18    0.99
  -6  -1  -7    1.04    0.20
  -6  -1  -7    1.42    0.23
  -6  -1  -7    1.20    0.22
   6   1   7    1.27    0.30
  -7  -1  -7    7.99    0.53
  -7  -1  -7    7.99    0.51
   7   1   7    7.98    0.66
  -8  -1  -7    2.75    0.34
  -8  -1  -7    3.27    0.38
  -8  -1  -7    3.46    0.33
  -8  -1  -7    2.37    0.30
   8   1   7    1.97    0.36
  -6   2   7   32.08    1.17
  -6   2   7   34.33    1.39
  -6   2   7   33.38    1.64
  -6   2   7   34.44    1.34
  -6   2   7   33.86    1.20
  -6   2   7   32.85    1.60
  -6   2   7   34.77    1.36
  -6   2   7   32.53    1.32
  -5   2   7    7.42    0.53
  -5   2   7    7.61    0.62
  -5   2   7    8.24    0.46
  -5   2   7    8.97    0.38
  -5   2   7    8.45    0.64
  -5   2   7    7.86    0.46
  -5   2   7    7.10    0.36
  -5   2   7    8.04    0.50
  -5   2   7    7.52    0.49
  -4   2   7   48.20    1.99
  -4   2   7   50.44    2.08
  -4   2   7   51.46    2.45
  -4   2   7   48.62    1.98
  -4   2   7   47.43    1.76
  -4   2   7   48.74    2.02
  -4   2   7   51.93    2.09
  -4   2   7   49.29    1.73
  -4   2   7   48.39    2.37
  -3   2   7  129.16    5.18
  -3   2   7  129.49    4.31
  -3   2   7  133.93    4.86
  -3   2   7  123.62    5.74
  -3   2   7  127.12    5.52
  -3   2   7  133.66    4.90
  -3   2   7  119.72    4.42
  -3   2   7  126.67    5.95
  -3   2   7  126.07    4.99
  -3   2   7  126.51    5.07
  -3   2   7  131.49    7.84
   2  -2  -7    9.83    0.88
  -2   2   7   11.75    0.60
  -2   2   7   11.55    0.77
  -2   2   7   12.43    0.49
  -2   2   7   11.80    0.58
  -2   2   7   12.32    1.08
   1  -2  -7  216.04   11.86
  -1   2   7  221.09    9.34
  -1   2   7  237.34   13.48
  -1   2   7  233.12   10.38
  -1   2   7  231.03    9.10
   0   2   7  151.11    5.87
   0   2   7  137.29    6.02
   0   2   7  150.10    8.72
   1   2   7  149.49    9.28
   1   2   7  150.71    6.39
   1   2   7  164.76    9.24
  -2  -2  -7  312.70   18.81
   2   2   7  355.55   13.78
   2   2   7  389.18   19.80
   2   2   7  288.23   20.06
  -3  -2  -7   44.84    2.31
   3   2   7   42.83    1.83
   3   2   7   36.14    2.73
  -4  -2  -7  271.13   11.56
   4   2   7  237.18   15.37
  -5  -2  -7   92.53    4.11
   5   2   7   83.50    5.64
  -6  -2  -7    2.19    0.26
  -6  -2  -7    2.01    0.26
  -6  -2  -7    2.13    0.26
  -6  -2  -7    1.71    0.62
   6   2   7    2.59    0.36
   6   2   7    2.34    0.68
  -7  -2  -7   80.10    3.21
  -7  -2  -7   77.07    3.08
   7   2   7   80.25    3.50
  -8  -2  -7    8.92    0.55
  -8  -2  -7    8.15    0.54
  -8  -2  -7    8.27    0.60
   8   2   7    9.15    0.67
  -9  -2  -7   20.92    1.05
  -9  -2  -7   21.17    0.94
   9   2   7   22.15    1.02
  -6   3   7    5.41    0.29
  -6   3   7    5.20    0.29
  -6   3   7    4.65    0.31
  -6   3   7    5.25    0.34
  -6   3   7    5.23    0.24
  -6   3   7    4.95    0.23
  -5   3   7    1.70    0.22
  -5   3   7    1.36    0.27
  -5   3   7    1.57    0.18
  -5   3   7    1.55    0.14
  -5   3   7    1.64    0.28
  -5   3   7    1.71    0.18
  -5   3   7    1.76    0.25
  -5   3   7    1.68    0.14
  -5   3   7    1.83    0.23
  -4   3   7    0.90    0.12
  -4   3   7    0.97    0.16
  -4   3   7    1.01    0.17
  -4   3   7    0.85    0.24
  -4   3   7    0.85    0.21
  -4   3   7    1.60    0.31
  -4   3   7    1.04    0.14
  -4   3   7    0.93    0.22
  -4   3   7    0.72    0.27
  -3   3   7    0.24    0.09
  -3   3   7    0.49    0.25
  -3   3   7    0.39    0.20
  -3   3   7    0.13    0.19
  -3   3   7    0.32    0.33
  -3   3   7    0.18    0.23
  -3   3   7    0.23    0.13
  -3   3   7    0.28    0.10
  -3   3   7    0.49    0.21
  -3   3   7    0.43    0.13
  -2   3   7   10.84    0.52
  -2   3   7   11.08    0.44
  -2   3   7   10.23    0.94
  -2   3   7   12.02    0.61
  -2   3   7   10.57    0.53
  -2   3   7   11.05    0.73
   1  -3  -7   14.51    1.12
  -1   3   7   15.62    0.90
  -1   3   7   15.88    1.18
  -1   3   7   16.61    0.72
  -1   3   7   16.02    0.60
  -1   3   7   15.94    0.72
   0   3   7    2.20    0.19
   0   3   7    2.69    0.42
   0   3   7    2.20    0.29
   0   3   7    1.89    0.21
   1   3   7   15.46    0.69
   1   3   7   16.79    1.14
   1   3   7   14.18    0.71
  -2  -3  -7    2.60    0.52
   2   3   7    2.73    0.42
   2   3   7    2.73    0.24
   2   3   7    2.45    0.24
  -3  -3  -7   13.19    0.85
   3   3   7   12.35    0.59
   3   3   7   10.08    0.90
   3   3   7    9.69    0.75
   3   3   7   12.01    0.60
  -4  -3  -7   33.33    1.94
  -4  -3  -7   32.65    1.66
   4   3   7   33.69    2.30
   4   3   7   34.29    1.51
  -5  -3  -7    3.86    0.36
   5   3   7    3.58    0.65
  -6  -3  -7    2.22    0.29
  -6  -3  -7    2.38    0.29
   6   3   7    2.85    0.39
   6   3   7    1.27    0.29
   6   3   7    3.01    0.70
  -7  -3  -7   10.25    0.60
  -7  -3  -7   11.11    0.63
  -7  -3  -7   10.73    0.69
   7   3   7    8.90    0.73
  -8  -3  -7    7.89    0.51
  -8  -3  -7    7.25    0.56
   8   3   7    7.21    0.61
   9   3   7    8.40    0.53
  -5   4   7   38.71    1.52
  -5   4   7   39.86    1.58
  -5   4   7   37.91    1.50
  -5   4   7   38.68    1.33
  -5   4   7   39.86    1.77
  -5   4   7   37.95    1.36
  -4   4   7    1.18    0.14
  -4   4   7    1.17    0.24
  -4   4   7    0.90    0.10
  -4   4   7    1.20    0.20
  -4   4   7    0.92    0.24
  -4   4   7    0.97    0.24
  -4   4   7    1.31    0.13
  -4   4   7    1.05    0.14
  -4   4   7    1.02    0.20
  -3   4   7   28.91    1.21
  -3   4   7   29.10    1.21
  -3   4   7   28.23    1.27
  -3   4   7   29.67    1.22
  -3   4   7   28.54    1.17
  -3   4   7   29.04    1.45
  -3   4   7   26.62    1.03
  -3   4   7   29.27    1.49
  -3   4   7   28.71    1.01
  -2   4   7   30.34    2.06
  -2   4   7   32.90    1.61
  -2   4   7   31.72    1.64
  -2   4   7   33.52    1.42
  -2   4   7   32.86    1.13
  -2   4   7   31.77    1.36
  -2   4   7   33.26    1.31
  -2   4   7   32.36    1.34
  -2   4   7   32.06    1.34
  -1   4   7   18.47    0.84
  -1   4   7   18.66    0.67
  -1   4   7   18.40    1.01
  -1   4   7   18.01    1.25
  -1   4   7   18.45    0.80
   0   4   7  170.97    5.64
   0   4   7  168.15    9.95
   0   4   7  168.51    7.73
   0   4   7  169.24    6.75
   1   4   7    7.52    0.37
   1   4   7    7.53    0.63
   1   4   7    7.18    0.50
   1   4   7    7.40    0.37
   2   4   7   80.57    3.88
   2   4   7   86.10    3.37
   2   4   7   82.73    3.45
  -3  -4  -7   97.97    5.12
   3   4   7   99.53    3.95
   3   4   7   97.70    4.05
   3   4   7   94.80    4.54
  -4  -4  -7   15.98    1.08
  -4  -4  -7   16.20    0.87
   4   4   7   14.57    0.62
   4   4   7   15.70    0.74
   4   4   7   15.13    0.75
  -5  -4  -7  141.70    7.12
  -5  -4  -7  126.41    6.24
   5   4   7  139.79    5.65
   5   4   7  126.77    8.28
   5   4   7  143.83    5.58
  -6  -4  -7    2.41    0.33
   6   4   7    1.90    0.35
   6   4   7    2.74    0.38
   6   4   7    2.83    0.59
  -7  -4  -7   82.12    3.55
  -7  -4  -7   80.24    3.68
   7   4   7   70.77    3.42
  -8  -4  -7   75.71    3.66
  -8  -4  -7   81.35    3.53
   8   4   7   76.62    3.40
  -9  -4  -7    2.44    0.27
   9   4   7    3.14    0.32
  -4   5   7    5.02    0.32
  -4   5   7    5.90    0.40
  -4   5   7    5.33    0.23
  -4   5   7    5.39    0.23
  -4   5   7    5.47    0.35
  -4   5   7    5.05    0.33
  -3   5   7   25.17    1.29
  -3   5   7   25.66    0.88
  -3   5   7   25.65    1.05
  -3   5   7   24.78    0.90
  -3   5   7   24.52    1.10
  -3   5   7   26.05    1.25
  -3   5   7   24.99    1.05
  -3   5   7   24.92    1.05
  -2   5   7    7.38    0.30
  -2   5   7    7.35    0.33
  -2   5   7    7.38    0.36
  -2   5   7    6.93    0.53
  -2   5   7    7.54    0.52
  -2   5   7    7.70    0.47
  -2   5   7    7.72    0.44
  -2   5   7    7.48    0.44
  -1   5   7   16.40    0.93
  -1   5   7   17.05    0.69
  -1   5   7   17.49    0.81
  -1   5   7   16.87    0.91
  -1   5   7   17.15    0.61
  -1   5   7   16.55    0.72
  -1   5   7   17.27    0.77
   0   5   7   29.55    1.31
   0   5   7   30.14    1.26
   0   5   7   30.02    1.48
   0   5   7   30.43    1.21
   0   5   7   31.50    1.05
   0   5   7   28.58    1.51
   0   5   7   31.32    1.26
   0   5   7   32.88    1.28
   1   5   7    2.83    0.16
   1   5   7    2.91    0.19
   1   5   7    2.93    0.27
   1   5   7    3.24    0.34
  -2  -5  -7    8.15    0.64
   2   5   7    7.73    0.54
   2   5   7    7.83    0.38
   2   5   7    8.20    0.33
   2   5   7    7.65    0.46
   2   5   7    7.98    0.39
  -3  -5  -7   10.20    0.77
   3   5   7   10.93    0.69
   3   5   7   10.75    0.51
   3   5   7   10.98    0.43
   3   5   7   11.41    0.59
   3   5   7   10.29    0.51
  -4  -5  -7    1.44    0.32
  -4  -5  -7    1.46    0.22
   4   5   7    1.75    0.20
   4   5   7    1.47    0.18
   4   5   7    1.50    0.23
   4   5   7    1.68    0.15
  -5  -5  -7    1.74    0.25
   5   5   7    2.41    0.27
   5   5   7    2.28    0.21
   5   5   7    2.60    0.27
   5   5   7    2.04    0.20
   5   5   7    2.41    0.26
   5   5   7    2.68    0.27
   5   5   7    3.05    0.28
   5   5   7    2.28    0.33
   5   5   7    2.76    0.28
   5   5   7    1.57    0.30
  -6  -5  -7    1.71    0.26
   6   5   7    2.40    0.34
   6   5   7    2.32    0.26
   6   5   7    1.91    0.26
   6   5   7    2.55    0.37
  -7  -5  -7   13.67    0.75
  -7  -5  -7   12.73    0.75
   7   5   7   12.26    0.72
   7   5   7   11.84    0.77
  -8  -5  -7    3.41    0.37
   8   5   7    3.83    0.40
   8   5   7    3.26    0.37
  -9  -5  -7   11.31    0.62
   9   5   7   12.38    0.63
   9   5   7   11.71    0.61
  -3   6   7   15.20    0.65
  -3   6   7   15.11    0.68
  -3   6   7   15.31    0.65
  -2   6   7   58.87    2.36
  -2   6   7   59.26    2.26
  -2   6   7   59.06    1.97
  -2   6   7   58.29    2.76
  -1   6   7   10.85    0.63
  -1   6   7   10.39    0.39
  -1   6   7   11.01    0.57
  -1   6   7   10.60    0.62
   0   6   7   54.70    2.14
   0   6   7   53.22    1.79
   0   6   7   52.03    2.52
   0   6   7   52.99    2.44
   1   6   7   38.80    1.57
   1   6   7   37.54    1.32
   1   6   7   38.13    1.51
   1   6   7   40.10    1.57
   1   6   7   39.16    1.81
   2   6   7    4.24    0.31
   2   6   7    4.20    0.23
   2   6   7    3.95    0.31
   2   6   7    3.96    0.38
   2   6   7    4.12    0.23
   2   6   7    3.98    0.20
   3   6   7  102.70    4.01
   3   6   7  101.03    3.48
   3   6   7  105.49    4.25
   3   6   7  103.53    4.64
   3   6   7  102.14    4.16
   3   6   7  105.93    4.00
   3   6   7  103.89    4.27
   3   6   7  104.03    3.58
   4   6   7   56.58    1.91
   4   6   7   55.59    2.58
   4   6   7   58.52    2.34
   4   6   7   54.38    1.96
   4   6   7   55.16    2.21
   4   6   7   55.45    2.36
   4   6   7   55.78    2.29
   4   6   7   57.45    2.46
   4   6   7   53.27    2.42
   4   6   7   54.79    2.20
   5   6   7    3.49    0.31
   5   6   7    2.66    0.34
   5   6   7    3.71    0.28
   5   6   7    3.52    0.25
   5   6   7    3.77    0.41
   5   6   7    3.83    0.29
   5   6   7    3.47    0.28
   5   6   7    3.72    0.24
   5   6   7    3.58    0.31
   5   6   7    3.74    0.28
   6   6   7   81.51    3.62
   6   6   7   80.25    3.32
   6   6   7   80.09    3.44
   6   6   7   79.59    3.28
   6   6   7   76.82    3.10
   6   6   7   77.61    2.77
   6   6   7   77.46    3.47
  -7  -6  -7    3.90    0.38
   7   6   7    3.72    0.34
   7   6   7    3.78    0.31
   7   6   7    4.64    0.45
  -8  -6  -7   56.10    2.58
   8   6   7   55.82    2.51
   8   6   7   58.03    2.47
  -9  -6  -7   20.43    0.98
   9   6   7   20.72    0.95
   9   6   7   20.76    0.94
   1   7   7    0.75    0.14
   1   7   7    0.67    0.07
   2   7   7    7.55    0.30
   2   7   7    8.15    0.42
   2   7   7    7.76    0.50
   2   7   7    7.99    0.44
   2   7   7    7.69    0.34
   2   7   7    8.03    0.36
   3   7   7   43.10    1.58
   3   7   7   43.99    1.76
   3   7   7   44.96    2.08
   3   7   7   45.60    1.92
   3   7   7   46.09    1.84
   3   7   7   46.38    1.80
   3   7   7   44.37    1.53
   4   7   7    6.88    0.42
   4   7   7    7.74    0.47
   4   7   7    6.73    0.48
   4   7   7    7.08    0.31
   4   7   7    6.84    0.31
   4   7   7    6.90    0.35
   4   7   7    7.37    0.37
   4   7   7    7.37    0.41
   5   7   7   42.37    1.54
   5   7   7   44.41    1.82
   5   7   7   42.38    1.85
   5   7   7   44.73    1.80
   5   7   7   43.77    1.93
   5   7   7   44.08    1.50
   5   7   7   42.13    2.02
   5   7   7   41.54    1.72
   6   7   7    8.34    0.45
   6   7   7    8.60    0.55
   6   7   7    8.34    0.45
   6   7   7    8.93    0.38
   6   7   7    8.64    0.44
   6   7   7    8.53    0.44
   6   7   7    9.24    0.59
   6   7   7    8.85    0.38
   6   7   7    8.99    0.46
   6   7   7    8.51    0.48
  -7  -7  -7    3.68    0.31
   7   7   7    3.35    0.25
   7   7   7    3.43    0.26
   7   7   7    3.59    0.33
   7   7   7    3.17    0.26
  -8  -7  -7    1.89    0.20
   8   7   7    2.25    0.24
   8   7   7    1.78    0.20
  -9  -7  -7    0.70    0.12
   2   8   7   31.52    1.07
   2   8   7   31.38    1.27
   2   8   7   31.71    1.35
   3   8   7   12.24    0.53
   3   8   7   12.16    0.60
   3   8   7   12.44    0.45
   3   8   7   11.46    0.46
   3   8   7   12.52    0.50
   4   8   7  135.95    6.13
   4   8   7  141.89    5.84
   4   8   7  132.28    4.78
   4   8   7  143.49    4.64
   4   8   7  140.32    5.55
   4   8   7  138.73    5.34
   4   8   7  143.54    5.66
   4   8   7  136.70    5.31
   5   8   7    3.98    0.27
   5   8   7    3.11    0.19
   5   8   7    3.55    0.22
   5   8   7    3.65    0.22
   5   8   7    3.51    0.33
   5   8   7    3.44    0.32
   5   8   7    3.36    0.26
   5   8   7    3.48    0.19
   6   8   7   38.46    1.30
   6   8   7   39.74    1.34
   6   8   7   38.79    1.51
   6   8   7   37.12    1.60
   6   8   7   38.08    1.50
   6   8   7   38.09    1.67
   6   8   7   34.72    1.56
   6   8   7   36.98    1.75
  -7  -8  -7   30.26    1.40
   7   8   7   32.10    1.09
   7   8   7   31.00    1.36
   7   8   7   30.88    1.22
   7   8   7   31.22    1.23
   7   8   7   28.30    1.29
  -8  -8  -7    0.74    0.11
   8   8   7    0.75    0.13
   8   8   7    0.50    0.09
   3   9   7    9.43    0.44
   3   9   7    9.11    0.34
   3   9   7    9.01    0.42
   3   9   7    9.02    0.33
   4   9   7    5.40    0.29
   4   9   7    5.50    0.23
   4   9   7    5.64    0.22
   4   9   7    5.62    0.31
   5   9   7    0.74    0.08
   5   9   7    0.91    0.15
   5   9   7    0.83    0.08
   5   9   7    0.86    0.13
   5   9   7    0.79    0.12
   5   9   7    0.83    0.08
   6   9   7    7.51    0.39
   6   9   7    8.15    0.32
   6   9   7    8.05    0.37
   6   9   7    7.70    0.31
   6   9   7    8.31    0.43
   6   9   7    8.52    0.35
   7   9   7    2.18    0.15
   7   9   7    2.30    0.19
   7   9   7    2.03    0.14
   5   7  -8    0.36    0.19
  -5  -7   8    0.35    0.16
   4   7  -8   27.28    1.67
   4   7  -8   30.08    1.30
  -4  -7   8   24.90    1.14
   3   7  -8    8.69    0.53
   3   7  -8    7.75    0.70
  -3  -7   8    7.06    0.51
   2   7  -8    3.20    0.32
   2   7  -8    2.41    0.39
  -2  -7   8    2.52    0.32
   1   7  -8    8.53    0.72
   1   7  -8   10.54    0.52
   1   7  -8    9.57    0.52
  -1  -7   8    8.60    0.58
   0   7  -8   -0.07    0.16
   0   7  -8    0.48    0.25
   0   7  -8    0.17    0.15
   0  -7   8   -0.20    0.18
  -1   7  -8    5.21    0.31
  -1   7  -8    5.14    0.33
   6   6  -8    9.75    0.66
  -6  -6   8    9.11    0.47
   5   6  -8   16.55    1.27
   5   6  -8   19.48    1.06
  -5  -6   8   18.17    0.82
   4   6  -8    0.97    0.51
   4   6  -8    0.79    0.37
   4   6  -8    0.48    0.42
  -4  -6   8    0.79    0.22
   3   6  -8   56.14    3.14
   3   6  -8   55.23    2.48
   3   6  -8   51.39    3.53
  -3  -6   8   50.18    2.11
  -3  -6   8   51.22    2.24
   2   6  -8    1.52    0.32
   2   6  -8    1.01    0.50
   2   6  -8    1.76    0.48
  -2  -6   8    1.58    0.28
   1   6  -8   30.60    1.90
   1   6  -8   27.41    2.11
   1   6  -8   29.66    1.45
  -1  -6   8   30.59    1.37
   0   6  -8   25.94    1.16
   0   6  -8   25.46    1.20
   0   6  -8   23.22    1.12
   0   6  -8   26.60    1.62
   0   6  -8   22.30    1.78
   0   6  -8   24.19    0.92
   0  -6   8   26.01    1.18
  -1   6  -8    1.78    0.25
  -1   6  -8    1.98    0.16
  -1   6  -8    1.67    0.37
  -1   6  -8    2.02    0.26
   1  -6   8    1.72    0.30
  -2   6  -8   33.56    1.44
  -2   6  -8   34.65    1.34
  -2   6  -8   28.14    1.85
  -2   6  -8   31.79    1.15
  -3   6  -8    8.83    0.49
  -3   6  -8   10.04    0.46
   6   5  -8   23.43    1.58
  -6  -5   8   22.74    0.97
   5   5  -8   18.35    1.49
   5   5  -8   17.66    1.66
  -5  -5   8   20.87    0.88
   4   5  -8   10.82    1.14
   4   5  -8    9.96    1.22
  -4  -5   8    8.87    0.53
   3   5  -8   25.91    1.79
   3   5  -8   24.60    1.98
  -3  -5   8   22.30    1.03
  -3  -5   8   23.46    1.09
   2   5  -8    1.83    0.56
   2   5  -8    1.78    0.62
   2   5  -8    1.84    0.41
  -2  -5   8    1.61    0.24
  -2  -5   8    1.92    0.27
   1   5  -8   10.88    0.83
   1   5  -8   12.07    1.10
   1   5  -8   12.04    1.20
  -1  -5   8   11.17    0.65
   0   5  -8   20.98    1.48
   0   5  -8   20.25    1.63
   0   5  -8   19.62    1.14
   0  -5   8   21.34    1.01
  -1   5  -8    0.70    0.27
  -1   5  -8    0.77    0.42
  -1   5  -8    0.66    0.12
  -1   5  -8    0.73    0.21
  -1   5  -8    0.56    0.19
  -1   5  -8    0.85    0.38
   1  -5   8    0.44    0.24
  -2   5  -8   29.50    1.92
  -2   5  -8   29.82    1.37
  -2   5  -8   32.66    1.14
  -2   5  -8   32.28    1.33
  -2   5  -8   33.18    1.44
  -2   5  -8   32.44    1.47
   2  -5   8   29.92    1.44
  -3   5  -8    0.29    0.19
  -3   5  -8    0.34    0.19
  -3   5  -8    0.41    0.19
  -3   5  -8    0.29    0.11
  -4   5  -8    5.45    0.39
  -4   5  -8    5.73    0.37
  -7  -4   8   14.40    0.77
   6   4  -8    1.67    0.59
  -6  -4   8    1.62    0.21
   5   4  -8   47.15    2.83
   5   4  -8   42.22    3.16
  -5  -4   8   41.70    1.75
   4   4  -8   11.83    1.47
   4   4  -8   12.09    1.34
  -4  -4   8   13.04    0.63
   3   4  -8   13.08    1.45
   3   4  -8   12.55    1.32
  -3  -4   8   11.92    0.61
   2   4  -8   13.74    1.42
   2   4  -8   13.46    1.30
   2   4  -8   13.43    1.05
  -2  -4   8   14.00    0.70
  -2  -4   8   13.85    0.66
   1   4  -8    4.45    0.49
   1   4  -8    4.77    0.78
   1   4  -8    4.05    0.79
  -1  -4   8    4.37    0.38
   0   4  -8   58.59    3.77
   0   4  -8   59.58    4.08
   0   4  -8   58.11    3.61
   0   4  -8   63.90    2.44
   0   4  -8   62.21    2.93
   0  -4   8   67.49    2.62
  -1   4  -8   25.07    0.96
  -1   4  -8   26.29    1.19
  -1   4  -8   26.16    1.12
   1  -4   8   26.31    1.20
  -2   4  -8    8.00    0.48
  -2   4  -8    7.38    0.66
  -2   4  -8    7.27    0.46
  -2   4  -8    7.07    0.33
   2  -4   8    6.78    0.50
  -3   4  -8   50.50    2.04
  -3   4  -8   51.29    1.78
  -3   4  -8   50.06    2.30
  -3   4  -8   49.06    2.20
  -4   4  -8    0.72    0.23
  -4   4  -8    0.88    0.23
  -4   4  -8    0.92    0.21
  -4   4  -8    0.67    0.17
  -5   4  -8   18.70    0.85
  -5   4  -8   17.33    0.84
   5  -4   8   19.62    0.98
  -7  -3   8    7.95    0.50
   6   3  -8    0.66    0.75
   6   3  -8    0.91    0.61
  -6  -3   8    0.71    0.17
  -6  -3   8    0.61    0.26
   5   3  -8   37.12    2.46
   5   3  -8   33.56    2.72
  -5  -3   8   32.57    1.40
   4   3  -8   25.50    1.97
   4   3  -8   23.62    2.14
  -4  -3   8   23.30    1.02
   3   3  -8   39.56    2.96
   3   3  -8   44.26    2.70
   3   3  -8   35.83    2.65
  -3  -3   8   34.73    3.09
  -3  -3   8   43.81    1.63
   2   3  -8  104.06    6.73
   2   3  -8  102.68    6.27
  -2  -3   8  114.67    4.23
  -2  -3   8  115.41    4.49
   1   3  -8    7.27    0.71
  -1  -3   8    7.84    0.45
   0   3  -8  126.87    7.92
   0  -3   8  134.37    5.34
  -1   3  -8   18.91    1.30
  -1   3  -8   18.16    0.86
   1  -3   8   19.06    0.89
  -2   3  -8   22.83    1.04
  -2   3  -8   23.39    1.35
  -2   3  -8   22.74    1.00
  -2   3  -8   21.61    1.44
   2  -3   8   21.45    1.04
  -3   3  -8   54.02    2.32
  -3   3  -8   54.02    2.58
  -3   3  -8   52.43    2.15
  -4   3  -8    1.48    0.23
  -4   3  -8    1.52    0.27
  -4   3  -8    1.37    0.20
  -4   3  -8    1.12    0.30
  -5   3  -8   24.46    1.13
  -5   3  -8   24.69    1.09
  -5   3  -8   21.73    1.00
  -6   3  -8   13.17    0.65
  -6   3  -8   11.18    0.64
  -6   3  -8   12.90    0.59
   6  -3   8   13.23    0.74
  -7  -2   8   12.71    0.62
  -7  -2   8   11.69    0.69
   6   2  -8    2.30    0.72
  -6  -2   8    1.42    0.33
  -6  -2   8    1.09    0.24
   5   2  -8    2.39    0.85
  -5  -2   8    3.12    0.30
  -5  -2   8    2.42    0.34
   4   2  -8   25.17    2.03
  -4  -2   8   25.34    1.06
  -4  -2   8   23.25    1.93
  -3  -2   8    0.60    0.17
  -3  -2   8    0.26    0.53
  -2  -2   8   60.05    4.19
   1   2  -8   24.96    1.73
  -1  -2   8   23.33    2.18
   0   2  -8    5.40    0.60
  -1   2  -8   87.00    5.51
   1  -2   8   91.66    3.68
  -2   2  -8    9.63    0.80
   2  -2   8    8.74    0.51
  -3   2  -8   28.07    1.86
  -3   2  -8   27.63    1.16
  -3   2  -8   28.51    1.27
  -3   2  -8   29.11    1.22
   3  -2   8   27.39    1.27
  -4   2  -8   30.42    1.32
  -4   2  -8   30.72    1.29
  -4   2  -8   30.13    1.64
  -4   2  -8   29.35    1.24
  -4   2  -8   30.21    1.37
  -5   2  -8    2.24    0.38
  -5   2  -8    2.03    0.30
  -5   2  -8    1.80    0.23
  -5   2  -8    2.16    0.26
  -6   2  -8   39.67    1.60
  -6   2  -8   38.35    1.70
  -6   2  -8   32.79    1.51
  -6   2  -8   35.36    1.49
   6  -2   8   37.98    1.73
  -7   2  -8   11.49    0.59
  -7   2  -8   11.66    0.56
   7  -2   8   11.51    0.69
  -7  -1   8   28.20    1.35
  -6  -1   8    9.61    0.56
  -6  -1   8    9.61    0.68
  -5  -1   8    6.38    0.58
  -5  -1   8    6.36    0.49
  -5  -1   8    6.39    0.41
  -4  -1   8   53.01    2.44
  -4  -1   8   57.09    2.20
  -4  -1   8   56.12    2.12
  -4  -1   8   50.97    2.50
  -4  -1   8   48.13    3.28
  -3  -1   8    2.63    0.57
   2   1  -8   61.40    3.33
  -2  -1   8   61.32    4.05
   1   1  -8   29.36    1.65
  -1  -1   8   28.63    2.21
   0  -1   8    8.66    1.15
  -1   1  -8  104.73    6.13
   1  -1   8   92.17    6.42
  -2   1  -8   19.72    1.45
  -3   1  -8   34.89    2.29
   3  -1   8   33.01    1.49
  -4   1  -8   47.84    3.11
  -4   1  -8   50.12    2.31
  -4   1  -8   47.89    1.99
  -4   1  -8   48.93    2.11
  -4   1  -8   47.73    1.98
  -4   1  -8   48.11    1.91
  -5   1  -8   15.50    0.83
  -5   1  -8   15.13    0.83
  -5   1  -8   15.52    0.74
  -5   1  -8   13.48    1.07
  -5   1  -8   16.16    0.73
  -6   1  -8  117.52    4.65
  -6   1  -8  121.12    4.53
  -6   1  -8  117.52    4.71
  -6   1  -8  123.74    5.33
  -6   1  -8  114.96    5.49
   6  -1   8  121.85    5.12
  -7   1  -8   13.64    0.68
  -7   1  -8   15.81    0.78
  -7   1  -8   13.78    0.69
  -7   1  -8   11.86    0.73
   7  -1   8   14.94    0.83
  -7   0   8    0.62    0.18
  -6   0   8    5.81    0.43
  -6   0   8    7.15    0.47
  -6   0   8    6.85    0.36
  -6   0   8    6.21    0.54
  -5   0   8    8.75    0.53
  -5   0   8    8.86    0.56
  -5   0   8    8.14    0.66
  -5   0   8    9.56    0.62
  -5   0   8    8.41    0.46
  -4   0   8    5.63    0.45
  -4   0   8    5.64    0.41
  -4   0   8    5.98    0.57
  -4   0   8    6.27    0.54
  -4   0   8    5.56    0.41
  -3   0   8   20.14    1.09
  -3   0   8   20.10    0.84
  -3   0   8   19.73    0.99
  -3   0   8   18.34    0.81
  -3   0   8   17.88    1.75
  -3   0   8   19.84    0.91
  -3   0   8   20.15    1.01
   2   0  -8    0.46    0.26
  -2   0   8    0.34    0.44
  -2   0   8    0.51    0.29
   1   0  -8   27.54    1.60
  -1   0   8   27.89    1.96
  -1   0   8   26.69    1.30
  -1   0   8   28.21    2.13
   0   0  -8    2.26    0.33
   0   0   8    2.17    0.54
   1   0   8   14.39    1.33
  -2   0  -8   24.74    1.20
  -2   0  -8   24.71    1.78
   2   0   8   22.52    1.96
  -3   0  -8    2.56    0.27
  -3   0  -8    3.28    0.59
   3   0   8    3.00    0.84
  -4   0  -8   20.76    1.65
  -4   0  -8   22.38    0.95
  -4   0  -8   22.49    1.12
  -5   0  -8    7.49    0.47
  -5   0  -8    8.58    0.61
  -5   0  -8    8.38    0.48
  -5   0  -8    7.63    0.84
  -5   0  -8    8.17    0.53
   5   0   8    8.42    0.58
  -6   0  -8   19.44    1.03
  -6   0  -8   18.62    0.99
  -6   0  -8   20.07    0.91
  -6   0  -8   18.96    0.89
   6   0   8   19.20    1.04
  -7   0  -8   11.46    0.79
  -7   0  -8   11.38    0.61
  -7   0  -8   11.33    0.60
  -7   0  -8    9.92    0.65
   7   0   8   10.11    0.72
  -8   0  -8    0.92    0.20
  -8   0  -8    0.48    0.18
  -8   0  -8    0.49    0.18
   8   0   8    0.70    0.25
  -6   1   8   41.30    1.60
  -6   1   8   47.84    1.87
  -6   1   8   47.44    1.87
  -6   1   8   49.83    1.83
  -6   1   8   44.76    2.16
  -6   1   8   47.42    1.64
  -6   1   8   46.07    1.79
  -5   1   8    4.92    0.38
  -5   1   8    5.39    0.44
  -5   1   8    4.66    0.31
  -5   1   8    5.27    0.41
  -5   1   8    5.19    0.51
  -5   1   8    4.89    0.31
  -5   1   8    5.63    0.45
  -5   1   8    5.26    0.57
  -5   1   8    4.97    0.39
  -5   1   8    4.92    0.44
  -4   1   8  144.13    5.90
  -4   1   8  161.20    6.99
  -4   1   8  159.66    6.13
  -4   1   8  151.46    5.24
  -4   1   8  148.70    5.10
  -4   1   8  148.52    6.54
  -4   1   8  147.59    6.76
  -4   1   8  147.99    5.76
  -4   1   8  151.24    5.94
  -4   1   8  149.48    5.69
  -3   1   8   35.60    1.60
  -3   1   8   36.42    1.68
  -3   1   8   36.82    1.33
  -3   1   8   39.45    1.53
  -3   1   8   34.13    2.63
  -3   1   8   35.75    1.81
  -3   1   8   38.54    1.61
  -3   1   8   34.87    1.56
  -3   1   8   36.19    1.35
  -3   1   8   36.12    1.86
  -3   1   8   37.55    1.53
  -3   1   8   35.73    1.56
   2  -1  -8    9.69    0.79
  -2   1   8    8.93    1.04
  -2   1   8    9.37    0.55
  -2   1   8    8.81    0.56
  -2   1   8    9.55    0.70
  -2   1   8    9.79    0.46
   1  -1  -8  194.19   10.57
  -1   1   8  190.99    8.37
  -1   1   8  207.96    9.28
  -1   1   8  213.78   12.16
  -1   1   8  208.02    8.16
   0  -1  -8   40.49    2.27
   0   1   8   42.51    2.72
   0   1   8   37.21    2.58
   0   1   8   38.75    1.76
   0   1   8   41.31    1.72
  -1  -1  -8  120.54    6.29
   1   1   8  118.63    4.99
   1   1   8  106.11    7.32
   1   1   8  133.07    7.35
   2   1   8  109.70    5.11
  -3  -1  -8    0.98    0.18
   3   1   8    1.25    0.54
  -4  -1  -8   58.34    4.13
  -4  -1  -8   66.61    2.94
   4   1   8   66.85    2.67
   4   1   8   55.92    4.18
  -5  -1  -8   45.21    3.31
  -5  -1  -8   51.00    2.02
  -5  -1  -8   51.69    2.35
  -5  -1  -8   49.24    1.95
   5   1   8   50.37    2.20
   5   1   8   42.35    3.47
  -6  -1  -8   31.63    1.37
  -6  -1  -8   33.20    1.62
  -6  -1  -8   32.03    1.41
   6   1   8   32.22    1.55
  -7  -1  -8   33.83    1.41
  -7  -1  -8   33.94    1.66
  -7  -1  -8   32.36    1.44
   7   1   8   32.11    1.60
  -8  -1  -8    0.79    0.28
  -8  -1  -8    0.76    0.21
  -8  -1  -8    0.70    0.21
  -8  -1  -8    0.47    0.19
   8   1   8    1.20    0.28
  -6   2   8    0.61    0.14
  -6   2   8    0.88    0.15
  -6   2   8    0.55    0.18
  -6   2   8    0.70    0.12
  -6   2   8    0.70    0.17
  -6   2   8    0.83    0.10
  -5   2   8    6.81    0.54
  -5   2   8    7.06    0.33
  -5   2   8    6.90    0.33
  -5   2   8    6.22    0.57
  -5   2   8    7.03    0.44
  -5   2   8    7.21    0.41
  -5   2   8    7.69    0.48
  -5   2   8    7.27    0.45
  -5   2   8    6.45    0.40
  -4   2   8    2.32    0.24
  -4   2   8    2.53    0.28
  -4   2   8    2.45    0.26
  -4   2   8    2.73    0.36
  -4   2   8    2.54    0.22
  -4   2   8    2.86    0.23
  -4   2   8    2.64    0.29
  -4   2   8    2.43    0.36
  -4   2   8    1.91    0.24
  -4   2   8    2.02    0.29
  -3   2   8   25.29    1.37
  -3   2   8   25.11    0.95
  -3   2   8   25.06    1.16
  -3   2   8   26.67    1.17
  -3   2   8   25.56    1.13
  -3   2   8   25.05    1.12
  -3   2   8   24.70    1.91
  -3   2   8   25.30    1.35
  -3   2   8   25.49    1.12
  -3   2   8   25.25    1.14
  -3   2   8   25.96    0.95
  -3   2   8   25.37    1.16
  -2   2   8    2.74    0.24
  -2   2   8    3.42    0.34
  -2   2   8    2.67    0.28
  -2   2   8    2.57    0.54
  -2   2   8    2.89    0.37
  -2   2   8    2.24    0.26
   1  -2  -8    0.08    0.28
  -1   2   8    0.92    0.17
  -1   2   8    0.37    0.30
  -1   2   8    1.32    0.27
  -1   2   8    0.77    0.13
  -1   2   8    0.38    0.14
   0  -2  -8   89.25    5.10
   0   2   8   96.84    3.84
   0   2   8   98.65    5.79
   0   2   8   96.89    4.41
   0   2   8   90.87    3.94
   1   2   8   22.86    1.52
   1   2   8   25.19    1.69
   1   2   8   22.36    1.23
   1   2   8   21.79    1.06
   1   2   8   24.10    1.04
   2   2   8    7.01    0.75
   2   2   8    9.49    0.51
   2   2   8    7.10    0.60
   3   2   8   16.44    0.80
   3   2   8   13.45    1.25
   4   2   8    6.18    0.92
  -5  -2  -8    5.77    0.48
  -5  -2  -8    6.01    0.44
  -5  -2  -8    6.01    0.44
   5   2   8    5.78    0.50
   5   2   8    6.13    0.96
  -6  -2  -8    5.39    0.43
  -6  -2  -8    5.74    0.47
  -6  -2  -8    5.40    0.43
   6   2   8    5.30    0.52
  -7  -2  -8   17.69    0.85
  -7  -2  -8   16.49    0.82
   7   2   8   16.30    0.98
  -8  -2  -8    3.37    0.40
  -8  -2  -8    3.33    0.33
  -8  -2  -8    3.93    0.36
   8   2   8    3.09    0.38
  -5   3   8   23.43    0.92
  -5   3   8   21.62    0.80
  -5   3   8   22.23    1.13
  -5   3   8   22.41    0.92
  -5   3   8   19.23    0.97
  -5   3   8   23.20    1.12
  -5   3   8   22.57    0.81
  -5   3   8   23.31    0.93
  -5   3   8   22.66    0.97
  -4   3   8    1.76    0.30
  -4   3   8    2.10    0.21
  -4   3   8    2.05    0.22
  -4   3   8    2.14    0.26
  -4   3   8    2.32    0.18
  -4   3   8    2.08    0.26
  -4   3   8    2.09    0.17
  -4   3   8    2.04    0.28
  -4   3   8    2.08    0.33
  -3   3   8   74.12    2.70
  -3   3   8   78.67    2.99
  -3   3   8   81.51    3.17
  -3   3   8   74.28    3.11
  -3   3   8   75.10    3.05
  -3   3   8   79.05    2.64
  -3   3   8   81.94    3.67
  -3   3   8   74.04    3.55
  -3   3   8   76.88    3.01
  -2   3   8   10.90    0.47
  -2   3   8   11.79    0.63
  -2   3   8   10.52    0.46
  -2   3   8   11.79    0.62
  -2   3   8    9.84    0.96
  -2   3   8   11.42    0.64
  -2   3   8   13.03    0.65
  -2   3   8   10.29    0.73
  -2   3   8   11.41    0.57
  -2   3   8   12.14    0.55
  -2   3   8   11.08    0.75
  -2   3   8   11.27    0.56
  -1   3   8   69.52    2.90
  -1   3   8   65.61    4.29
  -1   3   8   70.81    2.85
  -1   3   8   72.06    2.37
  -1   3   8   69.46    3.29
   0  -3  -8  106.89    6.29
   0   3   8  121.47    5.44
   0   3   8  119.56    4.74
   0   3   8  121.49    3.96
   0   3   8  117.31    7.05
   0   3   8  118.32    4.86
   1   3   8    4.79    0.30
   1   3   8    4.59    0.43
   1   3   8    4.51    0.55
   1   3   8    3.95    0.31
   2   3   8  133.38    6.24
   2   3   8  139.09    5.45
   2   3   8  139.66    8.11
   2   3   8  129.01    5.59
  -3  -3  -8   79.41    3.98
   3   3   8   73.25    3.13
   3   3   8   68.46    3.52
   3   3   8   80.43    3.06
   3   3   8   69.45    4.57
   4   3   8   36.27    1.56
   4   3   8   31.33    2.36
   4   3   8   35.56    1.57
  -5  -3  -8   94.70    4.20
  -5  -3  -8   85.49    3.43
  -5  -3  -8   91.54    3.59
   5   3   8   87.42    3.89
   5   3   8   91.18    3.75
   5   3   8   85.13    5.68
  -6  -3  -8    4.31    0.41
  -6  -3  -8    5.33    0.47
  -6  -3  -8    4.79    0.41
   6   3   8    4.32    0.47
  -7  -3  -8   55.71    2.35
  -7  -3  -8   61.89    2.76
   7   3   8   52.55    2.56
  -8  -3  -8   34.14    1.76
  -8  -3  -8   36.17    1.51
   8   3   8   35.23    1.65
   9   3   8    2.35    0.26
  -5   4   8    0.38    0.07
  -5   4   8    0.44    0.12
  -5   4   8    0.35    0.13
  -5   4   8    0.33    0.12
  -4   4   8    9.07    0.58
  -4   4   8    9.17    0.37
  -4   4   8    8.94    0.59
  -4   4   8    9.59    0.52
  -4   4   8    9.87    0.42
  -4   4   8    9.00    0.44
  -4   4   8    9.65    0.49
  -4   4   8    9.58    0.49
  -4   4   8    8.92    0.37
  -3   4   8   16.98    0.67
  -3   4   8   18.78    1.01
  -3   4   8   16.74    0.80
  -3   4   8   18.05    0.77
  -3   4   8   17.84    0.80
  -3   4   8   18.61    0.67
  -3   4   8   18.97    0.99
  -3   4   8   17.91    0.85
  -3   4   8   18.10    0.81
  -2   4   8    2.36    0.33
  -2   4   8    2.58    0.27
  -2   4   8    2.50    0.26
  -2   4   8    2.35    0.21
  -2   4   8    2.37    0.18
  -2   4   8    2.29    0.31
  -2   4   8    2.09    0.17
  -2   4   8    2.19    0.20
  -2   4   8    2.09    0.27
  -1   4   8    9.54    0.69
  -1   4   8   10.93    0.52
  -1   4   8   11.25    0.58
  -1   4   8   10.87    0.43
  -1   4   8   11.07    0.61
  -1   4   8   10.83    0.69
  -1   4   8   11.21    0.50
  -1   4   8   10.17    0.84
  -1   4   8   11.20    0.58
  -1   4   8   11.54    0.59
   0   4   8    1.50    0.31
   0   4   8    2.01    0.28
   0   4   8    2.14    0.25
   0   4   8    1.80    0.15
   0   4   8    1.82    0.15
   0   4   8    1.71    0.17
   1   4   8   19.43    0.83
   1   4   8   19.06    0.69
   1   4   8   19.23    0.92
   1   4   8   18.97    1.32
   1   4   8   18.80    1.02
   1   4   8   18.34    0.84
   2   4   8   11.06    0.69
   2   4   8   11.07    0.62
   2   4   8   10.57    0.52
   2   4   8   10.84    0.44
   2   4   8   10.27    0.53
  -3  -4  -8   43.04    2.46
   3   4   8   45.53    1.55
   3   4   8   45.18    1.93
   3   4   8   44.74    1.85
   3   4   8   41.47    1.89
   3   4   8   44.93    2.17
  -4  -4  -8   47.29    2.60
   4   4   8   44.70    1.98
   4   4   8   46.25    1.94
   4   4   8   45.69    1.62
   4   4   8   45.38    1.99
  -5  -4  -8   12.43    0.66
  -5  -4  -8   13.37    0.75
   5   4   8   11.23    0.76
   5   4   8   13.30    0.65
   5   4   8   10.73    0.53
   5   4   8   12.62    0.71
   5   4   8   10.42    0.79
   5   4   8    9.20    0.96
   5   4   8   11.42    0.64
  -6  -4  -8   46.38    2.12
  -6  -4  -8   42.02    1.79
   6   4   8   39.41    1.98
   6   4   8   42.13    1.99
  -7  -4  -8    5.91    0.44
  -7  -4  -8    6.93    0.53
  -7  -4  -8    6.99    0.50
   7   4   8    6.31    0.56
  -8  -4  -8    3.68    0.34
  -8  -4  -8    3.53    0.38
   8   4   8    2.80    0.36
   9   4   8   26.72    1.21
  -4   5   8   10.20    0.49
  -4   5   8   10.53    0.47
  -4   5   8   10.42    0.38
  -4   5   8   10.36    0.47
  -4   5   8   10.60    0.39
  -3   5   8   21.68    0.94
  -3   5   8   21.78    1.06
  -3   5   8   21.71    0.90
  -3   5   8   21.72    0.75
  -3   5   8   20.66    0.89
  -3   5   8   21.15    0.89
  -3   5   8   21.07    0.77
  -3   5   8   20.93    1.09
  -2   5   8   59.75    2.34
  -2   5   8   59.62    2.44
  -2   5   8   58.48    2.33
  -2   5   8   61.19    2.33
  -2   5   8   62.24    2.04
  -2   5   8   61.12    2.76
  -2   5   8   58.50    2.43
  -2   5   8   61.06    2.85
  -1   5   8   10.45    0.64
  -1   5   8   10.16    0.56
  -1   5   8   10.27    0.53
  -1   5   8   10.51    0.45
  -1   5   8   10.19    0.40
  -1   5   8   10.02    0.63
  -1   5   8   10.81    0.48
   0   5   8   51.16    1.93
   0   5   8   47.71    1.88
   0   5   8   48.52    2.24
   0   5   8   49.42    1.96
   0   5   8   47.19    2.30
   0   5   8   47.96    1.89
   0   5   8   45.65    1.97
   0   5   8   47.08    1.64
   1   5   8   23.59    0.85
   1   5   8   22.79    1.23
   1   5   8   24.18    0.98
   1   5   8   24.77    1.09
   1   5   8   25.23    1.20
   1   5   8   23.06    1.06
   1   5   8   24.03    1.03
   1   5   8   24.05    1.02
  -2  -5  -8   25.71    1.57
   2   5   8   27.03    1.09
   2   5   8   26.54    1.13
   2   5   8   26.31    1.31
   2   5   8   26.66    0.94
   2   5   8   27.10    1.13
   2   5   8   26.31    1.12
   2   5   8   27.58    1.21
   2   5   8   26.16    1.35
  -3  -5  -8   64.85    3.69
   3   5   8   67.33    2.88
   3   5   8   72.94    3.16
   3   5   8   70.77    3.26
   3   5   8   69.79    2.42
   3   5   8   71.76    2.35
   3   5   8   65.15    3.00
   3   5   8   69.73    2.81
   3   5   8   68.76    2.71
   3   5   8   71.06    2.91
   3   5   8   67.53    2.71
  -4  -5  -8   10.97    0.67
   4   5   8   11.87    0.73
   4   5   8   11.31    0.57
   4   5   8   11.26    0.57
   4   5   8   11.37    0.56
   4   5   8   11.70    0.48
   4   5   8   11.56    0.50
   4   5   8   10.90    0.61
   4   5   8   10.87    0.59
   4   5   8   11.11    0.55
  -5  -5  -8   42.97    2.12
   5   5   8   41.69    2.01
   5   5   8   43.05    1.99
   5   5   8   43.46    1.79
   5   5   8   46.22    1.87
   5   5   8   43.65    1.55
   5   5   8   44.18    2.11
   5   5   8   45.87    1.91
   5   5   8   44.23    1.59
   5   5   8   42.93    1.90
  -6  -5  -8   80.80    3.66
   6   5   8   73.82    3.41
   6   5   8   76.30    3.46
   6   5   8   76.71    3.59
   6   5   8   76.45    3.24
   6   5   8   83.61    3.31
  -7  -5  -8    0.19    0.19
  -7  -5  -8    0.53    0.18
   7   5   8    0.42    0.24
   7   5   8    0.43    0.18
  -8  -5  -8   61.05    2.76
   8   5   8   60.70    2.71
   8   5   8   60.67    2.66
  -9  -5  -8   23.62    1.20
   9   5   8   27.38    1.17
   9   5   8   27.53    1.20
  -3   6   8    6.85    0.26
  -3   6   8    6.69    0.35
  -3   6   8    6.48    0.34
  -3   6   8    6.42    0.34
  -2   6   8    0.91    0.18
  -2   6   8    0.94    0.08
  -2   6   8    0.83    0.18
  -2   6   8    1.21    0.18
  -2   6   8    1.03    0.17
  -1   6   8    8.60    0.32
  -1   6   8    8.60    0.45
  -1   6   8    8.34    0.53
  -1   6   8    8.46    0.46
  -1   6   8    8.95    0.54
   0   6   8    3.18    0.31
   0   6   8    3.34    0.18
   0   6   8    3.21    0.16
   0   6   8    3.27    0.27
   0   6   8    3.02    0.32
   0   6   8    2.70    0.32
   1   6   8    8.02    0.36
   1   6   8    8.05    0.44
   1   6   8    7.89    0.51
   1   6   8    8.50    0.32
   1   6   8    7.74    0.52
   1   6   8    8.25    0.38
   2   6   8   10.89    0.49
   2   6   8   11.10    0.57
   2   6   8   10.48    0.63
   2   6   8   10.66    0.41
   2   6   8   11.09    0.54
   2   6   8   10.64    0.65
   2   6   8   10.84    0.47
   3   6   8    1.13    0.11
   3   6   8    1.01    0.16
   3   6   8    1.02    0.21
   3   6   8    1.23    0.14
   3   6   8    1.10    0.19
   3   6   8    0.84    0.11
   3   6   8    1.00    0.13
   4   6   8    7.94    0.40
   4   6   8    7.50    0.35
   4   6   8    7.48    0.43
   4   6   8    7.78    0.54
   4   6   8    7.61    0.46
   4   6   8    7.74    0.41
   4   6   8    7.59    0.39
   4   6   8    7.91    0.34
   5   6   8   22.92    0.84
   5   6   8   22.16    0.98
   5   6   8   21.21    1.04
   5   6   8   23.06    1.13
   5   6   8   23.63    1.03
   5   6   8   22.69    0.86
   5   6   8   22.51    1.05
   5   6   8   23.12    1.18
   5   6   8   24.25    1.01
   5   6   8   21.86    0.97
   6   6   8    2.07    0.22
   6   6   8    2.40    0.24
   6   6   8    2.52    0.20
   6   6   8    1.84    0.30
   6   6   8    2.64    0.35
   6   6   8    2.16    0.22
   6   6   8    1.75    0.22
  -7  -6  -8   13.60    0.71
   7   6   8   12.28    0.71
   7   6   8   13.10    0.66
   7   6   8   11.85    0.63
  -8  -6  -8    0.93    0.17
   8   6   8    0.92    0.21
   8   6   8    1.07    0.16
  -9  -6  -8    5.29    0.34
   9   6   8    6.25    0.32
   9   6   8    5.92    0.34
   0   7   8    7.71    0.47
   1   7   8   93.75    3.18
   1   7   8   94.29    4.25
   1   7   8   95.78    3.80
   1   7   8   98.07    3.67
   2   7   8   46.36    1.91
   2   7   8   44.52    1.79
   2   7   8   44.23    1.52
   2   7   8   45.11    1.74
   2   7   8   43.43    2.07
   2   7   8   46.05    1.82
   3   7   8   24.99    0.89
   3   7   8   25.44    1.06
   3   7   8   25.39    1.02
   3   7   8   26.17    1.06
   3   7   8   24.53    1.23
   3   7   8   25.50    1.13
   3   7   8   25.20    0.91
   4   7   8   76.60    3.16
   4   7   8   77.03    2.96
   4   7   8   75.59    3.43
   4   7   8   78.82    3.08
   4   7   8   73.59    2.64
   4   7   8   73.52    2.96
   4   7   8   77.53    2.57
   5   7   8    1.23    0.18
   5   7   8    1.37    0.16
   5   7   8    1.35    0.18
   5   7   8    1.29    0.14
   5   7   8    1.29    0.23
   5   7   8    1.12    0.21
   5   7   8    1.49    0.14
   5   7   8    1.22    0.15
   5   7   8    1.26    0.13
   6   7   8   52.60    2.25
   6   7   8   55.97    1.85
   6   7   8   51.97    2.22
   6   7   8   51.55    2.26
   6   7   8   55.49    2.12
   6   7   8   55.70    1.90
   6   7   8   54.67    2.48
   6   7   8   52.85    2.35
   6   7   8   54.07    2.13
  -7  -7  -8   38.70    1.73
   7   7   8   37.63    1.67
   7   7   8   37.09    1.51
   7   7   8   36.68    1.64
  -8  -7  -8    6.40    0.37
   8   7   8    5.86    0.38
   2   8   8    2.66    0.13
   2   8   8    2.95    0.23
   2   8   8    2.37    0.20
   3   8   8    8.66    0.40
   3   8   8    9.14    0.44
   3   8   8    9.43    0.47
   3   8   8    8.93    0.51
   3   8   8    9.28    0.37
   3   8   8    8.54    0.35
   3   8   8    9.16    0.34
   4   8   8    1.28    0.15
   4   8   8    1.39    0.14
   4   8   8    1.16    0.19
   4   8   8    1.65    0.13
   4   8   8    1.68    0.19
   4   8   8    1.20    0.11
   4   8   8    1.51    0.12
   5   8   8    8.51    0.42
   5   8   8    8.27    0.44
   5   8   8    8.07    0.34
   5   8   8    8.43    0.47
   5   8   8    7.87    0.40
   5   8   8    8.66    0.34
   5   8   8    8.78    0.38
   5   8   8    8.64    0.50
   6   8   8    1.88    0.19
   6   8   8    2.04    0.15
   6   8   8    2.07    0.17
   6   8   8    2.08    0.22
   6   8   8    1.87    0.15
   6   8   8    2.45    0.27
   6   8   8    2.15    0.19
   6   8   8    1.94    0.17
  -7  -8  -8    3.11    0.22
   7   8   8    2.41    0.18
   7   8   8    2.91    0.24
   7   8   8    2.62    0.18
   7   8   8    2.25    0.19
  -8  -8  -8    9.72    0.47
   8   8   8    9.27    0.46
   3   9   8    3.83    0.22
   3   9   8    3.83    0.15
   3   9   8    3.51    0.16
   3   9   8    3.49    0.22
   4   9   8   45.70    1.75
   4   9   8   44.66    1.51
   4   9   8   45.15    1.56
   4   9   8   44.38    1.86
   5   9   8   34.81    1.49
   5   9   8   37.58    1.38
   5   9   8   34.79    1.40
   5   9   8   35.97    1.25
   5   9   8   35.36    1.21
  -6  -9  -8   16.95    0.84
   6   9   8   19.29    0.66
   6   9   8   19.16    0.73
   6   9   8   17.94    0.74
   6   9   8   17.98    0.79
   6   9   8   18.60    0.81
   7   9   8   34.44    1.34
   4   7  -9    7.71    0.45
   3   7  -9   29.74    1.30
  -3  -7   9   27.92    1.29
  -2  -7   9    2.36    0.28
   1   7  -9   20.62    0.93
  -1  -7   9   20.99    0.97
   0   7  -9   16.12    0.71
   5   6  -9    2.12    0.34
  -5  -6   9    1.89    0.21
   4   6  -9    1.70    0.43
   4   6  -9    1.83    0.35
  -4  -6   9    1.88    0.23
   3   6  -9    4.93    0.67
   3   6  -9    4.54    0.46
  -3  -6   9    4.25    0.37
  -3  -6   9    3.66    0.38
   2   6  -9    1.81    0.43
   2   6  -9    1.91    0.34
  -2  -6   9    1.65    0.28
   1   6  -9    2.31    0.44
   1   6  -9    2.65    0.34
  -1  -6   9    2.64    0.32
   0   6  -9    0.62    0.29
   0   6  -9    0.76    0.22
   0  -6   9    0.39    0.23
  -1   6  -9    6.30    0.40
  -1   6  -9    6.61    0.42
   1  -6   9    5.47    0.43
  -2   6  -9    1.87    0.21
  -2   6  -9    1.55    0.20
  -6  -5   9    2.76    0.26
   5   5  -9   22.62    1.59
  -5  -5   9   23.55    0.99
   4   5  -9    3.04    0.64
  -4  -5   9    3.64    0.34
   3   5  -9   24.98    1.68
   3   5  -9   23.57    1.42
  -3  -5   9   21.68    0.99
  -3  -5   9   21.03    1.04
   2   5  -9   47.91    2.21
   2   5  -9   44.60    2.73
  -2  -5   9   45.50    1.92
  -2  -5   9   40.18    1.82
   1   5  -9   13.55    0.93
   1   5  -9   13.68    1.11
  -1  -5   9   12.75    0.72
   0   5  -9   13.87    0.89
   0  -5   9   13.54    0.74
  -1   5  -9    8.69    0.50
  -1   5  -9    8.79    0.50
  -1   5  -9    8.43    0.65
   1  -5   9    8.43    0.56
  -2   5  -9   26.29    1.15
  -2   5  -9   26.34    1.18
  -2   5  -9   23.61    1.07
   2  -5   9   23.30    1.16
  -3   5  -9   38.64    1.67
  -3   5  -9   41.62    1.77
  -3   5  -9   40.89    1.63
   4  -5   9    1.30    0.23
  -6  -4   9    2.80    0.27
   5   4  -9   19.40    1.57
  -5  -4   9   20.36    0.89
   4   4  -9    0.08    0.56
  -4  -4   9    0.12    0.17
   3   4  -9   12.94    1.30
  -3  -4   9   12.18    0.63
  -2  -4   9    5.32    0.40
  -2  -4   9    5.21    0.40
  -1  -4   9    8.31    0.52
   0   4  -9    8.48    0.52
   0  -4   9    9.56    0.56
  -1   4  -9   21.13    1.23
  -1   4  -9   21.12    0.94
   1  -4   9   20.82    1.01
  -2   4  -9   19.93    0.96
  -2   4  -9   19.79    0.93
  -2   4  -9   20.55    1.16
   2  -4   9   20.96    0.99
  -3   4  -9    6.09    0.44
  -3   4  -9    5.76    0.41
  -3   4  -9    5.29    0.50
  -4   4  -9    0.69    0.15
  -4   4  -9    0.44    0.20
  -5   4  -9    2.01    0.23
   5  -4   9    2.09    0.29
  -7  -3   9   14.13    0.68
  -6  -3   9    6.46    0.39
  -6  -3   9    6.55    0.51
   5   3  -9   25.86    1.96
  -5  -3   9   21.90    0.99
  -4  -3   9   54.08    2.16
  -3  -3   9   10.67    0.57
   2   3  -9  100.21    6.48
  -2  -3   9  112.74    4.32
  -2  -3   9   89.66    6.92
  -2  -3   9  113.23    4.06
   1   3  -9   94.54    3.57
   1   3  -9   88.34    5.73
  -1  -3   9   96.52    3.83
  -1  -3   9   90.94    3.59
   0   3  -9   12.36    1.01
   0   3  -9   12.47    0.65
   0  -3   9   12.99    0.67
  -1   3  -9  111.92    4.27
  -1   3  -9  107.15    6.75
   1  -3   9  114.37    4.58
  -2   3  -9    2.43    0.25
  -2   3  -9    2.02    0.27
  -2   3  -9    2.20    0.47
   2  -3   9    2.58    0.29
  -3   3  -9   58.56    2.29
  -3   3  -9   55.32    2.70
  -3   3  -9   58.57    2.46
   3  -3   9   54.92    2.44
  -4   3  -9    7.12    0.43
  -4   3  -9    7.74    0.62
  -4   3  -9    7.41    0.52
  -5   3  -9   16.86    0.82
  -5   3  -9   15.70    0.74
  -5   3  -9   17.43    0.84
   5  -3   9   16.99    0.90
  -6   3  -9   30.02    1.24
   6  -3   9   30.88    1.40
  -6  -2   9    0.75    0.20
  -5  -2   9   11.49    0.57
  -5  -2   9   11.03    0.72
  -4  -2   9   25.20    1.08
  -3  -2   9   -0.05    0.26
  -3  -2   9    0.35    0.52
  -3  -2   9    0.46    0.16
  -2  -2   9   29.22    1.21
  -2  -2   9   29.09    1.28
  -2  -2   9   27.49    2.33
   1   2  -9   23.52    1.78
  -1  -2   9   23.89    2.21
  -1  -2   9   25.28    1.11
   0   2  -9   22.08    1.67
   0  -2   9   23.86    1.06
  -1   2  -9   72.74    4.58
  -1   2  -9   71.85    2.86
   1  -2   9   73.94    3.04
  -2   2  -9    0.24    0.18
  -2   2  -9    0.05    0.28
   2  -2   9    0.25    0.16
  -3   2  -9   16.43    0.81
  -3   2  -9   16.99    0.76
  -3   2  -9   17.58    0.83
   3  -2   9   16.39    0.84
  -4   2  -9   39.57    1.62
  -4   2  -9   36.11    1.52
  -5   2  -9    8.00    0.55
  -5   2  -9    7.16    0.65
  -5   2  -9    6.70    0.43
  -5   2  -9    7.14    0.44
   5  -2   9    7.54    0.57
  -6   2  -9   23.23    1.07
  -6   2  -9   21.82    1.01
  -6   2  -9   23.93    1.00
  -6   2  -9   24.53    1.13
   6  -2   9   24.73    1.18
  -6  -1   9   14.07    0.83
  -6  -1   9   15.48    0.73
  -5  -1   9    1.99    0.36
  -5  -1   9    1.63    0.23
  -5  -1   9    1.68    0.33
  -5  -1   9    2.31    0.38
  -5  -1   9    1.39    0.26
  -4  -1   9   13.33    0.66
  -4  -1   9   14.26    0.80
  -4  -1   9   12.73    0.79
  -3  -1   9   25.16    1.17
  -3  -1   9   23.24    1.75
  -3  -1   9   25.49    1.06
  -3  -1   9   23.29    1.27
  -2  -1   9   18.76    1.60
  -2  -1   9   19.67    0.86
  -1  -1   9   51.24    2.09
  -1  -1   9   46.89    3.41
   0  -1   9    0.43    0.16
   0  -1   9    0.82    0.58
  -1   1  -9   57.51    3.84
   1  -1   9   55.88    4.15
   1  -1   9   64.16    2.51
  -2   1  -9   65.85    4.33
   2  -1   9   70.25    2.85
  -3   1  -9   28.41    1.98
  -3   1  -9   27.03    1.26
  -3   1  -9   28.01    1.20
  -3   1  -9   28.50    1.24
  -3   1  -9   28.54    1.16
   3  -1   9   27.92    1.27
  -4   1  -9   72.53    2.98
  -4   1  -9   74.06    2.88
  -4   1  -9   77.71    2.99
  -5   1  -9   18.41    1.22
  -5   1  -9   18.70    0.85
  -5   1  -9   18.39    0.86
  -5   1  -9   19.02    0.96
   5  -1   9   18.58    0.99
  -6   1  -9   36.65    1.59
  -6   1  -9   37.34    1.82
  -6   1  -9   37.33    1.50
  -6   1  -9   35.43    1.53
   6  -1   9   36.40    1.71
  -7   1  -9   27.06    1.21
  -7   1  -9   23.10    1.09
  -7   1  -9   25.75    1.07
  -7   1  -9   25.70    1.09
   7  -1   9   25.99    1.24
  -6   0   9   36.50    1.54
  -6   0   9   39.29    1.79
  -6   0   9   38.09    1.53
  -5   0   9    1.22    0.23
  -5   0   9    1.58    0.30
  -5   0   9    1.49    0.21
  -5   0   9    1.10    0.26
  -5   0   9    1.57    0.32
  -4   0   9   44.08    1.98
  -4   0   9   45.35    1.94
  -4   0   9   44.71    1.76
  -4   0   9   40.34    1.58
  -4   0   9   38.88    2.08
  -4   0   9   43.94    1.82
  -3   0   9   61.01    3.11
  -3   0   9   67.46    2.71
  -3   0   9   65.04    3.01
  -3   0   9   71.20    2.66
  -3   0   9   69.45    2.42
  -3   0   9   64.01    2.66
  -3   0   9   69.64    2.92
  -2   0   9   14.04    0.88
  -2   0   9   14.71    0.87
  -2   0   9   16.19    1.16
  -2   0   9   15.47    0.74
  -2   0   9   14.94    0.85
   1   0  -9   44.05    2.43
  -1   0   9   43.40    2.87
  -1   0   9   41.33    1.94
   0   0   9    5.01    0.78
   1   0   9   42.79    3.02
  -2   0  -9   18.64    0.95
   2   0   9   15.11    1.65
   2   0   9   19.33    0.87
  -3   0  -9   25.19    1.24
  -3   0  -9   23.33    1.86
  -3   0  -9   26.66    1.07
   3   0   9   25.21    1.14
   3   0   9   21.70    2.13
  -4   0  -9   63.50    2.97
  -4   0  -9   63.06    2.56
  -4   0  -9   68.93    2.58
  -4   0  -9   64.22    2.47
  -4   0  -9   59.99    4.10
   4   0   9   60.27    2.69
   4   0   9   62.96    2.77
  -5   0  -9   10.99    0.72
  -5   0  -9   11.69    0.62
  -5   0  -9   11.89    0.69
  -5   0  -9   12.20    0.62
   5   0   9   11.54    0.71
  -6   0  -9   24.32    1.09
  -6   0  -9   24.23    1.16
  -6   0  -9   24.72    1.25
  -6   0  -9   24.37    1.08
   6   0   9   23.46    1.22
  -7   0  -9   18.85    0.86
  -7   0  -9   19.10    1.05
  -7   0  -9   18.95    0.87
  -7   0  -9   18.27    0.99
   7   0   9   18.95    1.00
  -8   0  -9    3.87    0.30
  -6   1   9    6.81    0.34
  -6   1   9    6.25    0.45
  -6   1   9    6.19    0.36
  -5   1   9    9.75    0.56
  -5   1   9   11.01    0.57
  -5   1   9   10.10    0.67
  -5   1   9   10.76    0.55
  -5   1   9   11.08    0.47
  -5   1   9   11.04    0.59
  -5   1   9   10.95    0.57
  -5   1   9   11.53    0.59
  -5   1   9   10.06    0.46
  -5   1   9   10.91    0.70
  -4   1   9    4.20    0.37
  -4   1   9    4.14    0.48
  -4   1   9    4.59    0.30
  -4   1   9    4.68    0.38
  -4   1   9    4.26    0.30
  -4   1   9    4.71    0.41
  -4   1   9    4.09    0.34
  -4   1   9    5.63    0.45
  -4   1   9    4.51    0.52
  -4   1   9    4.74    0.41
  -4   1   9    4.61    0.43
  -3   1   9   13.91    0.61
  -3   1   9   14.53    0.75
  -3   1   9   13.79    0.90
  -3   1   9   14.25    0.62
  -3   1   9   14.67    0.80
  -3   1   9   13.95    0.77
  -3   1   9   13.81    0.76
  -3   1   9   14.89    0.78
  -3   1   9   13.47    0.73
  -3   1   9   15.16    0.76
  -3   1   9   14.59    0.73
  -3   1   9   13.92    0.89
  -2   1   9    3.07    0.35
  -2   1   9    3.01    0.38
  -2   1   9    3.97    0.32
  -2   1   9    2.98    0.69
  -2   1   9    4.38    0.44
  -2   1   9    4.08    0.33
  -2   1   9    5.07    0.46
  -2   1   9    3.16    0.34
  -2   1   9    3.50    0.33
  -2   1   9    4.43    0.43
  -2   1   9    4.75    0.39
  -2   1   9    4.11    0.41
  -2   1   9    4.25    0.47
   1  -1  -9   45.86    2.88
  -1   1   9   52.90    2.50
  -1   1   9   54.03    1.81
  -1   1   9   49.27    2.22
  -1   1   9   50.62    3.41
  -1   1   9   53.17    2.17
   0  -1  -9   28.49    1.76
   0   1   9   30.42    1.32
   0   1   9   28.88    1.53
   0   1   9   30.84    2.15
   0   1   9   29.28    1.98
   0   1   9   28.36    1.35
   1   1   9    0.55    0.36
   1   1   9    0.68    0.21
   1   1   9    0.69    0.29
   2   1   9   18.75    1.56
   3   1   9    1.86    0.65
   3   1   9    1.73    0.25
  -4  -1  -9    9.95    0.69
  -4  -1  -9   10.17    0.62
  -4  -1  -9   11.51    0.58
  -4  -1  -9    9.77    0.56
   4   1   9    8.15    1.29
   4   1   9    9.60    0.61
   4   1   9    9.09    0.63
  -5  -1  -9   39.63    1.67
  -5  -1  -9   39.94    1.93
   5   1   9   38.19    1.81
  -6  -1  -9    0.56    0.19
  -6  -1  -9    0.45    0.20
  -6  -1  -9    0.46    0.19
   6   1   9    0.50    0.25
  -7  -1  -9   38.79    1.62
  -7  -1  -9   36.93    1.86
  -7  -1  -9   40.42    1.59
   7   1   9   35.77    1.77
  -8  -1  -9   11.55    0.58
  -8  -1  -9   10.78    0.56
  -8  -1  -9   11.26    0.67
   8   1   9   10.32    0.64
  -6   2   9   19.82    0.80
  -5   2   9   28.02    1.11
  -5   2   9   27.74    1.10
  -5   2   9   27.07    0.97
  -5   2   9   23.48    1.15
  -5   2   9   27.81    1.14
  -5   2   9   27.63    1.32
  -5   2   9   26.46    1.33
  -5   2   9   27.23    1.09
  -5   2   9   25.74    0.95
  -4   2   9   48.22    2.35
  -4   2   9   49.06    2.04
  -4   2   9   51.34    2.08
  -4   2   9   50.00    1.98
  -4   2   9   50.72    1.72
  -4   2   9   51.01    2.39
  -4   2   9   48.76    2.07
  -4   2   9   46.95    2.00
  -4   2   9   49.99    1.95
  -4   2   9   48.05    1.76
  -3   2   9  105.64    4.17
  -3   2   9  106.08    4.09
  -3   2   9  103.52    4.67
  -3   2   9   95.57    3.39
  -3   2   9  100.12    3.98
  -3   2   9  103.31    3.92
  -3   2   9   96.18    3.85
  -3   2   9   96.02    3.93
  -3   2   9   91.90    4.53
  -3   2   9  100.07    3.82
  -3   2   9  101.28    3.49
  -2   2   9    0.55    0.24
  -2   2   9    0.45    0.17
  -2   2   9    0.67    0.39
  -2   2   9    0.43    0.13
  -2   2   9    0.29    0.15
  -2   2   9    0.52    0.21
  -2   2   9    0.41    0.14
  -2   2   9    0.82    0.20
  -2   2   9    0.32    0.25
  -2   2   9    0.43    0.16
  -2   2   9    0.08    0.23
  -2   2   9    0.43    0.24
  -2   2   9    0.42    0.22
  -1   2   9   65.34    2.81
  -1   2   9   64.71    2.74
  -1   2   9   68.42    3.16
  -1   2   9   61.57    4.18
  -1   2   9   69.28    2.60
  -1   2   9   67.58    2.28
   0  -2  -9   55.53    3.43
   0   2   9   61.59    3.90
   0   2   9   59.12    2.61
   0   2   9   64.19    2.12
   0   2   9   62.95    2.55
   0   2   9   63.71    2.94
  -1  -2  -9    4.52    0.65
   1   2   9    4.33    0.65
   1   2   9    4.19    0.35
   1   2   9    4.51    0.49
   1   2   9    4.67    0.34
   1   2   9    4.18    0.34
   2   2   9   92.78    5.10
   2   2   9   72.40    3.80
   2   2   9   81.19    3.42
   2   2   9   77.25    5.01
  -3  -2  -9   20.16    1.08
   3   2   9   18.46    1.59
   3   2   9   21.73    1.00
   3   2   9   20.46    1.01
  -4  -2  -9   28.40    1.23
  -4  -2  -9   28.51    1.27
  -4  -2  -9   29.65    1.46
   4   2   9   25.54    2.16
   4   2   9   29.26    1.34
  -5  -2  -9   80.82    3.06
  -5  -2  -9   86.73    3.72
   5   2   9   69.29    5.14
   5   2   9   75.93    3.34
   5   2   9   77.90    3.42
  -6  -2  -9    0.45    0.21
  -6  -2  -9    0.39    0.19
  -6  -2  -9    0.46    0.21
   6   2   9    0.05    0.24
  -7  -2  -9   27.90    1.23
  -7  -2  -9   28.22    1.47
  -7  -2  -9   30.10    1.28
   7   2   9   27.39    1.40
  -8  -2  -9   11.81    0.72
  -8  -2  -9   12.56    0.62
  -8  -2  -9   12.60    0.64
   8   2   9   12.29    0.71
  -5   3   9    7.39    0.39
  -5   3   9    8.27    0.48
  -5   3   9    7.75    0.40
  -5   3   9    7.80    0.32
  -5   3   9    8.40    0.36
  -5   3   9    8.01    0.42
  -5   3   9    7.86    0.32
  -4   3   9    5.70    0.44
  -4   3   9    6.44    0.50
  -4   3   9    7.34    0.36
  -4   3   9    6.37    0.51
  -4   3   9    5.94    0.41
  -4   3   9    6.73    0.30
  -4   3   9    6.72    0.31
  -4   3   9    6.11    0.36
  -4   3   9    6.11    0.41
  -3   3   9   22.12    0.96
  -3   3   9   23.49    0.83
  -3   3   9   21.71    1.18
  -3   3   9   21.15    0.98
  -3   3   9   23.30    1.20
  -3   3   9   23.58    1.00
  -3   3   9   21.65    0.97
  -3   3   9   21.84    0.83
  -3   3   9   21.54    1.02
  -2   3   9   21.40    1.20
  -2   3   9   22.52    1.05
  -2   3   9   21.62    0.98
  -2   3   9   22.65    0.86
  -2   3   9   23.99    1.01
  -2   3   9   22.46    1.22
  -2   3   9   24.17    1.04
  -2   3   9   21.82    1.00
  -2   3   9   23.99    1.02
  -2   3   9   22.95    1.01
  -2   3   9   22.86    0.84
  -1   3   9    1.86    0.17
  -1   3   9    1.37    0.24
  -1   3   9    1.57    0.29
  -1   3   9    1.76    0.43
  -1   3   9    1.66    0.28
  -1   3   9    1.89    0.27
  -1   3   9    1.83    0.20
  -1   3   9    2.17    0.18
  -1   3   9    2.21    0.28
  -1   3   9    1.99    0.22
  -1   3   9    1.72    0.28
  -1   3   9    1.81    0.21
   0   3   9    8.06    0.77
   0   3   9    7.76    0.36
   0   3   9    7.83    0.59
   0   3   9    8.23    0.44
   0   3   9    8.50    0.54
   0   3   9    7.75    0.45
   1   3   9   56.02    2.49
   1   3   9   59.62    2.43
   1   3   9   57.02    2.52
   1   3   9   60.22    2.82
   1   3   9   61.90    2.03
   1   3   9   58.15    3.70
   2   3   9   23.86    1.71
   2   3   9   22.73    1.08
   2   3   9   23.15    1.06
   2   3   9   24.43    1.15
   2   3   9   23.97    1.28
   2   3   9   24.79    0.89
  -3  -3  -9   61.32    3.47
   3   3   9   64.41    2.23
   3   3   9   63.73    2.74
   3   3   9   66.87    2.77
   3   3   9   65.37    2.68
  -4  -3  -9    7.69    0.52
  -4  -3  -9    8.10    0.59
   4   3   9    8.47    0.52
   4   3   9    7.18    0.88
   4   3   9    7.37    0.62
   4   3   9    8.14    0.54
  -5  -3  -9   28.25    1.19
  -5  -3  -9   29.04    1.44
  -5  -3  -9   27.37    1.23
   5   3   9   28.07    1.27
   5   3   9   25.54    1.34
   5   3   9   23.07    2.00
  -6  -3  -9   28.38    1.24
  -6  -3  -9   27.67    1.29
  -6  -3  -9   31.50    1.52
   6   3   9   27.25    1.42
  -7  -3  -9    4.33    0.37
  -7  -3  -9    4.66    0.45
  -7  -3  -9    4.10    0.40
   7   3   9    2.49    0.37
  -8  -3  -9   27.50    1.37
  -8  -3  -9   29.05    1.18
   8   3   9   23.85    1.27
  -4   4   9    4.85    0.36
  -4   4   9    4.46    0.36
  -4   4   9    4.29    0.30
  -4   4   9    4.10    0.32
  -4   4   9    4.19    0.21
  -4   4   9    4.25    0.21
  -4   4   9    4.38    0.21
  -4   4   9    3.88    0.29
  -3   4   9   22.16    0.83
  -3   4   9   23.07    0.97
  -3   4   9   22.38    0.97
  -3   4   9   23.97    0.82
  -3   4   9   22.94    1.02
  -3   4   9   23.70    1.17
  -3   4   9   21.79    0.98
  -3   4   9   22.43    1.18
  -3   4   9   22.87    0.94
  -2   4   9   66.81    2.72
  -2   4   9   65.81    3.09
  -2   4   9   65.75    2.36
  -2   4   9   69.22    2.75
  -2   4   9   68.82    2.30
  -2   4   9   66.70    2.60
  -2   4   9   67.39    2.64
  -2   4   9   65.80    2.62
  -2   4   9   70.61    3.19
  -1   4   9    2.00    0.24
  -1   4   9    2.24    0.21
  -1   4   9    2.41    0.26
  -1   4   9    1.90    0.25
  -1   4   9    2.53    0.32
  -1   4   9    2.16    0.26
  -1   4   9    2.35    0.18
  -1   4   9    2.15    0.21
  -1   4   9    2.06    0.19
  -1   4   9    1.77    0.27
   0   4   9  107.54    5.00
   0   4   9  111.26    4.20
   0   4   9  109.53    3.74
   0   4   9   98.11    6.46
   0   4   9  109.21    4.27
   0   4   9  109.15    4.36
   0   4   9  105.78    3.63
   0   4   9  106.35    4.84
   0   4   9  114.52    4.44
   0   4   9  109.07    4.19
   0   4   9  107.93    4.09
   1   4   9   33.52    1.18
   1   4   9   33.56    2.18
   1   4   9   34.17    1.21
   1   4   9   33.10    1.44
   1   4   9   31.19    1.46
   1   4   9   33.48    1.43
   1   4   9   32.41    1.60
   1   4   9   33.16    1.40
   1   4   9   34.73    1.49
   1   4   9   32.58    1.37
   1   4   9   36.18    1.37
   1   4   9   33.36    1.41
   1   4   9   32.11    1.66
   2   4   9   77.06    2.61
   2   4   9   75.75    3.13
   2   4   9   78.13    3.61
   2   4   9   79.85    3.24
   2   4   9   74.49    2.95
   2   4   9   75.22    3.20
  -3  -4  -9   45.37    2.73
   3   4   9   50.02    2.35
   3   4   9   50.56    1.99
   3   4   9   49.23    2.08
   3   4   9   52.06    1.74
   3   4   9   51.37    1.79
   3   4   9   47.51    2.12
   3   4   9   51.37    2.17
   3   4   9   48.98    2.13
   3   4   9   51.26    2.23
   3   4   9   49.80    2.43
  -4  -4  -9    2.33    0.28
  -4  -4  -9    2.10    0.29
   4   4   9    3.60    0.38
   4   4   9    2.70    0.27
   4   4   9    2.76    0.28
   4   4   9    3.10    0.24
   4   4   9    3.12    0.30
   4   4   9    2.83    0.23
   4   4   9    2.07    0.28
   4   4   9    2.46    0.35
  -5  -4  -9  141.06    5.50
  -5  -4  -9  149.82    6.46
   5   4   9  139.04    5.73
   5   4   9  130.20    5.95
   5   4   9  131.40    6.25
   5   4   9  138.90    6.09
   5   4   9  146.81    5.81
  -6  -4  -9   30.07    1.37
  -6  -4  -9   24.81    1.13
   6   4   9   20.97    1.30
   6   4   9   24.40    1.28
   6   4   9   26.04    1.26
  -7  -4  -9    6.70    0.44
  -7  -4  -9    7.07    0.48
  -7  -4  -9    7.55    0.55
   7   4   9    5.61    0.55
   7   4   9    6.87    0.53
  -8  -4  -9   30.47    1.26
  -8  -4  -9   30.10    1.49
   8   4   9   31.99    1.43
   8   4   9   27.88    1.39
   9   4   9    1.05    0.18
  -4   5   9    2.32    0.13
  -4   5   9    2.84    0.21
  -3   5   9    1.93    0.22
  -3   5   9    1.78    0.19
  -3   5   9    1.95    0.14
  -3   5   9    1.98    0.22
  -3   5   9    1.77    0.19
  -3   5   9    1.92    0.13
  -3   5   9    1.60    0.22
  -2   5   9    4.31    0.22
  -2   5   9    4.24    0.39
  -2   5   9    4.03    0.33
  -2   5   9    4.06    0.35
  -2   5   9    4.28    0.22
  -2   5   9    4.23    0.32
  -2   5   9    4.47    0.39
  -2   5   9    4.84    0.22
  -2   5   9    3.93    0.23
  -1   5   9   16.11    0.88
  -1   5   9   15.53    0.75
  -1   5   9   15.12    0.72
  -1   5   9   15.83    0.60
  -1   5   9   15.47    0.58
  -1   5   9   16.02    0.69
  -1   5   9   15.85    0.66
  -1   5   9   15.63    0.86
  -1   5   9   17.51    0.73
   0   5   9    1.61    0.22
   0   5   9    1.72    0.25
   0   5   9    1.88    0.16
   0   5   9    1.98    0.22
   0   5   9    1.83    0.15
   0   5   9    1.95    0.26
   0   5   9    1.94    0.17
   0   5   9    1.67    0.20
   1   5   9   13.29    0.68
   1   5   9   13.43    0.53
   1   5   9   13.43    0.59
   1   5   9   12.87    0.74
   1   5   9   13.76    0.51
   1   5   9   13.36    0.61
   1   5   9   13.64    0.65
   1   5   9   13.60    0.78
   1   5   9   13.30    0.65
   1   5   9   14.12    0.68
   2   5   9    9.48    0.62
   2   5   9    9.26    0.39
   2   5   9    9.83    0.55
   2   5   9    9.52    0.50
   2   5   9    9.49    0.45
   2   5   9    9.77    0.59
   2   5   9    9.34    0.40
   2   5   9    9.04    0.46
   2   5   9    9.79    0.45
   2   5   9    9.07    0.53
   3   5   9    2.48    0.21
   3   5   9    2.41    0.22
   3   5   9    2.85    0.30
   3   5   9    2.31    0.23
   3   5   9    2.50    0.31
   3   5   9    2.57    0.20
   3   5   9    2.30    0.21
   3   5   9    1.95    0.22
   3   5   9    2.36    0.31
   3   5   9    1.86    0.25
   3   5   9    2.50    0.22
  -4  -5  -9   13.82    0.80
   4   5   9   13.19    0.71
   4   5   9   14.50    0.69
   4   5   9   14.82    0.59
   4   5   9   14.20    0.68
   4   5   9   14.65    0.83
   4   5   9   14.32    0.57
   4   5   9   14.56    0.75
   4   5   9   13.84    0.73
   4   5   9   15.77    0.67
   4   5   9   14.97    0.69
  -5  -5  -9    0.63    0.18
   5   5   9    0.88    0.17
   5   5   9    0.92    0.17
   5   5   9    0.71    0.25
   5   5   9    0.63    0.14
   5   5   9    0.75    0.16
   5   5   9    0.60    0.18
   5   5   9    0.82    0.14
   5   5   9    0.80    0.18
   5   5   9    1.11    0.26
  -6  -5  -9   33.55    1.56
   6   5   9   31.39    1.40
   6   5   9   30.72    1.46
   6   5   9   31.48    1.56
   6   5   9   30.05    1.37
   6   5   9   29.65    1.49
  -7  -5  -9    3.89    0.36
  -7  -5  -9    3.66    0.35
   7   5   9    3.30    0.35
   7   5   9    3.88    0.41
  -8  -5  -9    1.40    0.19
   8   5   9    1.35    0.19
   8   5   9    0.88    0.21
  -2   6   9   39.69    1.54
  -2   6   9   39.40    1.61
  -2   6   9   39.56    1.89
  -2   6   9   39.82    1.34
  -2   6   9   39.55    1.39
  -2   6   9   41.57    1.82
  -1   6   9   27.74    0.93
  -1   6   9   27.96    1.29
  -1   6   9   25.95    1.33
  -1   6   9   26.56    1.08
  -1   6   9   26.77    1.13
  -1   6   9   26.53    1.09
   0   6   9   13.67    0.70
   0   6   9   15.89    0.61
   0   6   9   15.66    0.65
   0   6   9   15.81    0.69
   0   6   9   15.45    0.83
   0   6   9   15.48    0.55
   0   6   9   15.02    0.81
   1   6   9  106.72    4.97
   1   6   9  106.50    4.24
   1   6   9  106.14    3.61
   1   6   9  105.91    4.81
   1   6   9  112.56    4.16
   1   6   9  109.45    4.32
   1   6   9  109.28    4.16
   2   6   9    7.24    0.35
   2   6   9    6.70    0.31
   2   6   9    6.68    0.33
   2   6   9    7.54    0.40
   2   6   9    6.49    0.49
   2   6   9    7.74    0.42
   2   6   9    6.50    0.47
   2   6   9    6.98    0.29
   3   6   9   60.98    2.09
   3   6   9   62.90    2.59
   3   6   9   60.82    2.41
   3   6   9   62.77    2.42
   3   6   9   63.56    2.51
   3   6   9   60.18    2.80
   3   6   9   59.34    2.15
  -4  -6  -9   53.98    2.57
   4   6   9   53.66    2.17
   4   6   9   54.03    2.17
   4   6   9   53.71    2.32
   4   6   9   54.32    1.88
   4   6   9   54.73    2.53
   4   6   9   54.59    1.93
   4   6   9   55.87    2.29
   4   6   9   57.88    2.26
  -5  -6  -9   12.15    0.67
   5   6   9   12.49    0.59
   5   6   9   11.92    0.56
   5   6   9   11.66    0.58
   5   6   9   12.07    0.71
   5   6   9   11.88    0.68
   5   6   9   12.28    0.49
   5   6   9   12.14    0.59
   5   6   9   11.92    0.49
   5   6   9   10.91    0.61
   5   6   9   11.56    0.57
   6   6   9   82.43    3.61
   6   6   9   81.52    3.50
   6   6   9   81.96    3.29
   6   6   9   89.17    3.81
   6   6   9   80.34    3.66
   6   6   9   89.10    2.93
   6   6   9   83.52    3.46
  -7  -6  -9   12.39    0.67
   7   6   9   12.15    0.63
   7   6   9   13.17    0.69
  -8  -6  -9   18.66    0.88
   8   6   9   17.44    0.86
   8   6   9   18.46    0.85
   0   7   9   11.26    0.60
   0   7   9   10.99    0.39
   1   7   9    1.99    0.22
   1   7   9    1.76    0.12
   1   7   9    2.01    0.12
   1   7   9    2.09    0.19
   2   7   9   19.98    0.76
   2   7   9   22.00    0.95
   2   7   9   20.94    0.83
   2   7   9   20.43    1.03
   2   7   9   21.38    0.90
   2   7   9   21.42    0.74
   2   7   9   21.24    0.88
   3   7   9    1.05    0.17
   3   7   9    1.00    0.10
   3   7   9    0.92    0.15
   3   7   9    0.81    0.11
   3   7   9    0.72    0.10
   3   7   9    0.53    0.16
   3   7   9    0.92    0.10
   4   7   9    4.78    0.27
   4   7   9    4.91    0.28
   4   7   9    5.04    0.24
   4   7   9    4.81    0.39
   4   7   9    5.00    0.32
   4   7   9    4.72    0.24
   4   7   9    5.33    0.34
   5   7   9    8.16    0.40
   5   7   9    8.39    0.53
   5   7   9    8.70    0.46
   5   7   9    8.99    0.36
   5   7   9    8.31    0.43
   5   7   9    8.44    0.36
   5   7   9    8.38    0.42
   6   7   9    1.11    0.13
   6   7   9    0.84    0.13
   6   7   9    0.83    0.13
   6   7   9    0.99    0.21
   6   7   9    0.73    0.14
   6   7   9    0.92    0.11
   6   7   9    1.01    0.11
   6   7   9    0.81    0.18
   6   7   9    0.87    0.14
  -7  -7  -9   13.76    0.67
   7   7   9   12.89    0.66
   7   7   9   12.76    0.57
  -8  -7  -9    0.78    0.12
   8   7   9    0.74    0.14
   2   8   9   34.72    1.31
   2   8   9   32.11    1.15
   2   8   9   33.36    1.12
   2   8   9   32.17    1.51
   3   8   9    0.34    0.06
   3   8   9    0.34    0.11
   3   8   9    0.30    0.10
   3   8   9    0.24    0.13
   3   8   9    0.33    0.06
   3   8   9    0.18    0.06
   4   8   9   45.23    1.58
   4   8   9   45.24    1.77
   4   8   9   46.05    1.89
   4   8   9   46.63    1.76
   4   8   9   44.20    1.83
   4   8   9   44.74    1.53
   4   8   9   44.24    2.05
   5   8   9   15.02    0.55
   5   8   9   14.91    0.66
   5   8   9   15.24    0.76
   5   8   9   15.64    0.63
   5   8   9   14.51    0.69
   5   8   9   15.25    0.56
   5   8   9   15.54    0.65
   6   8   9   19.84    0.69
   6   8   9   18.82    0.86
   6   8   9   19.04    0.77
   6   8   9   18.43    0.83
   6   8   9   19.49    0.92
   6   8   9   18.37    0.67
   6   8   9   18.69    0.78
  -7  -8  -9   45.29    2.08
   7   8   9   47.19    1.98
   7   8   9   47.73    1.82
   3   9   9    2.83    0.17
   3   9   9    2.78    0.13
   4   9   9    1.16    0.12
   4   9   9    1.14    0.11
   4   9   9    1.21    0.08
   4   9   9    1.07    0.09
   5   9   9    4.77    0.28
   5   9   9    4.34    0.25
   5   9   9    4.72    0.24
   5   9   9    5.05    0.20
   6   9   9    0.68    0.06
   6   9   9    0.57    0.08
   6   9   9    0.69    0.06
   4   6 -10    0.20    0.24
  -4  -6  10    0.05    0.14
   3   6 -10   26.12    1.23
  -3  -6  10   22.87    1.08
   2   6 -10   15.36    0.82
  -2  -6  10   13.34    0.71
   1   6 -10   13.77    0.74
  -1  -6  10   12.53    0.68
   0   6 -10   55.28    2.29
   0  -6  10   49.72    2.23
  -5  -5  10    0.23    0.15
  -4  -5  10    0.90    0.19
   3   5 -10    2.85    0.48
  -3  -5  10    1.91    0.26
  -3  -5  10    1.78    0.25
   2   5 -10    2.13    0.43
  -2  -5  10    1.74    0.26
   1   5 -10    1.66    0.40
  -1  -5  10    0.92    0.24
   0   5 -10    3.21    0.43
   0  -5  10    3.67    0.38
  -1   5 -10    0.24    0.17
  -1   5 -10    0.48    0.26
   1  -5  10    0.28    0.21
  -2   5 -10    3.71    0.30
  -2   5 -10    3.04    0.29
  -2   5 -10    3.66    0.32
   2  -5  10    2.48    0.31
  -3   5 -10    1.15    0.18
  -6  -4  10    0.26    0.13
  -5  -4  10   36.81    1.48
  -4  -4  10   20.94    0.92
  -3  -4  10    0.96    0.21
  -2  -4  10   72.43    2.92
  -2  -4  10   76.34    3.10
  -1  -4  10    1.58    0.26
   0   4 -10   31.42    1.36
   0  -4  10   34.31    1.48
  -1   4 -10   31.18    1.62
  -1   4 -10   29.51    1.30
   1  -4  10   32.21    1.41
  -2   4 -10    2.10    0.38
  -2   4 -10    2.03    0.27
  -2   4 -10    2.07    0.23
   2  -4  10    2.44    0.31
  -3   4 -10   36.23    1.55
  -3   4 -10   39.36    1.76
  -4   4 -10    1.16    0.21
   4  -4  10    0.82    0.24
  -6  -3  10    0.40    0.17
  -6  -3  10    0.72    0.15
  -5  -3  10   15.24    0.86
  -5  -3  10   14.62    0.69
  -4  -3  10    6.76    0.43
  -3  -3  10   16.60    0.78
  -2  -3  10   37.26    1.55
  -2  -3  10   37.99    1.64
   1   3 -10    0.73    0.22
  -1  -3  10    0.54    0.19
  -1  -3  10    0.70    0.20
   0   3 -10    2.10    0.26
   0  -3  10    2.40    0.29
  -1   3 -10    7.27    0.49
   1  -3  10    8.16    0.51
  -2   3 -10    0.99    0.22
  -2   3 -10    0.78    0.39
   2  -3  10    0.58    0.21
  -3   3 -10   18.58    1.13
  -3   3 -10   19.75    0.91
  -3   3 -10   19.35    0.91
   3  -3  10   18.47    0.95
  -4   3 -10    0.70    0.23
  -4   3 -10   -0.04    0.24
  -5   3 -10    0.84    0.16
  -5   3 -10    0.91    0.21
   5  -3  10    0.77    0.24
  -6  -2  10   16.81    0.80
  -5  -2  10    7.01    0.51
  -5  -2  10    6.62    0.42
  -4  -2  10   74.24    2.85
  -4  -2  10   70.83    3.28
   3   2 -10    9.15    0.62
  -3  -2  10    9.53    0.53
   2   2 -10   39.34    1.66
  -2  -2  10   39.88    1.62
   1   2 -10   16.59    0.83
  -1  -2  10   17.68    0.82
  -1  -2  10   15.32    1.78
  -1  -2  10   16.34    0.78
   0   2 -10    0.58    0.41
   0   2 -10    0.48    0.22
   0  -2  10    0.48    0.18
   0  -2  10    0.52    0.80
  -1   2 -10   84.41    3.23
  -1   2 -10   79.32    5.17
   1  -2  10   83.99    3.44
  -2   2 -10   26.21    1.16
   2  -2  10   26.32    1.21
  -3   2 -10   30.58    1.24
   3  -2  10   30.10    1.38
  -4   2 -10  101.55    3.86
  -4   2 -10   96.44    3.75
  -5   2 -10    0.49    0.17
  -5   2 -10    0.66    0.23
  -5   2 -10    0.40    0.28
   5  -2  10    0.69    0.26
  -6   2 -10   22.13    0.93
  -6   2 -10   21.10    0.97
  -6   2 -10   23.51    1.04
   6  -2  10   22.40    1.09
  -6  -1  10   13.55    0.71
  -5  -1  10    0.76    0.18
  -5  -1  10    0.69    0.21
  -4  -1  10   14.03    0.80
  -4  -1  10   12.84    0.84
  -4  -1  10   13.71    0.69
  -4  -1  10   14.99    0.80
  -3  -1  10    3.50    0.32
  -3  -1  10    3.39    0.41
  -3  -1  10    3.11    0.39
  -2  -1  10   10.79    0.73
  -2  -1  10   10.26    1.08
  -2  -1  10   10.97    0.57
  -1  -1  10   21.50    0.98
  -1  -1  10   20.53    1.05
  -1  -1  10   20.54    0.92
  -1  -1  10   20.26    1.76
   0   1 -10    1.08    0.27
   0  -1  10    0.82    0.21
   0  -1  10    1.78    0.70
   0  -1  10    1.30    0.21
  -1   1 -10   76.72    2.88
  -1   1 -10   77.42    2.96
   1  -1  10   75.28    3.13
   1  -1  10   69.83    5.08
  -2   1 -10    3.17    0.58
  -2   1 -10    3.35    0.34
  -2   1 -10    4.19    0.34
   2  -1  10    4.26    0.36
   2  -1  10    2.78    1.00
  -3   1 -10   20.19    0.89
  -3   1 -10   21.09    0.98
  -3   1 -10   20.61    0.92
   3  -1  10   19.46    0.98
  -4   1 -10   11.97    0.62
  -4   1 -10   12.49    0.71
   4  -1  10   12.94    0.72
   4  -1  10   11.68    0.70
  -5   1 -10    2.30    0.32
  -5   1 -10    1.56    0.23
  -5   1 -10    1.74    0.43
  -5   1 -10    1.98    0.23
   5  -1  10    1.66    0.30
  -6   1 -10   14.94    0.89
  -6   1 -10   14.24    0.76
  -6   1 -10   14.52    0.70
  -6   1 -10   15.59    0.71
   6  -1  10   15.66    0.83
  -7   1 -10    2.78    0.26
  -7   1 -10    2.93    0.26
   7  -1  10    2.77    0.30
  -6   0  10   18.78    0.91
  -5   0  10    0.47    0.14
  -5   0  10    0.21    0.23
  -5   0  10    0.46    0.23
  -5   0  10    0.61    0.17
  -4   0  10    6.48    0.48
  -4   0  10    6.58    0.55
  -4   0  10    6.93    0.46
  -4   0  10    7.02    0.59
  -4   0  10    6.20    0.54
  -3   0  10   28.29    1.35
  -3   0  10   27.93    1.20
  -3   0  10   25.08    1.07
  -3   0  10   26.81    1.43
  -3   0  10   27.60    1.28
  -3   0  10   30.29    1.36
  -2   0  10    2.53    0.41
  -2   0  10    2.59    0.38
  -2   0  10    2.32    0.27
  -2   0  10    2.55    0.36
  -2   0  10    2.27    0.39
  -2   0  10    2.40    0.29
  -1   0  10   52.70    2.35
  -1   0  10   51.42    2.18
  -1   0  10   53.44    3.41
  -1   0  10   52.76    2.44
  -1   0  10   51.37    2.10
  -1   0  10   52.67    2.15
   0   0  10   21.35    1.73
   0   0  10   22.11    1.09
   0   0  10   21.90    1.02
   1   0  10   19.85    1.75
   1   0  10   18.41    1.03
   1   0  10   21.61    0.97
  -2   0 -10   98.05    3.45
  -2   0 -10   91.96    3.52
   2   0  10   82.75    3.64
   2   0  10   90.83    3.73
   2   0  10   84.75    5.85
  -3   0 -10    0.56    0.19
  -3   0 -10    0.31    0.44
  -3   0 -10    0.33    0.23
  -3   0 -10    0.25    0.16
  -3   0 -10    0.28    0.17
   3   0  10   -0.07    0.66
   3   0  10    0.60    0.19
  -4   0 -10   46.20    2.20
  -4   0 -10   44.45    1.91
  -4   0 -10   44.95    1.90
  -4   0 -10   47.67    1.84
   4   0  10   43.92    2.01
   4   0  10   47.39    2.06
  -5   0 -10   38.47    1.71
  -5   0 -10   41.44    1.95
  -5   0 -10   41.22    1.64
  -5   0 -10   40.75    1.69
   5   0  10   38.57    1.84
  -6   0 -10    2.06    0.26
  -6   0 -10    1.90    0.25
  -6   0 -10    3.42    0.32
  -6   0 -10    2.51    0.33
   6   0  10    2.53    0.35
  -7   0 -10   44.57    2.08
  -7   0 -10   45.03    1.78
  -7   0 -10   45.11    1.84
   7   0  10   45.68    2.02
  -5   1  10    2.69    0.26
  -5   1  10    2.68    0.19
  -5   1  10    2.53    0.31
  -5   1  10    2.62    0.26
  -5   1  10    2.54    0.25
  -4   1  10   10.02    0.45
  -4   1  10    9.75    0.55
  -4   1  10   10.95    0.59
  -4   1  10    9.08    0.48
  -4   1  10    9.61    0.64
  -4   1  10    9.79    0.59
  -4   1  10   10.09    0.53
  -4   1  10    9.15    0.54
  -4   1  10    8.87    0.66
  -4   1  10   10.03    0.57
  -4   1  10    9.51    0.44
  -4   1  10    9.82    0.57
  -3   1  10   52.76    2.17
  -3   1  10   49.69    2.10
  -3   1  10   49.87    2.02
  -3   1  10   45.99    2.02
  -3   1  10   48.27    1.97
  -3   1  10   49.20    2.22
  -3   1  10   50.19    2.01
  -3   1  10   47.50    1.74
  -3   1  10   49.82    1.78
  -3   1  10   52.45    2.40
  -3   1  10   47.30    2.34
  -3   1  10   48.49    2.05
  -2   1  10    4.30    0.41
  -2   1  10    4.50    0.43
  -2   1  10    4.41    0.47
  -2   1  10    3.96    0.42
  -2   1  10    3.91    0.40
  -2   1  10    3.91    0.32
  -2   1  10    3.90    0.38
  -2   1  10    5.06    0.36
  -2   1  10    4.63    0.43
  -2   1  10    4.41    0.41
  -2   1  10    4.02    0.42
  -2   1  10    4.50    0.53
  -1   1  10   66.93    2.62
  -1   1  10   66.07    2.84
  -1   1  10   65.06    2.96
  -1   1  10   65.48    2.30
  -1   1  10   68.26    2.73
  -1   1  10   66.13    2.76
  -1   1  10   67.56    2.65
  -1   1  10   57.26    4.23
  -1   1  10   65.87    2.62
  -1   1  10   69.88    2.36
  -1   1  10   64.46    3.15
   0   1  10   14.41    0.95
   0   1  10   16.08    1.14
   0   1  10   15.68    0.79
   0   1  10   13.66    0.88
   0   1  10   14.79    0.84
   0   1  10   15.16    0.82
   1   1  10   10.89    0.80
   1   1  10   11.81    0.64
   1   1  10   11.82    1.06
   1   1  10   10.42    0.76
   1   1  10   11.93    0.70
   2   1  10   64.77    2.87
   2   1  10   80.57    3.07
   2   1  10   72.23    4.71
  -3  -1 -10    2.83    0.31
  -3  -1 -10    2.26    0.29
  -3  -1 -10    3.36    0.39
  -3  -1 -10    3.47    0.34
   3   1  10    2.22    0.39
   3   1  10    3.12    0.33
   3   1  10    3.69    0.85
  -4  -1 -10   42.11    1.70
  -4  -1 -10   43.15    1.98
  -4  -1 -10   39.42    1.70
   4   1  10   39.15    1.79
   4   1  10   35.00    2.96
  -5  -1 -10   31.06    1.55
  -5  -1 -10   31.25    1.35
  -5  -1 -10   31.20    1.31
   5   1  10   29.07    1.46
  -6  -1 -10    2.17    0.29
  -6  -1 -10    2.19    0.30
  -6  -1 -10    2.25    0.30
   6   1  10    1.93    0.32
  -7  -1 -10   27.18    1.40
  -7  -1 -10   28.44    1.22
  -7  -1 -10   28.27    1.19
   7   1  10   27.88    1.35
  -8  -1 -10    1.06    0.16
   8   1  10    1.07    0.21
  -5   2  10   15.60    0.69
  -5   2  10   14.89    0.66
  -5   2  10   15.99    0.67
  -5   2  10   15.08    0.58
  -5   2  10   16.44    0.80
  -5   2  10   15.88    0.66
  -4   2  10    0.25    0.22
  -4   2  10    0.23    0.19
  -4   2  10    0.47    0.14
  -4   2  10    0.32    0.20
  -4   2  10    0.45    0.20
  -4   2  10    0.36    0.11
  -4   2  10    0.26    0.11
  -4   2  10    0.23    0.14
  -4   2  10    0.49    0.20
  -3   2  10   57.77    2.27
  -3   2  10   55.72    2.30
  -3   2  10   58.70    2.74
  -3   2  10   58.04    2.31
  -3   2  10   60.02    2.43
  -3   2  10   56.88    1.98
  -3   2  10   56.63    2.39
  -3   2  10   57.18    2.25
  -3   2  10   56.95    2.03
  -3   2  10   56.79    2.34
  -3   2  10   55.55    2.67
  -2   2  10   26.03    1.19
  -2   2  10   26.90    1.19
  -2   2  10   28.25    1.22
  -2   2  10   26.19    1.26
  -2   2  10   26.30    1.01
  -2   2  10   28.91    1.20
  -2   2  10   28.57    1.23
  -2   2  10   28.54    1.25
  -2   2  10   28.62    1.24
  -2   2  10   27.50    1.03
  -2   2  10   26.49    1.41
  -2   2  10   27.90    1.43
  -1   2  10    6.99    0.88
  -1   2  10    8.49    0.59
  -1   2  10    7.96    0.52
  -1   2  10    7.92    0.57
  -1   2  10    8.93    0.51
  -1   2  10    8.48    0.64
  -1   2  10    8.63    0.42
  -1   2  10    8.68    0.55
  -1   2  10    9.43    0.44
  -1   2  10    8.72    0.51
  -1   2  10    8.84    0.53
  -1   2  10    9.11    0.60
  -1   2  10    9.00    0.65
   0   2  10   43.59    2.12
   0   2  10   43.43    1.78
   0   2  10   40.95    1.77
   0   2  10   37.00    2.81
   0   2  10   40.46    1.96
   0   2  10   44.18    1.52
   0   2  10   42.98    1.78
   0   2  10   41.82    1.82
   0   2  10   45.61    1.78
   0   2  10   40.96    1.87
   0   2  10   42.65    2.05
   0   2  10   44.39    1.84
   0   2  10   46.87    1.57
   1   2  10    1.09    0.41
   1   2  10    0.73    0.29
   1   2  10    1.36    0.22
   1   2  10    2.22    0.35
   1   2  10    1.54    0.28
   1   2  10    1.56    0.24
   1   2  10    1.70    0.21
   2   2  10   26.88    1.24
   2   2  10   26.57    1.81
   2   2  10   27.44    1.25
   2   2  10   24.78    1.43
   2   2  10   25.82    1.22
  -3  -2 -10   32.02    1.56
   3   2  10   34.71    1.58
   3   2  10   27.59    2.15
   3   2  10   25.75    1.39
   3   2  10   31.63    1.42
  -4  -2 -10    0.74    0.21
  -4  -2 -10    0.99    0.23
  -4  -2 -10    0.77    0.21
   4   2  10    0.97    0.26
   4   2  10    0.90    0.60
  -5  -2 -10   25.33    1.14
  -5  -2 -10   25.97    1.18
  -5  -2 -10   27.78    1.36
   5   2  10   25.75    1.24
   5   2  10   24.27    1.28
  -6  -2 -10   12.33    0.66
  -6  -2 -10   12.40    0.68
  -6  -2 -10   12.28    0.75
   6   2  10   12.01    0.76
  -7  -2 -10   18.10    0.81
  -7  -2 -10   16.42    0.94
  -7  -2 -10   17.83    0.83
   7   2  10   16.24    0.92
  -8  -2 -10   31.01    1.23
  -8  -2 -10   29.29    1.17
   8   2  10   27.16    1.33
  -4   3  10    2.56    0.21
  -4   3  10    2.63    0.23
  -4   3  10    2.33    0.17
  -4   3  10    2.92    0.33
  -4   3  10    2.53    0.23
  -4   3  10    2.69    0.24
  -4   3  10    1.98    0.17
  -4   3  10    2.22    0.26
  -3   3  10   43.02    1.68
  -3   3  10   41.01    1.50
  -3   3  10   42.88    1.47
  -3   3  10   40.71    1.76
  -3   3  10   42.38    1.75
  -3   3  10   43.33    2.05
  -3   3  10   42.88    1.70
  -3   3  10   40.87    1.69
  -3   3  10   42.88    2.00
  -2   3  10    7.97    0.57
  -2   3  10    7.57    0.52
  -2   3  10    8.17    0.40
  -2   3  10    7.87    0.36
  -2   3  10    7.53    0.36
  -2   3  10    7.44    0.50
  -2   3  10    8.13    0.49
  -2   3  10    6.62    0.47
  -2   3  10    8.13    0.44
  -2   3  10    7.36    0.43
  -2   3  10    7.69    0.58
  -1   3  10   12.68    0.51
  -1   3  10   13.10    0.68
  -1   3  10   12.39    0.77
  -1   3  10   12.69    0.52
  -1   3  10   12.57    0.62
  -1   3  10   12.59    0.62
  -1   3  10   12.34    0.66
  -1   3  10   12.00    0.60
  -1   3  10   12.34    0.75
  -1   3  10   11.76    0.64
  -1   3  10   12.45    0.66
   0   3  10  100.20    3.34
   0   3  10   93.07    4.30
   0   3  10   83.64    5.81
   0   3  10   99.85    3.99
   0   3  10   97.32    4.46
   0   3  10   99.09    3.66
   0   3  10   98.77    3.82
   0   3  10   94.64    3.69
   0   3  10   95.79    3.88
   0   3  10   93.90    3.74
   0   3  10   97.58    3.24
   0   3  10   93.33    4.16
   0   3  10   94.54    3.74
   1   3  10    4.26    0.35
   1   3  10    3.93    0.36
   1   3  10    3.78    0.42
   1   3  10    3.55    0.36
   1   3  10    4.25    0.38
   1   3  10    4.25    0.31
   1   3  10    5.32    0.43
   1   3  10    4.24    0.32
   1   3  10    4.01    0.28
   1   3  10    3.52    0.36
   1   3  10    3.70    0.32
   1   3  10    3.03    0.54
   1   3  10    4.32    0.39
   1   3  10    4.30    0.42
   2   3  10   45.14    1.73
   2   3  10   39.81    1.71
   2   3  10   43.55    2.10
   2   3  10   42.88    1.80
   2   3  10   37.63    2.75
   2   3  10   44.04    1.53
   2   3  10   40.05    1.92
   2   3  10   42.30    1.99
   2   3  10   42.84    1.73
   2   3  10   43.05    1.78
   2   3  10   39.76    1.86
   2   3  10   42.16    1.48
   2   3  10   40.27    1.82
   3   3  10   40.34    1.94
   3   3  10   39.57    1.80
   3   3  10   39.15    1.87
   3   3  10   39.87    1.47
   3   3  10   40.93    1.68
   3   3  10   40.42    1.74
   3   3  10   40.16    1.77
   3   3  10   40.49    1.65
  -4  -3 -10    2.07    0.27
  -4  -3 -10    2.94    0.32
   4   3  10    2.32    0.30
   4   3  10    3.16    0.33
   4   3  10    2.59    0.51
   4   3  10    3.19    0.35
  -5  -3 -10   25.04    1.14
  -5  -3 -10   24.43    1.09
  -5  -3 -10   25.87    1.32
   5   3  10   24.18    1.17
   5   3  10   23.67    1.25
   5   3  10   25.27    1.28
  -6  -3 -10    0.76    0.22
  -6  -3 -10    0.78    0.21
  -6  -3 -10    0.78    0.21
   6   3  10    0.69    0.27
  -7  -3 -10   30.08    1.21
  -7  -3 -10   31.44    1.29
  -7  -3 -10   28.74    1.49
   7   3  10   26.94    1.39
  -8  -3 -10    4.81    0.33
   8   3  10    4.24    0.40
  -4   4  10   18.99    0.77
  -4   4  10   19.26    0.91
  -4   4  10   19.57    0.80
  -4   4  10   18.33    0.68
  -4   4  10   18.79    0.77
  -3   4  10    2.78    0.33
  -3   4  10    2.90    0.21
  -3   4  10    2.90    0.18
  -3   4  10    3.01    0.18
  -3   4  10    2.81    0.30
  -3   4  10    3.19    0.20
  -3   4  10    2.66    0.25
  -3   4  10    2.57    0.24
  -3   4  10    3.01    0.27
  -2   4  10   44.30    1.79
  -2   4  10   43.66    1.79
  -2   4  10   47.45    2.13
  -2   4  10   45.57    2.18
  -2   4  10   45.09    1.60
  -2   4  10   44.71    1.82
  -2   4  10   47.48    1.80
  -2   4  10   44.53    1.87
  -2   4  10   44.19    1.86
  -2   4  10   46.60    1.57
  -1   4  10    5.36    0.38
  -1   4  10    5.83    0.41
  -1   4  10    6.04    0.33
  -1   4  10    5.56    0.42
  -1   4  10    5.29    0.32
  -1   4  10    5.21    0.38
  -1   4  10    5.11    0.46
  -1   4  10    5.21    0.47
  -1   4  10    5.66    0.28
  -1   4  10    5.26    0.28
   0   4  10    1.45    0.17
   0   4  10    1.54    0.15
   0   4  10    1.67    0.16
   0   4  10    1.27    0.25
   0   4  10    1.34    0.16
   0   4  10    1.37    0.22
   0   4  10    1.50    0.15
   0   4  10    1.57    0.25
   0   4  10    1.61    0.23
   0   4  10    1.47    0.23
   0   4  10    1.34    0.24
   1   4  10   44.10    1.80
   1   4  10   43.74    1.83
   1   4  10   45.33    1.88
   1   4  10   46.32    1.88
   1   4  10   46.50    1.91
   1   4  10   42.89    2.10
   1   4  10   47.33    1.96
   1   4  10   44.69    1.79
   1   4  10   45.70    1.61
   1   4  10   46.45    1.57
   1   4  10   46.73    2.20
   1   4  10   39.73    2.84
   2   4  10    2.03    0.24
   2   4  10    2.03    0.27
   2   4  10    2.07    0.19
   2   4  10    2.52    0.31
   2   4  10    2.27    0.18
   2   4  10    2.10    0.21
   2   4  10    2.19    0.22
   2   4  10    2.08    0.28
   2   4  10    1.88    0.30
   2   4  10    1.98    0.20
   2   4  10    2.36    0.25
   2   4  10    2.45    0.31
   3   4  10   27.29    1.20
   3   4  10   28.78    1.38
   3   4  10   27.43    1.16
   3   4  10   26.63    1.00
   3   4  10   25.95    1.16
   3   4  10   29.17    1.24
   3   4  10   28.58    1.03
   3   4  10   27.48    1.18
   3   4  10   27.07    1.28
   3   4  10   27.90    1.24
   3   4  10   26.13    1.28
  -4  -4 -10   11.24    0.70
  -4  -4 -10   11.10    0.58
   4   4  10   12.91    0.63
   4   4  10   11.13    0.66
   4   4  10   11.06    0.51
   4   4  10   11.49    0.74
   4   4  10   14.00    0.65
   4   4  10   10.95    0.65
   4   4  10   11.19    0.65
  -5  -4 -10   10.91    0.57
  -5  -4 -10   10.52    0.60
  -5  -4 -10   13.52    0.73
   5   4  10    9.37    0.71
   5   4  10   11.57    0.66
   5   4  10   11.71    0.63
   5   4  10   11.10    0.74
   5   4  10   12.40    0.63
  -6  -4 -10   34.76    1.58
  -6  -4 -10   31.11    1.32
   6   4  10   32.69    1.37
   6   4  10   27.61    1.52
   6   4  10   31.00    1.46
   6   4  10   27.37    1.47
  -7  -4 -10    4.93    0.35
  -7  -4 -10    4.92    0.41
   7   4  10    4.48    0.46
   7   4  10    5.69    0.43
  -8  -4 -10   20.74    0.86
   8   4  10   19.13    0.96
   8   4  10   20.29    0.97
  -3   5  10    7.08    0.38
  -3   5  10    7.69    0.36
  -3   5  10    6.97    0.37
  -3   5  10    7.56    0.42
  -3   5  10    7.21    0.29
  -3   5  10    7.57    0.28
  -2   5  10   34.96    1.33
  -2   5  10   33.56    1.36
  -2   5  10   34.00    1.21
  -2   5  10   32.91    1.40
  -2   5  10   34.43    1.41
  -2   5  10   33.30    1.65
  -2   5  10   34.60    1.18
  -2   5  10   34.49    1.36
  -2   5  10   36.41    1.61
  -1   5  10    2.37    0.17
  -1   5  10    2.24    0.27
  -1   5  10    2.12    0.17
  -1   5  10    2.01    0.27
  -1   5  10    2.05    0.22
  -1   5  10    2.34    0.23
  -1   5  10    2.08    0.17
  -1   5  10    2.12    0.17
  -1   5  10    1.75    0.22
  -1   5  10    2.21    0.21
   0   5  10   16.86    0.81
   0   5  10   17.42    0.74
   0   5  10   18.44    0.65
   0   5  10   18.26    0.78
   0   5  10   18.48    0.96
   0   5  10   18.18    0.80
   0   5  10   17.58    0.66
   0   5  10   16.57    0.78
   0   5  10   17.25    0.92
   1   5  10   37.95    1.51
   1   5  10   36.66    1.47
   1   5  10   36.04    1.74
   1   5  10   36.54    1.81
   1   5  10   37.54    1.28
   1   5  10   35.69    1.54
   1   5  10   39.25    1.54
   1   5  10   35.77    1.47
   1   5  10   36.30    1.32
   2   5  10   14.31    0.55
   2   5  10   14.54    0.68
   2   5  10   15.10    0.66
   2   5  10   14.94    0.83
   2   5  10   14.47    0.73
   2   5  10   13.99    0.63
   2   5  10   13.61    0.67
   2   5  10   14.95    0.80
   2   5  10   13.44    0.70
   2   5  10   14.61    0.64
   2   5  10   14.20    0.57
   3   5  10   84.06    2.81
   3   5  10   83.52    2.89
   3   5  10   80.81    3.24
   3   5  10   80.20    3.30
   3   5  10   84.63    3.47
   3   5  10   84.69    3.45
   3   5  10   80.04    3.58
   3   5  10   86.98    3.37
   3   5  10   81.23    3.23
   3   5  10   83.86    3.75
  -4  -5 -10   33.08    1.58
   4   5  10   30.77    1.45
   4   5  10   32.03    1.37
   4   5  10   30.17    1.32
   4   5  10   30.69    1.32
   4   5  10   32.75    1.40
   4   5  10   32.22    1.15
   4   5  10   31.21    1.43
   4   5  10   33.22    1.57
   4   5  10   34.02    1.38
   4   5  10   32.91    1.17
  -5  -5 -10   12.66    0.64
  -5  -5 -10   14.23    0.77
   5   5  10   13.60    0.68
   5   5  10   13.91    0.56
   5   5  10   13.14    0.69
   5   5  10   14.18    0.80
   5   5  10   13.65    0.70
   5   5  10   13.60    0.65
  -6  -5 -10   48.62    2.29
  -6  -5 -10   46.49    1.94
   6   5  10   47.28    2.15
   6   5  10   46.85    2.15
   6   5  10   51.30    2.26
   6   5  10   46.92    2.07
   6   5  10   48.63    2.04
  -7  -5 -10    0.05    0.14
  -7  -5 -10    0.08    0.14
   7   5  10    0.36    0.20
   7   5  10    0.28    0.16
  -8  -5 -10   23.05    1.13
   8   5  10   26.10    1.12
   8   5  10   23.92    1.11
  -2   6  10    0.35    0.06
  -2   6  10    0.34    0.12
  -2   6  10    0.20    0.12
  -2   6  10    0.46    0.12
  -1   6  10   19.18    0.80
  -1   6  10   19.59    0.70
  -1   6  10   21.00    0.96
  -1   6  10   19.35    0.68
  -1   6  10   19.41    0.98
  -1   6  10   18.20    0.83
   0   6  10    5.15    0.43
   0   6  10    6.15    0.34
   0   6  10    6.00    0.42
   0   6  10    6.06    0.26
   0   6  10    6.22    0.26
   0   6  10    5.89    0.25
   0   6  10    6.14    0.36
   0   6  10    5.92    0.29
   0   6  10    5.77    0.37
   1   6  10   27.87    1.37
   1   6  10   28.14    1.02
   1   6  10   27.49    1.20
   1   6  10   28.38    1.18
   1   6  10   29.35    1.18
   1   6  10   29.33    1.41
   1   6  10   28.57    0.99
   1   6  10   29.31    1.13
   2   6  10   29.76    1.22
   2   6  10   30.27    1.23
   2   6  10   28.50    1.41
   2   6  10   29.16    1.05
   2   6  10   29.89    1.03
   2   6  10   30.36    1.29
   2   6  10   27.93    1.23
   2   6  10   29.15    1.18
   2   6  10   29.28    1.46
   3   6  10    5.50    0.26
   3   6  10    5.77    0.31
   3   6  10    5.66    0.38
   3   6  10    5.09    0.34
   3   6  10    5.86    0.27
   3   6  10    5.41    0.30
   3   6  10    5.10    0.42
  -4  -6 -10   75.56    3.47
   4   6  10   76.13    3.10
   4   6  10   73.20    2.93
   4   6  10   74.50    2.61
   4   6  10   74.05    3.12
   4   6  10   75.78    3.39
   4   6  10   76.93    3.05
   4   6  10   71.72    2.91
   4   6  10   76.94    2.54
  -5  -6 -10   26.24    1.36
   5   6  10   27.77    1.23
   5   6  10   27.79    1.15
   5   6  10   27.08    1.21
   5   6  10   28.45    1.24
   5   6  10   28.04    1.20
   5   6  10   29.35    1.00
   5   6  10   28.49    1.02
   5   6  10   28.42    1.37
   5   6  10   27.29    1.15
  -6  -6 -10   24.24    1.27
   6   6  10   26.71    1.17
   6   6  10   28.07    1.28
   6   6  10   25.59    1.14
   6   6  10   26.15    1.21
   6   6  10   25.83    1.15
  -7  -6 -10   22.77    1.08
   7   6  10   22.86    1.06
   7   6  10   23.01    1.04
  -8  -6 -10    3.78    0.25
   8   6  10    3.69    0.28
   8   6  10    4.21    0.23
   0   7  10    1.25    0.08
   0   7  10    1.30    0.17
   0   7  10    1.20    0.10
   1   7  10   31.88    1.31
   1   7  10   31.68    1.14
   1   7  10   33.19    1.51
   1   7  10   32.44    1.10
   1   7  10   33.76    1.30
   2   7  10   20.35    0.99
   2   7  10   19.36    0.84
   2   7  10   20.63    0.86
   2   7  10   19.61    0.73
   2   7  10   20.48    0.90
   2   7  10   21.02    0.80
   2   7  10   20.67    0.71
   3   7  10   10.37    0.38
   3   7  10   10.12    0.43
   3   7  10   10.35    0.51
   3   7  10    9.50    0.39
   3   7  10   10.05    0.48
   3   7  10    9.19    0.56
   3   7  10    9.79    0.45
   4   7  10   59.74    2.71
   4   7  10   62.45    2.04
   4   7  10   60.68    2.34
   4   7  10   59.38    2.09
   4   7  10   58.22    2.44
   4   7  10   60.66    2.50
   4   7  10   59.31    2.34
   5   7  10    4.86    0.31
   5   7  10    4.73    0.29
   5   7  10    4.84    0.27
   5   7  10    5.01    0.37
   5   7  10    4.70    0.24
   5   7  10    4.57    0.27
   5   7  10    4.83    0.23
   6   7  10   23.31    1.08
   6   7  10   23.84    0.88
   6   7  10   26.01    1.02
   6   7  10   25.83    1.20
   6   7  10   24.93    1.01
   6   7  10   26.21    0.90
  -7  -7 -10   20.36    0.95
   7   7  10   20.82    0.92
   7   7  10   20.00    0.83
   1   8  10    2.22    0.11
   2   8  10   12.94    0.44
   2   8  10   12.34    0.46
   2   8  10   12.55    0.63
   2   8  10   13.08    0.54
   3   8  10    3.21    0.22
   3   8  10    3.22    0.15
   3   8  10    2.87    0.20
   3   8  10    2.99    0.14
   3   8  10    3.15    0.25
   4   8  10    7.35    0.39
   4   8  10    7.22    0.36
   4   8  10    7.30    0.29
   4   8  10    7.52    0.43
   4   8  10    7.79    0.30
   4   8  10    7.79    0.32
   5   8  10    7.56    0.36
   5   8  10    7.41    0.43
   5   8  10    7.60    0.30
   5   8  10    7.17    0.38
   5   8  10    7.92    0.31
   5   8  10    8.05    0.34
   6   8  10    0.54    0.09
   6   8  10    0.58    0.08
   6   8  10    0.75    0.14
   6   8  10    0.65    0.07
   6   8  10    0.53    0.10
  -7  -8 -10   15.43    0.71
   4   9  10   22.10    0.75
   4   9  10   20.65    0.84
   3   6 -11    0.58    0.20
   2   6 -11    1.55    0.23
   1   6 -11    2.49    0.27
   4   5 -11    4.05    0.45
  -4  -5  11    4.54    0.31
   3   5 -11    4.00    0.46
  -3  -5  11    3.36    0.30
   2   5 -11   17.26    0.98
  -2  -5  11   14.66    0.76
   1   5 -11    0.76    0.34
  -1  -5  11    1.03    0.22
   0   5 -11   34.29    1.59
   0  -5  11   31.02    1.44
  -1   5 -11   13.38    0.71
   1  -5  11   12.02    0.66
  -5  -4  11    0.77    0.15
  -4  -4  11    0.05    0.16
  -3  -4  11   10.58    0.55
  -2  -4  11    5.07    0.39
  -2  -4  11    5.03    0.39
  -1  -4  11    4.85    0.40
   0   4 -11    0.95    0.21
   0   4 -11    0.58    0.38
   0  -4  11    0.76    0.22
  -1   4 -11    1.33    0.22
  -1   4 -11    2.04    0.41
   1  -4  11    1.95    0.28
  -2   4 -11    3.14    0.29
  -2   4 -11    3.93    0.41
   2  -4  11    2.87    0.32
  -3   4 -11    1.34    0.21
  -3   4 -11    1.87    0.24
  -5  -3  11    8.19    0.43
  -5  -3  11    7.46    0.51
  -4  -3  11   36.64    1.49
  -3  -3  11    0.39    0.19
   2   3 -11   42.14    1.76
  -2  -3  11   44.19    1.77
  -2  -3  11   44.14    1.87
   1   3 -11   30.76    1.32
  -1  -3  11   33.28    1.41
  -1  -3  11   30.17    1.33
   0   3 -11   15.53    0.77
   0  -3  11   16.29    0.81
  -1   3 -11   25.07    1.15
   1  -3  11   27.63    1.23
  -2   3 -11   16.13    1.09
  -2   3 -11   16.02    0.80
   2  -3  11   16.61    0.84
  -3   3 -11   26.21    1.10
  -3   3 -11   23.31    1.31
   3  -3  11   24.74    1.16
  -4   3 -11   27.90    1.29
  -4   3 -11   26.13    1.14
   4  -3  11   25.90    1.24
  -5   3 -11    0.27    0.15
  -5  -2  11    1.80    0.24
  -5  -2  11    2.11    0.23
  -4  -2  11    1.38    0.23
  -4  -2  11    1.02    0.27
   3   2 -11    1.43    0.29
  -3  -2  11    1.64    0.24
   2   2 -11    1.60    0.29
  -2  -2  11    1.70    0.25
   1   2 -11    0.34    0.22
  -1  -2  11   -0.03    0.17
  -1  -2  11    0.11    0.17
   0   2 -11    7.26    0.52
   0  -2  11    7.61    0.49
  -1   2 -11    0.96    0.23
   1  -2  11    0.41    0.20
  -2   2 -11    6.41    0.49
   2  -2  11    6.60    0.47
  -3   2 -11    4.25    0.34
  -3   2 -11    4.71    0.45
   3  -2  11    4.73    0.42
  -4   2 -11    4.55    0.41
  -4   2 -11    4.77    0.53
  -4   2 -11    4.28    0.35
   4  -2  11    4.55    0.43
  -5   2 -11    7.38    0.58
  -5   2 -11    8.47    0.50
  -5   2 -11    8.24    0.44
   5  -2  11    7.37    0.52
  -5  -1  11    3.77    0.30
  -5  -1  11    3.29    0.29
  -4  -1  11   28.31    1.23
  -4  -1  11   28.51    1.27
  -4  -1  11   30.14    1.39
  -3  -1  11   60.23    2.37
  -3  -1  11   58.59    2.41
  -3  -1  11   59.11    2.71
   2   1 -11    8.95    0.64
  -2  -1  11    8.92    0.71
  -2  -1  11    8.25    0.65
  -2  -1  11    8.65    0.51
   1   1 -11   65.27    2.67
  -1  -1  11   68.73    2.82
  -1  -1  11   66.35    2.65
   0   1 -11   17.67    0.89
   0  -1  11   17.25    0.83
   0  -1  11   17.73    0.87
  -1   1 -11   46.08    1.93
  -1   1 -11   46.38    1.85
   1  -1  11   47.59    2.02
  -2   1 -11   81.77    3.18
  -2   1 -11   78.70    3.08
   2  -1  11   81.02    3.37
  -3   1 -11    0.74    0.24
  -3   1 -11    0.87    0.18
   3  -1  11    0.83    0.22
  -4   1 -11   67.63    2.68
  -4   1 -11   66.34    2.67
  -4   1 -11   66.92    2.59
   4  -1  11   66.46    2.90
   4  -1  11   66.24    2.84
  -5   1 -11    9.75    0.75
  -5   1 -11    9.61    0.52
  -5   1 -11    9.25    0.50
  -5   1 -11    9.20    0.58
   5  -1  11    8.73    0.60
  -6   1 -11    9.94    0.50
  -6   1 -11    9.74    0.49
  -6   1 -11    9.23    0.62
  -6   1 -11    9.30    0.52
   6  -1  11    9.42    0.59
  -5   0  11    0.07    0.13
  -5   0  11    0.08    0.16
  -5   0  11   -0.14    0.16
  -4   0  11    9.04    0.54
  -4   0  11    9.26    0.60
  -4   0  11    9.33    0.54
  -4   0  11    9.74    0.62
  -4   0  11   10.03    0.58
  -3   0  11    4.95    0.49
  -3   0  11    4.87    0.46
  -3   0  11    5.01    0.41
  -3   0  11    5.51    0.52
  -2   0  11    5.56    0.54
  -2   0  11    5.48    0.54
  -2   0  11    6.14    0.45
  -2   0  11    5.28    0.49
  -2   0  11    4.96    0.49
  -1   0  11   12.05    0.77
  -1   0  11   11.80    0.76
  -1   0  11   11.85    0.80
  -1   0  11   11.20    0.63
  -1   0  11   12.11    0.76
   0   0 -11    4.78    0.46
   0   0  11    5.16    0.79
   0   0  11    5.13    0.50
   0   0  11    5.98    0.43
   0   0  11    4.89    0.41
  -1   0 -11   36.81    1.55
   1   0  11   35.76    1.58
   1   0  11   33.88    1.61
   1   0  11   37.26    2.64
   1   0  11   36.65    1.60
  -2   0 -11   19.67    0.91
  -2   0 -11   20.04    0.92
   2   0  11   18.35    1.86
   2   0  11   19.82    0.96
  -3   0 -11   10.85    0.59
  -3   0 -11   10.34    0.58
  -3   0 -11   10.77    0.64
   3   0  11   10.52    0.63
  -4   0 -11    4.96    0.40
  -4   0 -11    4.67    0.38
  -4   0 -11    4.85    0.46
  -4   0 -11    4.75    0.42
   4   0  11    4.89    0.44
  -5   0 -11    1.72    0.24
  -5   0 -11    2.15    0.26
  -5   0 -11    1.72    0.24
  -5   0 -11    2.38    0.31
   5   0  11    1.94    0.31
  -6   0 -11    3.22    0.31
  -6   0 -11    3.93    0.37
  -6   0 -11    3.57    0.33
   6   0  11    3.11    0.36
  -7   0 -11    1.44    0.22
  -7   0 -11    1.46    0.17
  -7   0 -11    0.94    0.18
   7   0  11    1.20    0.23
  -5   1  11   18.55    0.88
  -5   1  11   17.89    0.76
  -5   1  11   18.31    0.76
  -4   1  11    3.83    0.34
  -4   1  11    3.16    0.28
  -4   1  11    3.11    0.31
  -4   1  11    2.91    0.33
  -4   1  11    2.84    0.22
  -4   1  11    3.47    0.31
  -3   1  11   25.46    1.16
  -3   1  11   23.18    1.08
  -3   1  11   23.17    0.93
  -3   1  11   25.03    1.10
  -3   1  11   24.53    1.15
  -3   1  11   25.58    1.11
  -3   1  11   25.51    1.12
  -3   1  11   26.27    1.09
  -3   1  11   22.92    1.14
  -3   1  11   25.53    1.27
  -2   1  11   11.81    0.76
  -2   1  11   11.60    0.69
  -2   1  11   12.80    0.71
  -2   1  11   11.37    0.54
  -2   1  11   13.07    0.68
  -2   1  11   12.67    0.79
  -2   1  11   11.72    0.71
  -2   1  11   11.41    0.64
  -2   1  11   12.14    0.69
  -2   1  11   12.40    0.70
  -1   1  11   39.34    1.95
  -1   1  11   37.85    1.43
  -1   1  11   40.32    1.75
  -1   1  11   39.10    1.63
  -1   1  11   38.05    1.68
  -1   1  11   37.72    1.80
  -1   1  11   37.43    1.64
  -1   1  11   37.81    1.62
   0   1  11   94.44    3.65
   0   1  11   91.61    3.31
   0   1  11   89.92    3.68
   0   1  11  100.44    4.01
   0   1  11   96.54    3.70
   0   1  11   92.43    3.79
   0   1  11   93.42    3.92
   0   1  11   96.60    4.19
   0   1  11   90.69    4.42
  -1  -1 -11    3.06    0.35
   1   1  11    3.33    0.39
   1   1  11    3.15    0.42
   1   1  11    2.43    0.39
   1   1  11    3.11    0.56
   1   1  11    3.17    0.41
   1   1  11    3.34    0.33
   1   1  11    2.57    0.42
   1   1  11    3.48    0.35
  -2  -1 -11   76.82    3.00
  -2  -1 -11   80.84    3.59
   2   1  11   73.48    4.86
   2   1  11   68.54    3.10
   2   1  11   79.67    3.21
  -3  -1 -11   51.03    2.38
  -3  -1 -11   49.76    1.98
  -3  -1 -11   47.70    2.04
  -3  -1 -11   46.60    2.01
   3   1  11   50.65    2.15
  -4  -1 -11   13.01    0.67
  -4  -1 -11   11.87    0.70
  -4  -1 -11   12.96    0.67
  -4  -1 -11   13.25    0.76
   4   1  11   12.09    0.73
  -5  -1 -11   36.39    1.77
  -5  -1 -11   35.89    1.49
  -5  -1 -11   35.45    1.53
   5   1  11   34.80    1.66
   5   1  11   35.86    1.63
  -6  -1 -11   10.45    0.58
  -6  -1 -11    9.78    0.63
  -6  -1 -11   10.89    0.58
   6   1  11   10.73    0.67
  -7  -1 -11   36.91    1.44
  -7  -1 -11   36.26    1.49
   7   1  11   34.67    1.62
  -4   2  11    0.14    0.16
  -4   2  11    0.16    0.16
  -4   2  11    0.12    0.17
  -4   2  11    0.20    0.11
  -4   2  11    0.30    0.10
  -4   2  11    0.21    0.17
  -4   2  11    0.25    0.09
  -3   2  11   15.47    0.86
  -3   2  11   16.01    0.71
  -3   2  11   15.38    0.86
  -3   2  11   16.04    0.74
  -3   2  11   15.60    0.73
  -3   2  11   15.26    0.61
  -3   2  11   15.16    0.60
  -3   2  11   15.84    0.75
  -3   2  11   14.07    0.72
  -3   2  11   15.24    0.75
  -3   2  11   15.41    0.71
  -2   2  11   16.33    0.92
  -2   2  11   16.15    0.64
  -2   2  11   15.21    0.74
  -2   2  11   16.20    0.77
  -2   2  11   15.11    0.77
  -2   2  11   15.25    0.79
  -2   2  11   15.61    0.74
  -2   2  11   14.95    0.78
  -2   2  11   15.95    0.78
  -2   2  11   15.64    0.63
  -2   2  11   15.76    0.89
  -2   2  11   15.82    0.76
  -1   2  11   20.71    0.76
  -1   2  11   19.57    0.94
  -1   2  11   19.82    0.90
  -1   2  11   18.17    1.02
  -1   2  11   17.77    0.90
  -1   2  11   19.12    0.91
  -1   2  11   19.23    0.93
  -1   2  11   18.86    0.91
  -1   2  11   19.50    1.07
  -1   2  11   17.91    0.87
  -1   2  11   18.83    0.94
  -1   2  11   18.12    0.74
   0   2  11   10.24    0.57
   0   2  11   10.26    0.66
   0   2  11    9.49    0.72
   0   2  11    9.42    0.62
   0   2  11    9.74    0.47
   0   2  11    9.84    0.65
   0   2  11   10.21    0.65
   0   2  11    9.65    0.59
   0   2  11   10.49    0.49
   0   2  11   11.04    0.60
   0   2  11    9.50    0.62
   0   2  11   10.36    0.56
   1   2  11    0.79    0.22
   1   2  11    0.65    0.24
   1   2  11    0.77    0.24
   1   2  11    0.46    0.22
   1   2  11    0.10    0.23
   1   2  11    0.57    0.19
   1   2  11    1.13    0.31
   1   2  11    1.28    0.31
   1   2  11    0.74    0.22
   1   2  11    0.97    0.30
  -2  -2 -11   15.13    0.77
   2   2  11   14.16    0.85
   2   2  11   13.53    0.65
   2   2  11   16.06    0.81
   2   2  11   15.03    0.88
   2   2  11   15.83    0.83
   2   2  11   15.00    0.74
   2   2  11   14.73    0.82
  -3  -2 -11   13.70    0.72
  -3  -2 -11   15.07    0.85
  -3  -2 -11   13.40    0.74
   3   2  11   12.94    0.82
   3   2  11   13.92    0.79
   3   2  11   14.99    0.88
  -4  -2 -11    2.78    0.30
  -4  -2 -11    2.39    0.32
  -4  -2 -11    2.39    0.28
   4   2  11    4.10    0.41
  -5  -2 -11    4.92    0.43
  -5  -2 -11    4.66    0.40
   5   2  11    4.31    0.45
   5   2  11    4.51    0.43
  -6  -2 -11    2.81    0.30
  -6  -2 -11    2.06    0.28
  -6  -2 -11    3.58    0.32
   6   2  11    2.64    0.35
  -7  -2 -11   19.68    0.88
  -7  -2 -11   18.42    1.01
  -7  -2 -11   20.68    0.85
   7   2  11   18.27    0.96
  -4   3  11   25.47    0.94
  -4   3  11   25.05    1.04
  -4   3  11   26.85    1.09
  -4   3  11   26.98    1.06
  -4   3  11   27.84    1.24
  -4   3  11   27.31    1.05
  -3   3  11    1.51    0.22
  -3   3  11    1.76    0.26
  -3   3  11    1.33    0.13
  -3   3  11    1.79    0.17
  -3   3  11    1.24    0.16
  -3   3  11    1.43    0.21
  -3   3  11    1.30    0.13
  -3   3  11    1.40    0.23
  -3   3  11    2.05    0.24
  -2   3  11   35.93    1.40
  -2   3  11   33.40    1.40
  -2   3  11   34.08    1.45
  -2   3  11   32.52    1.64
  -2   3  11   34.97    1.43
  -2   3  11   33.56    1.40
  -2   3  11   36.34    1.70
  -2   3  11   32.68    1.45
  -2   3  11   35.05    1.21
  -2   3  11   34.02    1.24
  -1   3  11    5.93    0.47
  -1   3  11    6.02    0.44
  -1   3  11    6.30    0.52
  -1   3  11    5.72    0.37
  -1   3  11    6.01    0.37
  -1   3  11    6.29    0.32
  -1   3  11    6.19    0.32
  -1   3  11    6.42    0.38
  -1   3  11    6.23    0.50
  -1   3  11    6.30    0.44
  -1   3  11    5.44    0.45
   0   3  11   39.99    1.60
   0   3  11   37.45    1.74
   0   3  11   37.87    1.63
   0   3  11   38.50    1.60
   0   3  11   41.05    1.42
   0   3  11   41.05    1.95
   0   3  11   40.23    1.67
   0   3  11   40.81    1.70
   0   3  11   36.79    1.85
   0   3  11   38.45    1.39
   0   3  11   38.12    1.61
   0   3  11   40.13    1.67
   1   3  11   25.78    1.13
   1   3  11   27.30    1.20
   1   3  11   24.78    1.15
   1   3  11   24.52    1.24
   1   3  11   25.81    1.25
   1   3  11   27.13    1.40
   1   3  11   27.70    1.16
   1   3  11   28.18    1.00
   1   3  11   26.30    1.32
   1   3  11   26.41    0.97
   1   3  11   26.67    1.17
   1   3  11   26.47    1.15
   1   3  11   26.53    1.20
   2   3  11    9.34    0.45
   2   3  11    9.39    0.60
   2   3  11    9.39    0.64
   2   3  11    9.74    0.53
   2   3  11   10.63    0.73
   2   3  11   10.31    0.47
   2   3  11   10.09    0.63
   2   3  11    9.63    0.64
   2   3  11    9.94    0.56
   2   3  11   10.07    0.60
   2   3  11   10.46    0.56
   2   3  11    9.07    0.53
  -3  -3 -11   97.94    4.51
   3   3  11   98.76    3.89
   3   3  11   95.29    4.27
   3   3  11   99.26    4.07
   3   3  11   93.26    3.75
   3   3  11   96.03    4.06
   3   3  11   97.01    3.39
  -4  -3 -11    7.33    0.55
  -4  -3 -11    6.63    0.46
  -4  -3 -11    7.46    0.48
   4   3  11    7.32    0.50
   4   3  11    6.68    0.54
   4   3  11    7.17    0.52
  -5  -3 -11   48.11    1.96
  -5  -3 -11   49.44    2.05
  -5  -3 -11   51.60    2.41
   5   3  11   49.08    2.27
   5   3  11   49.14    2.14
  -6  -3 -11   64.62    2.42
  -6  -3 -11   64.62    2.54
  -6  -3 -11   61.25    2.96
   6   3  11   65.08    2.81
   6   3  11   56.33    2.73
  -7  -3 -11    0.62    0.18
  -7  -3 -11    0.38    0.16
  -7  -3 -11    0.63    0.15
   7   3  11    0.31    0.21
   7   3  11    0.47    0.22
  -8  -3 -11   40.64    1.62
   8   3  11   40.04    1.75
  -3   4  11   25.32    0.91
  -3   4  11   26.01    1.04
  -3   4  11   25.85    1.04
  -3   4  11   25.39    0.93
  -3   4  11   27.01    1.03
  -3   4  11   26.84    1.23
  -3   4  11   26.14    1.08
  -2   4  11   21.72    0.87
  -2   4  11   20.67    0.89
  -2   4  11   22.12    1.06
  -2   4  11   20.21    1.08
  -2   4  11   20.31    0.90
  -2   4  11   20.82    0.76
  -2   4  11   21.16    0.77
  -2   4  11   21.03    0.93
  -2   4  11   20.58    0.88
  -2   4  11   21.21    0.89
  -1   4  11    1.20    0.19
  -1   4  11    0.99    0.19
  -1   4  11    1.25    0.14
  -1   4  11    1.37    0.16
  -1   4  11    1.23    0.23
  -1   4  11    0.99    0.24
  -1   4  11    1.41    0.14
  -1   4  11    1.32    0.23
  -1   4  11    1.06    0.23
  -1   4  11    1.46    0.17
   0   4  11   11.46    0.60
   0   4  11   12.03    0.71
   0   4  11   10.69    0.67
   0   4  11   11.57    0.48
   0   4  11   10.94    0.54
   0   4  11   11.43    0.62
   0   4  11   12.10    0.56
   0   4  11   11.26    0.59
   0   4  11   10.98    0.58
   0   4  11   11.68    0.47
   1   4  11    8.66    0.41
   1   4  11    9.00    0.46
   1   4  11    8.95    0.52
   1   4  11    8.92    0.63
   1   4  11    9.55    0.54
   1   4  11    9.32    0.55
   1   4  11    8.44    0.39
   1   4  11    9.33    0.48
   1   4  11    9.22    0.46
   1   4  11    9.16    0.58
   1   4  11    8.87    0.50
   2   4  11    5.30    0.43
   2   4  11    5.11    0.43
   2   4  11    4.38    0.32
   2   4  11    4.42    0.27
   2   4  11    4.55    0.33
   2   4  11    5.17    0.29
   2   4  11    4.12    0.31
   2   4  11    4.86    0.40
   2   4  11    6.18    0.51
   2   4  11    4.27    0.35
   2   4  11    4.39    0.39
   2   4  11    4.95    0.33
   3   4  11   13.09    0.74
   3   4  11   12.77    0.68
   3   4  11   14.54    0.56
   3   4  11   14.51    0.68
   3   4  11   13.24    0.70
   3   4  11   13.78    0.65
   3   4  11   14.00    0.68
   3   4  11   13.99    0.72
   3   4  11   13.85    0.79
   3   4  11   13.32    0.65
   3   4  11   13.80    0.57
  -4  -4 -11    3.27    0.31
  -4  -4 -11    4.15    0.39
  -4  -4 -11    4.20    0.34
   4   4  11    3.86    0.36
   4   4  11    4.51    0.41
   4   4  11    4.45    0.35
   4   4  11    4.10    0.29
   4   4  11    3.47    0.36
   4   4  11    4.20    0.43
  -5  -4 -11    8.01    0.54
  -5  -4 -11    7.98    0.43
  -5  -4 -11    7.25    0.45
   5   4  11    7.98    0.57
   5   4  11    7.26    0.47
   5   4  11    7.52    0.50
   5   4  11    7.59    0.48
  -6  -4 -11   32.69    1.61
  -6  -4 -11   32.51    1.37
   6   4  11   33.95    1.52
   6   4  11   30.52    1.52
   6   4  11   33.62    1.43
  -7  -4 -11    1.14    0.17
  -7  -4 -11    1.06    0.19
   7   4  11    1.45    0.22
   7   4  11    0.94    0.22
   8   4  11   12.53    0.60
   8   4  11   11.50    0.60
  -2   5  11   28.86    1.13
  -2   5  11   28.50    0.99
  -2   5  11   29.79    1.34
  -2   5  11   28.64    1.18
  -2   5  11   29.31    1.40
  -2   5  11   28.05    1.02
  -2   5  11   28.02    1.13
  -1   5  11   24.92    0.90
  -1   5  11   24.16    1.04
  -1   5  11   26.11    1.00
  -1   5  11   25.08    0.88
  -1   5  11   26.30    1.22
  -1   5  11   24.09    1.25
  -1   5  11   24.34    1.02
  -1   5  11   24.57    1.07
  -1   5  11   25.80    1.03
   0   5  11    6.88    0.42
   0   5  11    8.22    0.42
   0   5  11    7.26    0.32
   0   5  11    6.55    0.51
   0   5  11    6.91    0.36
   0   5  11    6.86    0.49
   0   5  11    6.96    0.44
   0   5  11    7.33    0.35
   0   5  11    7.67    0.31
   1   5  11   49.99    1.97
   1   5  11   50.13    1.76
   1   5  11   47.40    2.29
   1   5  11   50.49    2.05
   1   5  11   51.67    2.39
   1   5  11   48.83    1.94
   1   5  11   52.54    1.71
   1   5  11   50.72    1.99
   1   5  11   48.16    2.03
   2   5  11   26.80    1.00
   2   5  11   27.13    0.97
   2   5  11   26.45    1.33
   2   5  11   27.44    1.15
   2   5  11   26.07    1.12
   2   5  11   28.32    1.16
   2   5  11   29.42    1.40
   2   5  11   27.91    1.23
   2   5  11   25.84    1.17
   2   5  11   27.82    1.16
   2   5  11   27.05    1.12
   3   5  11   22.84    1.02
   3   5  11   25.24    1.07
   3   5  11   24.41    1.13
   3   5  11   26.13    0.91
   3   5  11   23.34    1.21
   3   5  11   24.00    1.03
   3   5  11   25.64    1.06
   3   5  11   25.43    0.89
   3   5  11   22.92    1.01
   3   5  11   23.77    1.07
  -4  -5 -11   60.60    2.80
  -4  -5 -11   56.68    2.38
   4   5  11   61.04    2.10
   4   5  11   61.77    2.45
   4   5  11   59.70    2.40
   4   5  11   59.54    2.52
   4   5  11   59.13    2.73
   4   5  11   59.81    2.51
   4   5  11   57.51    2.36
   4   5  11   56.91    2.33
   4   5  11   59.89    2.60
   4   5  11   62.15    2.05
  -5  -5 -11    4.88    0.39
  -5  -5 -11    4.41    0.33
   5   5  11    5.20    0.37
   5   5  11    5.37    0.33
   5   5  11    5.81    0.29
   5   5  11    5.39    0.35
   5   5  11    4.77    0.43
   5   5  11    4.93    0.35
  -6  -5 -11   37.17    1.52
  -6  -5 -11   36.06    1.79
   6   5  11   37.22    1.60
   6   5  11   38.18    1.68
   6   5  11   41.09    1.77
   6   5  11   36.71    1.62
   6   5  11   35.30    1.69
  -7  -5 -11   18.23    0.94
  -7  -5 -11   18.83    0.90
   7   5  11   18.10    0.89
   7   5  11   19.58    0.88
   8   5  11    8.77    0.41
   8   5  11    7.69    0.43
  -1   6  11   12.14    0.45
  -1   6  11   12.13    0.53
  -1   6  11   12.19    0.55
  -1   6  11   12.62    0.63
  -1   6  11   11.93    0.43
   0   6  11    8.32    0.37
   0   6  11    7.96    0.43
   0   6  11    8.55    0.34
   0   6  11    8.81    0.41
   0   6  11    8.76    0.32
   0   6  11    8.08    0.42
   0   6  11    7.58    0.51
   0   6  11    9.06    0.50
   1   6  11   59.22    1.99
   1   6  11   61.22    2.66
   1   6  11   56.33    2.25
   1   6  11   56.52    2.34
   1   6  11   56.99    2.75
   1   6  11   57.42    2.37
   1   6  11   61.12    2.28
   1   6  11   61.48    2.30
   1   6  11   59.17    2.05
   2   6  11   17.37    0.60
   2   6  11   17.62    0.77
   2   6  11   16.04    0.85
   2   6  11   16.63    0.69
   2   6  11   15.67    0.62
   2   6  11   15.70    0.74
   2   6  11   16.10    0.72
   2   6  11   16.05    0.88
   2   6  11   17.00    0.73
   3   6  11   38.90    1.83
   3   6  11   38.16    1.62
   3   6  11   39.27    1.39
   3   6  11   38.56    1.56
   3   6  11   41.85    1.69
   3   6  11   41.76    1.36
   3   6  11   37.50    1.60
   3   6  11   38.46    1.57
  -4  -6 -11   27.16    1.35
   4   6  11   28.68    0.98
   4   6  11   26.66    1.13
   4   6  11   27.05    1.18
   4   6  11   28.13    1.17
   4   6  11   28.12    1.34
   4   6  11   28.61    1.23
   4   6  11   28.44    1.01
   4   6  11   27.00    1.13
  -5  -6 -11    0.86    0.16
   5   6  11    1.01    0.16
   5   6  11    0.71    0.18
   5   6  11    1.05    0.14
   5   6  11    0.81    0.13
   5   6  11    0.77    0.11
   5   6  11    1.18    0.12
   5   6  11    0.77    0.13
   5   6  11    1.11    0.14
  -6  -6 -11   25.04    1.38
   6   6  11   32.69    1.39
   6   6  11   31.19    1.19
   6   6  11   28.25    1.25
  -7  -6 -11    6.33    0.36
   7   6  11    6.19    0.37
   0   7  11   12.87    0.46
   0   7  11   12.68    0.63
   1   7  11    8.02    0.37
   1   7  11    7.38    0.43
   1   7  11    7.72    0.29
   1   7  11    7.80    0.30
   2   7  11   36.01    1.24
   2   7  11   38.13    1.41
   2   7  11   36.20    1.48
   2   7  11   36.12    1.28
   2   7  11   37.12    1.45
   2   7  11   36.02    1.67
   3   7  11    1.54    0.12
   3   7  11    1.44    0.19
   3   7  11    1.48    0.16
   3   7  11    1.37    0.16
   3   7  11    1.48    0.13
   3   7  11    1.44    0.11
   3   7  11    1.49    0.13
   4   7  11   32.95    1.13
   4   7  11   33.99    1.16
   4   7  11   32.68    1.52
   4   7  11   31.66    1.35
   4   7  11   31.96    1.40
   4   7  11   33.15    1.31
   4   7  11   33.81    1.30
   5   7  11   23.62    0.85
   5   7  11   24.66    0.87
   5   7  11   23.79    0.97
   5   7  11   24.28    1.15
   5   7  11   24.79    0.98
   5   7  11   24.02    1.05
   6   7  11    5.54    0.34
   6   7  11    4.48    0.28
   6   7  11    5.04    0.26
  -7  -7 -11   51.08    2.26
   2   8  11   23.55    0.84
   2   8  11   24.46    0.95
   2   8  11   24.28    1.10
   3   8  11    1.10    0.09
   3   8  11    1.25    0.09
   3   8  11    1.19    0.12
   3   8  11    1.25    0.14
   4   8  11   13.31    0.56
   4   8  11   13.63    0.49
   4   8  11   13.69    0.66
   4   8  11   13.61    0.48
   4   8  11   14.09    0.53
   4   8  11   12.98    0.60
   5   8  11   11.17    0.40
   5   8  11   10.27    0.49
   5   8  11   11.51    0.45
   5   8  11   10.62    0.46
   5   8  11   10.66    0.54
  -6  -8 -11    6.21    0.32
   6   8  11    6.23    0.34
   6   8  11    6.50    0.28
   2   5 -12    5.00    0.49
   1   5 -12    9.55    0.61
  -1  -5  12    7.81    0.48
   0   5 -12    0.08    0.21
   0  -5  12    0.06    0.18
  -4  -4  12   13.87    0.62
  -3  -4  12    1.99    0.23
  -2  -4  12   39.89    1.58
  -2  -4  12   37.64    1.65
   1   4 -12   26.38    1.43
  -1  -4  12   24.94    1.15
   0   4 -12   11.96    0.81
   0   4 -12   10.75    0.56
   0  -4  12   10.98    0.61
  -1   4 -12   44.82    1.82
  -1   4 -12   48.65    2.17
   1  -4  12   44.60    1.96
  -2   4 -12    0.42    0.17
  -2   4 -12    0.56    0.25
   2  -4  12    0.33    0.19
  -4  -3  12    0.91    0.18
  -4  -3  12    0.94    0.22
  -3  -3  12    0.47    0.19
   2   3 -12    0.13    0.19
  -2  -3  12    0.14    0.19
   1   3 -12    4.24    0.38
  -1  -3  12    3.31    0.35
   0   3 -12    1.11    0.23
   0  -3  12    0.88    0.23
  -1   3 -12    0.45    0.20
   1  -3  12    0.44    0.22
  -2   3 -12    2.06    0.27
  -2   3 -12    2.08    0.41
   2  -3  12    1.97    0.27
  -3   3 -12    0.15    0.28
  -3   3 -12    0.31    0.19
   3  -3  12    0.08    0.21
  -4   3 -12    1.58    0.22
  -4   3 -12    1.30    0.20
  -5  -2  12    0.05    0.10
  -4  -2  12   30.69    1.44
  -4  -2  12   30.86    1.27
   3   2 -12   20.45    0.93
  -3  -2  12   20.46    0.92
  -3  -2  12   20.77    1.10
   2   2 -12    3.91    0.38
  -2  -2  12    4.49    0.40
   1   2 -12   64.38    2.55
  -1  -2  12   66.01    2.71
  -1  -2  12   62.41    2.55
   0   2 -12   -0.09    0.22
   0  -2  12    0.38    0.20
  -1   2 -12   22.97    1.08
   1  -2  12   24.80    1.13
  -2   2 -12   28.83    1.28
   2  -2  12   29.56    1.34
  -3   2 -12    6.83    0.49
   3  -2  12    6.13    0.47
  -4   2 -12   54.88    2.14
  -4   2 -12   55.10    2.56
  -4   2 -12   56.97    2.21
  -5   2 -12    4.61    0.40
  -5   2 -12    4.74    0.34
   4   1 -12    5.32    0.44
  -4  -1  12    4.18    0.36
  -4  -1  12    5.11    0.38
   3   1 -12    0.21    0.26
  -3  -1  12    0.14    0.19
  -3  -1  12    0.18    0.22
   2   1 -12    0.59    0.28
  -2  -1  12    1.51    0.25
  -2  -1  12    0.43    0.28
   1   1 -12   -0.05    0.26
  -1  -1  12    0.22    0.19
  -1  -1  12    0.25    0.20
   0   1 -12    3.31    0.37
   0  -1  12    3.40    0.34
   0  -1  12    4.11    0.37
  -1   1 -12    1.35    0.22
  -1   1 -12    2.16    0.31
   1  -1  12    1.53    0.26
  -2   1 -12    2.52    0.32
  -2   1 -12    1.44    0.23
   2  -1  12    2.15    0.28
  -3   1 -12    3.03    0.35
  -3   1 -12    2.29    0.26
   3  -1  12    3.12    0.34
  -4   1 -12    0.31    0.16
  -4   1 -12    0.62    0.23
   4  -1  12    0.16    0.23
  -5   1 -12    2.47    0.24
  -5   1 -12    2.77    0.38
  -5   1 -12    2.42    0.24
  -5   1 -12    2.25    0.26
   5  -1  12    1.66    0.28
   4   0 -12    6.53    0.45
  -4   0  12    5.90    0.40
  -4   0  12    5.96    0.39
  -3   0  12   50.66    2.02
  -3   0  12   53.16    2.26
  -3   0  12   45.65    2.19
  -3   0  12   51.15    2.03
  -2   0  12    3.17    0.41
  -2   0  12    3.04    0.37
  -2   0  12    3.41    0.36
  -2   0  12    3.14    0.34
  -2   0  12    2.82    0.37
   1   0 -12   66.27    2.67
  -1   0  12   67.60    2.92
  -1   0  12   65.85    2.67
  -1   0  12   65.88    3.04
  -1   0  12   68.36    2.65
   0   0 -12   67.83    2.68
   0   0  12   68.33    2.67
   0   0  12   61.88    2.67
   0   0  12   66.63    2.84
   0   0  12   69.98    3.08
  -1   0 -12    0.34    0.25
  -1   0 -12    0.01    0.20
   1   0  12    0.37    0.30
   1   0  12    0.10    0.20
  -2   0 -12   62.07    2.54
  -2   0 -12   63.54    2.48
  -2   0 -12   64.12    2.57
   2   0  12   63.27    2.70
  -3   0 -12   16.80    0.80
  -3   0 -12   15.81    0.84
  -3   0 -12   16.89    0.81
   3   0  12   18.32    0.89
  -4   0 -12   18.87    0.87
  -4   0 -12   18.62    0.91
  -4   0 -12   19.39    0.88
   4   0  12   19.19    0.97
  -5   0 -12   52.08    2.06
  -5   0 -12   53.79    2.03
  -5   0 -12   52.19    2.09
   5   0  12   47.63    2.28
  -6   0 -12    2.26    0.24
  -6   0 -12    1.62    0.20
  -6   0 -12    1.76    0.28
   6   0  12    1.43    0.25
  -4   1  12    5.22    0.36
  -4   1  12    5.79    0.35
  -4   1  12    5.98    0.33
  -4   1  12    5.15    0.31
  -3   1  12    5.35    0.36
  -3   1  12    5.28    0.43
  -3   1  12    5.44    0.43
  -3   1  12    4.89    0.41
  -3   1  12    6.72    0.44
  -2   1  12    1.96    0.26
  -2   1  12    2.05    0.32
  -2   1  12    2.12    0.31
  -2   1  12    2.11    0.27
  -2   1  12    1.91    0.31
  -2   1  12    1.91    0.20
  -2   1  12    1.72    0.27
  -2   1  12    1.66    0.27
  -1   1  12    5.84    0.54
  -1   1  12    5.55    0.49
  -1   1  12    5.82    0.54
  -1   1  12    5.00    0.49
  -1   1  12    4.74    0.44
  -1   1  12    5.30    0.48
   0  -1 -12    1.01    0.28
   0   1  12    0.51    0.32
   0   1  12    0.67    0.30
   0   1  12    0.81    0.27
   0   1  12    0.48    0.30
   0   1  12    0.43    0.23
   0   1  12    0.77    0.22
   0   1  12    1.10    0.28
  -1  -1 -12    0.56    0.25
   1   1  12    0.08    0.30
   1   1  12    0.15    0.28
   1   1  12    0.23    0.27
   1   1  12    0.48    0.21
   1   1  12    0.53    0.23
   1   1  12    0.38    0.28
  -2  -1 -12   19.24    1.05
  -2  -1 -12   19.71    0.90
  -2  -1 -12   19.63    0.93
   2   1  12   16.67    0.97
   2   1  12   20.19    1.10
   2   1  12   18.49    0.96
  -3  -1 -12    4.22    0.43
  -3  -1 -12    5.78    0.45
  -3  -1 -12    4.28    0.40
  -3  -1 -12    4.72    0.43
   3   1  12    5.03    0.46
  -4  -1 -12    6.57    0.47
  -4  -1 -12    6.38    0.45
  -4  -1 -12    7.00    0.46
  -4  -1 -12    6.27    0.49
   4   1  12    6.48    0.52
  -5  -1 -12    3.73    0.37
  -5  -1 -12    3.04    0.30
  -5  -1 -12    3.82    0.35
   5   1  12    3.69    0.37
  -6  -1 -12    0.78    0.18
  -6  -1 -12    0.82    0.18
   6   1  12    0.56    0.22
  -7  -1 -12    1.60    0.18
  -4   2  12    0.18    0.11
  -4   2  12    0.42    0.09
  -4   2  12    0.10    0.12
  -3   2  12   24.44    0.96
  -3   2  12   23.17    0.96
  -3   2  12   23.51    1.11
  -3   2  12   24.03    0.97
  -3   2  12   22.40    0.84
  -3   2  12   23.81    0.97
  -3   2  12   20.28    0.82
  -3   2  12   24.12    0.99
  -3   2  12   20.60    1.14
  -2   2  12   37.61    1.52
  -2   2  12   37.37    1.71
  -2   2  12   32.38    1.53
  -2   2  12   36.00    1.56
  -2   2  12   35.14    1.48
  -2   2  12   36.43    1.77
  -2   2  12   37.53    1.51
  -2   2  12   36.82    1.46
  -2   2  12   37.21    1.48
  -2   2  12   34.82    1.28
  -2   2  12   35.47    1.30
  -1   2  12    0.81    0.23
  -1   2  12    1.20    0.16
  -1   2  12    0.75    0.20
  -1   2  12    0.98    0.24
  -1   2  12    1.05    0.16
  -1   2  12    1.16    0.26
  -1   2  12    0.85    0.18
  -1   2  12    0.83    0.25
  -1   2  12    0.99    0.18
  -1   2  12    1.00    0.19
  -1   2  12    0.71    0.27
  -1   2  12    1.05    0.23
   0   2  12   62.46    2.66
   0   2  12   60.25    2.49
   0   2  12   61.72    2.77
   0   2  12   63.80    2.59
   0   2  12   60.72    2.16
   0   2  12   57.43    2.48
   0   2  12   63.26    2.54
   0   2  12   63.74    2.45
   0   2  12   59.81    2.46
   0   2  12   67.59    2.98
   0   2  12   60.91    2.20
  -1  -2 -12   22.10    1.06
   1   2  12   24.63    0.94
   1   2  12   22.48    1.07
   1   2  12   24.57    1.15
   1   2  12   25.60    1.12
   1   2  12   23.65    1.17
   1   2  12   23.95    1.15
   1   2  12   24.29    1.20
   1   2  12   25.52    1.33
  -2  -2 -12   42.01    1.83
   2   2  12   46.85    1.95
   2   2  12   45.60    2.11
   2   2  12   47.66    2.02
   2   2  12   43.20    1.84
   2   2  12   44.90    2.02
   2   2  12   48.13    1.88
  -3  -2 -12  137.40    5.15
  -3  -2 -12  126.53    5.18
  -3  -2 -12  140.75    6.29
  -3  -2 -12  136.43    5.37
   3   2  12  137.14    5.98
   3   2  12  142.39    5.65
   3   2  12  133.15    5.40
  -4  -2 -12    3.87    0.36
  -4  -2 -12    3.32    0.39
  -4  -2 -12    2.49    0.30
   4   2  12    3.53    0.38
   4   2  12    4.37    0.42
  -5  -2 -12   70.47    2.92
  -5  -2 -12   69.19    3.40
  -5  -2 -12   75.68    2.81
   5   2  12   74.87    3.06
  -6  -2 -12   36.98    1.52
  -6  -2 -12   40.44    1.47
  -6  -2 -12   33.78    1.75
   6   2  12   33.50    1.63
  -7  -2 -12    7.40    0.38
  -7  -2 -12    8.02    0.41
   7   2  12    6.66    0.44
  -3   3  12    1.63    0.19
  -3   3  12    1.69    0.14
  -3   3  12    1.69    0.20
  -3   3  12    1.73    0.20
  -3   3  12    1.43    0.12
  -3   3  12    1.66    0.17
  -3   3  12    1.50    0.18
  -2   3  12   24.22    1.04
  -2   3  12   25.42    1.07
  -2   3  12   24.51    0.90
  -2   3  12   24.10    1.24
  -2   3  12   24.26    1.03
  -2   3  12   26.08    1.02
  -2   3  12   22.55    1.05
  -2   3  12   25.82    1.03
  -2   3  12   25.37    1.20
  -2   3  12   23.91    0.88
  -1   3  12    1.86    0.27
  -1   3  12    1.82    0.17
  -1   3  12    2.32    0.28
  -1   3  12    1.85    0.25
  -1   3  12    2.05    0.19
  -1   3  12    2.71    0.33
  -1   3  12    2.10    0.27
  -1   3  12    2.03    0.18
  -1   3  12    2.00    0.21
  -1   3  12    2.00    0.25
  -1   3  12    2.21    0.22
   0   3  12   20.91    0.96
   0   3  12   21.63    1.01
   0   3  12   21.64    0.98
   0   3  12   22.45    0.82
   0   3  12   24.20    1.18
   0   3  12   21.81    1.10
   0   3  12   20.97    0.98
   0   3  12   22.24    0.83
   0   3  12   21.37    0.97
   0   3  12   20.26    0.94
   0   3  12   22.32    0.99
  -1  -3 -12    1.17    0.23
   1   3  12    1.41    0.30
   1   3  12    1.07    0.19
   1   3  12    1.25    0.21
   1   3  12    1.00    0.19
   1   3  12    1.73    0.18
   1   3  12    1.47    0.18
   1   3  12    1.71    0.27
   1   3  12    1.32    0.26
   1   3  12    1.41    0.25
   1   3  12    1.12    0.22
   1   3  12    1.46    0.21
   1   3  12    1.49    0.28
   2   3  12    2.06    0.20
   2   3  12    1.96    0.24
   2   3  12    2.27    0.33
   2   3  12    2.08    0.31
   2   3  12    1.86    0.28
   2   3  12    2.71    0.28
   2   3  12    2.22    0.29
   2   3  12    2.13    0.25
   2   3  12    1.80    0.26
  -3  -3 -12    0.89    0.19
  -3  -3 -12    0.76    0.21
   3   3  12    0.99    0.22
   3   3  12    0.69    0.16
   3   3  12    0.87    0.26
   3   3  12    0.94    0.26
  -4  -3 -12    8.04    0.49
  -4  -3 -12    7.43    0.54
  -4  -3 -12    7.36    0.45
   4   3  12    7.47    0.53
   4   3  12    7.60    0.53
   4   3  12    7.36    0.50
  -5  -3 -12   14.80    0.68
  -5  -3 -12   13.80    0.82
  -5  -3 -12   14.24    0.71
   5   3  12   15.04    0.79
   5   3  12   14.20    0.74
  -6  -3 -12    4.11    0.34
  -6  -3 -12    4.36    0.32
   6   3  12    4.55    0.39
  -7  -3 -12    4.75    0.29
  -7  -3 -12    4.20    0.26
   7   3  12    3.82    0.33
   7   3  12    3.46    0.35
  -3   4  12    0.22    0.06
  -3   4  12    0.21    0.11
  -3   4  12    0.34    0.12
  -2   4  12   36.89    1.45
  -2   4  12   36.57    1.46
  -2   4  12   35.63    1.28
  -2   4  12   36.85    1.78
  -2   4  12   36.27    1.47
  -2   4  12   38.19    1.47
  -2   4  12   37.60    1.32
  -2   4  12   39.08    1.52
  -2   4  12   39.32    1.72
  -1   4  12   19.41    0.84
  -1   4  12   19.75    0.87
  -1   4  12   20.13    0.85
  -1   4  12   19.60    0.98
  -1   4  12   20.14    0.82
  -1   4  12   20.05    0.73
  -1   4  12   17.95    0.85
  -1   4  12   18.81    0.83
  -1   4  12   19.69    0.71
  -1   4  12   20.32    1.03
   0   4  12   18.52    0.84
   0   4  12   18.90    0.84
   0   4  12   18.51    0.87
   0   4  12   19.98    1.02
   0   4  12   19.27    0.85
   0   4  12   19.51    0.72
   0   4  12   18.44    0.81
   0   4  12   17.36    0.82
   0   4  12   19.88    0.70
   0   4  12   18.57    0.96
   1   4  12   40.93    1.73
   1   4  12   40.80    2.01
   1   4  12   43.43    1.72
   1   4  12   44.29    1.50
   1   4  12   42.69    1.79
   1   4  12   42.26    1.86
   1   4  12   42.54    1.75
   1   4  12   43.43    1.82
   1   4  12   47.99    2.12
   1   4  12   44.04    1.81
   1   4  12   43.84    1.55
   2   4  12    5.01    0.39
   2   4  12    4.81    0.38
   2   4  12    4.38    0.30
   2   4  12    5.56    0.42
   2   4  12    4.33    0.27
   2   4  12    4.80    0.32
   2   4  12    5.11    0.27
   2   4  12    4.47    0.34
   2   4  12    4.66    0.28
   2   4  12    5.18    0.49
   2   4  12    4.71    0.41
   2   4  12    4.80    0.33
  -3  -4 -12    8.86    0.53
   3   4  12    7.90    0.37
   3   4  12    8.47    0.45
   3   4  12    8.00    0.38
   3   4  12    8.23    0.46
   3   4  12    6.99    0.43
   3   4  12    7.97    0.46
   3   4  12    7.96    0.43
   3   4  12    8.08    0.52
   3   4  12    7.81    0.51
   3   4  12    8.11    0.54
  -4  -4 -12   18.47    0.86
  -4  -4 -12   18.68    0.82
  -4  -4 -12   20.20    1.01
   4   4  12   19.37    0.90
   4   4  12   19.65    1.00
   4   4  12   19.37    0.93
   4   4  12   18.66    0.93
  -5  -4 -12    2.32    0.28
  -5  -4 -12    1.60    0.19
  -5  -4 -12    2.07    0.22
   5   4  12    2.10    0.24
   5   4  12    1.91    0.23
   5   4  12    1.99    0.24
  -6  -4 -12   38.13    1.90
  -6  -4 -12   40.75    1.62
  -6  -4 -12   39.52    1.54
   6   4  12   42.31    1.79
   6   4  12   37.88    1.68
  -7  -4 -12    7.88    0.40
   7   4  12    7.95    0.46
   7   4  12    8.83    0.46
  -2   5  12   24.01    1.08
  -2   5  12   23.23    0.91
  -2   5  12   23.57    0.95
  -2   5  12   22.66    0.82
  -1   5  12    0.03    0.14
  -1   5  12    0.08    0.13
  -1   5  12   -0.31    0.14
  -1   5  12    0.14    0.13
  -1   5  12    0.05    0.06
  -1   5  12    0.05    0.07
  -1   5  12    0.15    0.07
  -1   5  12    0.05    0.09
   0   5  12   10.80    0.55
   0   5  12   11.49    0.44
   0   5  12   10.89    0.42
   0   5  12   11.47    0.61
   0   5  12   10.47    0.52
   0   5  12   11.07    0.52
   0   5  12   11.53    0.48
   0   5  12   10.26    0.64
   0   5  12   10.35    0.50
   1   5  12   36.15    1.27
   1   5  12   36.11    1.42
   1   5  12   35.92    1.66
   1   5  12   34.97    1.47
   1   5  12   35.65    1.73
   1   5  12   36.09    1.44
   1   5  12   33.93    1.47
   1   5  12   34.73    1.40
   1   5  12   36.28    1.23
   2   5  12    1.17    0.18
   2   5  12    1.11    0.15
   2   5  12    1.32    0.16
   2   5  12    1.46    0.22
   2   5  12    1.15    0.18
   2   5  12    1.24    0.13
   2   5  12    1.16    0.13
   2   5  12    1.15    0.21
   2   5  12    1.20    0.19
   2   5  12    1.33    0.24
  -3  -5 -12   25.20    1.24
   3   5  12   25.06    1.22
   3   5  12   24.36    1.08
   3   5  12   23.94    1.03
   3   5  12   23.72    1.03
   3   5  12   25.79    1.14
   3   5  12   25.97    0.90
   3   5  12   25.76    0.92
   3   5  12   23.86    1.07
   3   5  12   25.05    1.07
  -4  -5 -12    8.19    0.43
  -4  -5 -12    7.22    0.49
  -4  -5 -12    7.08    0.40
   4   5  12    8.30    0.52
   4   5  12    8.90    0.36
   4   5  12    7.64    0.42
   4   5  12    8.56    0.36
   4   5  12    8.07    0.41
   4   5  12    8.45    0.48
   4   5  12    8.32    0.43
   4   5  12    7.86    0.41
  -5  -5 -12    4.60    0.29
  -5  -5 -12    4.33    0.34
   5   5  12    4.34    0.32
   5   5  12    4.85    0.39
   5   5  12    4.59    0.31
   5   5  12    4.62    0.29
   5   5  12    4.38    0.29
  -6  -5 -12   11.66    0.69
  -6  -5 -12   13.62    0.60
   6   5  12   13.17    0.63
   6   5  12   13.84    0.65
   6   5  12   15.36    0.72
   7   5  12    0.94    0.12
  -1   6  12   37.22    1.31
  -1   6  12   38.72    1.70
   0   6  12    1.47    0.16
   0   6  12    1.39    0.11
   0   6  12    1.48    0.12
   0   6  12    1.68    0.16
   0   6  12    1.45    0.18
   0   6  12    1.31    0.15
   1   6  12   19.68    0.71
   1   6  12   21.51    0.99
   1   6  12   21.23    0.81
   1   6  12   19.54    1.02
   1   6  12   19.50    0.82
   1   6  12   20.08    0.86
   1   6  12   21.29    0.85
   1   6  12   19.75    0.85
   1   6  12   20.96    0.74
   2   6  12   54.28    2.04
   2   6  12   54.73    2.05
   2   6  12   54.07    1.83
   2   6  12   52.35    2.37
   2   6  12   51.88    2.17
   2   6  12   50.13    2.12
   2   6  12   52.41    1.78
   2   6  12   49.24    2.08
  -3  -6 -12    2.11    0.25
   3   6  12    2.75    0.24
   3   6  12    2.24    0.19
   3   6  12    2.56    0.28
   3   6  12    2.74    0.19
   3   6  12    2.69    0.17
   3   6  12    2.81    0.17
   3   6  12    2.14    0.21
   3   6  12    2.57    0.22
  -4  -6 -12   38.31    1.93
  -4  -6 -12   39.12    1.64
   4   6  12   38.28    1.69
   4   6  12   44.81    1.46
   4   6  12   43.22    1.89
   4   6  12   41.03    1.62
   4   6  12   42.76    1.42
   4   6  12   41.00    1.74
   4   6  12   42.75    1.63
  -5  -6 -12   12.36    0.72
   5   6  12   15.84    0.54
   5   6  12   15.49    0.74
   5   6  12   14.11    0.61
   5   6  12   13.98    0.66
   5   6  12   14.48    0.62
   6   6  12    8.85    0.41
   6   6  12    9.57    0.50
   6   6  12    8.13    0.42
   1   7  12    7.17    0.38
   1   7  12    7.17    0.32
   1   7  12    6.75    0.27
   2   7  12   11.65    0.49
   2   7  12   11.53    0.57
   2   7  12   10.84    0.42
   2   7  12   11.07    0.40
   3   7  12    2.57    0.14
   3   7  12    2.51    0.14
   3   7  12    2.18    0.17
   3   7  12    2.26    0.14
   3   7  12    2.29    0.19
   3   7  12    2.14    0.23
   4   7  12   13.56    0.67
   4   7  12   13.83    0.55
   4   7  12   12.69    0.61
   4   7  12   12.93    0.56
   4   7  12   13.18    0.48
   4   7  12   13.89    0.50
   5   7  12    0.51    0.07
   5   7  12    0.42    0.13
   5   7  12    0.40    0.08
   5   7  12    0.49    0.08
   5   7  12    0.43    0.10
   6   7  12   14.69    0.61
   6   7  12   15.30    0.72
   4   8  12    6.84    0.37
   4   8  12    7.39    0.27
   4   8  12    6.78    0.31
   1   4 -13    8.21    0.63
   0   4 -13    0.75    0.28
   0  -4  13    0.55    0.18
  -1   4 -13    8.79    0.57
  -3  -3  13    3.61    0.29
  -3  -3  13    3.78    0.38
  -2  -3  13    3.20    0.29
   1   3 -13    9.25    0.50
  -1  -3  13    8.31    0.49
   0   3 -13    0.41    0.21
   0  -3  13    0.43    0.19
  -1   3 -13   26.26    1.13
  -1   3 -13   28.57    1.44
   1  -3  13   26.21    1.21
  -2   3 -13    9.21    0.65
  -2   3 -13    9.03    0.49
   2  -3  13    8.38    0.51
  -3   3 -13   17.09    0.84
  -3   3 -13   15.74    0.72
  -4  -2  13    1.13    0.15
  -4  -2  13    1.12    0.16
  -3  -2  13    1.07    0.20
  -3  -2  13    1.07    0.22
   2   2 -13   -0.13    0.21
  -2  -2  13    0.04    0.19
  -2  -2  13    0.03    0.25
   1   2 -13    4.81    0.43
  -1  -2  13    3.92    0.37
  -1  -2  13    3.71    0.37
   0   2 -13    7.80    0.52
   0  -2  13    7.27    0.48
  -1   2 -13    3.32    0.34
   1  -2  13    3.56    0.37
  -2   2 -13   22.17    1.00
   2  -2  13   21.89    1.04
  -3   2 -13    1.24    0.24
  -3   2 -13    1.09    0.33
   3  -2  13    1.14    0.24
  -4   2 -13   12.49    0.70
  -4   2 -13   11.88    0.58
  -4  -1  13    6.59    0.35
   3   1 -13   32.85    1.31
  -3  -1  13   31.63    1.44
  -3  -1  13   29.47    1.29
   2   1 -13    5.53    0.49
  -2  -1  13    6.04    0.43
  -2  -1  13    5.50    0.49
   1   1 -13   40.01    1.64
  -1  -1  13   39.99    1.87
  -1  -1  13   37.29    1.62
   0   1 -13   23.28    1.09
   0  -1  13   24.76    1.06
   0  -1  13   22.99    1.11
  -1   1 -13   12.91    0.71
   1  -1  13   12.18    0.69
  -2   1 -13   19.25    0.86
  -2   1 -13   19.57    0.93
   2  -1  13   19.54    0.96
  -3   1 -13    7.87    0.53
  -3   1 -13    7.46    0.45
   3  -1  13    8.29    0.53
  -4   1 -13   21.62    0.97
  -4   1 -13   22.48    0.94
   4  -1  13   22.28    1.04
  -5   1 -13   18.27    0.92
  -5   1 -13   17.80    0.77
   3   0 -13    1.08    0.23
  -3   0  13    1.20    0.16
  -3   0  13    1.39    0.21
   2   0 -13   15.02    0.76
  -2   0  13   14.79    0.79
  -2   0  13   14.87    0.73
   1   0 -13    0.36    0.29
  -1   0  13    0.62    0.25
  -1   0  13   -0.20    0.29
  -1   0  13    0.54    0.27
  -1   0  13    0.71    0.22
   0   0 -13    5.70    0.52
   0   0 -13    2.87    0.32
   0   0  13    4.41    0.42
   0   0  13    4.06    0.42
   0   0  13    5.53    0.54
  -1   0 -13    2.54    0.29
  -1   0 -13    2.55    0.34
   1   0  13    3.57    0.42
   1   0  13    2.65    0.33
  -2   0 -13    0.68    0.20
  -2   0 -13    1.16    0.26
  -2   0 -13    0.51    0.20
   2   0  13    0.78    0.25
  -3   0 -13    0.69    0.22
  -3   0 -13    0.54    0.19
  -3   0 -13    0.51    0.19
   3   0  13    0.43    0.23
  -4   0 -13    5.66    0.39
  -4   0 -13    5.84    0.42
  -4   0 -13    5.72    0.40
   4   0  13    5.40    0.46
  -5   0 -13    4.05    0.31
  -5   0 -13    4.42    0.32
  -5   0 -13    4.13    0.34
   3  -1 -13   50.79    1.89
  -3   1  13   48.87    1.90
  -3   1  13   44.95    1.90
   2  -1 -13   31.80    1.29
  -2   1  13   31.16    1.30
  -2   1  13   30.76    1.26
  -2   1  13   30.47    1.28
  -2   1  13   30.57    1.38
   1  -1 -13   16.02    0.81
  -1   1  13   15.94    0.82
  -1   1  13   16.88    0.81
  -1   1  13   16.50    0.80
  -1   1  13   16.85    0.85
  -1   1  13   15.31    0.83
   0  -1 -13   51.31    2.01
   0   1  13   49.37    2.08
   0   1  13   50.40    2.26
   0   1  13   50.84    2.00
   0   1  13   48.19    2.17
   0   1  13   48.02    2.15
   0   1  13   48.60    2.01
  -1  -1 -13   10.12    0.60
   1   1  13    9.66    0.65
   1   1  13   10.02    0.62
   1   1  13    9.61    0.67
   1   1  13    9.30    0.66
   1   1  13    9.97    0.56
  -2  -1 -13   39.06    1.71
  -2  -1 -13   39.30    1.66
  -2  -1 -13   41.51    1.69
   2   1  13   43.56    1.95
   2   1  13   41.99    1.84
  -3  -1 -13   42.70    1.87
  -3  -1 -13   43.12    1.81
  -3  -1 -13   45.54    1.83
  -3  -1 -13   43.14    2.20
   3   1  13   49.08    2.14
   3   1  13   48.95    2.02
  -4  -1 -13    0.20    0.17
  -4  -1 -13    0.13    0.17
  -4  -1 -13    0.33    0.18
  -4  -1 -13    0.13    0.16
   4   1  13    0.44    0.22
  -5  -1 -13   42.54    1.67
  -5  -1 -13   42.42    1.73
   5   1  13   41.73    1.81
  -6  -1 -13    5.88    0.35
  -6  -1 -13    5.71    0.35
   3  -2 -13    0.73    0.16
  -3   2  13    0.97    0.14
  -3   2  13    1.14    0.13
  -3   2  13    1.02    0.16
  -3   2  13    0.96    0.15
  -3   2  13    0.96    0.13
  -3   2  13    0.89    0.16
  -2   2  13    0.40    0.17
  -2   2  13    0.17    0.10
  -2   2  13    0.19    0.16
  -2   2  13    0.17    0.12
  -2   2  13    0.19    0.19
  -2   2  13    0.16    0.15
  -2   2  13    0.09    0.17
   1  -2 -13    8.94    0.52
  -1   2  13    9.07    0.53
  -1   2  13    8.27    0.60
  -1   2  13    9.01    0.53
  -1   2  13    8.62    0.47
  -1   2  13    9.52    0.53
  -1   2  13    8.99    0.39
  -1   2  13    8.69    0.50
  -1   2  13    8.40    0.50
   0  -2 -13    1.10    0.24
   0   2  13    0.75    0.21
   0   2  13    1.37    0.23
   0   2  13    1.24    0.21
   0   2  13    0.87    0.18
   0   2  13    1.58    0.27
   0   2  13    1.32    0.27
   0   2  13    1.02    0.16
   0   2  13    0.95    0.28
  -1  -2 -13    1.75    0.26
   1   2  13    2.11    0.31
   1   2  13    1.55    0.26
   1   2  13    1.82    0.29
   1   2  13    2.01    0.30
   1   2  13    1.81    0.24
   1   2  13    2.05    0.27
  -2  -2 -13   15.80    0.73
  -2  -2 -13   14.81    0.72
  -2  -2 -13   14.96    0.86
   2   2  13   15.11    0.82
   2   2  13   14.88    0.70
   2   2  13   14.41    0.81
   2   2  13   14.19    0.77
   2   2  13   14.47    0.82
  -3  -2 -13    0.68    0.21
  -3  -2 -13    0.91    0.19
  -3  -2 -13    0.88    0.21
  -3  -2 -13    0.89    0.22
   3   2  13    0.77    0.27
   3   2  13    0.90    0.26
  -4  -2 -13    9.56    0.54
  -4  -2 -13    8.93    0.52
  -4  -2 -13    8.59    0.59
   4   2  13    9.57    0.59
   4   2  13   10.12    0.62
  -5  -2 -13    3.27    0.30
  -5  -2 -13    2.06    0.23
  -5  -2 -13    1.73    0.24
   5   2  13    1.96    0.25
   5   2  13    3.53    0.37
  -6  -2 -13    9.84    0.51
  -6  -2 -13    9.91    0.48
   6   2  13   10.08    0.56
  -2   3  13   35.74    1.40
  -2   3  13   34.03    1.57
  -2   3  13   34.78    1.36
  -2   3  13   34.72    1.34
  -2   3  13   32.99    1.21
  -2   3  13   35.41    1.35
  -2   3  13   35.08    1.36
  -2   3  13   31.49    1.18
  -1   3  13   12.59    0.69
  -1   3  13   11.80    0.61
  -1   3  13   14.26    0.64
  -1   3  13   14.42    0.63
  -1   3  13   13.09    0.51
  -1   3  13   13.62    0.63
  -1   3  13   12.52    0.51
  -1   3  13   12.49    0.73
  -1   3  13   12.62    0.61
  -1   3  13   13.46    0.59
   0  -3 -13   23.96    1.05
   0   3  13   23.65    1.10
   0   3  13   26.50    1.11
   0   3  13   27.53    1.07
   0   3  13   24.45    0.91
   0   3  13   25.17    1.22
   0   3  13   26.47    1.29
   0   3  13   23.08    1.09
   0   3  13   25.38    0.93
   0   3  13   26.00    1.08
   0   3  13   25.29    1.05
  -1  -3 -13   38.55    1.57
   1   3  13   40.02    1.41
   1   3  13   38.74    1.69
   1   3  13   37.04    1.65
   1   3  13   42.28    1.66
   1   3  13   40.22    1.38
   1   3  13   42.16    1.94
   1   3  13   39.93    1.58
   1   3  13   37.39    1.82
   1   3  13   37.52    1.73
   1   3  13   38.41    1.59
   1   3  13   38.32    1.71
   1   3  13   38.74    1.59
  -2  -3 -13   -0.09    0.17
  -2  -3 -13    0.04    0.18
   2   3  13    0.42    0.17
   2   3  13   -0.11    0.13
   2   3  13    0.00    0.13
   2   3  13   -0.11    0.23
   2   3  13    0.39    0.13
   2   3  13    0.18    0.20
   2   3  13    0.17    0.20
   2   3  13    0.21    0.17
  -3  -3 -13   63.98    3.04
  -3  -3 -13   65.69    2.49
  -3  -3 -13   64.73    2.59
   3   3  13   64.80    2.75
   3   3  13   68.55    2.63
   3   3  13   63.98    2.86
   3   3  13   60.99    2.74
  -4  -3 -13   16.50    0.76
  -4  -3 -13   16.73    0.72
  -4  -3 -13   15.64    0.88
   4   3  13   16.42    0.83
   4   3  13   16.15    0.81
   4   3  13   14.61    0.79
  -5  -3 -13   25.57    1.35
  -5  -3 -13   28.36    1.12
  -5  -3 -13   27.80    1.17
   5   3  13   28.93    1.29
   5   3  13   26.87    1.22
  -6  -3 -13   34.68    1.42
  -6  -3 -13   33.86    1.35
   6   3  13   35.75    1.57
   2  -4 -13    1.83    0.17
  -2   4  13    2.10    0.18
  -2   4  13    1.72    0.12
  -2   4  13    1.88    0.11
  -2   4  13    1.81    0.18
  -2   4  13    1.54    0.15
  -2   4  13    1.83    0.16
  -1   4  13    1.61    0.20
  -1   4  13    1.88    0.21
  -1   4  13    1.91    0.15
  -1   4  13    1.80    0.17
  -1   4  13    1.93    0.17
  -1   4  13    1.51    0.23
  -1   4  13    1.85    0.15
  -1   4  13    1.89    0.20
  -1   4  13    1.59    0.17
   0  -4 -13    3.42    0.30
   0   4  13    3.72    0.21
   0   4  13    3.72    0.24
   0   4  13    3.73    0.32
   0   4  13    4.01    0.37
   0   4  13    3.68    0.28
   0   4  13    3.57    0.33
   0   4  13    4.09    0.35
   0   4  13    3.24    0.25
   0   4  13    3.84    0.22
   1   4  13    0.55    0.21
   1   4  13    0.66    0.11
   1   4  13    0.28    0.11
   1   4  13    0.41    0.14
   1   4  13    0.71    0.18
   1   4  13    0.81    0.21
   1   4  13    0.26    0.12
   1   4  13    0.38    0.17
   1   4  13    0.67    0.13
   2   4  13    6.96    0.44
   2   4  13    6.53    0.32
   2   4  13    6.58    0.45
   2   4  13    6.79    0.32
   2   4  13    6.02    0.37
   2   4  13    7.17    0.45
   2   4  13    6.90    0.38
   2   4  13    6.40    0.42
   2   4  13    6.77    0.37
   2   4  13    6.38    0.38
  -3  -4 -13    8.03    0.52
  -3  -4 -13    8.60    0.44
   3   4  13    8.44    0.46
   3   4  13    8.30    0.43
   3   4  13    9.39    0.51
   3   4  13    9.05    0.53
   3   4  13    8.32    0.51
   3   4  13    8.16    0.43
   3   4  13    8.51    0.38
   3   4  13    7.94    0.43
  -4  -4 -13    0.27    0.15
  -4  -4 -13    0.27    0.13
  -4  -4 -13    0.27    0.15
   4   4  13    0.37    0.14
   4   4  13    0.21    0.16
   4   4  13    0.52    0.15
  -5  -4 -13    4.04    0.27
  -5  -4 -13    4.38    0.29
  -5  -4 -13    3.86    0.32
   5   4  13    4.21    0.30
   5   4  13    3.62    0.30
  -6  -4 -13    1.21    0.14
  -6  -4 -13    1.03    0.12
   6   4  13    1.16    0.15
   6   4  13    0.93    0.14
   7   4  13    3.74    0.23
  -1   5  13   36.19    1.44
  -1   5  13   35.78    1.38
  -1   5  13   35.45    1.26
  -1   5  13   37.19    1.63
   0   5  13    1.60    0.17
   0   5  13    1.74    0.14
   0   5  13    1.99    0.13
   0   5  13    1.87    0.14
   0   5  13    2.08    0.18
   0   5  13    1.85    0.20
   0   5  13    1.76    0.19
   1   5  13   50.40    1.89
   1   5  13   50.32    1.69
   1   5  13   46.34    1.64
   1   5  13   47.13    1.85
   1   5  13   47.20    2.27
   1   5  13   45.43    1.96
   1   5  13   47.65    1.93
   1   5  13   49.71    1.89
   1   5  13   49.78    2.18
   2   5  13   15.48    0.74
   2   5  13   15.18    0.70
   2   5  13   16.73    0.68
   2   5  13   16.30    0.70
   2   5  13   16.82    0.61
   2   5  13   16.66    0.81
   2   5  13   15.78    0.73
   2   5  13   16.16    0.59
   2   5  13   15.73    0.69
  -3  -5 -13   13.79    0.77
  -3  -5 -13   14.46    0.63
   3   5  13   15.23    0.76
   3   5  13   14.80    0.68
   3   5  13   14.39    0.64
   3   5  13   15.47    0.64
   3   5  13   15.23    0.56
   3   5  13   13.68    0.66
   3   5  13   15.96    0.57
   3   5  13   15.48    0.71
  -4  -5 -13   57.65    2.78
  -4  -5 -13   58.71    2.27
  -4  -5 -13   58.24    2.37
   4   5  13   64.64    2.09
   4   5  13   58.11    2.32
   4   5  13   62.19    2.70
   4   5  13   59.00    2.49
   4   5  13   61.52    2.35
  -5  -5 -13    6.86    0.35
  -5  -5 -13    6.59    0.41
   5   5  13    7.10    0.36
   5   5  13    7.02    0.38
   5   5  13    7.44    0.43
  -6  -5 -13   19.70    0.79
   6   5  13   18.70    0.83
   0   6  13    1.54    0.17
   0   6  13    1.68    0.10
   1   6  13    4.96    0.20
   1   6  13    4.61    0.27
   1   6  13    4.75    0.21
   1   6  13    4.73    0.26
   1   6  13    5.14    0.31
   2   6  13    1.16    0.16
   2   6  13    1.25    0.12
   2   6  13    1.04    0.12
   2   6  13    0.84    0.13
   2   6  13    1.16    0.10
   2   6  13    0.90    0.09
  -3  -6 -13    5.68    0.29
  -3  -6 -13    5.49    0.37
   3   6  13    5.98    0.25
   3   6  13    5.57    0.36
   3   6  13    6.00    0.32
   3   6  13    5.59    0.29
   3   6  13    5.90    0.28
   3   6  13    5.47    0.24
  -4  -6 -13    7.71    0.37
   4   6  13    7.60    0.36
   4   6  13    7.44    0.31
   4   6  13    8.43    0.45
   4   6  13    8.46    0.32
   4   6  13    7.59    0.40
   4   6  13    8.30    0.37
   5   6  13    0.63    0.13
   5   6  13    0.45    0.10
   5   6  13    0.46    0.09
   2   7  13   30.08    1.02
   2   7  13   30.23    1.32
   2   7  13   27.81    1.14
   3   7  13    6.98    0.38
   3   7  13    6.87    0.31
   3   7  13    7.23    0.27
   4   7  13   22.30    0.94
   4   7  13   24.73    0.84
   4   7  13   24.69    0.94
   4   7  13   24.30    1.10
   5   7  13   23.64    0.93
   0   3 -14    8.72    0.46
  -1   3 -14    4.44    0.32
   2   2 -14    0.18    0.18
  -2  -2  14    0.32    0.15
  -2  -2  14    0.33    0.18
   1   2 -14   19.53    0.85
  -1  -2  14   18.47    0.97
   0   2 -14    5.49    0.41
   0  -2  14    5.02    0.38
  -1   2 -14   16.41    0.73
   1  -2  14   14.37    0.76
  -2   2 -14   26.64    1.10
   2  -2  14   26.04    1.18
  -3   2 -14    0.24    0.12
  -3  -1  14    7.05    0.37
   2   1 -14    0.61    0.20
  -2  -1  14    1.13    0.18
  -2  -1  14    0.89    0.19
   1   1 -14    1.34    0.25
  -1  -1  14    1.72    0.23
  -1  -1  14    1.75    0.27
   0   1 -14   12.10    0.64
   0  -1  14   10.32    0.63
   0  -1  14   12.71    0.72
  -1   1 -14    0.47    0.22
   1  -1  14    0.15    0.20
  -2   1 -14    9.46    0.53
   2  -1  14    8.20    0.53
  -3   1 -14    8.25    0.47
  -3   1 -14    8.20    0.43
   3  -1  14    8.13    0.51
  -4   1 -14    4.71    0.31
  -3   0  14   17.89    0.74
   2   0 -14    7.57    0.43
  -2   0  14    6.82    0.40
  -2   0  14    7.26    0.41
   1   0 -14    9.32    0.54
  -1   0  14    8.20    0.49
  -1   0  14    8.41    0.53
   0   0 -14   68.61    2.50
   0   0 -14   60.75    2.44
   0   0  14   63.37    2.49
   0   0  14   66.44    2.85
   0   0  14   58.30    2.66
  -1   0 -14    0.70    0.25
  -1   0 -14    0.37    0.19
   1   0  14    0.59    0.26
   1   0  14    0.74    0.24
  -2   0 -14   17.36    0.78
  -2   0 -14   15.45    0.73
   2   0  14   14.51    0.82
   2   0  14   16.71    0.90
  -3   0 -14   23.35    1.02
  -3   0 -14   25.47    1.05
   3   0  14   24.33    1.14
  -4   0 -14    0.34    0.13
  -4   0 -14    0.20    0.15
   4   0  14    0.29    0.18
   2  -1 -14    3.74    0.32
  -2   1  14    3.59    0.27
   1  -1 -14    0.65    0.21
  -1   1  14    0.51    0.21
  -1   1  14    0.84    0.16
  -1   1  14    1.12    0.20
   0  -1 -14    4.38    0.40
   0  -1 -14    3.95    0.36
   0   1  14    3.90    0.35
   0   1  14    3.82    0.35
   0   1  14    4.38    0.38
  -1  -1 -14    7.07    0.44
  -1  -1 -14    5.96    0.44
  -1  -1 -14    6.54    0.45
   1   1  14    6.27    0.47
   1   1  14    6.21    0.40
   1   1  14    6.83    0.50
  -2  -1 -14    2.20    0.25
  -2  -1 -14    2.69    0.27
  -2  -1 -14    3.59    0.34
   2   1  14    3.07    0.33
   2   1  14    2.51    0.32
  -3  -1 -14    0.57    0.18
  -3  -1 -14    0.46    0.17
  -3  -1 -14    0.30    0.18
   3   1  14    0.54    0.23
   3   1  14    0.69    0.24
  -4  -1 -14    0.60    0.17
  -4  -1 -14    0.53    0.18
  -4  -1 -14    0.60    0.15
   4   1  14    0.94    0.23
   4   1  14    0.68    0.20
  -5  -1 -14    6.87    0.40
  -5  -1 -14    8.04    0.40
   5   1  14    8.35    0.48
   2  -2 -14   40.63    1.56
  -2   2  14   40.62    1.59
  -2   2  14   39.95    1.54
  -2   2  14   39.85    1.58
   1  -2 -14    0.57    0.17
  -1   2  14    0.64    0.19
  -1   2  14    0.37    0.17
  -1   2  14    0.30    0.14
  -1   2  14    0.40    0.13
   0  -2 -14   40.11    1.56
   0   2  14   40.20    1.59
   0   2  14   40.42    1.56
   0   2  14   36.71    1.71
   0   2  14   41.49    1.62
   0   2  14   37.25    1.60
  -1  -2 -14   21.88    0.92
  -1  -2 -14   21.97    0.91
  -1  -2 -14   20.08    1.09
   1   2  14   19.04    0.99
   1   2  14   21.77    0.92
   1   2  14   23.50    0.98
   1   2  14   21.30    1.01
  -2  -2 -14   12.34    0.75
  -2  -2 -14   13.54    0.66
  -2  -2 -14   13.39    0.65
  -2  -2 -14   13.73    0.64
   2   2  14   13.73    0.73
   2   2  14   13.46    0.72
   2   2  14   14.34    0.64
  -3  -2 -14   75.05    2.86
  -3  -2 -14   65.26    3.32
  -3  -2 -14   70.61    2.75
  -3  -2 -14   73.16    2.74
   3   2  14   75.15    3.16
   3   2  14   70.68    3.01
  -4  -2 -14    3.73    0.31
  -4  -2 -14    2.51    0.25
  -4  -2 -14    2.91    0.32
   4   2  14    3.34    0.35
   4   2  14    3.41    0.31
  -5  -2 -14   36.81    1.44
  -5  -2 -14   37.14    1.50
   5   2  14   38.08    1.66
   5   2  14   35.42    1.56
   1  -3 -14    1.26    0.18
  -1   3  14    1.29    0.15
  -1   3  14    1.47    0.19
  -1   3  14    1.25    0.17
  -1   3  14    1.26    0.11
  -1   3  14    1.95    0.17
  -1   3  14    1.34    0.17
   0  -3 -14    1.42    0.19
   0   3  14    2.11    0.23
   0   3  14    2.15    0.17
   0   3  14    1.66    0.20
   0   3  14    1.66    0.19
   0   3  14    2.17    0.21
  -1  -3 -14    2.60    0.24
  -1  -3 -14    3.33    0.32
   1   3  14    3.46    0.25
   1   3  14    4.29    0.35
   1   3  14    3.15    0.26
   1   3  14    3.71    0.31
   1   3  14    2.13    0.26
  -2  -3 -14    1.02    0.17
  -2  -3 -14    0.99    0.20
   2   3  14    0.75    0.14
   2   3  14    0.86    0.15
   2   3  14    1.45    0.24
   2   3  14    0.95    0.20
  -3  -3 -14    0.24    0.17
  -3  -3 -14    0.30    0.14
  -3  -3 -14    0.28    0.14
   3   3  14    0.16    0.15
   3   3  14   -0.17    0.16
  -4  -3 -14   11.08    0.53
  -4  -3 -14   11.02    0.51
  -4  -3 -14   10.08    0.60
   4   3  14   10.42    0.56
   4   3  14   11.41    0.56
  -5  -3 -14    1.21    0.16
  -5  -3 -14    1.25    0.15
   5   3  14    1.27    0.17
   5   3  14    1.63    0.18
  -6  -3 -14    0.56    0.11
   6   3  14    0.84    0.12
  -1   4  14   18.25    0.75
  -1   4  14   20.32    0.79
  -1   4  14   18.02    0.76
  -1   4  14   19.08    0.75
   0   4  14    4.76    0.23
   0   4  14    5.23    0.31
   0   4  14    5.15    0.23
   0   4  14    5.55    0.33
   0   4  14    4.75    0.28
   0   4  14    5.18    0.33
   0   4  14    5.27    0.26
   1   4  14   50.34    1.95
   1   4  14   49.43    2.28
   1   4  14   51.91    1.99
   1   4  14   47.61    1.73
   1   4  14   50.42    1.77
   1   4  14   51.60    1.98
   1   4  14   54.89    2.04
  -2  -4 -14   10.79    0.49
  -2  -4 -14    9.46    0.59
   2   4  14   11.02    0.49
   2   4  14   10.37    0.53
   2   4  14   10.60    0.49
   2   4  14   11.39    0.42
   2   4  14   11.36    0.55
   2   4  14   10.21    0.56
  -3  -4 -14   23.97    0.95
  -3  -4 -14   23.79    1.16
  -3  -4 -14   24.91    0.99
   3   4  14   24.10    0.98
   3   4  14   22.31    0.95
   3   4  14   22.68    1.05
  -4  -4 -14   63.75    2.39
  -4  -4 -14   67.24    2.50
  -4  -4 -14   60.42    2.92
   4   4  14   61.61    2.62
  -5  -4 -14    1.31    0.14
  -5  -4 -14    1.25    0.14
   5   4  14    1.17    0.15
   5   4  14    1.48    0.15
  -6  -4 -14   26.06    1.06
   0   5  14   10.20    0.43
   0   5  14    9.25    0.41
   0   5  14    9.34    0.36
   1   5  14    7.84    0.37
   1   5  14    7.93    0.43
   1   5  14    7.96    0.31
   1   5  14    7.99    0.34
   1   5  14    7.77    0.39
  -2  -5 -14    1.46    0.15
   2   5  14    1.75    0.18
   2   5  14    2.09    0.14
   2   5  14    1.82    0.17
   2   5  14    2.04    0.22
   2   5  14    1.91    0.16
   2   5  14    1.93    0.14
  -3  -5 -14    6.97    0.34
  -3  -5 -14    7.23    0.36
   3   5  14    7.26    0.41
   3   5  14    7.12    0.38
   3   5  14    7.20    0.34
   3   5  14    7.29    0.35
   3   5  14    7.33    0.29
  -4  -5 -14    0.64    0.11
  -4  -5 -14    0.36    0.10
   4   5  14    0.53    0.13
   4   5  14    0.88    0.11
   4   5  14    0.54    0.12
  -5  -5 -14    7.10    0.33
   5   5  14    6.93    0.36
   2   6  14   28.29    1.25
   2   6  14   26.96    1.07
   2   6  14   27.85    0.96
   2   6  14   27.19    1.07
   3   6  14    0.05    0.07
   3   6  14    0.10    0.06
   3   6  14    0.08    0.10
   3   6  14    0.11    0.05
   4   6  14   19.56    0.78
   1   1 -15   10.14    0.50
  -1  -1  15   10.40    0.53
   0   1 -15   21.29    0.89
   0  -1  15   20.90    1.00
  -1   1 -15    0.18    0.16
   1  -1  15    0.04    0.18
  -2   1 -15   16.59    0.72
   1   0 -15    0.14    0.14
  -1   0  15    0.21    0.12
  -1   0  15    0.05    0.10
   0   0 -15    9.60    0.46
   0   0  15    8.12    0.41
   0   0  15    8.46    0.48
  -1   0 -15    1.56    0.20
  -1   0 -15    1.17    0.18
   1   0  15    1.81    0.23
   1   0  15    1.71    0.22
  -2   0 -15    5.20    0.34
  -2   0 -15    4.24    0.32
   2   0  15    5.00    0.40
   2   0  15    5.00    0.37
  -3   0 -15   14.41    0.65
   3   0  15   16.22    0.77
   1  -1 -15    0.15    0.13
  -1   1  15    0.26    0.11
   0  -1 -15   24.34    0.96
   0  -1 -15   25.35    0.98
   0   1  15   22.61    1.06
   0   1  15   23.39    0.97
  -1  -1 -15    6.51    0.38
  -1  -1 -15    6.59    0.37
   1   1  15    6.20    0.39
   1   1  15    5.72    0.39
  -2  -1 -15   17.69    0.74
  -2  -1 -15   17.12    0.74
  -2  -1 -15   16.55    0.75
   2   1  15   18.40    0.84
   2   1  15   15.73    0.81
  -3  -1 -15   14.92    0.66
  -3  -1 -15   14.56    0.64
  -3  -1 -15   15.38    0.67
   3   1  15   16.24    0.75
   3   1  15   14.33    0.72
  -4  -1 -15    0.46    0.12
   4   1  15    0.67    0.15
   1  -2 -15    4.80    0.28
  -1   2  15    5.42    0.27
   0  -2 -15    0.17    0.13
   0  -2 -15   -0.08    0.12
   0  -2 -15    0.19    0.12
   0   2  15    0.11    0.14
   0   2  15    0.06    0.10
  -1  -2 -15    9.02    0.43
  -1  -2 -15    8.81    0.42
  -1  -2 -15    9.09    0.43
   1   2  15    8.68    0.40
   1   2  15    6.66    0.45
  -2  -2 -15    0.38    0.14
  -2  -2 -15    0.43    0.13
  -2  -2 -15    0.51    0.14
   2   2  15    0.32    0.13
   2   2  15    0.32    0.15
  -3  -2 -15   14.83    0.62
  -3  -2 -15   14.54    0.64
   3   2  15   13.71    0.68
   3   2  15   13.76    0.68
  -4  -2 -15    3.35    0.24
  -4  -2 -15    3.39    0.25
   4   2  15    3.24    0.25
   0  -3 -15   17.40    0.71
   0   3  15   17.18    0.72
   0   3  15   17.10    0.72
   0   3  15   19.02    0.75
  -1  -3 -15   25.85    1.01
  -1  -3 -15   23.24    0.97
  -1  -3 -15   25.19    0.97
   1   3  15   23.43    0.98
   1   3  15   26.37    1.03
   1   3  15   23.59    0.99
  -2  -3 -15    6.58    0.35
  -2  -3 -15    6.95    0.35
   2   3  15    5.93    0.31
   2   3  15    6.78    0.37
  -3  -3 -15    8.16    0.40
  -3  -3 -15    8.49    0.39
   3   3  15    7.23    0.42
  -4  -3 -15   14.27    0.61
  -4  -3 -15   14.53    0.59
   4   3  15   13.54    0.64
   4   3  15   13.88    0.63
  -1  -4 -15    0.74    0.11
   1   4  15    0.98    0.13
   1   4  15    0.78    0.09
  -2  -4 -15    9.23    0.42
  -2  -4 -15    9.19    0.40
   2   4  15    8.69    0.40
   2   4  15    9.10    0.40
  -3  -4 -15    7.04    0.33
  -3  -4 -15    7.08    0.35
   3   4  15    7.10    0.34
  -4  -4 -15   12.25    0.53
   0   0   0    0.00    0.00
;
_shelx_hkl_checksum              57336
#END Tags that were not found in dictionaries
loop_
_space_group_symop_operation_xyz
'x, y, z'
'-x, -y, -z'
loop_
_atom_site_label
_atom_site_type_symbol
_atom_site_fract_x
_atom_site_fract_y
_atom_site_fract_z
_atom_site_U_iso_or_equiv
_atom_site_adp_type
_atom_site_occupancy
_atom_site_site_symmetry_order
_atom_site_calc_flag
_atom_site_refinement_flags_posn
_atom_site_refinement_flags_adp
_atom_site_refinement_flags_occupancy
_atom_site_disorder_assembly
_atom_site_disorder_group
Cd1A Cd 0.30147(18) 0.3262(2) 0.24200(12) 0.0159(2) Uani 0.856(3) 1 d . . P A 1
Se1 Se 0.68910(10) 0.20084(16) 0.17552(6) 0.0188(3) Uani 0.856(3) 1 d . . P A 1
O1A O 0.3631(16) 0.137(2) 0.4170(10) 0.0219(17) Uani 0.856(3) 1 d D . P A 1
O2A O 0.0851(15) 0.2969(12) 0.3860(8) 0.0246(18) Uani 0.856(3) 1 d D . P A 1
O3A O 0.1385(8) 0.1432(13) 0.5388(7) 0.0314(17) Uani 0.856(3) 1 d D . P A 1
O4A O 0.2630(10) 0.4863(10) 0.0653(9) 0.0253(16) Uani 0.856(3) 1 d D . P A 1
O5A O 0.0317(11) 0.5352(14) 0.1879(9) 0.028(3) Uani 0.856(3) 1 d D . P A 1
O6A O -0.0043(12) 0.6827(15) 0.0335(9) 0.0332(18) Uani 0.856(3) 1 d D . P A 1
N1A N 0.3930(15) 0.4916(14) 0.3211(8) 0.0189(15) Uani 0.856(3) 1 d . . P A 1
N2A N 0.359(2) 0.0771(19) 0.1769(11) 0.0188(15) Uani 0.856(3) 1 d . . P A 1
N3A N 0.1939(10) 0.1889(16) 0.4494(8) 0.0191(19) Uani 0.856(3) 1 d D . P A 1
N4A N 0.0938(15) 0.571(2) 0.0931(11) 0.0223(18) Uani 0.856(3) 1 d D . P A 1
C1A C 0.2701(11) 0.6439(15) 0.3508(9) 0.0190(18) Uani 0.856(3) 1 d . . P A 1
H1A H 0.1458 0.6761 0.3407 0.023 Uiso 0.856(3) 1 calc R U P A 1
C2A C 0.3156(10) 0.7564(12) 0.3953(7) 0.0210(17) Uani 0.856(3) 1 d . . P A 1
H2A H 0.2245 0.8624 0.4173 0.025 Uiso 0.856(3) 1 calc R U P A 1
C3A C 0.4961(11) 0.7108(10) 0.4070(6) 0.0226(17) Uani 0.856(3) 1 d . . P A 1
H3A H 0.5327 0.7873 0.4349 0.027 Uiso 0.856(3) 1 calc R U P A 1
C4A C 0.6238(11) 0.5533(10) 0.3780(6) 0.0217(16) Uani 0.856(3) 1 d . . P A 1
H4A H 0.7489 0.5197 0.3869 0.026 Uiso 0.856(3) 1 calc R U P A 1
C5A C 0.5687(13) 0.4434(10) 0.3355(6) 0.0188(16) Uani 0.856(3) 1 d . . P A 1
C6A C 0.7042(14) 0.2619(9) 0.3144(6) 0.0217(17) Uani 0.856(3) 1 d . . P A 1
H6AA H 0.6794 0.1777 0.3709 0.026 Uiso 0.856(3) 1 calc R U P A 1
H6AB H 0.8299 0.2537 0.3167 0.026 Uiso 0.856(3) 1 calc R U P A 1
C7A C 0.6756(10) -0.0279(9) 0.2177(7) 0.0223(15) Uani 0.856(3) 1 d . . P A 1
H7AA H 0.7954 -0.1190 0.1954 0.027 Uiso 0.856(3) 1 calc R U P A 1
H7AB H 0.6518 -0.0444 0.2957 0.027 Uiso 0.856(3) 1 calc R U P A 1
C8A C 0.5267(17) -0.0496(18) 0.1698(8) 0.0202(17) Uani 0.856(3) 1 d . . P A 1
C9A C 0.5608(17) -0.1980(18) 0.1240(13) 0.023(2) Uani 0.856(3) 1 d . . P A 1
H9A H 0.6809 -0.2855 0.1171 0.028 Uiso 0.856(3) 1 calc R U P A 1
C10A C 0.4178(18) -0.2180(18) 0.0881(11) 0.026(2) Uani 0.856(3) 1 d . . P A 1
H10A H 0.4391 -0.3206 0.0580 0.031 Uiso 0.856(3) 1 calc R U P A 1
C11A C 0.2464(13) -0.0898(15) 0.0961(6) 0.027(2) Uani 0.856(3) 1 d . . P A 1
H11A H 0.1468 -0.1002 0.0716 0.033 Uiso 0.856(3) 1 calc R U P A 1
C12A C 0.2239(17) 0.0562(17) 0.1414(9) 0.022(2) Uani 0.856(3) 1 d . . P A 1
H12A H 0.1055 0.1464 0.1474 0.026 Uiso 0.856(3) 1 calc R U P A 1
Cd1B Cd 0.3301(13) 0.3124(14) 0.2532(9) 0.0159(2) Uani 0.144(3) 1 d D . P A 2
Se2 Se 0.7016(7) 0.2827(10) 0.1803(4) 0.0249(14) Uani 0.144(3) 1 d D . P A 2
Se3 Se 0.8556(6) -0.0139(6) 0.1770(4) 0.0293(17) Uani 0.144(3) 1 d D . P A 2
N3B N 0.227(8) 0.190(11) 0.452(5) 0.0191(19) Uani 0.144(3) 1 d D . P A 2
O1B O 0.385(10) 0.129(17) 0.401(7) 0.0219(17) Uani 0.144(3) 1 d D . P A 2
O2B O 0.103(11) 0.309(9) 0.402(6) 0.0246(18) Uani 0.144(3) 1 d D . P A 2
O3B O 0.189(7) 0.118(10) 0.537(5) 0.0314(17) Uani 0.144(3) 1 d D . P A 2
N4B N 0.120(9) 0.541(16) 0.094(7) 0.0223(18) Uani 0.144(3) 1 d D . P A 2
O4B O 0.289(7) 0.448(8) 0.075(7) 0.0253(16) Uani 0.144(3) 1 d D . P A 2
O5B O 0.042(6) 0.503(13) 0.184(6) 0.028(3) Uani 0.144(3) 1 d D . P A 2
O6B O 0.035(9) 0.652(11) 0.029(6) 0.0332(18) Uani 0.144(3) 1 d D . P A 2
N1B N 0.386(9) 0.498(8) 0.339(5) 0.0189(15) Uani 0.144(3) 1 d G . P A 2
C1B C 0.236(6) 0.648(9) 0.364(6) 0.0190(18) Uani 0.144(3) 1 d G . P A 2
H1B H 0.1176 0.6642 0.3506 0.023 Uiso 0.144(3) 1 calc R U P A 2
C2B C 0.260(5) 0.774(7) 0.410(5) 0.0210(17) Uani 0.144(3) 1 d G . P A 2
H2B H 0.1581 0.8763 0.4272 0.025 Uiso 0.144(3) 1 calc R U P A 2
C3B C 0.434(6) 0.750(6) 0.430(3) 0.0226(17) Uani 0.144(3) 1 d G . P A 2
H3B H 0.4504 0.8361 0.4606 0.027 Uiso 0.144(3) 1 calc R U P A 2
C4B C 0.583(5) 0.600(7) 0.404(3) 0.0217(16) Uani 0.144(3) 1 d G . P A 2
H4B H 0.7020 0.5838 0.4174 0.026 Uiso 0.144(3) 1 calc R U P A 2
C5B C 0.559(7) 0.474(5) 0.358(3) 0.0188(16) Uani 0.144(3) 1 d DG . P A 2
C6B C 0.698(9) 0.305(6) 0.325(2) 0.0217(17) Uani 0.144(3) 1 d D . P A 2
H6BA H 0.6705 0.2099 0.3691 0.026 Uiso 0.144(3) 1 calc R U P A 2
H6BB H 0.8207 0.2937 0.3370 0.026 Uiso 0.144(3) 1 calc R U P A 2
C7B C 0.665(5) -0.079(7) 0.250(3) 0.0223(15) Uani 0.144(3) 1 d D . P A 2
H7BA H 0.7208 -0.1980 0.2844 0.027 Uiso 0.144(3) 1 calc R U P A 2
H7BB H 0.6012 -0.0019 0.3066 0.027 Uiso 0.144(3) 1 calc R U P A 2
N2B N 0.355(14) 0.063(12) 0.181(7) 0.0188(15) Uani 0.144(3) 1 d G . P A 2
C8B C 0.523(11) -0.076(13) 0.187(4) 0.0202(17) Uani 0.144(3) 1 d DG . P A 2
C9B C 0.565(9) -0.219(12) 0.133(8) 0.023(2) Uani 0.144(3) 1 d G . P A 2
H9B H 0.6796 -0.3133 0.1369 0.028 Uiso 0.144(3) 1 calc R U P A 2
C10B C 0.439(11) -0.223(10) 0.073(8) 0.026(2) Uani 0.144(3) 1 d G . P A 2
H10B H 0.4683 -0.3209 0.0359 0.031 Uiso 0.144(3) 1 calc R U P A 2
C11B C 0.272(9) -0.085(11) 0.067(4) 0.027(2) Uani 0.144(3) 1 d G . P A 2
H11B H 0.1858 -0.0877 0.0260 0.033 Uiso 0.144(3) 1 calc R U P A 2
C12B C 0.229(10) 0.058(10) 0.121(7) 0.022(2) Uani 0.144(3) 1 d G . P A 2
H12B H 0.1147 0.1531 0.1172 0.026 Uiso 0.144(3) 1 calc R U P A 2
loop_
_atom_site_aniso_label
_atom_site_aniso_U_11
_atom_site_aniso_U_22
_atom_site_aniso_U_33
_atom_site_aniso_U_23
_atom_site_aniso_U_13
_atom_site_aniso_U_12
Cd1A 0.0126(5) 0.0121(4) 0.0244(5) -0.0040(3) -0.0085(3) -0.0030(4)
Se1 0.0163(4) 0.0180(6) 0.0236(4) -0.0030(3) -0.0044(3) -0.0069(3)
O1A 0.016(4) 0.022(3) 0.026(5) -0.004(4) -0.004(3) -0.004(3)
O2A 0.016(3) 0.030(3) 0.032(4) -0.001(3) -0.013(2) -0.010(2)
O3A 0.022(4) 0.035(4) 0.029(3) 0.003(3) 0.001(3) -0.007(4)
O4A 0.017(4) 0.014(5) 0.037(4) 0.001(4) -0.008(3) 0.003(3)
O5A 0.023(2) 0.026(6) 0.027(3) -0.003(3) -0.002(2) -0.001(2)
O6A 0.020(5) 0.021(6) 0.045(3) 0.012(3) -0.013(3) 0.004(3)
N1A 0.020(3) 0.017(3) 0.023(5) -0.004(3) -0.008(3) -0.007(2)
N2A 0.020(3) 0.016(4) 0.022(3) -0.002(3) -0.005(2) -0.007(2)
N3A 0.012(4) 0.018(3) 0.031(3) -0.005(2) -0.009(3) -0.006(3)
N4A 0.022(4) 0.011(7) 0.034(3) -0.002(4) -0.007(3) -0.005(3)
C1A 0.020(4) 0.017(3) 0.021(4) -0.002(3) -0.004(4) -0.008(4)
C2A 0.024(5) 0.017(3) 0.024(4) -0.002(3) -0.007(4) -0.008(4)
C3A 0.035(5) 0.019(5) 0.021(4) -0.003(3) -0.007(3) -0.016(5)
C4A 0.029(4) 0.020(5) 0.022(4) -0.002(3) -0.010(3) -0.013(3)
C5A 0.023(3) 0.016(4) 0.021(4) 0.001(3) -0.008(3) -0.010(3)
C6A 0.018(3) 0.013(4) 0.036(4) -0.006(3) -0.011(3) -0.004(4)
C7A 0.020(3) 0.013(4) 0.032(5) -0.004(3) -0.007(3) -0.002(3)
C8A 0.022(3) 0.020(6) 0.018(4) -0.001(3) -0.005(3) -0.007(3)
C9A 0.031(3) 0.013(5) 0.021(4) -0.003(3) -0.002(3) -0.003(3)
C10A 0.036(5) 0.025(3) 0.021(6) -0.008(3) -0.001(4) -0.015(3)
C11A 0.033(4) 0.034(4) 0.019(5) -0.004(5) -0.009(4) -0.014(3)
C12A 0.024(3) 0.024(3) 0.021(6) -0.003(4) -0.009(4) -0.009(3)
Cd1B 0.0126(5) 0.0121(4) 0.0244(5) -0.0040(3) -0.0085(3) -0.0030(4)
Se2 0.021(2) 0.019(3) 0.038(3) -0.003(2) -0.0014(18) -0.011(2)
Se3 0.019(2) 0.025(3) 0.045(3) -0.008(2) 0.0042(19) -0.0109(19)
N3B 0.012(4) 0.018(3) 0.031(3) -0.005(2) -0.009(3) -0.006(3)
O1B 0.016(4) 0.022(3) 0.026(5) -0.004(4) -0.004(3) -0.004(3)
O2B 0.016(3) 0.030(3) 0.032(4) -0.001(3) -0.013(2) -0.010(2)
O3B 0.022(4) 0.035(4) 0.029(3) 0.003(3) 0.001(3) -0.007(4)
N4B 0.022(4) 0.011(7) 0.034(3) -0.002(4) -0.007(3) -0.005(3)
O4B 0.017(4) 0.014(5) 0.037(4) 0.001(4) -0.008(3) 0.003(3)
O5B 0.023(2) 0.026(6) 0.027(3) -0.003(3) -0.002(2) -0.001(2)
O6B 0.020(5) 0.021(6) 0.045(3) 0.012(3) -0.013(3) 0.004(3)
N1B 0.020(3) 0.017(3) 0.023(5) -0.004(3) -0.008(3) -0.007(2)
C1B 0.020(4) 0.017(3) 0.021(4) -0.002(3) -0.004(4) -0.008(4)
C2B 0.024(5) 0.017(3) 0.024(4) -0.002(3) -0.007(4) -0.008(4)
C3B 0.035(5) 0.019(5) 0.021(4) -0.003(3) -0.007(3) -0.016(5)
C4B 0.029(4) 0.020(5) 0.022(4) -0.002(3) -0.010(3) -0.013(3)
C5B 0.023(3) 0.016(4) 0.021(4) 0.001(3) -0.008(3) -0.010(3)
C6B 0.018(3) 0.013(4) 0.036(4) -0.006(3) -0.011(3) -0.004(4)
C7B 0.020(3) 0.013(4) 0.032(5) -0.004(3) -0.007(3) -0.002(3)
N2B 0.020(3) 0.016(4) 0.022(3) -0.002(3) -0.005(2) -0.007(2)
C8B 0.022(3) 0.020(6) 0.018(4) -0.001(3) -0.005(3) -0.007(3)
C9B 0.031(3) 0.013(5) 0.021(4) -0.003(3) -0.002(3) -0.003(3)
C10B 0.036(5) 0.025(3) 0.021(6) -0.008(3) -0.001(4) -0.015(3)
C11B 0.033(4) 0.034(4) 0.019(5) -0.004(5) -0.009(4) -0.014(3)
C12B 0.024(3) 0.024(3) 0.021(6) -0.003(4) -0.009(4) -0.009(3)
loop_
_atom_type_symbol
_atom_type_description
_atom_type_scat_dispersion_real
_atom_type_scat_dispersion_imag
_atom_type_scat_source
C C 0.0181 0.0091 'International Tables Vol C Tables 4.2.6.8 and 6.1.1.4'
H H 0.0000 0.0000 'International Tables Vol C Tables 4.2.6.8 and 6.1.1.4'
N N 0.0311 0.0180 'International Tables Vol C Tables 4.2.6.8 and 6.1.1.4'
O O 0.0492 0.0322 'International Tables Vol C Tables 4.2.6.8 and 6.1.1.4'
Se Se -0.7943 1.1372 'International Tables Vol C Tables 4.2.6.8 and 6.1.1.4'
Cd Cd 0.1185 4.6533 'International Tables Vol C Tables 4.2.6.8 and 6.1.1.4'
loop_
_geom_angle_atom_site_label_1
_geom_angle_atom_site_label_2
_geom_angle_atom_site_label_3
_geom_angle
N2A Cd1A N1A 150.4(5)
N2A Cd1A O5A 109.4(5)
N1A Cd1A O5A 99.5(5)
N2A Cd1A O2A 96.4(5)
N1A Cd1A O2A 95.2(3)
O5A Cd1A O2A 78.8(3)
N2A Cd1A O4A 91.3(5)
N1A Cd1A O4A 101.0(4)
O5A Cd1A O4A 53.9(2)
O2A Cd1A O4A 131.7(3)
N2A Cd1A O1A 84.3(6)
N1A Cd1A O1A 81.6(6)
O5A Cd1A O1A 130.4(3)
O2A Cd1A O1A 52.0(2)
O4A Cd1A O1A 174.8(4)
N2A Cd1A Se1 76.9(4)
N1A Cd1A Se1 77.1(3)
O5A Cd1A Se1 139.5(3)
O2A Cd1A Se1 141.48(19)
O4A Cd1A Se1 86.70(18)
O1A Cd1A Se1 89.5(2)
C7A Se1 C6A 100.2(3)
C7A Se1 Cd1A 83.4(2)
C6A Se1 Cd1A 84.6(3)
N3A O1A Cd1A 91.5(7)
N3A O2A Cd1A 99.8(6)
N4A O4A Cd1A 91.3(5)
N4A O5A Cd1A 98.2(5)
C1A N1A C5A 119.3(6)
C1A N1A Cd1A 119.1(7)
C5A N1A Cd1A 121.5(6)
C12A N2A C8A 118.9(6)
C12A N2A Cd1A 119.0(9)
C8A N2A Cd1A 122.0(9)
O3A N3A O1A 121.2(7)
O3A N3A O2A 122.0(6)
O1A N3A O2A 116.7(6)
O6A N4A O4A 122.1(7)
O6A N4A O5A 121.3(6)
O4A N4A O5A 116.6(7)
N1A C1A C2A 123.0(6)
N1A C1A H1A 118.5
C2A C1A H1A 118.5
C3A C2A C1A 118.1(7)
C3A C2A H2A 121.0
C1A C2A H2A 121.0
C2A C3A C4A 119.5(6)
C2A C3A H3A 120.2
C4A C3A H3A 120.2
C3A C4A C5A 119.7(6)
C3A C4A H4A 120.1
C5A C4A H4A 120.1
N1A C5A C4A 120.3(6)
N1A C5A C6A 119.4(7)
C4A C5A C6A 120.0(7)
C5A C6A Se1 112.1(5)
C5A C6A H6AA 109.2
Se1 C6A H6AA 109.2
C5A C6A H6AB 109.2
Se1 C6A H6AB 109.2
H6AA C6A H6AB 107.9
C8A C7A Se1 113.0(6)
C8A C7A H7AA 109.0
Se1 C7A H7AA 109.0
C8A C7A H7AB 109.0
Se1 C7A H7AB 109.0
H7AA C7A H7AB 107.8
N2A C8A C9A 120.8(6)
N2A C8A C7A 117.9(11)
C9A C8A C7A 121.2(11)
C8A C9A C10A 119.4(7)
C8A C9A H9A 120.3
C10A C9A H9A 120.3
C11A C10A C9A 119.9(7)
C11A C10A H10A 120.0
C9A C10A H10A 120.0
C10A C11A C12A 117.3(7)
C10A C11A H11A 121.4
C12A C11A H11A 121.4
N2A C12A C11A 123.7(7)
N2A C12A H12A 118.2
C11A C12A H12A 118.2
O1B Cd1B N1B 87(5)
O1B Cd1B N2B 83(5)
N1B Cd1B N2B 163(3)
O1B Cd1B O2B 55.2(14)
N1B Cd1B O2B 86(2)
N2B Cd1B O2B 98(3)
O1B Cd1B O4B 166(4)
N1B Cd1B O4B 106(3)
N2B Cd1B O4B 84(3)
O2B Cd1B O4B 129.4(18)
O1B Cd1B O5B 131(3)
N1B Cd1B O5B 101(3)
N2B Cd1B O5B 95(4)
O2B Cd1B O5B 77(2)
O4B Cd1B O5B 52.5(11)
O1B Cd1B Se2 98(2)
N1B Cd1B Se2 72.6(16)
N2B Cd1B Se2 96(3)
O2B Cd1B Se2 147.4(13)
O4B Cd1B Se2 81.0(15)
O5B Cd1B Se2 130.3(19)
C6B Se2 Se3 100.7(14)
C6B Se2 Cd1B 82(2)
Se3 Se2 Cd1B 101.7(4)
C7B Se3 Se2 97.6(17)
O3B N3B O1B 121(3)
O3B N3B O2B 122(3)
O1B N3B O2B 117(3)
N3B O1B Cd1B 98(4)
N3B O2B Cd1B 90(4)
O6B N4B O4B 122(3)
O6B N4B O5B 122(3)
O4B N4B O5B 115(3)
N4B O4B Cd1B 96(3)
N4B O5B Cd1B 94(3)
C1B N1B C5B 120.0
C1B N1B Cd1B 116(3)
C5B N1B Cd1B 124(3)
C2B C1B N1B 120.0
C2B C1B H1B 120.0
N1B C1B H1B 120.0
C3B C2B C1B 120.0
C3B C2B H2B 120.0
C1B C2B H2B 120.0
C2B C3B C4B 120.0
C2B C3B H3B 120.0
C4B C3B H3B 120.0
C5B C4B C3B 120.0
C5B C4B H4B 120.0
C3B C4B H4B 120.0
C4B C5B N1B 120.0
C4B C5B C6B 129(4)
N1B C5B C6B 111(4)
C5B C6B Se2 113(2)
C5B C6B H6BA 109.1
Se2 C6B H6BA 109.1
C5B C6B H6BB 109.1
Se2 C6B H6BB 109.1
H6BA C6B H6BB 107.8
C8B C7B Se3 118(3)
C8B C7B H7BA 107.9
Se3 C7B H7BA 107.9
C8B C7B H7BB 107.9
Se3 C7B H7BB 107.9
H7BA C7B H7BB 107.2
C8B N2B C12B 120.0
C8B N2B Cd1B 115(5)
C12B N2B Cd1B 124(5)
N2B C8B C9B 120.0
N2B C8B C7B 123(7)
C9B C8B C7B 117(7)
C8B C9B C10B 120.0
C8B C9B H9B 120.0
C10B C9B H9B 120.0
C11B C10B C9B 120.0
C11B C10B H10B 120.0
C9B C10B H10B 120.0
C10B C11B C12B 120.0
C10B C11B H11B 120.0
C12B C11B H11B 120.0
C11B C12B N2B 120.0
C11B C12B H12B 120.0
N2B C12B H12B 120.0
loop_
_geom_bond_atom_site_label_1
_geom_bond_atom_site_label_2
_geom_bond_distance
Cd1A N2A 2.242(12)
Cd1A N1A 2.259(7)
Cd1A O5A 2.315(6)
Cd1A O2A 2.372(13)
Cd1A O4A 2.463(9)
Cd1A O1A 2.554(14)
Cd1A Se1 2.8739(16)
Se1 C7A 1.972(7)
Se1 C6A 1.981(7)
O1A N3A 1.263(9)
O2A N3A 1.279(7)
O3A N3A 1.225(8)
O4A N4A 1.272(8)
O5A N4A 1.276(8)
O6A N4A 1.221(8)
N1A C1A 1.337(9)
N1A C5A 1.340(9)
N2A C12A 1.334(9)
N2A C8A 1.340(9)
C1A C2A 1.381(9)
C1A H1A 0.9500
C2A C3A 1.371(10)
C2A H2A 0.9500
C3A C4A 1.377(11)
C3A H3A 0.9500
C4A C5A 1.396(9)
C4A H4A 0.9500
C5A C6A 1.518(10)
C6A H6AA 0.9900
C6A H6AB 0.9900
C7A C8A 1.522(10)
C7A H7AA 0.9900
C7A H7AB 0.9900
C8A C9A 1.383(10)
C9A C10A 1.391(10)
C9A H9A 0.9500
C10A C11A 1.366(11)
C10A H10A 0.9500
C11A C12A 1.385(11)
C11A H11A 0.9500
C12A H12A 0.9500
Cd1B O1B 2.25(9)
Cd1B N1B 2.28(4)
Cd1B N2B 2.37(7)
Cd1B O2B 2.41(9)
Cd1B O4B 2.42(8)
Cd1B O5B 2.45(2)
Cd1B Se2 2.891(12)
Se2 C6B 1.90(2)
Se2 Se3 2.316(9)
Se3 C7B 1.888(19)
N3B O3B 1.228(19)
N3B O1B 1.26(2)
N3B O2B 1.280(19)
N4B O6B 1.220(19)
N4B O4B 1.271(19)
N4B O5B 1.278(19)
N1B C1B 1.3900
N1B C5B 1.3900
C1B C2B 1.3900
C1B H1B 0.9500
C2B C3B 1.3900
C2B H2B 0.9500
C3B C4B 1.3900
C3B H3B 0.9500
C4B C5B 1.3900
C4B H4B 0.9500
C5B C6B 1.49(2)
C6B H6BA 0.9900
C6B H6BB 0.9900
C7B C8B 1.50(2)
C7B H7BA 0.9900
C7B H7BB 0.9900
N2B C8B 1.3900
N2B C12B 1.3900
C8B C9B 1.3900
C9B C10B 1.3900
C9B H9B 0.9500
C10B C11B 1.3900
C10B H10B 0.9500
C11B C12B 1.3900
C11B H11B 0.9500
C12B H12B 0.9500
loop_
_geom_torsion_atom_site_label_1
_geom_torsion_atom_site_label_2
_geom_torsion_atom_site_label_3
_geom_torsion_atom_site_label_4
_geom_torsion
Cd1A O1A N3A O3A -176.1(13)
Cd1A O1A N3A O2A 0.9(16)
Cd1A O2A N3A O3A 176.0(12)
Cd1A O2A N3A O1A -0.9(17)
Cd1A O4A N4A O6A 178(2)
Cd1A O4A N4A O5A 0(2)
Cd1A O5A N4A O6A -178(2)
Cd1A O5A N4A O4A 1(2)
C5A N1A C1A C2A 0.6(10)
Cd1A N1A C1A C2A -177.1(7)
N1A C1A C2A C3A 1.7(10)
C1A C2A C3A C4A -2.4(10)
C2A C3A C4A C5A 1.1(10)
C1A N1A C5A C4A -2.0(10)
Cd1A N1A C5A C4A 175.6(7)
C1A N1A C5A C6A 172.6(7)
Cd1A N1A C5A C6A -9.8(10)
C3A C4A C5A N1A 1.2(10)
C3A C4A C5A C6A -173.3(7)
N1A C5A C6A Se1 49.2(9)
C4A C5A C6A Se1 -136.2(6)
C12A N2A C8A C9A 1.7(11)
Cd1A N2A C8A C9A -176.4(11)
C12A N2A C8A C7A -175.9(8)
Cd1A N2A C8A C7A 6.0(14)
Se1 C7A C8A N2A -48.4(11)
Se1 C7A C8A C9A 134.0(9)
N2A C8A C9A C10A -2.1(11)
C7A C8A C9A C10A 175.4(8)
C8A C9A C10A C11A 1.5(11)
C9A C10A C11A C12A -0.4(12)
C8A N2A C12A C11A -0.6(11)
Cd1A N2A C12A C11A 177.5(11)
C10A C11A C12A N2A 0.0(12)
O3B N3B O1B Cd1B 174(9)
O2B N3B O1B Cd1B 6(13)
O3B N3B O2B Cd1B -174(10)
O1B N3B O2B Cd1B -5(12)
O6B N4B O4B Cd1B 172(17)
O5B N4B O4B Cd1B -13(15)
O6B N4B O5B Cd1B -172(17)
O4B N4B O5B Cd1B 13(15)
C5B N1B C1B C2B 0.0
Cd1B N1B C1B C2B -176(4)
N1B C1B C2B C3B 0.0
C1B C2B C3B C4B 0.0
C2B C3B C4B C5B 0.0
C3B C4B C5B N1B 0.0
C3B C4B C5B C6B -180(3)
C1B N1B C5B C4B 0.0
Cd1B N1B C5B C4B 175(4)
C1B N1B C5B C6B 180(2)
Cd1B N1B C5B C6B -5(4)
C4B C5B C6B Se2 -124(4)
N1B C5B C6B Se2 56(5)
Se2 Se3 C7B C8B 84(6)
C12B N2B C8B C9B 0.0
Cd1B N2B C8B C9B -170(6)
C12B N2B C8B C7B 180(3)
Cd1B N2B C8B C7B 10(7)
Se3 C7B C8B N2B -97(6)
Se3 C7B C8B C9B 83(6)
N2B C8B C9B C10B 0.0
C7B C8B C9B C10B -180(3)
C8B C9B C10B C11B 0.0
C9B C10B C11B C12B 0.0
C10B C11B C12B N2B 0.0
C8B N2B C12B C11B 0.0
Cd1B N2B C12B C11B 169(7)
