#------------------------------------------------------------------------------
#$Date: 2016-03-24 14:36:54 +0200 (Thu, 24 Mar 2016) $
#$Revision: 179669 $
#$URL: svn://www.crystallography.net/cod/cif/4/51/22/4512203.cif $
#------------------------------------------------------------------------------
#
# This file is available in the Crystallography Open Database (COD),
# http://www.crystallography.net/
#
# All data on this site have been placed in the public domain by the
# contributors.
#
data_4512203
loop_
_publ_author_name
'Gajda, Katarzyna'
'Daszkiewicz, Zdzis\/law'
'Kozubek, Ewelina'
'Ejsmont, Krzysztof'
'Zarychta, Bartosz'
_publ_section_title
;
 Theoretical Multipolar Atom Model Transfer in Nitro-Derivatives
 ofN-Methylaniline
;
_journal_issue                   11
_journal_name_full               'Crystal Growth &amp; Design'
_journal_page_first              5737
_journal_paper_doi               10.1021/cg500984p
_journal_volume                  14
_journal_year                    2014
_chemical_formula_moiety         'C7 H8 N2 O2'
_chemical_formula_sum            'C7 H8 N2 O2'
_chemical_formula_weight         152.15
_chemical_name_common            N-methyl-N-2-nitrophenylaniline
_chemical_name_systematic
;
 ?
;
_space_group_crystal_system      monoclinic
_space_group_IT_number           14
_space_group_name_Hall           '-P 2ybc'
_space_group_name_H-M_alt        'P 1 21/c 1'
_symmetry_space_group_name_Hall  '-P 2ybc'
_symmetry_space_group_name_H-M   'P 1 21/c 1'
_atom_sites_solution_hydrogens   mixed
_audit_creation_method           SHELXL-2013
_cell_angle_alpha                90
_cell_angle_beta                 110.126(5)
_cell_angle_gamma                90
_cell_formula_units_Z            4
_cell_length_a                   7.9822(3)
_cell_length_b                   14.5859(5)
_cell_length_c                   6.6663(3)
_cell_measurement_reflns_used    4896
_cell_measurement_temperature    150.0(1)
_cell_measurement_theta_max      25.99
_cell_measurement_theta_min      3.06
_cell_volume                     728.75(5)
_computing_cell_refinement       'CrysAlis RED (Oxford Diffraction, 2007)'
_computing_data_collection       'CrysAlis CCD (Oxford Diffraction, 2007)'
_computing_data_reduction        'CrysAlis RED (Oxford Diffraction, 2007)'
_computing_molecular_graphics    'SHELXTL (Sheldrick, 2008)'
_computing_structure_refinement  'SHELXL-2013 (Sheldrick, 2013)'
_computing_structure_solution    'SHELXS-2013 (Sheldrick, 2013)'
_diffrn_ambient_temperature      150.0(1)
_diffrn_detector_area_resol_mean 10.4508
_diffrn_measured_fraction_theta_full 0.998
_diffrn_measured_fraction_theta_max 0.999
_diffrn_measurement_device       '4-circle kappa geometry goniometer'
_diffrn_measurement_device_type  'Oxford Diffraction Xcalibur System'
_diffrn_measurement_method       \w--scan
_diffrn_radiation_monochromator  graphite
_diffrn_radiation_source         'Enhance (Mo) X-ray Source'
_diffrn_radiation_type           'Mo K\a'
_diffrn_radiation_wavelength     0.71073
_diffrn_reflns_av_R_equivalents  0.0169
_diffrn_reflns_av_unetI/netI     0.0146
_diffrn_reflns_Laue_measured_fraction_full 0.998
_diffrn_reflns_Laue_measured_fraction_max 0.999
_diffrn_reflns_limit_h_max       9
_diffrn_reflns_limit_h_min       -9
_diffrn_reflns_limit_k_max       17
_diffrn_reflns_limit_k_min       -17
_diffrn_reflns_limit_l_max       6
_diffrn_reflns_limit_l_min       -8
_diffrn_reflns_number            4896
_diffrn_reflns_point_group_measured_fraction_full 0.998
_diffrn_reflns_point_group_measured_fraction_max 0.999
_diffrn_reflns_theta_full        25.242
_diffrn_reflns_theta_max         25.985
_diffrn_reflns_theta_min         3.056
_diffrn_standards_decay_%        0
_diffrn_standards_interval_count 0
_diffrn_standards_interval_time  0
_diffrn_standards_number         0
_exptl_absorpt_coefficient_mu    0.104
_exptl_absorpt_correction_type   none
_exptl_crystal_colour            orange
_exptl_crystal_density_diffrn    1.387
_exptl_crystal_density_method    'not measured'
_exptl_crystal_description       irregular
_exptl_crystal_F_000             320
_exptl_crystal_size_max          0.5
_exptl_crystal_size_mid          0.4
_exptl_crystal_size_min          0.1
_refine_diff_density_max         0.179
_refine_diff_density_min         -0.188
_refine_diff_density_rms         0.034
_refine_ls_extinction_method     none
_refine_ls_goodness_of_fit_ref   1.094
_refine_ls_hydrogen_treatment    mixed
_refine_ls_matrix_type           full
_refine_ls_number_parameters     104
_refine_ls_number_reflns         1433
_refine_ls_number_restraints     0
_refine_ls_restrained_S_all      1.094
_refine_ls_R_factor_all          0.0376
_refine_ls_R_factor_gt           0.0314
_refine_ls_shift/su_max          0.000
_refine_ls_shift/su_mean         0.000
_refine_ls_structure_factor_coef Fsqd
_refine_ls_weighting_details
'w=1/[\s^2^(Fo^2^)+(0.0563P)^2^+0.0379P] where P=(Fo^2^+2Fc^2^)/3'
_refine_ls_weighting_scheme      calc
_refine_ls_wR_factor_gt          0.0891
_refine_ls_wR_factor_ref         0.0915
_reflns_Friedel_coverage         0.000
_reflns_number_gt                1204
_reflns_number_total             1433
_reflns_threshold_expression     'I > 2\s(I)'
_cod_data_source_file            cg500984p_si_003.cif
_cod_data_source_block           I
_cod_depositor_comments
'Adding full bibliography for 4512203--4512205.cif.'
_cod_database_code               4512203
#BEGIN Tags that were not found in dictionaries:
_shelx_space_group_comment
;
The symmetry employed for this shelxl refinement is uniquely defined
by the following loop, which should always be used as a source of
symmetry information in preference to the above space-group names.
They are only intended as comments.
;
_shelxl_version_number           2013-4
_shelx_res_file
;
TITL 1 in P2(1)/c
CELL 0.71073   7.9822  14.5859   6.6663  90.000 110.126  90.000
ZERR    4.00   0.0003   0.0005   0.0003   0.000   0.005   0.000
LATT  1
SYMM -X, 0.5+Y, 0.5-Z
SFAC C H N O
UNIT 28 32 8 8

L.S. 10
OMIT -3 52
BOND $H
EQIV $1 2-x,-y,-z
EQIV $2 1+x,1/2-y,1/2+z
HTAB N1 O1
HTAB N1 O1_$1
HTAB C6 O2_$2
ACTA
CONF
HTAB
FMAP 2
PLAN 20
WGHT    0.056300    0.037900
FVAR       0.63017
O1    4    0.863468    0.062551    0.043073    11.00000    0.03366    0.02230 =
         0.04278   -0.00159    0.01302   -0.00200
O2    4    0.649991    0.160331   -0.074052    11.00000    0.02497    0.04730 =
         0.07315    0.00083    0.00829    0.00332
N1    3    1.196244    0.116681    0.201165    11.00000    0.02662    0.02641 =
         0.02660   -0.00068    0.00697   -0.00023
REM AFIX  43
H1    2    1.122558    0.070302    0.152011    11.00000   -1.20000
REM AFIX   0
N2    3    0.810177    0.143153    0.012614    11.00000    0.02645    0.02996 =
         0.03004    0.00024    0.01097    0.00077
C1    1    1.121509    0.200334    0.169463    11.00000    0.03083    0.02626 =
         0.01697   -0.00039    0.01052   -0.00174
C2    1    0.935103    0.216549    0.077953    11.00000    0.03252    0.02360 =
         0.02047   -0.00046    0.01216   -0.00107
C3    1    0.865241    0.305710    0.047078    11.00000    0.04113    0.02979 =
         0.02681    0.00338    0.01609    0.00802
AFIX  43
H3    2    0.742649    0.314289   -0.014088    11.00000   -1.20000
AFIX   0
C4    1    0.975378    0.380192    0.105914    11.00000    0.06423    0.02196 =
         0.03078    0.00147    0.02504    0.00378
AFIX  43
H4    2    0.928593    0.439245    0.085888    11.00000   -1.20000
AFIX   0
C5    1    1.159037    0.366200    0.196456    11.00000    0.05895    0.02681 =
         0.02897   -0.00665    0.02321   -0.01360
AFIX  43
H5    2    1.234694    0.416559    0.236894    11.00000   -1.20000
AFIX   0
C6    1    1.229583    0.280153    0.226720    11.00000    0.03709    0.03418 =
         0.02365   -0.00473    0.01251   -0.00945
AFIX  43
H6    2    1.352685    0.273412    0.286913    11.00000   -1.20000
AFIX   0
C7    1    1.386938    0.100843    0.281667    11.00000    0.02970    0.04554 =
         0.03733    0.00161    0.00643    0.00528
AFIX 137
H7A   2    1.410034    0.036412    0.277408    11.00000   -1.50000
H7B   2    1.435952    0.122335    0.426322    11.00000   -1.50000
H7C   2    1.441272    0.133282    0.194649    11.00000   -1.50000

AFIX   0
HKLF 4

REM  1 in P2(1)/c
REM R1 =  0.0314 for    1204 Fo > 4sig(Fo)  and  0.0376 for all    1433 data
REM    104 parameters refined using      0 restraints

END

WGHT      0.0563      0.0379

REM Instructions for potential hydrogen bonds
HTAB N1 O1
HTAB N1 O1_$1
HTAB C6 O2_$2

REM Highest difference peak  0.179,  deepest hole -0.188,  1-sigma level  0.034
Q1    1   0.9182  0.2579  0.0301  11.00000  0.05    0.18
Q2    1   1.0307  0.2043  0.0910  11.00000  0.05    0.17
Q3    1   1.1766  0.2393  0.1729  11.00000  0.05    0.16
Q4    1   0.8853  0.1871  0.0510  11.00000  0.05    0.14
Q5    1   0.9306  0.3422  0.0391  11.00000  0.05    0.13
Q6    1   0.8529  0.4460  0.0558  11.00000  0.05    0.12
Q7    1   1.0645  0.3635  0.0977  11.00000  0.05    0.10
Q8    1   1.1731  0.1600  0.1616  11.00000  0.05    0.10
Q9    1   0.9770  0.0641  0.0994  11.00000  0.05    0.10
Q10   1   0.6975  0.2856  0.0348  11.00000  0.05    0.10
Q11   1   0.7990  0.0061  0.0097  11.00000  0.05    0.09
Q12   1   1.2013  0.3235  0.1461  11.00000  0.05    0.09
Q13   1   1.1420  0.0781  0.2473  11.00000  0.05    0.09
Q14   1   1.1613  0.3192  0.2485  11.00000  0.05    0.09
Q15   1   0.7014  0.2296 -0.0685  11.00000  0.05    0.08
Q16   1   0.6574  0.2026  0.0396  11.00000  0.05    0.07
Q17   1   0.5659  0.2241 -0.1258  11.00000  0.05    0.07
Q18   1   1.4889  0.2743  0.2010  11.00000  0.05    0.07
Q19   1   1.3801  0.0211  0.3400  11.00000  0.05    0.07
Q20   1   0.8706  0.0747  0.2986  11.00000  0.05    0.07
;
_shelx_res_checksum              34503
_shelx_hkl_file
;
   2   0   0  539.49    2.29
  -2   0   0  535.55    1.93
  -2   0   0  554.75    2.27
   3   0   0  671.89    3.15
  -3   0   0  675.12    3.14
   4   0   0  787.55    3.90
  -4   0   0  768.86    3.96
   5   0   0  122.31    1.78
  -5   0   0  129.80    1.86
   6   0   0   67.94    1.63
  -6   0   0   69.34    1.58
   7   0   0   12.07    0.97
  -7   0   0   11.54    0.86
  -8   0   0    6.57    0.84
   8   0   0    5.27    0.89
  -9   0   0    0.08    0.72
   9   0   0    0.21    0.84
   1  -1   0    2.45    0.21
  -2   1   0   13.67    0.47
  -2  -1   0   12.82    0.34
   2  -1   0   12.20    0.50
  -2  -1   0   13.74    0.47
   2   1   0   13.00    0.25
  -3   1   0  225.92    1.81
  -3  -1   0  213.32    1.49
  -3  -1   0  213.98    1.78
   3   1   0  214.73    1.13
   3  -1   0  219.93    1.84
   4  -1   0  350.93    2.67
  -4  -1   0  339.83    2.67
  -4   1   0  339.60    2.60
   4   1   0  343.84    2.64
  -4  -1   0  334.45    2.19
   5   1   0   18.95    0.85
  -5  -1   0   19.22    0.84
   5  -1   0   19.50    0.88
  -5   1   0   19.27    0.82
   6   1   0    1.50    0.59
  -6  -1   0    1.47    0.60
   6  -1   0    1.78    0.63
  -6   1   0    1.40    0.59
   7   1   0   37.17    1.37
  -7  -1   0   35.23    1.29
   7  -1   0   38.35    1.32
  -7   1   0   33.27    1.24
  -8   1   0    0.72    0.63
   8   1   0    0.04    0.70
   8  -1   0    0.45    0.67
  -8  -1   0    0.11    0.65
   9  -1   0    0.60    0.82
  -9  -1   0    1.11    0.73
   9   1   0    2.51    0.90
  -9   1   0    1.16    0.74
   1  -2   0  187.45    1.02
  -1  -2   0  184.49    1.04
   1   2   0  180.49    0.78
  -1   2   0  187.96    0.85
  -2   2   0   60.06    0.82
   2   2   0   66.63    0.53
  -2  -2   0   67.35    0.74
  -2  -2   0   72.56    0.89
   2  -2   0   69.28    0.85
  -3   2   0    1.29    0.32
   3  -2   0    0.99    0.35
  -3  -2   0    1.39    0.32
   3   2   0    1.12    0.14
  -3  -2   0    1.00    0.22
  -4  -2   0   -0.02    0.38
  -4  -2   0    0.04    0.21
   4  -2   0   -0.03    0.38
   4   2   0    0.21    0.14
  -4   2   0   -0.03    0.36
  -5  -2   0    6.16    0.43
  -5   2   0    6.64    0.58
   5  -2   0    6.09    0.60
  -5  -2   0    6.56    0.61
  -6   2   0    2.62    0.60
   6   2   0    4.11    0.65
  -6  -2   0    3.63    0.67
   6  -2   0    3.44    0.65
   7   2   0   24.82    1.12
  -7   2   0   25.70    1.12
  -7  -2   0   24.97    1.12
   7  -2   0   25.65    1.14
  -8  -2   0   -0.33    0.68
  -8   2   0    0.03    0.62
   8  -2   0   -0.53    0.60
   8   2   0   -0.14    0.73
  -9  -2   0    3.51    0.83
   9   2   0    4.16    1.02
   9  -2   0    3.66    0.79
  -9   2   0    3.53    0.82
   0  -3   0    0.11    0.17
   0  -3   0    0.02    0.15
   1  -3   0    0.08    0.19
  -1   3   0    0.07    0.13
   1   3   0    0.28    0.19
  -2   3   0  153.31    1.12
   2  -3   0  146.51    1.26
  -2  -3   0  153.89    1.28
   2   3   0  149.59    0.89
  -2  -3   0  151.25    1.22
  -3  -3   0   29.93    0.74
   3   3   0   29.71    0.44
  -3   3   0   27.45    0.64
  -3  -3   0   28.65    0.61
   3  -3   0   29.39    0.70
   4   3   0    7.50    0.26
   4  -3   0    7.86    0.52
  -4   3   0    8.09    0.51
  -4  -3   0    8.39    0.55
  -4  -3   0    7.65    0.41
   5  -3   0    5.66    0.58
  -5   3   0    6.01    0.58
  -5  -3   0    5.86    0.45
  -5  -3   0    6.10    0.64
   6  -3   0   34.17    1.13
   6   3   0   35.31    1.22
  -6  -3   0   33.88    1.20
  -6   3   0   32.34    1.11
  -7   3   0    1.47    0.56
  -7  -3   0    0.83    0.62
   7   3   0    0.64    0.65
   7  -3   0    1.02    0.56
  -8   3   0    1.13    0.62
  -8  -3   0    0.63    0.71
   8   3   0    1.67    0.76
   8  -3   0    1.44    0.71
   9  -3   0   17.37    1.15
   9   3   0   17.13    1.31
  -9   3   0   19.56    1.23
  -9  -3   0   19.13    1.23
   0  -4   0 2016.77    4.03
   0  -4   0 1999.12    4.42
  -1  -4   0    0.09    0.21
   1  -4   0    0.04    0.19
   1   4   0    0.33    0.23
  -1   4   0    0.15    0.10
   1  -4   0    0.27    0.23
  -2  -4   0   76.98    0.98
  -2   4   0   79.50    0.81
   2  -4   0   78.60    0.97
  -2  -4   0   76.67    0.95
   2   4   0   75.95    0.73
  -3   4   0   28.31    0.64
  -3  -4   0   30.12    0.76
  -3  -4   0   26.77    0.66
   3  -4   0   28.12    0.71
   3   4   0   27.19    0.46
  -4  -4   0   26.93    0.71
  -4  -4   0   29.12    0.88
   4   4   0   27.67    0.49
   4  -4   0   27.44    0.81
  -4   4   0   27.46    0.77
  -5  -4   0  263.81    2.72
   5  -4   0  259.84    2.56
  -5  -4   0  253.75    2.27
  -5   4   0  261.70    2.49
  -6  -4   0  126.91    2.14
  -6  -4   0  132.24    1.81
   6  -4   0  126.17    2.00
  -6   4   0  129.61    2.02
   7   4   0    3.65    0.75
  -7   4   0    4.38    0.66
  -7  -4   0    4.46    0.76
   7  -4   0    4.86    0.65
  -8   4   0    8.56    0.82
  -8  -4   0    6.92    0.86
   8  -4   0    7.18    0.79
   8   4   0    7.17    0.91
  -9  -4   0    2.92    0.81
   9   4   0    3.05    0.97
   9  -4   0    3.89    0.78
  -9   4   0    3.00    0.77
   0  -5   0    0.02    0.24
   0  -5   0    0.10    0.21
  -1  -5   0   31.96    0.67
   1  -5   0   32.31    0.62
  -1   5   0   28.85    0.34
   1  -5   0   26.46    0.64
  -2  -5   0  546.70    2.77
  -2   5   0  565.86    2.04
  -2  -5   0  566.72    2.51
   2  -5   0  563.35    2.69
   2   5   0  555.54    2.23
  -3  -5   0   80.20    1.19
   3  -5   0   78.83    1.17
  -3  -5   0   79.14    1.16
  -3   5   0   82.00    1.04
   3   5   0   77.05    0.85
   4  -5   0   18.50    0.69
  -4   5   0   19.91    0.67
  -4  -5   0   18.38    0.73
  -4  -5   0   18.01    0.64
   4   5   0   17.14    0.42
  -5   5   0    0.34    0.43
  -5  -5   0    0.30    0.34
  -5  -5   0    0.19    0.54
   5  -5   0    0.07    0.46
  -6  -5   0   68.94    1.36
   6  -5   0   64.14    1.50
  -6  -5   0   65.82    1.60
  -6   5   0   66.99    1.48
  -7   5   0    1.42    0.54
  -7  -5   0    1.39    0.67
   7  -5   0    1.46    0.68
  -8   5   0   19.55    1.07
   8  -5   0   21.22    1.11
   8   5   0   21.02    1.33
  -8  -5   0   18.93    1.14
   9  -5   0    0.78    0.65
   9   5   0   -0.09    0.79
  -9  -5   0    0.51    0.70
  -9   5   0    0.47    0.68
   0  -6   0    1.93    0.27
   0  -6   0    1.81    0.32
   1  -6   0   42.86    0.76
  -1  -6   0   42.82    0.84
   1  -6   0   42.37    0.85
   2  -6   0   31.16    0.76
  -2   6   0   30.21    0.49
   2   6   0   30.16    0.63
  -2  -6   0   27.97    0.64
   2  -6   0   29.56    0.70
  -2  -6   0   28.86    0.74
   3   6   0   10.19    0.38
   3  -6   0    9.94    0.52
  -3   6   0   10.94    0.42
  -3  -6   0   11.60    0.53
  -3  -6   0   10.17    0.53
   4  -6   0    8.20    0.55
  -4  -6   0    8.50    0.61
  -4   6   0    8.91    0.50
  -4  -6   0    8.06    0.51
  -5  -6   0    1.20    0.56
   5  -6   0    1.27    0.47
  -5  -6   0    1.42    0.39
  -5   6   0    1.34    0.44
  -6  -6   0   37.42    1.29
  -6  -6   0   39.19    1.09
   6  -6   0   34.78    1.16
  -6   6   0   39.03    1.16
   7  -6   0    4.53    0.65
  -7  -6   0    4.76    0.75
  -7   6   0    5.49    0.63
   8   6   0    2.96    0.84
   8  -6   0    2.92    0.67
  -8  -6   0    1.90    0.70
  -8   6   0    2.09    0.63
  -9  -6   0    6.26    0.95
  -9   6   0    5.51    0.84
   9   6   0    4.28    1.05
   9  -6   0    5.89    0.82
   0  -7   0    0.32    0.28
   0  -7   0    0.50    0.30
   1  -7   0  639.01    2.98
  -1  -7   0  626.25    3.34
   1  -7   0  648.13    3.36
   2  -7   0    2.09    0.32
  -2   7   0    1.79    0.18
   2   7   0    2.05    0.34
   2  -7   0    2.38    0.36
  -2  -7   0    2.06    0.34
  -2  -7   0    2.00    0.29
   3  -7   0    0.40    0.30
  -3   7   0    0.38    0.23
   3  -7   0    0.41    0.34
  -3  -7   0    0.30    0.35
   3   7   0    0.60    0.24
  -3  -7   0    0.63    0.29
  -4  -7   0   50.06    1.12
  -4  -7   0   50.46    1.16
   4  -7   0   51.67    1.16
  -4   7   0   49.80    0.95
  -5  -7   0   80.79    1.61
   5  -7   0   78.01    1.53
  -5  -7   0   79.41    1.44
  -5   7   0   80.77    1.40
  -6  -7   0    7.42    0.59
  -6   7   0    8.06    0.64
   6  -7   0    7.31    0.70
  -6  -7   0    7.99    0.77
   7  -7   0    1.69    0.58
  -7  -7   0    1.26    0.67
  -7   7   0    0.92    0.54
   8  -7   0    1.40    0.66
  -8  -7   0    0.36    0.73
   8   7   0    1.67    0.82
  -9  -7   0    0.60    0.70
   9   7   0    0.80    0.84
   9  -7   0    1.26    0.72
   0  -8   0    1.26    0.35
   0  -8   0    1.30    0.31
  -1  -8   0   20.42    0.44
   1  -8   0   20.42    0.63
   1  -8   0   20.66    0.73
  -1  -8   0   19.40    0.69
  -2  -8   0    3.43    0.34
   2   8   0    3.47    0.41
  -2  -8   0    2.93    0.40
  -2   8   0    2.82    0.19
   2  -8   0    3.32    0.43
   2  -8   0    2.91    0.37
   3   8   0   11.40    0.52
  -3  -8   0   11.77    0.61
  -3  -8   0   12.49    0.58
   3  -8   0   11.90    0.65
   3  -8   0   12.05    0.59
  -3   8   0   12.36    0.41
   4  -8   0  166.93    2.08
  -4   8   0  169.25    1.67
  -4  -8   0  174.12    2.09
   4  -8   0  170.00    2.06
  -4  -8   0  169.86    2.09
  -5  -8   0  206.07    2.51
  -5  -8   0  194.83    2.33
   5  -8   0  204.99    2.46
   6  -8   0    3.74    0.59
  -6  -8   0    3.41    0.51
  -6  -8   0    3.13    0.65
   7  -8   0   28.36    1.18
  -7  -8   0   28.70    1.27
  -8  -8   0   41.01    1.59
   8  -8   0   43.81    1.52
   9  -8   0    8.66    1.00
  -9  -8   0   10.03    1.06
   0  -9   0    0.33    0.33
   0  -9   0   -0.07    0.31
   1  -9   0    0.10    0.30
  -1  -9   0    0.08    0.34
   1  -9   0    0.42    0.37
  -1  -9   0    0.05    0.18
   2  -9   0   43.47    1.08
   2   9   0   44.75    0.97
   2  -9   0   44.42    0.98
  -2  -9   0   42.46    0.79
  -2  -9   0   45.11    1.09
   3  -9   0    1.97    0.39
  -3  -9   0    1.54    0.41
   3   9   0    1.42    0.41
   3  -9   0    1.99    0.48
  -3  -9   0    1.56    0.39
  -4  -9   0    2.10    0.47
   4  -9   0    1.78    0.47
  -4  -9   0    1.79    0.50
   4  -9   0    1.88    0.47
  -5  -9   0    0.98    0.53
  -5  -9   0    1.19    0.44
   5  -9   0    0.81    0.48
   5  -9   0    1.43    0.49
  -6  -9   0   23.20    0.96
   6  -9   0   23.70    1.08
  -6  -9   0   24.79    1.09
  -7  -9   0    0.60    0.60
   7  -9   0    1.14    0.53
  -8  -9   0    5.87    0.90
   8  -9   0    6.78    0.82
  -9  -9   0    0.87    0.76
   0 -10   0    5.21    0.48
   0 -10   0    5.47    0.52
   1 -10   0   15.02    0.63
   1  10   0   15.20    0.73
  -1 -10   0   14.41    0.72
   1 -10   0   13.28    0.73
   2 -10   0   25.47    0.80
  -2 -10   0   25.04    0.91
   2  10   0   26.87    0.86
   2 -10   0   24.50    0.93
  -2 -10   0   23.97    0.66
   3 -10   0    0.91    0.40
   3 -10   0    1.31    0.46
   3  10   0    0.86    0.44
  -3 -10   0    1.39    0.42
  -3 -10   0    1.47    0.42
   4 -10   0    0.30    0.41
  -4 -10   0    0.01    0.46
   4 -10   0    0.13    0.46
  -4 -10   0   -0.17    0.43
  -5 -10   0    0.67    0.49
  -5 -10   0    1.01    0.43
   5 -10   0    0.46    0.46
   5 -10   0    0.93    0.51
  -6 -10   0   23.67    1.10
  -6 -10   0   26.76    1.08
   6 -10   0   25.66    1.09
   7 -10   0    0.55    0.53
  -7 -10   0    0.37    0.65
  -8 -10   0    6.16    0.92
   0 -11   0    0.72    0.46
   0 -11   0    0.60    0.41
  -1 -11   0  262.79    2.78
   1 -11   0  259.13    2.76
   1  11   0  260.85    2.55
   1 -11   0  265.66    2.47
  -2 -11   0    5.06    0.57
   2 -11   0    5.75    0.63
   2  11   0    5.59    0.60
   2 -11   0    4.99    0.51
   3 -11   0   -0.11    0.38
   3 -11   0    0.25    0.47
  -3 -11   0   -0.02    0.39
   3  11   0   -0.06    0.45
   4 -11   0   47.66    1.32
   4 -11   0   52.30    1.29
  -4 -11   0   52.26    1.39
   5 -11   0   78.86    1.72
  -5 -11   0   75.54    1.61
   5 -11   0   79.06    1.66
  -5 -11   0   78.12    1.73
  -6 -11   0    0.46    0.52
  -6 -11   0    1.04    0.47
   6 -11   0    0.00    0.48
  -7 -11   0    2.12    0.66
  -8 -11   0    8.72    0.93
   0 -12   0  228.78    2.71
   1  12   0  190.89    2.33
   1 -12   0  182.28    2.44
  -1 -12   0  182.49    2.48
   1 -12   0  185.79    2.15
   2  12   0    1.17    0.53
  -2 -12   0    0.57    0.50
   2 -12   0    0.84    0.52
   2 -12   0    0.95    0.40
   3 -12   0   61.43    1.51
   3 -12   0   64.53    1.38
  -3 -12   0   65.38    1.57
   4 -12   0    2.34    0.59
   4 -12   0    2.01    0.50
  -4 -12   0    2.28    0.53
  -5 -12   0    4.71    0.61
   5 -12   0    4.51    0.67
  -6 -12   0    0.73    0.47
   0 -13   0   -0.18    0.49
   1 -13   0    1.52    0.46
  -1 -13   0    1.46    0.53
   1  13   0    1.52    0.58
   1 -13   0    1.44    0.52
   2 -13   0    7.60    0.68
   2 -13   0    7.41    0.59
  -2 -13   0    8.63    0.73
   2  13   0    7.95    0.72
  -3 -13   0   22.97    1.05
   3 -13   0   24.87    0.94
   3 -13   0   22.26    1.05
   4 -13   0    0.86    0.54
  -4 -13   0    0.97    0.53
  -5 -13   0    0.53    0.51
   5 -13   0    0.66    0.56
  -6 -13   0    2.73    0.60
   0 -14   0   69.47    1.72
   1 -14   0   41.25    1.17
   1 -14   0   40.43    1.32
   1  14   0   41.17    1.34
  -1 -14   0   38.46    1.33
   2 -14   0    9.44    0.71
   2 -14   0    8.94    0.76
   2  14   0    9.37    0.80
  -2 -14   0    9.70    0.80
   3 -14   0   35.69    1.30
  -3 -14   0   36.81    1.33
  -4 -14   0    2.13    0.55
   4 -14   0    1.65    0.64
   5 -14   0    1.04    0.61
  -5 -14   0    1.08    0.63
  -6 -14   0    0.53    0.58
   0 -15   0   -0.05    0.53
   0  15   0    0.47    0.67
   1  15   0    5.57    0.82
  -1 -15   0    3.42    0.67
   1 -15   0    3.95    0.66
   2 -15   0   -0.24    0.51
   2  15   0    0.35    0.60
  -2 -15   0    0.09    0.59
   3 -15   0    0.16    0.56
  -3 -15   0    0.03    0.51
   4 -15   0    1.83    0.62
  -4 -15   0    0.82    0.55
   5 -15   0    0.75    0.63
  -5 -15   0    0.28    0.58
  -6 -15   0   13.50    1.01
   0  16   0    9.08    0.88
   0 -16   0   10.74    0.93
   1  16   0   41.14    1.43
  -1 -16   0   39.92    1.51
   1 -16   0   45.55    1.53
   2  16   0    0.92    0.65
   2 -16   0    1.56    0.63
  -2 -16   0    0.69    0.64
   3 -16   0   42.36    1.51
  -3 -16   0   42.80    1.59
  -4 -16   0   10.63    0.92
   4 -16   0   10.41    0.90
  -5 -16   0    1.51    0.64
   5 -16   0    1.22    0.65
  -6 -16   0   13.19    1.09
   0  17   0    0.08    0.74
   0 -17   0    0.15    0.59
  -1  17   0    2.54    0.83
   1 -17   0    1.66    0.66
   1  17   0    1.77    0.73
  -1 -17   0    2.37    0.73
  -2 -17   0   -0.24    0.67
   2 -17   0    1.15    0.67
  -3 -17   0    8.26    0.84
   3 -17   0    6.34    0.86
  -4 -17   0   14.78    1.14
   4 -17   0   13.69    1.06
   5 -17   0    0.14    0.69
  -5 -17   0    0.05    0.74
   0 -18   0    5.28    0.83
   0  18   0    7.45    1.01
   1 -18   0    0.09    0.65
   1  18   0    0.12    0.70
  -1  18   0    0.43    0.77
  -1 -18   0   -0.08    0.69
   2 -18   0    1.08    0.66
  -2 -18   0    1.66    0.72
  -2  18   0    2.05    0.84
   3 -18   0   19.74    1.23
  -3 -18   0   20.56    1.26
   4 -18   0    9.93    0.93
   0  19   0    0.34    0.81
   0 -19   0   -0.86    0.70
   1 -19   0    1.25    0.77
   1  19   0    2.36    0.83
  -1 -19   0    1.30    0.75
  -1  19   0    1.62    0.88
   2 -19   0    0.33    0.68
 -10   0   1    0.00    0.85
  10   0  -1   -0.30    0.82
   9   0  -1    0.47    0.73
  -9   0   1   -0.05    0.69
  -8   0   1   -0.08    0.68
   8   0  -1   -0.18    0.67
   7   0  -1    0.04    0.59
  -7   0   1    0.31    0.58
  -6   0   1    0.30    0.53
   6   0  -1    0.07    0.58
  -5   0   1    0.03    0.40
   5   0  -1   -0.02    0.45
   5   0  -1    0.28    0.26
   4   0  -1    0.24    0.40
   4   0  -1    0.04    0.24
   3   0  -1    0.06    0.30
   3   0  -1    0.11    0.21
   2   0  -1    0.14    0.27
   2   0  -1    0.20    0.20
   1   0  -1    0.01    0.12
   1   0  -1    0.02    0.11
   0   0  -1   -0.02    0.11
   0   0  -1    0.04    0.09
   0   0  -1    0.04    0.08
   0   0  -1   -0.02    0.11
  -1   0  -1   -0.17    0.22
  -1   0  -1    0.31    0.12
  -1   0  -1    0.10    0.21
  -2   0  -1    0.06    0.23
  -2   0  -1    0.04    0.12
  -2   0  -1    0.08    0.22
  -3   0  -1    0.26    0.31
  -4   0  -1    0.06    0.36
  -5   0  -1    0.31    0.46
   5   0   1    0.01    0.52
  -6   0  -1    0.44    0.49
   6   0   1   -0.02    0.57
   7   0   1    0.30    0.67
  -7   0  -1    0.35    0.57
   8   0   1    0.38    0.83
  -8   0  -1    0.06    0.63
   9   0   1    0.05    0.84
  -9   0  -1    0.31    0.71
  10   1  -1    1.11    0.95
 -10  -1   1    1.69    0.86
  10  -1  -1    1.60    0.81
 -10   1   1    0.36    0.85
   9  -1  -1    0.18    0.62
  -9  -1   1   -0.25    0.73
   9   1  -1   -0.53    0.75
  -9   1   1   -0.04    0.69
   8   1  -1    1.08    0.73
   8  -1  -1    1.92    0.67
  -8  -1   1    1.59    0.69
  -8   1   1    1.49    0.69
  -7   1   1    4.94    0.71
   7   1  -1    4.20    0.74
   7  -1  -1    4.18    0.69
  -7  -1   1    4.72    0.75
   6   1  -1  138.67    2.20
   6  -1  -1  130.14    2.05
  -6  -1   1  129.13    2.06
  -6   1   1  133.22    2.05
   5   1  -1    0.98    0.45
  -5   1   1    1.54    0.45
   5   1  -1    1.26    0.28
  -5  -1   1    1.25    0.47
   5  -1  -1    0.68    0.44
   4  -1  -1  198.78    1.65
   4   1  -1  197.59    1.56
   4   1  -1  195.66    1.94
   4  -1  -1  193.73    1.95
  -4  -1   1  197.70    1.22
  -3  -1   1   16.91    0.29
   3  -1  -1   16.42    0.55
   3   1  -1   16.17    0.45
   3  -1  -1   17.50    0.48
   3   1  -1   17.31    0.55
   2   1  -1  851.05    2.67
   2  -1  -1  863.41    2.77
   2   1  -1  881.91    2.79
   2  -1  -1  857.96    2.89
   1  -1  -1  243.51    0.89
   1   1  -1  245.45    1.25
   1  -1  -1  231.16    1.22
   1  -1  -1  234.55    1.23
   1   1  -1  247.42    1.05
   0  -1  -1  462.48    1.63
   0   1  -1  457.57    1.58
   0  -1  -1  470.40    1.39
   0  -1  -1  454.87    1.55
   0  -1  -1  453.80    1.66
  -1  -1  -1   51.33    0.67
  -1  -1  -1   50.87    0.72
  -1   1  -1   51.24    0.55
  -1   1  -1   52.48    0.69
  -2  -1  -1    8.02    0.39
  -2  -1  -1    6.68    0.38
  -2   1  -1    8.23    0.38
   3  -1   1  297.84    2.27
  -3  -1  -1  310.53    2.31
  -3  -1  -1  301.08    2.27
  -3   1  -1  304.22    2.28
  -4  -1  -1   61.97    1.21
  -4  -1  -1   62.70    1.23
  -4   1  -1   63.69    1.23
   4  -1   1   55.60    1.13
  -5  -1  -1    0.93    0.46
   5  -1   1    0.40    0.53
  -5   1  -1    0.92    0.48
   6  -1   1    0.76    0.59
  -6  -1  -1    1.08    0.52
   6   1   1    0.69    0.59
  -6   1  -1    1.01    0.52
   7   1   1    0.86    0.64
  -7  -1  -1    0.31    0.57
   7  -1   1    0.35    0.67
  -7   1  -1    0.89    0.61
  -8  -1  -1    0.01    0.64
  -8   1  -1    0.22    0.61
   8   1   1    0.00    0.74
   8  -1   1    0.27    0.69
   9   1   1    1.18    0.93
  -9  -1  -1    2.01    0.77
  -9   1  -1    1.80    0.80
   9  -1   1    1.71    0.90
  10  -2  -1    2.26    0.84
 -10   2   1    3.14    0.87
  10   2  -1    2.69    0.99
 -10  -2   1    2.99    0.93
  -9   2   1    2.61    0.78
   9  -2  -1    1.99    0.73
  -9  -2   1    2.56    0.80
   9   2  -1    3.55    0.88
   8   2  -1    8.17    1.00
  -8  -2   1    8.51    0.93
   8  -2  -1    8.85    0.85
  -8   2   1    6.89    0.85
   7   2  -1    3.71    0.74
  -7  -2   1    3.97    0.70
  -7   2   1    4.03    0.69
   7  -2  -1    4.01    0.68
  -6  -2   1    0.72    0.59
   6   2  -1   -0.01    0.56
   6  -2  -1    0.30    0.50
  -6   2   1    0.24    0.57
   5   2  -1   50.72    0.87
  -5  -2   1   49.66    0.78
   5  -2  -1   48.86    1.14
  -5   2   1   50.78    1.15
   5   2  -1   48.38    1.15
   4   2  -1  128.13    1.23
  -4  -2   1  132.23    1.07
   4  -2  -1  128.77    1.59
   4   2  -1  137.95    1.65
   3  -2  -1   64.57    1.00
   3   2  -1   66.17    1.01
  -3  -2   1   64.28    0.64
   3   2  -1   63.62    0.83
   2  -2  -1   33.42    0.61
   2  -2  -1   35.28    0.40
  -2  -2   1   34.61    0.44
   2  -2  -1   33.89    0.65
   2   2  -1   34.23    0.58
   1  -2  -1  236.39    1.41
   1   2  -1  248.72    1.35
   1  -2  -1  252.04    1.37
   1  -2  -1  251.09    1.15
   0  -2  -1   55.22    0.66
   0   2  -1   56.75    0.64
   0  -2  -1   55.82    0.56
   0  -2  -1   59.11    0.56
   0   2  -1   55.09    0.64
   0  -2  -1   54.63    0.65
  -1  -2  -1  879.95    2.64
  -1  -2  -1  881.96    2.93
  -1   2  -1  874.21    2.48
  -1   2  -1  872.16    2.75
   1  -2   1  842.89    2.37
  -2  -2  -1   11.95    0.45
  -2  -2  -1   10.13    0.42
   2  -2   1    9.47    0.42
  -2   2  -1   10.57    0.42
  -3   2  -1  122.38    1.45
  -3  -2  -1  121.03    1.47
   3  -2   1  120.81    1.37
  -3  -2  -1  124.71    1.49
  -4  -2  -1    2.16    0.41
  -4  -2  -1    1.43    0.37
  -4   2  -1    1.80    0.41
   4  -2   1    1.59    0.45
  -5   2  -1  149.84    2.07
  -5  -2  -1  155.53    2.01
   5  -2   1  158.37    2.27
  -5  -2  -1  148.21    2.09
   6  -2   1   43.12    1.34
  -6   2  -1   43.59    1.30
   6   2   1   43.80    1.39
  -6  -2  -1   44.18    1.33
   7  -2   1    9.04    0.86
  -7  -2  -1    9.76    0.86
  -7   2  -1    9.68    0.85
   7   2   1    8.01    0.89
   8  -2   1    1.23    0.71
   8   2   1    2.22    0.80
  -8  -2  -1    2.41    0.65
  -8   2  -1    1.73    0.66
   9   2   1    2.55    0.96
   9  -2   1    1.89    0.69
  -9   2  -1    0.98    0.73
  -9  -2  -1    1.66    0.68
  10  -3  -1    2.66    0.81
 -10   3   1    2.19    0.83
 -10  -3   1    1.70    0.90
  10   3  -1    3.68    1.06
  -9  -3   1    3.23    0.87
  -9   3   1    2.84    0.75
   9   3  -1    3.55    0.97
   9  -3  -1    2.23    0.73
  -8  -3   1   31.85    1.39
  -8   3   1   32.35    1.30
   8  -3  -1   30.59    1.28
   8   3  -1   31.40    1.37
  -7  -3   1  104.49    2.09
   7  -3  -1  101.80    1.98
   7   3  -1  104.36    2.05
  -7   3   1  100.02    2.04
   6   3  -1    7.59    0.74
  -6  -3   1    8.34    0.75
  -6   3   1    7.75    0.76
   6  -3  -1    7.00    0.69
  -5   3   1    2.02    0.48
   5  -3  -1    2.11    0.45
  -5  -3   1    2.36    0.26
   5   3  -1    2.28    0.29
   5   3  -1    2.69    0.51
   4   3  -1    1.49    0.25
   4  -3  -1    1.46    0.38
  -4  -3   1    1.67    0.21
  -4   3   1    1.47    0.37
  -3  -3   1  281.77    1.55
   3  -3  -1  279.25    2.06
   3  -3  -1  283.51    1.44
   3   3  -1  282.80    1.78
   2  -3  -1  152.01    1.38
   2  -3  -1  154.77    1.03
  -2  -3   1  150.96    1.07
   2   3  -1  152.73    1.23
   1  -3  -1    4.91    0.32
  -1  -3   1    5.31    0.31
   1   3  -1    5.41    0.33
   1  -3  -1    5.13    0.28
   0  -3  -1  133.30    1.12
   0   3  -1  135.81    1.03
   0   3  -1  133.32    1.10
   0  -3  -1  131.69    1.15
   0  -3  -1  137.59    0.84
  -1   3  -1  301.85    1.64
  -1  -3  -1  296.00    1.55
   1  -3   1  300.05    1.25
  -1  -3  -1  294.20    1.83
  -2   3  -1   29.42    0.64
  -2  -3  -1   30.88    0.66
  -2  -3  -1   28.36    0.66
   2  -3   1   29.20    0.61
  -3  -3  -1    0.63    0.31
  -3   3  -1    0.77    0.30
  -3  -3  -1    0.62    0.27
   3  -3   1    0.19    0.33
  -4   3  -1   10.95    0.61
  -4  -3  -1   10.67    0.60
   4  -3   1   10.90    0.62
  -4  -3  -1    9.68    0.56
   5  -3   1   72.80    1.44
  -5   3  -1   73.16    1.47
  -5  -3  -1   70.89    1.49
  -5  -3  -1   74.06    1.44
  -6  -3  -1    8.25    0.68
   6  -3   1    8.52    0.74
  -6  -3  -1   10.10    0.78
  -6   3  -1    9.31    0.76
  -7  -3  -1   49.75    1.56
   7   3   1   45.64    1.54
   7  -3   1   52.92    1.54
  -7   3  -1   51.48    1.54
  -8   3  -1    8.61    0.88
   8   3   1    9.61    1.02
  -8  -3  -1    9.83    0.93
   8  -3   1    8.99    0.85
   9  -3   1    0.09    0.71
  -9  -3  -1    0.39    0.72
   9   3   1    0.31    0.81
  -9   3  -1   -0.38    0.71
 -10   4   1    9.20    1.04
  10  -4  -1    8.69    1.03
  -9  -4   1   12.28    1.14
   9   4  -1   14.39    1.10
  -9   4   1   13.37    1.03
   9  -4  -1   13.22    1.09
  -8  -4   1   36.55    1.48
  -8   4   1   35.52    1.33
   8   4  -1   36.11    1.45
   8  -4  -1   35.10    1.38
   7  -4  -1   65.49    1.61
   7   4  -1   68.57    1.73
  -7  -4   1   68.11    1.71
  -7   4   1   64.90    1.65
   6   4  -1  127.50    2.09
  -6   4   1  126.50    2.02
   6  -4  -1  121.99    1.98
  -6  -4   1  123.39    2.06
  -5   4   1   -0.07    0.45
   5   4  -1    0.30    0.24
   5  -4  -1    0.10    0.42
  -5  -4   1    0.05    0.22
   4   4  -1  110.52    1.21
   4  -4  -1  113.75    1.54
  -4   4   1   99.96    1.44
  -4  -4   1  113.78    1.20
   4  -4  -1  115.16    1.13
  -3  -4   1   36.43    0.65
   3  -4  -1   36.26    0.83
   3   4  -1   36.25    0.68
   3  -4  -1   37.82    0.63
   2  -4  -1   92.18    1.14
   2   4  -1   90.97    1.01
   2  -4  -1   91.41    0.93
  -2  -4   1   91.45    0.97
   1  -4  -1   38.42    0.64
   1   4  -1   37.81    0.66
   1  -4  -1   38.01    0.70
  -1  -4   1   37.53    0.68
   0  -4   1  256.51    1.07
   0  -4  -1  250.27    1.69
   0  -4  -1  258.79    1.73
   0   4  -1  248.35    1.42
   0  -4  -1  248.12    1.11
   0   4  -1  254.36    1.68
  -1  -4  -1  195.96    1.28
  -1  -4  -1  187.94    1.61
   1  -4   1  198.77    1.13
  -1   4  -1  192.73    1.37
   2   4   1  809.87    1.85
  -2   4  -1  834.66    3.16
  -2  -4  -1  823.38    3.27
  -2  -4  -1  804.16    3.55
   2  -4   1  833.90    2.88
  -3   4  -1   30.02    0.75
  -3  -4  -1   29.99    0.78
  -3  -4  -1   30.08    0.80
   3  -4   1   31.41    0.72
  -4  -4  -1    8.32    0.55
  -4   4  -1    8.88    0.56
   4  -4   1    9.19    0.53
  -4  -4  -1    8.44    0.57
   5  -4   1  130.40    1.86
  -5   4  -1  129.85    1.91
  -5  -4  -1  134.52    1.94
  -5  -4  -1  127.48    1.98
  -6   4  -1  147.75    2.25
   6  -4   1  149.40    2.19
  -6  -4  -1  155.36    2.23
  -6  -4  -1  151.69    2.37
  -7  -4  -1    7.36    0.80
   7  -4   1    7.08    0.73
  -7   4  -1    7.60    0.78
   8   4   1    7.27    1.00
  -8  -4  -1    7.59    0.87
   8  -4   1    7.82    0.82
  -8   4  -1    7.64    0.84
   9  -4   1   11.99    1.06
  -9   4  -1   11.79    1.09
  -9  -4  -1   11.42    1.10
   9   4   1   11.21    1.26
 -10   5   1    2.95    0.74
  -9  -5   1    5.86    0.96
  -9   5   1    5.38    0.75
   9  -5  -1    5.40    0.87
   9   5  -1    5.03    0.92
   8  -5  -1    0.42    0.60
  -8  -5   1   -0.22    0.73
   8   5  -1   -0.09    0.72
  -8   5   1   -0.15    0.61
   7  -5  -1   19.19    0.99
  -7  -5   1   22.32    1.11
  -7   5   1   22.09    1.00
   7   5  -1   22.90    1.13
  -6  -5   1  233.43    2.79
   6  -5  -1  225.26    2.68
  -6   5   1  234.02    2.62
  -5   5   1   97.21    1.51
  -5  -5   1   88.05    1.22
   5  -5  -1   86.34    1.20
   5  -5  -1   88.78    1.57
   5   5  -1   89.16    1.18
  -4  -5   1   48.90    0.87
   4  -5  -1   48.34    1.08
  -4   5   1   49.18    0.98
   4  -5  -1   47.58    0.82
   4   5  -1   48.97    0.87
   3  -5  -1  501.91    2.45
  -3   5   1  492.83    2.34
   3   5  -1  491.54    2.56
   3  -5  -1  497.83    3.06
  -3  -5   1  498.35    2.57
   2  -5  -1  571.81    2.58
   2  -5  -1  586.03    2.99
  -2  -5   1  570.44    2.67
   2   5  -1  580.49    2.66
  -1  -5   1   69.43    0.99
   1  -5  -1   71.21    1.00
   1  -5  -1   72.16    0.95
   1   5  -1   71.77    0.97
   0  -5  -1   12.67    0.26
   0   5  -1   13.76    0.50
   0  -5  -1   13.54    0.49
   0  -5   1   12.93    0.32
   0   5  -1   13.03    0.36
   0  -5  -1   12.55    0.46
  -1  -5  -1  108.36    1.30
  -1  -5  -1  110.29    0.97
   1  -5   1  110.24    0.93
  -1   5  -1  109.56    1.05
   2  -5   1   26.64    0.59
  -2  -5  -1   25.38    0.62
  -2  -5  -1   25.65    0.72
   2   5   1   26.19    0.44
  -2   5  -1   25.96    0.59
  -3   5  -1   99.53    1.29
  -3  -5  -1   99.22    1.36
  -3  -5  -1   96.08    1.42
   3  -5   1  101.90    1.25
  -4  -5  -1    5.86    0.50
  -4  -5  -1    6.03    0.55
  -4   5  -1    5.62    0.49
   4  -5   1    5.49    0.49
   5  -5   1   35.76    1.05
  -5   5  -1   34.04    1.06
  -5  -5  -1   35.90    1.09
  -5  -5  -1   34.74    1.10
  -6  -5  -1   71.02    1.66
  -6  -5  -1   76.56    1.61
   6  -5   1   74.52    1.61
  -6   5  -1   73.58    1.62
  -7   5  -1    5.02    0.71
   7  -5   1    4.75    0.68
  -7  -5  -1    4.74    0.71
  -8  -5  -1    2.03    0.71
   8  -5   1    1.85    0.69
   8   5   1    2.07    0.84
  -8   5  -1    0.80    0.63
  -9  -5  -1    8.95    1.05
   9  -5   1    9.09    0.93
   9   5   1   10.16    1.24
  -9   5  -1    7.63    0.98
   9   6  -1    0.26    0.75
   9  -6  -1    0.11    0.71
  -9  -6   1    0.07    0.78
  -9   6   1   -0.31    0.66
  -8   6   1    5.54    0.72
   8   6  -1    4.95    0.84
   8  -6  -1    4.77    0.78
  -8  -6   1    5.12    0.85
  -7  -6   1   36.01    1.37
   7  -6  -1   34.91    1.27
   7   6  -1   35.69    1.38
  -7   6   1   34.90    1.17
  -6  -6   1   20.83    1.02
   6  -6  -1   19.57    0.98
  -6   6   1   18.80    0.86
   5  -6  -1    3.36    0.57
  -5  -6   1    3.42    0.39
  -5   6   1    3.01    0.53
   5  -6  -1    3.59    0.40
  -4  -6   1   -0.07    0.25
  -4   6   1   -0.07    0.33
   4  -6  -1    0.40    0.35
   4   6  -1    0.58    0.26
   4  -6  -1    0.00    0.28
  -3   6   1   47.73    0.75
   3   6  -1   47.34    0.87
   3  -6  -1   48.82    0.88
  -3  -6   1   48.49    0.91
   3  -6  -1   48.50    1.02
  -2   6   1  281.92    1.22
   2   6  -1  298.76    2.04
  -2  -6   1  298.50    2.13
   2  -6  -1  304.19    2.26
   2  -6  -1  299.91    2.05
   1  -6  -1   87.84    1.15
   1   6  -1   86.17    1.14
   1  -6  -1   84.97    1.15
  -1  -6   1   85.25    1.18
   0   6  -1    2.32    0.37
   0  -6   1    2.16    0.22
   0  -6  -1    2.51    0.14
   0  -6  -1    2.24    0.33
   0   6  -1    2.11    0.21
   0  -6  -1    2.12    0.30
   0  -6   1    1.92    0.34
  -1  -6  -1  396.12    2.67
  -1  -6  -1  404.83    1.86
  -1   6  -1  397.91    2.03
   1  -6   1  409.42    1.94
  -2   6  -1  126.63    1.29
  -2  -6  -1  123.16    1.30
  -2  -6  -1  121.45    1.57
   2  -6   1  125.19    1.24
  -3  -6  -1    0.27    0.30
  -3  -6  -1    0.40    0.32
   3  -6   1    0.01    0.27
  -3   6  -1    0.49    0.24
  -4  -6  -1  159.56    2.01
  -4  -6  -1  158.93    1.97
   4  -6   1  164.75    1.86
  -4   6  -1  163.24    1.91
   5  -6   1  211.35    2.35
  -5  -6  -1  206.38    2.51
  -5   6  -1  207.37    2.39
  -5  -6  -1  212.63    2.50
   6  -6   1   -0.08    0.44
  -6   6  -1    0.20    0.43
  -6  -6  -1    0.59    0.54
  -6  -6  -1   -0.26    0.41
  -7   6  -1   14.19    0.93
   7  -6   1   14.75    0.87
  -7  -6  -1   13.60    0.96
  -8  -6  -1    1.79    0.75
   8  -6   1    0.75    0.62
   8   6   1    1.29    0.88
  -8   6  -1    0.63    0.55
   9   7  -1    0.40    0.87
  -9  -7   1    0.49    0.86
   9  -7  -1   -0.41    0.68
   8  -7  -1   22.80    1.20
  -8  -7   1   23.85    1.31
   8   7  -1   27.81    1.39
  -7   7   1   11.51    0.77
   7  -7  -1   10.54    0.83
  -7  -7   1   10.19    0.92
  -6   7   1  115.47    1.76
   6  -7  -1  115.98    2.05
  -6  -7   1  110.04    2.03
  -5  -7   1  217.17    2.17
  -5   7   1  225.93    2.12
   5  -7  -1  210.48    2.04
   5  -7  -1  216.53    2.57
   4  -7  -1   21.54    0.82
  -4   7   1   21.70    0.64
   4   7  -1   21.61    0.68
   4  -7  -1   20.50    0.69
  -4  -7   1   23.22    0.74
   3   7  -1   24.71    0.69
   3  -7  -1   23.74    0.71
   3  -7  -1   24.29    0.80
  -3   7   1   25.26    0.51
  -3  -7   1   23.39    0.72
   2  -7  -1  351.91    2.41
  -2   7   1  338.55    1.10
  -2  -7   1  355.70    2.53
   2   7  -1  353.29    2.36
   2  -7  -1  355.95    2.59
   1  -7  -1   82.15    1.20
   1  -7  -1   78.96    1.21
   1   7  -1   79.52    1.20
  -1  -7   1   79.96    1.25
   0  -7   1    6.67    0.48
   0  -7   1    7.07    0.34
   0   7  -1    7.37    0.50
   0  -7  -1    6.64    0.44
   0  -7  -1    6.77    0.44
   0  -7  -1    5.71    0.18
  -1  -7  -1  362.22    1.76
   1  -7   1  364.73    2.77
  -1   7  -1  359.46    1.96
   1  -7   1  367.79    1.99
  -1  -7  -1  361.94    2.68
  -2  -7  -1   61.48    0.94
   2  -7   1   60.73    0.93
  -2   7  -1   61.38    0.92
  -2  -7  -1   60.96    1.18
   3  -7   1   35.14    0.82
  -3  -7  -1   33.50    0.83
  -3   7  -1   35.35    0.81
  -3  -7  -1   35.82    0.98
   4  -7   1    0.55    0.41
  -4  -7  -1    0.87    0.46
  -4  -7  -1    0.75    0.43
  -4   7  -1    0.07    0.39
  -5  -7  -1    1.14    0.46
  -5   7  -1    0.65    0.46
  -5  -7  -1    1.08    0.49
   5  -7   1    0.70    0.48
  -6  -7  -1    2.57    0.51
   6  -7   1    2.26    0.56
  -6  -7  -1    2.42    0.55
  -6   7  -1    1.80    0.50
  -7   7  -1   20.77    1.07
  -7  -7  -1   21.03    1.14
   7  -7   1   21.31    1.08
  -8  -7  -1    0.75    0.70
  -8   7  -1    0.51    0.63
  -9  -8   1    9.91    1.11
   9   8  -1   10.62    1.23
   9  -8  -1   12.40    1.08
   8  -8  -1    1.39    0.58
  -8  -8   1    1.66    0.79
   8   8  -1    0.81    0.76
  -7  -8   1   15.77    1.05
   7  -8  -1   14.76    0.96
   6  -8  -1    1.49    0.52
  -6  -8   1    1.62    0.60
  -5  -8   1   87.80    1.68
  -5  -8   1   87.65    1.49
   5  -8  -1   84.59    1.67
   5  -8  -1   82.89    1.38
   4  -8  -1   29.80    0.98
   4   8  -1   30.33    0.83
   4  -8  -1   29.37    0.85
  -4  -8   1   31.10    0.90
   3  -8  -1   14.94    0.67
   3   8  -1   16.01    0.64
   3  -8  -1   15.35    0.65
  -3  -8   1   15.10    0.66
  -2  -8   1   16.54    0.66
   2  -8  -1   15.64    0.63
   2  -8  -1   16.31    0.66
   2   8  -1   16.77    0.67
   1  -8  -1  112.65    1.51
   1  -8  -1  114.14    1.52
   1   8  -1  113.32    1.52
  -1  -8   1  112.78    1.59
   0  -8  -1  101.44    1.44
   0  -8   1  103.89    1.15
   0  -8  -1   98.47    1.45
   0  -8   1   99.03    1.52
   0   8  -1  101.40    1.44
   1  -8   1  137.45    1.34
  -1  -8  -1  135.30    1.77
  -1   8  -1  136.60    1.21
  -1  -8  -1  134.86    1.08
   1  -8   1  140.08    1.81
  -2   8  -1    3.41    0.30
  -2  -8  -1    3.51    0.42
  -2  -8  -1    3.59    0.34
   2  -8   1    3.43    0.32
  -3  -8  -1    0.85    0.39
  -3  -8  -1    1.17    0.34
  -3   8  -1    0.86    0.28
   3  -8   1    0.83    0.32
  -4  -8  -1  166.71    2.04
   4  -8   1  175.80    2.01
  -4   8  -1  166.75    1.93
  -4  -8  -1  173.43    2.27
  -5  -8  -1   55.19    1.37
  -5  -8  -1   53.00    1.39
  -5   8  -1   56.43    1.27
   5  -8   1   57.05    1.30
  -6   8  -1    4.80    0.61
  -6  -8  -1    4.36    0.62
  -6  -8  -1    5.48    0.64
   6  -8   1    4.90    0.63
  -7  -8  -1    1.45    0.66
  -8  -8  -1    1.97    0.76
  -9  -9   1   12.02    1.20
   9   9  -1   12.03    1.23
   9  -9  -1   12.36    1.08
   8  -9  -1    2.46    0.72
  -8  -9   1    2.81    0.76
   8   9  -1    3.45    0.94
  -7  -9   1    4.50    0.79
   7  -9  -1    4.24    0.75
   6  -9  -1   27.03    1.14
  -6  -9   1   27.48    1.13
  -5  -9   1   15.85    0.85
  -5  -9   1   16.42    0.76
   5  -9  -1   16.19    0.73
   5  -9  -1   17.80    0.89
   4  -9  -1    0.03    0.41
   4   9  -1    0.30    0.34
   4  -9  -1    0.28    0.44
  -4  -9   1    0.25    0.40
   3  -9  -1    3.76    0.48
  -3  -9   1    4.00    0.50
   3  -9  -1    3.87    0.47
   3   9  -1    4.19    0.45
  -2  -9   1   28.25    0.88
   2  -9  -1   28.30    0.86
   2  -9  -1   28.02    0.85
   2   9  -1   29.79    0.88
  -1  -9   1    2.29    0.45
   1  -9  -1    2.33    0.42
   1   9  -1    2.45    0.50
   1  -9  -1    2.48    0.41
   0   9  -1  144.74    1.84
   0  -9   1  141.33    1.90
   0  -9   1  148.56    1.48
   0  -9  -1  141.97    1.84
   0  -9  -1  145.83    1.81
   1  -9   1    1.08    0.44
   1  -9   1    1.22    0.27
  -1  -9  -1    1.05    0.20
  -1  -9  -1    0.88    0.36
  -2  -9  -1    0.52    0.38
  -2  -9  -1    0.42    0.26
   2   9   1    0.40    0.38
   2  -9   1    0.09    0.45
   2  -9   1    0.00    0.25
  -3  -9  -1    7.41    0.51
  -3  -9  -1    7.30    0.60
   3  -9   1    7.41    0.49
  -4  -9  -1   98.07    1.60
  -4  -9  -1   99.13    1.81
   4  -9   1  101.50    1.58
  -5  -9  -1    1.25    0.52
  -5  -9  -1    1.01    0.47
  -6  -9  -1   35.56    1.27
  -6  -9  -1   35.77    1.27
  -7  -9  -1    7.76    0.82
  -8  -9  -1   29.52    1.42
  -9 -10   1   10.17    1.13
   9 -10  -1    8.28    0.89
  -8 -10   1   12.50    1.11
   8 -10  -1   14.15    1.08
  -7 -10   1   13.56    1.00
   7 -10  -1   12.16    0.90
   6 -10  -1    0.05    0.51
  -6 -10   1    0.37    0.59
   5 -10  -1   20.71    0.98
  -5 -10   1   18.66    0.90
  -5 -10   1   21.14    0.87
   5 -10  -1   19.54    0.82
  -4 -10   1    3.85    0.50
   4  10  -1    4.21    0.48
   4 -10  -1    3.80    0.50
   4 -10  -1    3.67    0.55
  -3 -10   1    0.17    0.39
   3 -10  -1   -0.06    0.38
   3 -10  -1    0.52    0.42
   2 -10  -1    6.45    0.55
  -2 -10   1    7.07    0.60
   2  10  -1    7.57    0.66
   2 -10  -1    7.25    0.57
   1 -10  -1   25.04    0.87
   1  10  -1   26.66    0.95
   1 -10  -1   26.11    0.90
  -1 -10   1   24.88    0.91
   0 -10  -1    3.32    0.48
   0 -10   1    2.81    0.51
   0  10  -1    3.80    0.60
   0 -10  -1    3.56    0.48
   1 -10   1    3.61    0.38
  -1 -10  -1    3.47    0.52
   1 -10   1    4.00    0.55
   2 -10   1    5.78    0.43
   2  10   1    6.14    0.52
  -2 -10  -1    6.29    0.59
   2 -10   1    6.00    0.64
   3 -10   1    0.83    0.34
  -3 -10  -1    0.93    0.45
  -3 -10  -1    1.50    0.38
   3 -10   1    0.93    0.53
  -4 -10  -1    0.88    0.42
  -4 -10  -1    0.93    0.39
   4 -10   1    0.86    0.48
  -5 -10  -1    9.91    0.75
  -5 -10  -1   10.15    0.73
  -6 -10  -1    0.39    0.54
  -6 -10  -1    0.94    0.54
  -7 -10  -1    6.01    0.82
  -8 -10  -1    8.84    0.97
  -8 -11   1    3.23    0.82
   8 -11  -1    3.46    0.74
  -7 -11   1    1.00    0.72
   7 -11  -1    1.35    0.61
  -6 -11   1    0.38    0.57
   6 -11  -1    0.14    0.53
   5 -11  -1    6.36    0.67
  -5 -11   1    6.40    0.60
   5 -11  -1    6.52    0.63
  -5 -11   1    6.05    0.67
   4 -11  -1    1.09    0.51
  -4 -11   1    1.31    0.47
   4 -11  -1    1.43    0.47
  -4 -11   1    1.26    0.44
   4  11  -1    1.33    0.43
  -3 -11   1   44.98    1.26
   3 -11  -1   44.53    1.20
   3  11  -1   43.95    1.16
   3 -11  -1   43.67    1.17
   2  11  -1   35.69    1.10
   2 -11  -1   33.89    1.03
   2 -11  -1   31.79    1.04
  -2 -11   1   33.58    1.07
   1  11  -1   19.40    0.90
   1 -11  -1   19.99    0.87
   1 -11  -1   19.08    0.83
  -1 -11   1   18.29    0.87
   0 -11  -1   59.74    1.34
   0 -11  -1   60.89    1.39
   0  11  -1   62.43    1.42
   0 -11   1   59.79    1.42
   1 -11   1  144.34    2.17
   1 -11   1  146.39    1.67
  -1 -11  -1  142.69    2.13
   2 -11   1    0.90    0.55
  -2 -11  -1    2.05    0.48
   2  11   1    1.52    0.48
  -3 -11  -1    7.43    0.67
   3 -11   1    7.64    0.72
  -4 -11  -1   15.49    0.86
   4 -11   1   13.90    0.89
   5 -11   1    0.84    0.58
  -5 -11  -1    1.12    0.49
  -6 -11  -1    0.94    0.57
  -6 -11  -1   -0.14    0.56
   6 -11   1    0.15    0.59
  -7 -11  -1    8.20    0.82
   8 -12  -1    0.29    0.80
   7 -12  -1   11.12    0.93
   6 -12  -1    0.24    0.58
  -5 -12   1   77.76    1.76
   5 -12  -1   74.26    1.62
   5 -12  -1   75.30    1.74
  -4 -12   1    2.65    0.55
   4 -12  -1    3.26    0.52
   4 -12  -1    3.20    0.57
   3 -12  -1   27.31    1.02
  -3 -12   1   27.09    1.04
   3  12  -1   25.91    0.99
   3 -12  -1   26.07    1.00
  -2 -12   1  294.41    3.14
   2 -12  -1  286.78    2.94
   2  12  -1  296.24    2.98
   2 -12  -1  284.35    3.02
  -1 -12   1  239.23    2.79
   1 -12  -1  237.91    2.77
   1 -12  -1  239.45    2.64
   1  12  -1  241.10    2.73
   0 -12  -1   51.20    1.37
   0  12  -1   57.01    1.49
   0 -12   1   51.40    1.44
   1 -12   1   91.39    1.84
  -1 -12  -1   94.22    1.84
  -1  12  -1   93.67    1.82
   2  12   1   30.81    0.97
   2 -12   1   29.28    1.16
  -2 -12  -1   32.10    1.14
  -3 -12  -1    2.97    0.54
   3 -12   1    2.49    0.64
   4 -12   1   11.82    0.86
  -4 -12  -1   12.28    0.83
  -5 -12  -1    0.64    0.51
   5 -12   1    0.45    0.58
  -6 -12  -1    0.88    0.56
   6 -12   1    0.47    0.60
   7 -13  -1    0.37    0.70
   6 -13  -1    1.67    0.57
   5 -13  -1   -0.48    0.51
   5 -13  -1    0.80    0.48
  -5 -13   1    0.03    0.50
  -4 -13   1    0.40    0.44
   4 -13  -1    0.12    0.48
   4 -13  -1    0.01    0.46
  -3 -13   1    0.41    0.52
   3 -13  -1    0.67    0.47
   3  13  -1    0.43    0.59
   3 -13  -1    0.36    0.48
   2  13  -1   24.71    1.03
   2 -13  -1   24.06    0.97
  -2 -13   1   25.44    1.07
   2 -13  -1   23.73    1.01
  -1 -13   1   11.41    0.79
   1 -13  -1   11.16    0.78
   1 -13  -1   11.66    0.77
   1  13  -1   11.13    0.83
   0 -13  -1  108.23    2.01
   0  13  -1  114.44    2.09
   0 -13   1  110.88    2.05
   1 -13   1  122.76    2.21
  -1  13  -1  126.80    2.19
  -1 -13  -1  122.35    2.18
  -2 -13  -1   36.81    1.28
   2 -13   1   35.10    1.27
   3 -13   1    0.46    0.59
  -3 -13  -1    0.68    0.53
   4 -13   1   31.12    1.30
  -4 -13  -1   30.41    1.26
  -5 -13  -1    4.15    0.67
   5 -13   1    3.10    0.72
   6 -13   1   15.92    1.08
  -6 -13  -1   17.40    1.09
   6 -14  -1    7.89    0.80
   5 -14  -1    0.10    0.48
  -5 -14   1   -0.03    0.48
   5 -14  -1   -0.21    0.54
   4 -14  -1    4.80    0.63
   4 -14  -1    5.14    0.67
  -4 -14   1    5.43    0.71
   3 -14  -1   16.20    0.93
   3  14  -1   14.67    0.91
   3 -14  -1   15.78    0.87
  -3 -14   1   15.03    0.92
  -2 -14   1   12.31    0.88
   2  14  -1   13.36    0.90
   2 -14  -1   12.12    0.80
   2 -14  -1   12.41    0.84
   1 -14  -1   17.52    0.96
   1 -14  -1   17.46    0.90
  -1 -14   1   16.50    0.96
   1  14  -1   17.87    1.04
   0 -14  -1    5.52    0.69
   0  14  -1    5.74    0.81
   0 -14   1    6.23    0.71
  -1 -14  -1    7.30    0.74
   1 -14   1    7.45    0.78
  -1  14  -1    8.64    0.89
  -2  14  -1   18.51    1.12
   2 -14   1   18.04    1.08
  -2 -14  -1   19.44    1.03
  -3 -14  -1    0.52    0.54
   3 -14   1    0.13    0.56
  -4 -14  -1    3.79    0.68
   4 -14   1    3.23    0.72
  -5 -14  -1    1.63    0.66
   5 -14   1    1.60    0.71
  -6 -14  -1    0.65    0.63
  -5 -15   1    5.54    0.70
   5 -15  -1    5.63    0.69
  -4 -15   1    0.21    0.55
   4 -15  -1    0.91    0.51
   4 -15  -1    1.04    0.53
  -3 -15   1   18.37    1.04
   3  15  -1   17.21    0.97
   3 -15  -1   18.84    0.97
   3 -15  -1   18.29    1.01
   2 -15  -1    1.23    0.54
   2  15  -1    1.60    0.64
  -2 -15   1    1.56    0.63
   2 -15  -1    1.61    0.54
  -1 -15   1    0.18    0.55
   1 -15  -1    0.17    0.50
   1 -15  -1    0.19    0.55
   1  15  -1    0.37    0.66
   0 -15  -1    2.36    0.61
   0  15  -1    1.14    0.67
   0 -15   1    2.02    0.61
  -1  15  -1   12.64    0.99
   1  15   1   10.94    0.83
   1 -15   1   11.13    0.90
  -1 -15  -1   12.14    0.90
  -2  15  -1    6.37    0.87
  -2 -15  -1    6.59    0.78
   2 -15   1    5.96    0.80
  -3 -15  -1    7.24    0.79
  -3  15  -1    7.40    0.94
   3 -15   1    6.75    0.84
   4 -15   1    5.18    0.80
  -4 -15  -1    6.29    0.80
  -5 -15  -1    6.61    0.86
   5 -15   1    4.79    0.88
  -6 -15  -1    1.98    0.73
  -5 -16   1    2.47    0.68
   4 -16  -1    2.66    0.63
  -4 -16   1    4.07    0.75
  -3 -16   1    0.34    0.58
   3 -16  -1   -0.07    0.56
   3  16  -1    0.00    0.69
   3 -16  -1    0.13    0.52
   2 -16  -1   12.58    0.91
  -2 -16   1   14.30    0.97
   2  16  -1   15.25    1.07
   2 -16  -1   15.59    0.96
   1  16  -1    4.94    0.84
  -1 -16   1    5.22    0.78
   1 -16  -1    5.18    0.75
   0 -16  -1    0.20    0.59
   0  16  -1    1.14    0.72
   0 -16   1    1.22    0.64
  -1 -16  -1    0.33    0.52
   1 -16   1    0.48    0.58
  -1  16  -1    0.80    0.75
   1  16   1    0.36    0.66
  -2 -16  -1    1.56    0.61
  -2  16  -1    2.00    0.80
   2 -16   1    1.62    0.70
   3 -16   1   19.00    1.18
  -3 -16  -1   21.25    1.21
  -3  16  -1   20.09    1.30
  -4 -16  -1    4.03    0.78
   4 -16   1    3.57    0.82
  -4  16  -1    5.32    1.05
   5 -16   1   21.57    1.28
  -5  16  -1   22.67    1.47
  -5 -16  -1   25.10    1.36
  -5 -17   1    0.47    0.65
   4 -17  -1   16.32    1.09
  -4 -17   1   15.35    1.09
  -3 -17   1   24.57    1.31
   3 -17  -1   21.89    1.22
  -2 -17   1    1.31    0.67
   2 -17  -1    2.66    0.68
   2 -17  -1    2.14    0.61
   2  17  -1    2.18    0.78
  -1 -17   1    1.52    0.73
   1 -17  -1    0.48    0.58
   1  17  -1    0.20    0.74
   0 -17   1    3.05    0.74
   0 -17  -1    2.74    0.69
   0  17  -1    2.45    0.83
   1 -17   1    4.55    0.74
  -1 -17  -1    4.59    0.78
  -1  17  -1    5.60    0.99
   2 -17   1    4.72    0.81
  -2  17  -1    6.33    1.01
  -2 -17  -1    6.04    0.85
  -3 -17  -1    0.57    0.59
   3 -17   1    0.46    0.73
  -3  17  -1    0.30    0.84
   4 -17   1    0.50    0.74
  -4 -17  -1    0.34    0.70
  -4  17  -1    0.78    1.01
   4 -18  -1   -0.14    0.68
  -4 -18   1    0.79    0.70
  -3 -18   1    2.27    0.81
   3 -18  -1    1.19    0.64
   2 -18  -1    0.96    0.64
  -2 -18   1    0.83    0.66
   2  18  -1    2.11    0.76
  -1 -18   1    5.28    0.85
   1 -18  -1    6.01    0.86
   1  18  -1    5.84    0.91
   0 -18  -1    6.34    0.88
   0  18  -1    8.04    1.03
   0 -18   1    6.54    0.90
   0  18   1    6.92    0.94
  -1 -18  -1    0.93    0.69
   1 -18   1    2.31    0.74
  -1  18  -1    2.04    0.95
   2 -18   1   14.13    1.08
  -2 -18  -1   15.52    1.14
  -2  18  -1   14.43    1.25
   3 -18   1    1.32    0.73
   2 -19  -1    0.30    0.66
   2  19  -1    0.20    0.81
   1  19  -1   14.81    1.24
   1 -19  -1   16.62    1.19
  -1  19   1   16.13    1.23
   0 -19  -1   16.84    1.18
   0 -19   1   16.71    1.22
   0  19  -1   18.74    1.29
   0  19   1   17.95    1.27
  10   0  -2    5.93    0.90
 -10   0   2    5.99    1.00
  -9   0   2    0.75    0.75
   9   0  -2    0.30    0.68
  -8   0   2   53.40    1.64
   8   0  -2   53.77    1.59
  -7   0   2    4.95    0.74
   7   0  -2    7.24    0.72
   7   0  -2    7.27    0.54
   6   0  -2   54.14    1.14
   6   0  -2   55.24    1.37
   5   0  -2  436.09    3.24
   5   0  -2  440.64    2.90
   4   0  -2  323.93    2.36
   4   0  -2  330.85    2.46
   3   0  -2  185.66    1.65
   3   0  -2  185.55    1.63
   2   0  -2    1.77    0.26
   2   0  -2    1.81    0.28
   1   0  -2  845.82    3.02
   1   0  -2  852.37    3.17
   1   0  -2  843.83    2.45
   0   0  -2   21.01    0.41
   0   0  -2   21.41    0.57
   0   0  -2   20.42    0.55
   0   0  -2   22.05    0.50
  -1   0  -2   28.17    0.49
  -1   0  -2   26.25    0.71
  -1   0  -2   26.37    0.65
  -2   0  -2  193.12    1.84
  -2   0  -2  201.85    1.19
  -3   0  -2  109.77    1.57
  -3   0  -2  117.31    0.89
  -4   0  -2    2.23    0.47
  -5   0  -2    0.46    0.48
   5   0   2    0.79    0.56
  -6   0  -2   23.02    1.08
   6   0   2   22.74    1.12
  -7   0  -2    0.91    0.65
   7   0   2    1.40    0.71
  -8   0  -2    4.63    0.85
   8   0   2    4.38    0.98
   9   0   2   -0.50    0.85
  10   1  -2    0.51    0.77
 -10   1   2    1.60    0.86
 -10  -1   2    0.45    0.88
  10  -1  -2    0.74    0.75
   9  -1  -2    0.20    0.64
  -9   1   2   -0.04    0.72
  -9  -1   2    0.74    0.78
   9   1  -2    0.38    0.66
   8   1  -2    4.01    0.71
  -8   1   2    4.38    0.77
  -8  -1   2    3.59    0.77
   8  -1  -2    3.56    0.72
  -7   1   2   14.32    0.94
   7  -1  -2   18.48    0.95
   7   1  -2   18.07    0.97
   7   1  -2   18.76    0.74
   6   1  -2   20.89    0.75
   6   1  -2   18.91    0.91
   6  -1  -2   20.00    0.88
   6  -1  -2   20.56    0.76
   5   1  -2  115.63    1.69
   5  -1  -2  109.81    1.66
   5  -1  -2  116.76    1.58
   5   1  -2  114.06    1.49
   4   1  -2  135.09    1.51
   4   1  -2  142.22    1.64
   4  -1  -2  139.15    1.65
   4  -1  -2  138.42    1.58
   3  -1  -2  226.56    1.86
   3  -1  -2  221.50    1.81
   3   1  -2  218.75    1.73
   3   1  -2  226.07    1.82
   2  -1  -2  931.11    2.33
   2   1  -2  932.92    2.89
   2   1  -2  946.33    3.45
   2  -1  -2  927.46    3.37
   2  -1  -2  919.69    3.28
   1  -1  -2 9508.04   36.46
   1  -1  -2 9273.21   36.40
   1   1  -2 9665.05   29.13
   1  -1  -2 9343.05   40.06
   1   1  -2 9636.98   42.87
   1  -1  -2 9571.50   41.67
   1   1  -2 9503.06   41.12
   0  -1  -2 1066.83    3.07
   0   1  -2 1083.47    3.26
   0  -1  -2 1075.56    3.68
   0  -1  -2 1087.61    3.06
   0  -1  -2 1124.29    3.72
   0   1  -2 1089.12    3.77
  -1   1  -2  256.09    1.52
  -1  -1  -2  262.44    1.34
  -1  -1  -2  261.67    2.05
  -1  -1  -2  263.77    1.92
  -1   1  -2  256.82    1.95
  -2  -1  -2  226.09    2.00
  -2   1  -2  230.65    1.42
  -2  -1  -2  234.62    1.11
  -2  -1  -2  232.31    2.18
  -2   1  -2  225.76    2.00
  -3   1  -2  312.12    2.62
  -3  -1  -2  323.80    2.63
  -3  -1  -2  303.69    1.10
  -3  -1  -2  330.22    2.84
  -3   1  -2  319.74    1.67
  -4   1  -2   47.96    1.19
   4  -1   2   43.86    1.16
  -4  -1  -2   47.35    1.18
  -5   1  -2   20.68    0.95
  -5  -1  -2   20.23    0.93
   5  -1   2   19.48    0.96
  -6  -1  -2   27.26    1.13
   6   1   2   28.41    1.20
   6  -1   2   25.63    1.09
  -6   1  -2   28.79    1.18
  -7   1  -2    3.53    0.71
  -7  -1  -2    2.61    0.64
   7   1   2    2.87    0.80
   7  -1   2    2.35    0.76
   8  -1   2   -0.09    0.73
  -8   1  -2   -0.26    0.64
  -8  -1  -2    0.06    0.70
   8   1   2    0.06    0.83
   9   1   2    0.26    0.91
   9  -1   2    0.28    0.87
  10  -2  -2    7.22    1.01
 -10  -2   2    7.67    1.09
 -10   2   2    6.76    1.02
  10   2  -2    7.40    0.99
   9  -2  -2    0.14    0.66
  -9   2   2    0.05    0.77
  -9  -2   2    0.28    0.78
   9   2  -2   -0.15    0.66
  -8   2   2   21.15    1.13
   8   2  -2   19.87    1.09
   8  -2  -2   18.70    1.04
  -8  -2   2   18.60    1.13
   7  -2  -2   24.08    1.08
  -7   2   2   24.95    1.11
   7   2  -2   26.76    1.11
   6   2  -2    2.60    0.63
   6  -2  -2    2.62    0.55
   6   2  -2    2.91    0.39
   5  -2  -2   30.79    0.96
   5   2  -2   31.74    1.02
   5  -2  -2   30.27    0.86
   5   2  -2   29.19    0.78
   4  -2  -2   29.31    0.83
   4   2  -2   30.21    0.76
   4   2  -2   32.48    0.86
   4  -2  -2   30.34    0.81
  -4  -2   2   29.05    0.38
   3   2  -2   75.72    1.09
   3  -2  -2   75.07    1.13
   3  -2  -2   77.24    0.56
   3   2  -2   80.16    1.08
   3  -2  -2   78.69    1.14
  -3  -2   2   77.43    0.67
   2  -2  -2   23.13    0.60
   2   2  -2   22.86    0.49
   2  -2  -2   22.52    0.60
   2   2  -2   23.08    0.61
   2  -2  -2   23.54    0.41
   1   2  -2   17.99    0.30
   1  -2  -2   17.92    0.50
   1  -2  -2   16.70    0.49
   1   2  -2   17.92    0.52
   1  -2  -2   17.96    0.48
   1   2  -2   17.91    0.53
   1  -2  -2   17.43    0.45
   0  -2  -2    0.13    0.22
   0  -2  -2    0.29    0.18
   0   2  -2    0.24    0.23
   0  -2  -2    0.19    0.24
   0   2  -2    0.29    0.24
   0  -2  -2    0.33    0.22
  -1   2  -2  141.23    1.22
  -1   2  -2  137.97    1.45
  -1  -2  -2  137.88    1.39
  -1  -2  -2  140.03    0.93
  -1  -2  -2  138.12    1.50
  -2  -2  -2   46.27    0.93
  -2  -2  -2   47.07    1.00
  -2   2  -2   45.26    0.73
  -2  -2  -2   43.62    0.40
  -2   2  -2   47.76    0.95
  -3  -2  -2   44.26    1.02
  -3  -2  -2   45.32    1.08
  -3   2  -2   44.63    0.75
  -3   2  -2   42.31    1.02
   3  -2   2   41.54    0.95
  -4   2  -2    0.43    0.31
  -4   2  -2    0.06    0.44
  -4  -2  -2    0.06    0.44
  -4  -2  -2   -0.04    0.42
   4  -2   2    0.13    0.45
  -5  -2  -2   28.60    1.06
  -5   2  -2   28.70    1.06
  -5  -2  -2   29.01    1.09
   5  -2   2   30.39    1.09
  -6   2  -2    6.16    0.73
  -6  -2  -2    5.96    0.70
   6  -2   2    6.12    0.74
   7  -2   2   -0.36    0.71
  -7   2  -2    0.10    0.59
  -7  -2  -2    0.06    0.60
   7   2   2    0.29    0.66
  -8   2  -2    3.19    0.80
  -8  -2  -2    2.61    0.78
   8   2   2    2.88    0.88
   8  -2   2    2.58    0.83
  10  -3  -2    1.65    0.79
 -10   3   2    1.27    0.80
 -10  -3   2    0.67    0.94
  10   3  -2    2.22    0.86
   9  -3  -2    0.34    0.72
   9   3  -2    0.16    0.71
  -9   3   2    0.83    0.75
  -9  -3   2    0.36    0.77
   8  -3  -2    6.64    0.77
  -8  -3   2    5.76    0.83
   8   3  -2    6.10    0.82
  -8   3   2    6.64    0.80
   7  -3  -2   33.50    1.20
   7   3  -2   37.52    1.36
  -7   3   2   36.54    1.26
   6  -3  -2   86.80    1.67
   6   3  -2   96.19    1.81
   6   3  -2   93.11    1.41
   5  -3  -2   32.64    0.99
   5   3  -2   33.42    1.02
   5   3  -2   32.30    0.84
   4  -3  -2   75.59    1.29
   4   3  -2   79.25    1.23
   4  -3  -2   80.24    0.66
   4  -3  -2   77.27    1.26
  -4  -3   2   80.24    0.79
   4   3  -2   76.15    1.19
   3  -3  -2    0.12    0.13
   3   3  -2    0.08    0.24
   3  -3  -2    0.10    0.27
  -3  -3   2    0.31    0.18
   3   3  -2    0.10    0.28
   3  -3  -2    0.02    0.29
   2   3  -2    4.55    0.30
   2   3  -2    5.00    0.36
   2  -3  -2    5.06    0.38
   2  -3  -2    5.31    0.26
   2  -3  -2    4.36    0.37
   1   3  -2  601.02    1.44
   1  -3  -2  605.31    2.53
   1  -3  -2  604.47    2.76
   1   3  -2  587.30    2.87
   1  -3  -2  593.29    2.69
   1   3  -2  601.74    2.79
   1  -3  -2  588.88    2.54
   0  -3  -2   27.79    0.64
   0   3  -2   28.16    0.63
   0   3  -2   29.19    0.68
   0  -3  -2   28.21    0.54
   0  -3  -2   28.23    0.64
   0  -3  -2   26.78    0.61
  -1  -3  -2   40.71    0.78
  -1   3  -2   41.44    0.74
   1  -3   2   35.54    0.54
  -1  -3  -2   41.39    0.86
  -1  -3  -2   41.77    0.54
  -1   3  -2   41.72    0.84
  -2  -3  -2   30.55    0.78
   2  -3   2   25.02    0.63
  -2   3  -2   30.44    0.68
  -2  -3  -2   31.59    0.85
  -2   3  -2   30.15    0.77
  -3  -3  -2   58.45    1.17
   3  -3   2   54.92    1.09
  -3   3  -2   62.55    0.97
  -3  -3  -2   60.87    1.26
  -3   3  -2   60.67    1.18
   4  -3   2  129.77    1.79
  -4  -3  -2  118.73    1.90
  -4   3  -2  124.73    1.41
  -4  -3  -2  113.81    1.80
  -4   3  -2  117.16    1.82
  -5   3  -2  106.94    1.90
  -5  -3  -2  103.58    1.88
   5  -3   2  110.54    1.89
  -5  -3  -2  109.55    1.98
  -6   3  -2    4.03    0.63
  -6  -3  -2    4.94    0.63
   6  -3   2    3.63    0.67
  -6  -3  -2    4.07    0.66
  -7   3  -2    0.29    0.56
  -7  -3  -2   -0.19    0.58
   7  -3   2   -0.48    0.61
   7   3   2    0.34    0.73
  -8   3  -2    9.59    0.99
  -8  -3  -2    8.55    0.97
   8   3   2   11.14    1.07
 -10   4   2    8.02    0.97
 -10  -4   2    8.57    1.19
  10   4  -2    7.99    1.05
  10  -4  -2    6.92    1.03
   9  -4  -2    4.57    0.81
   9   4  -2    6.00    0.91
  -9   4   2    3.94    0.84
  -9  -4   2    6.02    0.92
   8  -4  -2    1.99    0.60
  -8   4   2    2.35    0.72
  -8  -4   2    2.63    0.79
   8   4  -2    2.82    0.77
   7  -4  -2    0.75    0.56
  -7   4   2    0.80    0.57
   7   4  -2    0.79    0.66
   6   4  -2    4.87    0.66
   6  -4  -2    4.77    0.61
  -6   4   2    5.55    0.65
   6   4  -2    5.77    0.48
   5   4  -2   34.80    1.01
   5   4  -2   35.07    0.88
   5  -4  -2   34.76    1.04
  -4  -4   2   17.85    0.46
   4   4  -2   16.34    0.68
   4  -4  -2   15.95    0.70
   4  -4  -2   17.44    0.40
   4   4  -2   17.28    0.61
   3   4  -2   19.57    0.61
   3  -4  -2   19.62    0.67
   3   4  -2   18.00    0.61
   3  -4  -2   20.51    0.46
  -3  -4   2   19.93    0.51
   2   4  -2    3.45    0.35
   2   4  -2    2.18    0.27
   2  -4  -2    3.24    0.35
   2  -4  -2    3.23    0.26
  -2  -4   2    2.69    0.29
   1   4  -2   64.78    0.99
   1  -4  -2   61.95    0.98
   1  -4  -2   64.56    0.92
   1   4  -2   65.46    0.99
   1  -4  -2   65.21    0.80
   0  -4  -2    2.69    0.29
   0   4  -2    2.41    0.34
   0   4  -2    2.26    0.28
   0  -4  -2    2.79    0.33
   0  -4  -2    2.46    0.26
  -1  -4  -2  108.73    1.25
  -1   4  -2  111.86    1.30
  -1   4  -2  111.77    1.35
  -1  -4  -2  107.77    1.38
   1  -4   2  112.22    0.74
  -2  -4  -2   30.50    0.77
  -2  -4  -2   29.42    0.85
  -2   4  -2   30.03    0.80
   2  -4   2   31.83    0.60
  -2   4  -2   31.91    0.74
  -3   4  -2    8.88    0.54
  -3  -4  -2    8.65    0.56
  -3   4  -2    9.27    0.54
  -3  -4  -2    8.70    0.55
   3  -4   2    8.02    0.48
  -4   4  -2   20.42    0.86
  -4  -4  -2   19.05    0.83
   4  -4   2   20.64    0.77
  -4   4  -2   22.19    0.74
  -4  -4  -2   21.77    0.91
  -5  -4  -2    6.50    0.66
  -5   4  -2    6.52    0.67
   5  -4   2    7.78    0.70
  -5  -4  -2    6.49    0.66
   6  -4   2   -0.24    0.54
  -6   4  -2   -0.17    0.55
  -6  -4  -2    0.19    0.53
  -6  -4  -2    0.31    0.49
  -7   4  -2    9.55    0.90
  -7  -4  -2    9.04    0.87
  -8   4  -2    4.83    0.83
  -8  -4  -2    4.40    0.86
   8   4   2    3.79    1.02
  10   5  -2   -0.41    0.79
 -10   5   2    0.10    0.74
 -10  -5   2    0.61    0.92
  10  -5  -2    1.10    0.78
   9  -5  -2   19.71    1.18
  -9   5   2   18.76    1.19
  -9  -5   2   19.00    1.28
   9   5  -2   20.99    1.32
  -8  -5   2    9.54    0.99
   8   5  -2   11.63    1.01
  -8   5   2   11.84    0.90
   8  -5  -2   10.77    0.90
   7  -5  -2   88.79    1.90
  -7   5   2   86.68    1.88
   7   5  -2   92.90    1.93
   6   5  -2   66.56    1.51
  -6   5   2   64.45    1.41
   6   5  -2   65.66    1.24
   6  -5  -2   65.19    1.56
   5   5  -2    0.45    0.46
   5  -5  -2    0.14    0.45
   5   5  -2    0.45    0.30
  -4  -5   2    0.86    0.24
   4  -5  -2    0.85    0.22
   4   5  -2    0.94    0.30
   4  -5  -2    0.67    0.38
   3  -5  -2  121.70    1.61
   3   5  -2  127.11    1.53
  -3  -5   2  127.36    1.32
   3  -5  -2  125.88    1.21
   2  -5  -2    1.79    0.33
   2   5  -2    2.04    0.35
  -2  -5   2    1.90    0.32
   2  -5  -2    2.16    0.26
   1   5  -2  148.90    1.55
   1  -5  -2  156.24    1.62
   1  -5  -2  152.23    1.50
   1  -5  -2  150.55    1.17
   1   5  -2  153.69    1.54
   0   5  -2   29.01    0.69
   0  -5  -2   32.32    0.77
   0   5  -2   29.52    0.76
   0  -5  -2   31.12    0.62
   0  -5  -2   30.85    0.78
  -1  -5  -2   13.01    0.47
  -1  -5  -2   13.09    0.57
  -1   5  -2   13.62    0.52
  -1   5  -2   13.13    0.57
   1  -5   2   13.09    0.28
   2  -5   2    5.03    0.28
  -2  -5  -2    5.24    0.42
  -2   5  -2    5.07    0.48
  -2   5  -2    5.36    0.41
  -2  -5  -2    5.13    0.44
  -3   5  -2    0.39    0.32
   3  -5   2    0.57    0.28
  -3  -5  -2    0.86    0.38
  -3   5  -2    0.78    0.39
  -3  -5  -2    0.76    0.37
  -4  -5  -2   98.11    1.68
  -4   5  -2  103.06    1.49
   4  -5   2  106.39    1.49
  -4   5  -2  103.23    1.70
  -4  -5  -2  105.57    1.82
  -5  -5  -2   54.01    1.42
   5  -5   2   60.38    1.31
  -5   5  -2   56.47    1.44
  -5  -5  -2   57.48    1.49
  -6  -5  -2   15.78    0.94
  -6   5  -2   17.45    0.97
  -6  -5  -2   17.66    0.99
  -7   5  -2    8.91    0.90
  -7  -5  -2    7.31    0.82
  -8   5  -2    0.65    0.72
  -8  -5  -2    0.47    0.79
   8   5   2    0.69    0.87
   9   6  -2    6.42    1.01
  -9  -6   2    6.73    0.99
   9  -6  -2    5.74    0.94
   8  -6  -2    0.17    0.61
  -8   6   2    0.44    0.63
  -8  -6   2   -0.12    0.70
   8   6  -2    0.54    0.70
   7  -6  -2   28.37    1.22
   7   6  -2   29.23    1.23
  -7   6   2   31.19    1.15
   6   6  -2    4.49    0.67
  -6   6   2    3.43    0.62
   6  -6  -2    4.69    0.61
  -5   6   2    4.27    0.50
  -5  -6   2    5.29    0.39
   5   6  -2    5.09    0.46
   5  -6  -2    4.61    0.56
   4   6  -2   27.72    0.81
   4  -6  -2   27.55    0.65
   4  -6  -2   28.17    0.93
  -4  -6   2   28.33    0.72
   3  -6  -2  157.05    1.49
   3   6  -2  149.16    1.71
   3  -6  -2  152.96    1.87
  -3  -6   2  153.37    1.58
  -2  -6   2  197.19    1.86
   2  -6  -2  199.73    1.75
   2  -6  -2  189.73    1.97
   2   6  -2  195.30    1.89
   1  -6  -2    0.20    0.25
   1  -6  -2    0.09    0.15
   1  -6  -2    0.11    0.30
   1   6  -2    0.32    0.35
   0   6  -2  162.03    1.74
   0  -6  -2  164.99    1.80
   0  -6  -2  168.58    1.79
   0   6  -2  166.31    1.62
   0  -6  -2  165.17    1.34
  -1  -6  -2  226.30    1.75
   1  -6   2  228.05    1.18
  -1  -6  -2  219.69    2.17
  -1   6  -2  228.97    2.07
  -1   6  -2  224.45    1.94
  -2  -6  -2   16.09    0.59
   2  -6   2   17.67    0.47
  -2   6  -2   19.06    0.73
  -2  -6  -2   16.37    0.69
  -2   6  -2   16.08    0.61
  -3   6  -2    4.59    0.48
  -3  -6  -2    4.79    0.49
   3  -6   2    5.00    0.37
  -3  -6  -2    5.28    0.51
  -3   6  -2    5.53    0.55
  -4  -6  -2   13.32    0.75
   4  -6   2   13.69    0.63
  -4   6  -2   14.25    0.74
  -4   6  -2   14.98    0.75
  -4  -6  -2   15.17    0.81
  -5  -6  -2   72.50    1.62
  -5   6  -2   78.17    1.46
  -5  -6  -2   80.93    1.77
  -5   6  -2   74.77    1.63
  -6  -6  -2    0.40    0.55
  -6   6  -2    0.21    0.50
  -6  -6  -2    0.38    0.50
  -7  -6  -2   13.24    0.99
  -7   6  -2   15.08    0.98
  -8   6  -2    1.18    0.69
  -8  -6  -2    0.20    0.68
  -9  -7   2    7.53    1.03
   9   7  -2    7.66    1.05
   9  -7  -2    9.12    1.00
   8  -7  -2    5.02    0.76
   8   7  -2    5.42    0.80
  -8  -7   2    5.61    0.88
   7  -7  -2    8.00    0.79
   7   7  -2    7.60    0.86
  -6   7   2  132.31    1.95
   6   7  -2  133.38    2.16
   6  -7  -2  130.57    2.24
  -5   7   2   99.14    1.49
   5   7  -2  102.34    1.59
   5  -7  -2   97.69    1.80
  -5  -7   2  101.85    1.43
   4   7  -2    1.95    0.42
  -4  -7   2    2.19    0.36
   4  -7  -2    1.91    0.46
   4  -7  -2    2.84    0.33
   3   7  -2    4.54    0.44
   3  -7  -2    4.82    0.39
   3  -7  -2    4.14    0.49
  -3  -7   2    4.99    0.42
  -2  -7   2   17.74    0.68
   2  -7  -2   16.86    0.70
   2  -7  -2   18.06    0.62
   2   7  -2   18.25    0.68
   1  -7  -2    7.54    0.52
  -1  -7   2    8.16    0.54
   1   7  -2    8.16    0.53
   1  -7  -2    7.83    0.46
   1  -7  -2    8.11    0.27
   0  -7  -2   29.65    0.58
   0   7  -2   29.69    0.72
   0   7  -2   28.60    0.84
   0  -7  -2   28.96    0.83
   0  -7  -2   29.38    0.85
  -1  -7  -2    0.52    0.33
  -1   7  -2    0.74    0.29
  -1  -7  -2    0.64    0.24
  -1   7  -2    0.68    0.43
   1  -7   2    0.53    0.17
  -2  -7  -2    5.29    0.40
  -2   7  -2    4.90    0.43
  -2  -7  -2    4.64    0.49
  -2   7  -2    5.30    0.58
  -3   7  -2   63.56    1.26
  -3  -7  -2   62.11    1.22
  -3   7  -2   65.18    1.32
  -3  -7  -2   65.28    1.42
  -4   7  -2   68.48    1.44
  -4  -7  -2   67.99    1.41
  -4   7  -2   70.56    1.42
  -4  -7  -2   72.19    1.61
  -5   7  -2    0.07    0.41
  -5  -7  -2    0.04    0.49
  -5  -7  -2   -0.11    0.46
  -5   7  -2    0.02    0.53
  -6  -7  -2    7.64    0.78
  -6  -7  -2    8.00    0.77
  -6   7  -2    8.38    0.77
  -7  -7  -2    9.07    0.89
  -7   7  -2   11.11    0.93
  -8   7  -2   10.58    0.99
  -8  -7  -2    9.47    1.01
   9   8  -2    0.04    0.82
   9  -8  -2    0.36    0.75
  -9  -8   2   -0.03    0.89
   8  -8  -2    2.99    0.75
  -8  -8   2    3.13    0.81
   8   8  -2    3.04    0.82
   7  -8  -2    7.70    0.79
  -7  -8   2    6.20    0.81
   7   8  -2    6.62    0.82
   6  -8  -2   22.67    1.06
   5   8  -2   12.08    0.66
  -5  -8   2   12.46    0.63
   5  -8  -2   12.88    0.79
   4  -8  -2    5.21    0.44
   4   8  -2    3.69    0.48
  -4  -8   2    4.67    0.46
   4  -8  -2    4.76    0.56
   3   8  -2   47.22    1.09
  -3  -8   2   45.22    1.03
   3  -8  -2   47.97    1.01
   3  -8  -2   45.58    1.16
   2   8  -2  160.51    1.91
   2  -8  -2  152.23    1.94
   2  -8  -2  161.78    1.82
  -2  -8   2  158.86    1.90
   1  -8  -2    0.49    0.33
  -1  -8   2    0.18    0.38
   1   8  -2    0.00    0.42
   1  -8  -2    0.51    0.36
   0  -8  -2  224.14    1.49
   0  -8  -2  224.90    2.32
   0  -8  -2  227.39    2.32
   0   8  -2  224.06    2.28
   0   8  -2  228.05    1.92
  -1   8  -2   90.13    1.54
  -1  -8  -2   86.35    1.08
  -1   8  -2   86.25    1.25
  -1  -8  -2   85.49    1.51
  -2  -8  -2    4.23    0.40
  -2  -8  -2    4.84    0.50
  -2   8  -2    4.57    0.61
  -2   8  -2    3.90    0.38
  -3  -8  -2   55.23    1.17
  -3  -8  -2   58.48    1.40
  -3   8  -2   57.51    1.34
  -3   8  -2   58.74    1.25
  -4  -8  -2  103.03    1.73
  -4  -8  -2  107.45    1.98
  -4   8  -2  107.85    1.79
  -4   8  -2  112.15    1.85
  -5   8  -2    8.71    0.70
  -5  -8  -2    7.40    0.66
  -5  -8  -2    7.60    0.78
  -5   8  -2    9.22    0.75
  -6  -8  -2    0.01    0.53
  -6  -8  -2    0.87    0.54
  -6   8  -2    0.12    0.53
  -7  -8  -2    5.90    0.82
  -8  -8  -2    2.79    0.79
  -9  -9   2   30.36    1.60
   9   9  -2   32.29    1.57
   9  -9  -2   31.12    1.53
  -8  -9   2   13.35    1.11
   8   9  -2   14.09    1.13
   8  -9  -2   12.58    1.00
  -7  -9   2   21.78    1.12
   7   9  -2   25.43    1.25
   7  -9  -2   23.70    1.18
   6  -9  -2   50.33    1.51
  -5  -9   2   44.58    1.11
   5   9  -2   44.51    1.14
   5  -9  -2   43.19    1.30
   4  -9  -2    0.94    0.46
  -4  -9   2    1.72    0.44
   4  -9  -2    1.53    0.39
   4   9  -2    1.54    0.45
   3  -9  -2   24.00    0.91
   3   9  -2   24.86    0.90
   3  -9  -2   24.19    0.80
  -3  -9   2   25.25    0.86
  -2  -9   2    2.96    0.51
   2  -9  -2    2.48    0.47
   2  -9  -2    3.16    0.43
   2   9  -2    3.09    0.52
   1  -9  -2    0.48    0.34
  -1  -9   2    0.38    0.43
   1  -9  -2    0.61    0.43
   1   9  -2    0.80    0.50
   0  -9  -2   13.36    0.72
   0   9  -2   14.01    0.76
   0  -9  -2   13.84    0.68
   0   9  -2   14.15    0.54
   0  -9   2   14.24    0.77
  -1   9  -2    8.87    0.72
  -1  -9  -2    8.66    0.63
  -1   9  -2    9.24    0.48
  -1  -9  -2    9.26    0.41
  -2  -9  -2    0.48    0.43
  -2   9  -2    0.35    0.29
  -2  -9  -2    0.37    0.31
  -2   9  -2    0.86    0.58
  -3  -9  -2   46.34    1.08
  -3  -9  -2   46.45    1.31
  -3   9  -2   48.19    1.31
  -3   9  -2   47.35    1.14
  -4  -9  -2   67.77    1.63
  -4   9  -2   72.95    1.62
  -4  -9  -2   67.06    1.43
  -5  -9  -2   10.74    0.76
  -5   9  -2   11.01    0.86
  -5  -9  -2   11.60    0.85
  -6  -9  -2    8.52    0.77
  -6  -9  -2    9.94    0.90
  -7  -9  -2   24.03    1.24
  -8  -9  -2    1.66    0.72
  -9 -10   2    2.88    0.98
   9 -10  -2    3.04    0.90
   9  10  -2    2.97    0.92
  -8 -10   2    1.59    0.82
   8  10  -2    1.97    0.82
   8 -10  -2    1.78    0.68
   7 -10  -2    1.00    0.60
  -7 -10   2    1.13    0.66
   6 -10  -2   27.62    1.22
   5  10  -2   21.75    0.88
   5 -10  -2   22.33    1.02
  -5 -10   2   23.66    0.90
   4 -10  -2    0.72    0.50
  -4 -10   2    0.65    0.42
   4 -10  -2    0.62    0.38
   4  10  -2    0.58    0.41
   3 -10  -2    0.85    0.45
   3 -10  -2    0.95    0.40
  -3 -10   2    1.31    0.45
   3  10  -2    0.91    0.45
   2  10  -2  148.36    2.05
  -2 -10   2  153.44    2.11
   2 -10  -2  150.17    2.11
   2 -10  -2  147.96    1.99
   1 -10  -2    1.15    0.40
  -1 -10   2    0.87    0.50
   1  10  -2    0.88    0.55
   1 -10  -2    0.35    0.44
   0 -10  -2  135.71    1.99
   0 -10  -2  136.22    2.01
   0  10  -2  134.68    1.99
   0 -10   2  132.10    2.06
  -1 -10  -2    0.58    0.41
   1 -10   2    0.38    0.56
  -1  10  -2    0.82    0.58
  -2 -10  -2    0.33    0.40
  -2  10  -2    1.31    0.62
  -3 -10  -2   14.64    0.68
  -3  10  -2   16.36    0.93
  -3 -10  -2   14.30    0.83
  -4 -10  -2   34.07    1.05
  -4  10  -2   36.06    1.26
  -4 -10  -2   35.04    1.27
  -5 -10  -2   12.77    0.91
  -5  10  -2   14.30    0.99
  -5 -10  -2   12.19    0.81
  -6 -10  -2    2.71    0.64
  -6 -10  -2    2.92    0.65
  -7 -10  -2    9.47    0.91
  -9 -11   2    0.62    0.88
   8  11  -2    0.09    0.84
   8 -11  -2   -0.56    0.68
  -8 -11   2    0.07    0.74
  -7 -11   2   11.79    0.98
   7 -11  -2   11.40    0.96
   6 -11  -2   17.49    1.04
   5  11  -2   15.79    0.83
  -5 -11   2   16.41    0.82
   5 -11  -2   16.48    0.96
   4 -11  -2    3.34    0.55
  -4 -11   2    3.79    0.53
   4 -11  -2    4.13    0.48
   4  11  -2    3.75    0.53
   3 -11  -2    9.97    0.72
   3 -11  -2    9.78    0.65
  -3 -11   2   11.06    0.72
   3  11  -2   10.78    0.74
   2 -11  -2   19.16    0.83
   2 -11  -2   17.91    0.85
  -2 -11   2   18.89    0.91
   2  11  -2   17.31    0.90
   1  11  -2   73.71    1.58
   1 -11  -2   70.41    1.53
  -1 -11   2   70.42    1.58
   1 -11  -2   75.16    1.56
   0 -11  -2  135.26    2.11
   0 -11  -2  132.05    2.06
   0  11  -2  136.66    2.12
   0 -11   2  136.78    2.19
  -1  11  -2   10.31    0.84
  -1 -11  -2    9.44    0.72
   1 -11   2    9.95    0.82
  -2 -11  -2    1.64    0.52
   2 -11   2    2.27    0.63
  -2  11  -2    3.26    0.68
  -3 -11  -2    2.86    0.57
  -3  11  -2    2.24    0.67
  -4 -11  -2    0.30    0.52
  -4  11  -2    0.48    0.65
  -5 -11  -2    4.21    0.69
  -5  11  -2    5.20    0.82
  -6 -11  -2    0.58    0.61
   8 -12  -2   -0.28    0.73
  -8 -12   2   -0.17    0.83
   8  12  -2    0.21    0.82
   7 -12  -2    2.02    0.71
  -7 -12   2    1.10    0.67
  -6 -12   2   17.77    1.07
   6 -12  -2   19.42    1.07
   5 -12  -2   16.36    0.96
  -5 -12   2   16.05    0.87
   4  12  -2   26.13    1.02
   4 -12  -2   26.76    1.12
  -4 -12   2   24.28    1.01
   4 -12  -2   24.59    0.96
   3 -12  -2   -0.12    0.44
  -3 -12   2    0.13    0.44
   3  12  -2    0.43    0.47
   3 -12  -2    0.19    0.46
   2 -12  -2   72.31    1.58
   2  12  -2   71.07    1.59
  -2 -12   2   74.70    1.66
   2 -12  -2   74.42    1.63
   1 -12  -2    3.64    0.57
  -1 -12   2    3.50    0.64
   1  12  -2    3.30    0.68
   1 -12  -2    2.93    0.57
   0  12  -2   18.54    0.98
   0 -12  -2   17.42    0.89
   0 -12   2   18.20    0.98
  -1  12  -2    0.50    0.61
  -1 -12  -2    0.27    0.44
   1 -12   2   -0.14    0.55
  -2 -12  -2    1.99    0.53
   2 -12   2    1.56    0.62
  -2  12  -2    2.78    0.73
  -3 -12  -2   28.67    1.19
  -3  12  -2   31.48    1.28
   3 -12   2   26.19    1.23
  -4 -12  -2   28.21    1.24
  -4  12  -2   29.18    1.33
   4 -12   2   26.78    1.27
  -5 -12  -2   -0.41    0.57
   5 -12   2    0.06    0.65
  -5  12  -2   -0.07    0.75
  -6 -12  -2    0.93    0.70
   6 -12   2    0.75    0.73
  -6  12  -2    0.92    0.85
   8  13  -2    0.36    0.86
   8 -13  -2    0.46    0.77
   7 -13  -2    2.08    0.77
   6 -13  -2   -1.00    0.60
   5 -13  -2    3.27    0.67
  -5 -13   2    3.80    0.63
   4 -13  -2   61.94    1.52
   4  13  -2   65.32    1.60
   4 -13  -2   63.18    1.65
  -4 -13   2   65.53    1.65
   3 -13  -2    3.46    0.55
  -3 -13   2    3.71    0.60
   3 -13  -2    3.47    0.62
   3  13  -2    3.60    0.61
   2 -13  -2  152.97    2.36
   2  13  -2  157.39    2.41
   2 -13  -2  156.65    2.42
  -2 -13   2  156.85    2.44
   1 -13  -2  198.77    2.73
   1  13  -2  206.72    2.78
   1 -13  -2  196.83    2.68
  -1 -13   2  196.37    2.81
   0 -13  -2  134.31    2.32
   0  13  -2  134.62    2.30
   0 -13   2  134.71    2.36
  -1 -13  -2    4.84    0.66
  -1  13  -2    5.66    0.83
   1 -13   2    4.36    0.72
  -2  13  -2  106.55    2.22
  -2 -13  -2  107.94    2.20
   2 -13   2  102.94    2.19
  -3 -13  -2    2.10    0.59
   3 -13   2    2.36    0.66
  -3  13  -2    1.99    0.79
  -4 -13  -2   -1.25    0.57
   4 -13   2   -0.07    0.67
  -4  13  -2    0.16    0.81
  -5 -13  -2    0.09    0.59
   5 -13   2   -0.17    0.68
  -5  13  -2    0.27    0.86
  -6 -13  -2    0.83    0.69
   6 -13   2    1.20    0.70
  -6  13  -2    1.11    0.82
   7 -14  -2    6.41    0.85
   6 -14  -2   -0.23    0.63
   5 -14  -2    2.02    0.67
  -5 -14   2    1.79    0.59
   4 -14  -2   11.50    0.87
   4  14  -2   13.02    0.84
  -4 -14   2   12.59    0.91
   4 -14  -2   12.43    0.84
   3 -14  -2    5.25    0.66
  -3 -14   2    4.62    0.69
   3  14  -2    5.45    0.72
   3 -14  -2    4.60    0.66
   2 -14  -2    4.17    0.64
   2 -14  -2    4.68    0.63
   2  14  -2    3.77    0.74
  -2 -14   2    5.80    0.70
   1 -14  -2    0.82    0.56
   1 -14  -2    0.95    0.55
  -1 -14   2    0.73    0.63
   1  14  -2    0.66    0.64
   0  14  -2   24.12    1.19
   0 -14  -2   23.41    1.10
   0 -14   2   22.91    1.16
  -1 -14  -2    2.61    0.61
   1 -14   2    2.57    0.67
  -1  14  -2    2.93    0.74
  -2 -14  -2    3.08    0.65
   2 -14   2    3.28    0.72
  -2  14  -2    3.24    0.85
  -3 -14  -2    1.31    0.58
   3 -14   2    1.38    0.68
  -3  14  -2    2.12    0.85
  -4 -14  -2    2.30    0.64
   4 -14   2    2.69    0.75
  -4  14  -2    2.79    0.89
  -5 -14  -2    8.46    0.89
  -5  14  -2    8.17    1.11
   5 -14   2    8.44    1.01
   6 -14   2    2.67    0.91
  -6  14  -2    3.93    0.99
   7 -15  -2    2.48    0.85
   6 -15  -2    0.17    0.67
  -5 -15   2    1.11    0.54
   5 -15  -2   -0.17    0.60
  -4 -15   2    0.99    0.58
   4 -15  -2    0.83    0.51
   4 -15  -2    1.09    0.60
   4  15  -2    0.82    0.60
   3 -15  -2    4.17    0.64
   3  15  -2    5.20    0.71
  -3 -15   2    3.65    0.70
   3 -15  -2    3.67    0.69
   2 -15  -2    0.91    0.57
  -2 -15   2    2.03    0.61
   2 -15  -2    1.51    0.64
   2  15  -2    0.89    0.64
   1  15  -2    0.52    0.70
   1 -15  -2   -0.18    0.54
  -1 -15   2    0.38    0.58
   1 -15  -2   -0.18    0.58
   0 -15   2    8.85    0.92
   0  15  -2    8.60    0.95
   0 -15  -2    9.18    0.85
  -1  15  -2    5.51    0.86
   1 -15   2    4.98    0.82
  -1 -15  -2    6.31    0.76
  -2 -15  -2    1.14    0.59
   2 -15   2    0.87    0.64
  -2  15  -2    1.62    0.82
  -3 -15  -2    2.23    0.69
   3 -15   2    1.97    0.76
  -3  15  -2    2.49    0.94
  -4 -15  -2    0.37    0.62
   4 -15   2    0.29    0.76
  -4  15  -2    0.47    0.93
  -5 -15  -2   10.61    1.04
  -5  15  -2   10.37    1.19
   5 -15   2    8.10    1.03
   6 -16  -2   -0.48    0.74
  -5 -16   2    1.65    0.63
   5 -16  -2    1.78    0.69
   4 -16  -2    1.53    0.62
  -4 -16   2    2.43    0.67
   4 -16  -2    1.65    0.61
   3 -16  -2    1.52    0.60
  -3 -16   2    1.41    0.64
   3  16  -2    1.71    0.60
   3 -16  -2    1.14    0.69
   2 -16  -2   -0.09    0.59
  -2 -16   2    0.86    0.57
   2 -16  -2   -0.03    0.61
   2  16  -2    0.17    0.70
  -1 -16   2    0.52    0.60
   1 -16  -2   -0.07    0.52
   1  16  -2   -0.02    0.69
   0 -16  -2    4.10    0.72
   0 -16   2    3.41    0.75
   0  16  -2    3.43    0.82
  -1 -16  -2    0.66    0.61
   1 -16   2    0.69    0.65
  -1  16  -2    0.67    0.82
  -2 -16  -2    2.84    0.74
   2 -16   2    2.43    0.77
  -2  16  -2    2.25    0.93
  -3 -16  -2    0.98    0.67
   3 -16   2    2.09    0.74
  -3  16  -2    1.12    0.97
  -4 -16  -2    0.45    0.62
   4 -16   2    0.45    0.72
  -4  16  -2    0.87    1.02
  -5 -17   2   18.32    1.19
   5 -17  -2   19.10    1.17
   4 -17  -2   39.56    1.52
   4 -17  -2   43.14    1.60
  -4 -17   2   42.82    1.67
   3 -17  -2    0.36    0.66
  -3 -17   2    0.08    0.64
   3 -17  -2    0.97    0.61
   3  17  -2    0.90    0.66
   2 -17  -2   17.36    1.09
   2 -17  -2   15.96    1.07
   2  17  -2   15.19    1.14
  -2 -17   2   17.63    1.15
   1 -17  -2    1.11    0.63
  -1 -17   2    1.25    0.67
   1  17  -2    0.78    0.74
   0  17  -2   10.26    1.06
   0 -17   2   10.73    1.03
   0 -17  -2   12.43    1.04
  -1 -17  -2    0.58    0.71
   1 -17   2   -0.13    0.67
  -1  17  -2    0.24    0.84
  -2  17  -2   34.68    1.65
  -2 -17  -2   34.74    1.54
   2 -17   2   32.99    1.57
  -3 -17  -2    5.29    0.81
   3 -17   2    4.64    0.96
  -3  17  -2    5.49    1.11
   4 -18  -2   20.39    1.23
  -4 -18   2   20.09    1.23
   4 -18  -2   19.20    1.25
   3 -18  -2    0.74    0.65
  -3 -18   2    0.81    0.64
   3 -18  -2    1.26    0.70
   3  18  -2    1.63    0.71
   2 -18  -2    0.49    0.66
  -2 -18   2    1.28    0.66
   2 -18  -2    1.16    0.71
   2  18  -2    0.31    0.79
   1 -18  -2    0.11    0.66
  -1 -18   2    0.91    0.74
   1  18  -2    0.12    0.81
   0 -18  -2    1.54    0.68
   0 -18   2    2.56    0.80
   0  18  -2    0.77    0.81
  -1 -18  -2    0.86    0.74
   1 -18   2    1.42    0.77
  -1  18  -2    0.95    0.89
   2  19  -2    3.29    0.79
  10   0  -3    0.15    0.73
 -10   0   3   -0.42    0.84
   9   0  -3   -0.26    0.68
  -9   0   3    0.06    0.70
   8   0  -3    0.64    0.61
   8   0  -3    0.10    0.44
   7   0  -3    0.13    0.52
   7   0  -3   -0.07    0.42
   6   0  -3    0.13    0.48
   6   0  -3    0.07    0.38
   5   0  -3    0.19    0.41
   5   0  -3    0.18    0.38
   4   0  -3   -0.11    0.32
   4   0  -3    0.15    0.31
   3   0  -3    0.14    0.29
   3   0  -3   -0.06    0.30
   2   0  -3   -0.10    0.28
   2   0  -3    0.04    0.23
   2   0  -3   -0.02    0.30
   1   0  -3    0.02    0.26
   1   0  -3    0.20    0.20
   1   0  -3    0.30    0.26
   0   0  -3    0.05    0.27
   0   0  -3    0.18    0.23
  -1   0  -3   -0.01    0.21
  -1   0  -3    0.09    0.30
  -2   0  -3    0.04    0.33
  -2   0  -3    0.13    0.19
  -3   0  -3    0.08    0.38
  -4   0  -3    0.34    0.41
  -5   0  -3   -0.84    0.53
   6   0   3   -0.17    0.61
  -6   0  -3   -0.09    0.60
   7   0   3    0.27    0.67
  -7   0  -3    0.13    0.69
  10  -1  -3   -0.10    0.74
  10   1  -3    0.09    0.73
 -10   1   3    0.59    0.84
 -10  -1   3    0.82    0.84
   9  -1  -3   -0.18    0.66
   9   1  -3   -0.36    0.67
  -9   1   3    0.07    0.70
  -9  -1   3   -0.07    0.77
   8  -1  -3    0.31    0.60
   8   1  -3    0.34    0.63
   7  -1  -3   18.02    0.94
   7   1  -3   17.12    0.80
   7   1  -3   16.55    0.92
   7  -1  -3   17.90    0.84
   6  -1  -3   17.61    0.84
   6  -1  -3   17.67    0.80
   6   1  -3   17.97    0.87
   6   1  -3   17.90    0.79
   5  -1  -3   34.01    0.99
   5   1  -3   31.53    0.93
   5   1  -3   33.77    0.95
   5  -1  -3   32.96    0.95
   4   1  -3    4.73    0.44
  -4  -1   3    3.74    0.16
   4   1  -3    4.29    0.45
   4  -1  -3    4.69    0.45
   4  -1  -3    4.84    0.44
   3   1  -3   18.73    0.58
   3   1  -3   19.19    0.68
   3  -1  -3   17.62    0.64
   3  -1  -3   18.44    0.64
   2   1  -3   29.45    0.77
   2  -1  -3   29.87    0.77
   2  -1  -3   29.39    0.76
   2   1  -3   29.49    0.59
   2  -1  -3   27.48    0.64
   2   1  -3   29.59    0.81
   2  -1  -3   30.48    0.69
   1   1  -3    0.48    0.29
   1  -1  -3    0.50    0.28
   1  -1  -3    0.53    0.23
   1  -1  -3    0.14    0.27
   1   1  -3    0.25    0.27
   1   1  -3    0.22    0.17
   1  -1  -3    0.03    0.25
   0  -1  -3  148.24    1.42
   0  -1  -3  140.40    1.67
   0   1  -3  140.23    1.70
   0   1  -3  143.52    1.46
   0  -1  -3  143.11    1.67
  -1  -1  -3   38.56    0.94
  -1  -1  -3   40.34    0.72
  -1   1  -3   39.26    0.97
  -1   1  -3   39.54    0.77
  -1  -1  -3   38.49    0.99
  -2   1  -3   10.19    0.59
  -2  -1  -3   10.48    0.59
  -2   1  -3   10.39    0.45
  -2  -1  -3   10.50    0.37
  -2  -1  -3    9.71    0.64
  -3   1  -3    0.16    0.39
  -3  -1  -3    0.33    0.41
  -4   1  -3   54.42    1.41
  -4  -1  -3   56.15    1.42
  -5   1  -3    0.77    0.48
  -5  -1  -3    0.40    0.53
   5  -1   3    0.75    0.53
   6  -1   3    2.81    0.68
  -6   1  -3    3.16    0.69
  -6  -1  -3    3.04    0.69
   6   1   3    2.53    0.78
  -7   1  -3   -0.04    0.66
  -7  -1  -3    1.02    0.65
   7   1   3    0.16    0.72
   8   1   3    2.54    0.90
  10  -2  -3    0.29    0.71
  10   2  -3    0.34    0.74
 -10   2   3    0.33    0.84
 -10  -2   3    0.77    0.86
   9  -2  -3   10.14    0.97
  -9   2   3   11.17    1.04
  -9  -2   3   11.64    1.05
   9   2  -3   11.40    1.02
   8  -2  -3   20.94    1.11
   8   2  -3   20.76    1.06
   7  -2  -3   67.47    1.62
   7   2  -3   68.83    1.60
   7  -2  -3   68.93    1.51
   7   2  -3   71.63    1.47
   6  -2  -3    0.91    0.47
   6   2  -3    0.81    0.49
   6   2  -3    1.12    0.42
   6  -2  -3    0.58    0.50
   5   2  -3   63.23    1.29
   5  -2  -3   66.75    1.37
   5   2  -3   65.80    1.28
   5  -2  -3   65.26    1.33
   4  -2  -3    7.85    0.54
   4  -2  -3    7.97    0.52
   4   2  -3    7.75    0.50
   4   2  -3    7.64    0.52
   4  -2  -3    7.18    0.21
  -4  -2   3    8.10    0.26
   3   2  -3  316.23    2.08
   3  -2  -3  335.62    2.58
   3   2  -3  314.75    2.53
   3  -2  -3  329.83    2.47
   3  -2  -3  330.24    1.73
   2   2  -3   80.98    1.26
   2  -2  -3   74.99    1.18
   2  -2  -3   76.09    1.11
   2  -2  -3   75.57    1.18
   2  -2  -3   74.92    1.00
   2   2  -3   78.44    0.88
   1  -2  -3  373.17    2.35
   1  -2  -3  360.90    2.27
   1   2  -3  371.95    1.46
   1  -2  -3  352.58    2.42
   1   2  -3  371.58    2.49
   1   2  -3  358.81    2.70
   1  -2  -3  370.68    2.56
   0  -2  -3  120.77    1.33
   0  -2  -3  122.89    1.26
   0   2  -3  122.85    1.41
   0  -2  -3  117.44    1.54
   0   2  -3  122.69    1.61
   0  -2  -3  119.18    1.52
  -1  -2  -3   22.37    0.74
  -1  -2  -3   21.61    0.52
  -1   2  -3   22.39    0.64
  -1  -2  -3   22.08    0.78
  -1   2  -3   22.08    0.76
  -2   2  -3  158.89    2.01
  -2  -2  -3  167.45    2.14
  -2  -2  -3  163.26    1.15
  -2  -2  -3  160.37    1.96
  -2   2  -3  161.63    1.55
  -3   2  -3   66.80    1.42
  -3  -2  -3   66.21    1.42
  -3   2  -3   66.59    1.02
  -3  -2  -3   71.97    1.56
  -4   2  -3   43.67    1.28
  -4  -2  -3   41.83    1.25
   4  -2   3   39.88    1.15
  -4  -2  -3   44.01    1.39
  -5   2  -3    5.92    0.69
  -5  -2  -3    6.30    0.72
   5  -2   3    4.52    0.64
  -6   2  -3   10.25    0.88
  -6  -2  -3   11.18    0.91
  -7   2  -3    0.98    0.66
  -7  -2  -3    2.39    0.74
   7   2   3    1.21    0.76
   8   2   3   -0.42    0.89
  10  -3  -3   14.36    1.16
 -10   3   3   10.72    1.10
 -10  -3   3   11.79    1.22
  10   3  -3   12.58    1.16
   9  -3  -3   10.75    0.99
  -9   3   3    8.95    0.96
  -9  -3   3    9.81    1.04
   9   3  -3   11.58    1.02
   8  -3  -3   24.88    1.20
   8   3  -3   24.59    1.21
   7  -3  -3   17.00    0.96
   7   3  -3   17.60    0.96
   7   3  -3   17.63    0.82
   6  -3  -3    0.72    0.46
   6   3  -3    0.63    0.42
   6  -3  -3    0.84    0.52
   6   3  -3    0.43    0.51
   5  -3  -3    0.01    0.40
   5   3  -3   -0.30    0.37
   5  -3  -3    0.07    0.45
   5   3  -3   -0.19    0.46
   4  -3  -3   58.26    1.20
   4   3  -3   58.47    1.09
   4  -3  -3   58.63    0.65
   4   3  -3   57.91    1.17
  -4  -3   3   59.90    0.75
   4  -3  -3   61.60    1.25
   3  -3  -3   43.73    0.69
   3   3  -3   40.15    0.76
   3   3  -3   43.62    1.00
   3  -3  -3   41.52    0.97
   3  -3  -3   42.91    0.99
   2   3  -3   26.52    0.50
   2   3  -3   25.29    0.74
   2  -3  -3   25.10    0.62
   2  -3  -3   25.61    0.74
   2  -3  -3   29.88    0.77
   2  -3  -3   25.94    0.71
   1  -3  -3   79.78    1.16
   1  -3  -3   82.74    1.16
   1   3  -3   79.33    1.23
   1   3  -3   77.87    0.55
   1  -3  -3   79.87    1.17
   1   3  -3   76.94    1.27
   1  -3  -3   78.09    1.19
   0  -3  -3    0.18    0.28
   0   3  -3    0.06    0.28
   0  -3  -3    0.57    0.28
   0  -3  -3    0.07    0.23
   0  -3  -3    0.25    0.28
   0   3  -3    0.28    0.30
  -1  -3  -3  138.81    1.70
  -1  -3  -3  137.75    1.82
  -1  -3  -3  137.14    1.21
  -1   3  -3  140.00    1.52
  -1   3  -3  134.21    1.78
   2  -3   3    0.13    0.29
  -2   3  -3    0.34    0.33
  -2   3  -3    0.51    0.31
  -2  -3  -3    0.33    0.34
  -2  -3  -3    0.28    0.15
  -2  -3  -3    0.16    0.37
  -3   3  -3    0.72    0.40
  -3  -3  -3    1.99    0.45
   3  -3   3    0.54    0.37
  -3   3  -3    0.73    0.34
  -3  -3  -3    0.52    0.44
  -4   3  -3    5.57    0.60
  -4  -3  -3    5.79    0.65
  -4  -3  -3    5.51    0.71
  -5   3  -3   89.66    1.96
  -5  -3  -3   89.06    1.93
  -5  -3  -3   94.87    2.08
  -6   3  -3    6.61    0.81
  -6  -3  -3    6.43    0.80
  -7   3  -3    5.42    0.83
  -7  -3  -3    3.57    0.79
   8   3   3    2.20    0.93
 -10   4   3    1.32    0.81
 -10  -4   3    1.38    0.90
  10   4  -3    2.68    0.88
  10  -4  -3    1.76    0.82
   9  -4  -3   20.64    1.20
  -9   4   3   20.00    1.16
  -9  -4   3   18.54    1.27
   9   4  -3   22.28    1.25
  -8   4   3   38.48    1.38
   8   4  -3   41.03    1.44
   8  -4  -3   40.02    1.43
   7  -4  -3   36.99    1.32
   7   4  -3   38.42    1.29
   7   4  -3   37.17    1.09
   6  -4  -3   18.41    0.92
   6   4  -3   19.23    0.92
   6   4  -3   19.39    0.83
   5   4  -3   61.94    1.30
   5   4  -3   63.69    1.29
   5  -4  -3   59.72    1.33
   5  -4  -3   62.84    1.40
   4  -4  -3  222.22    2.34
   4   4  -3  222.08    2.29
   4   4  -3  225.87    2.06
   4  -4  -3  235.80    1.46
  -4  -4   3  230.62    1.65
   4  -4  -3  229.40    2.40
   3   4  -3   42.55    0.81
   3  -4  -3   45.89    0.74
   3   4  -3   44.51    1.02
   3  -4  -3   44.76    1.03
   3  -4  -3   46.37    1.05
   2   4  -3   19.61    0.42
   2  -4  -3   19.09    0.67
   2  -4  -3   18.77    0.56
   2   4  -3   18.06    0.68
   2  -4  -3   17.94    0.66
   2  -4  -3   18.53    0.59
   1  -4  -3    6.75    0.42
   1   4  -3    7.26    0.48
   1  -4  -3    7.24    0.42
   1  -4  -3    7.08    0.47
   1   4  -3    6.62    0.45
   1  -4  -3    8.00    0.43
   0  -4  -3    5.27    0.35
   0   4  -3    4.87    0.43
   0  -4  -3    4.89    0.42
   0  -4  -3    4.93    0.41
   0   4  -3    5.00    0.43
   0  -4  -3    4.94    0.38
  -1  -4  -3    6.45    0.51
  -1  -4  -3    7.40    0.47
  -1   4  -3    7.57    0.48
  -1  -4  -3    6.64    0.33
  -1   4  -3    7.21    0.50
  -2  -4  -3   51.20    1.24
  -2  -4  -3   48.57    1.11
  -2   4  -3   50.75    1.02
  -2   4  -3   48.45    1.18
  -3   4  -3    0.49    0.42
  -3  -4  -3    0.51    0.41
  -3   4  -3    0.25    0.42
  -3  -4  -3    0.27    0.41
  -4   4  -3   31.59    1.12
  -4  -4  -3   30.80    1.11
  -4  -4  -3   30.99    1.18
  -5   4  -3   13.78    0.91
  -5  -4  -3   12.93    0.88
  -5  -4  -3   14.34    0.99
  -6   4  -3   30.45    1.29
  -6  -4  -3   29.47    1.28
  -6  -4  -3   32.06    1.36
  -7   4  -3    6.51    0.86
  -7  -4  -3    5.07    0.85
   8   4   3    1.46    0.94
 -10   5   3    2.93    0.92
 -10  -5   3    5.11    1.04
  10   5  -3    3.35    0.88
  10  -5  -3    4.19    0.89
  -9   5   3    2.75    0.79
  -9  -5   3    2.64    0.86
   9  -5  -3    2.70    0.77
   9   5  -3    1.69    0.76
   8  -5  -3   50.76    1.68
  -8   5   3   57.03    1.61
   8   5  -3   54.85    1.68
   7  -5  -3  115.50    2.19
   7   5  -3  113.61    2.16
   7   5  -3  115.03    1.88
   6   5  -3    2.59    0.64
   6  -5  -3    1.92    0.56
   6   5  -3    2.67    0.49
   5   5  -3   19.38    0.85
   5   5  -3   17.24    0.78
   5  -5  -3   18.56    0.87
  -4  -5   3    3.95    0.36
   4   5  -3    3.07    0.46
   4   5  -3    3.34    0.47
   4  -5  -3    3.55    0.28
   4  -5  -3    3.76    0.52
   3  -5  -3    1.27    0.26
   3  -5  -3    1.17    0.40
   3   5  -3    1.06    0.32
  -3  -5   3    1.24    0.34
   3   5  -3    1.34    0.36
   2   5  -3   44.47    0.60
   2  -5  -3   43.50    0.97
   2  -5  -3   43.34    0.87
   2  -5  -3   43.22    1.01
   2   5  -3   44.64    1.02
   1  -5  -3   22.71    0.75
   1  -5  -3   23.47    0.71
   1   5  -3   23.44    0.75
   1   5  -3   21.02    0.72
   1  -5  -3   23.47    0.65
   0  -5  -3  146.86    1.80
   0  -5  -3  144.39    1.76
   0   5  -3  145.09    1.80
   0   5  -3  145.99    1.73
   0  -5  -3  152.19    1.65
  -1  -5  -3  322.91    2.55
  -1  -5  -3  315.45    2.84
  -1   5  -3  311.14    2.48
  -1   5  -3  313.88    2.69
  -2   5  -3    1.69    0.42
  -2  -5  -3    1.73    0.45
  -2   5  -3    1.90    0.41
  -2  -5  -3    2.07    0.41
  -3   5  -3   26.46    0.98
  -3  -5  -3   26.99    0.95
  -3  -5  -3   27.55    1.05
  -3   5  -3   26.62    0.88
  -4  -5  -3  205.49    2.64
  -4   5  -3  213.05    2.75
  -4  -5  -3  220.11    2.95
  -5   5  -3   65.00    1.69
  -5  -5  -3   59.94    1.62
  -5  -5  -3   63.06    1.75
  -6   5  -3    3.72    0.70
  -6  -5  -3    2.26    0.65
  -6  -5  -3    2.85    0.70
  -7   5  -3    3.10    0.78
  -7  -5  -3    2.29    0.76
  10   6  -3    0.91    0.92
  -9  -6   3   12.77    1.15
   9   6  -3   12.32    1.06
   9  -6  -3   12.81    1.06
   8   6  -3    3.40    0.77
  -8   6   3    2.88    0.68
   8  -6  -3    3.60    0.72
   7   6  -3  140.32    2.43
   7  -6  -3  128.85    2.37
   6   6  -3  147.61    2.10
   6   6  -3  149.15    2.21
   6  -6  -3  150.77    2.40
   5  -6  -3    1.81    0.44
   5   6  -3    2.39    0.45
   5   6  -3    2.60    0.49
   4   6  -3  108.29    1.47
   4  -6  -3  118.24    1.31
   4   6  -3  109.40    1.71
   4  -6  -3  115.01    1.84
  -4  -6   3  117.63    1.44
   3   6  -3  324.97    2.83
   3  -6  -3  334.81    2.32
   3  -6  -3  324.73    2.85
  -3  -6   3  334.37    2.49
   2  -6  -3   16.70    0.69
   2  -6  -3   17.23    0.61
   2   6  -3   17.42    0.71
   1  -6  -3   15.75    0.68
   1   6  -3   16.82    0.69
   1  -6  -3   15.51    0.62
   1   6  -3   16.42    0.65
   1  -6  -3   16.82    0.55
   0  -6  -3  292.11    2.61
   0  -6  -3  291.02    2.60
   0   6  -3  285.07    2.50
   0  -6  -3  300.79    2.28
  -1   6  -3   69.29    1.30
  -1  -6  -3   73.43    1.24
  -1  -6  -3   67.84    1.39
  -1   6  -3   70.83    1.36
  -2  -6  -3   -0.08    0.39
  -2   6  -3    0.08    0.37
  -2  -6  -3    0.05    0.33
  -2   6  -3   -0.03    0.46
  -3   6  -3   18.21    0.86
  -3  -6  -3   16.95    0.78
  -3  -6  -3   17.75    0.91
  -3   6  -3   18.00    0.81
  -4  -6  -3    2.93    0.62
  -4   6  -3    3.91    0.59
  -4  -6  -3    2.93    0.58
  -4   6  -3    3.07    0.55
  -5   6  -3   39.55    1.34
  -5  -6  -3   37.56    1.31
  -5  -6  -3   40.23    1.48
  -6   6  -3   10.89    0.89
  -6  -6  -3   10.55    0.91
  -6  -6  -3   11.10    0.91
  -7   6  -3    0.03    0.65
  -7  -6  -3   -0.32    0.74
  10   7  -3    0.52    0.79
   9   7  -3    3.10    0.86
  -9  -7   3    2.55    0.90
   9  -7  -3    2.14    0.79
   8  -7  -3    0.71    0.65
   8   7  -3    0.81    0.74
   7   7  -3   10.74    0.94
   7  -7  -3   11.46    0.94
   6   7  -3   20.05    0.95
   6   7  -3   21.03    0.90
   6  -7  -3   18.89    1.01
   5   7  -3    7.76    0.63
   5   7  -3    7.36    0.60
   5  -7  -3    7.29    0.69
   4   7  -3   15.51    0.68
   4   7  -3   16.24    0.76
  -4  -7   3   16.52    0.67
   4  -7  -3   16.99    0.59
   4  -7  -3   16.91    0.79
   3   7  -3   63.25    1.33
   3   7  -3   63.01    0.99
   3  -7  -3   61.61    1.35
   3  -7  -3   65.40    1.13
  -3  -7   3   65.18    1.24
   2  -7  -3    0.11    0.30
  -2  -7   3    0.18    0.43
   2   7  -3    0.20    0.22
   2   7  -3   -0.03    0.39
   2  -7  -3   -0.02    0.36
   1  -7  -3   64.74    1.31
   1   7  -3   69.74    1.34
   1  -7  -3   66.70    1.26
   1   7  -3   66.93    1.25
   1  -7  -3   69.36    1.01
   0  -7  -3   61.97    1.30
   0  -7  -3   63.03    1.05
   0  -7  -3   60.15    1.27
   0   7  -3   59.23    1.27
   0   7  -3   57.29    1.20
  -1  -7  -3    5.77    0.44
  -1  -7  -3    5.41    0.52
  -1   7  -3    5.69    0.61
  -1   7  -3    6.05    0.52
  -2  -7  -3    3.60    0.52
  -2  -7  -3    3.54    0.41
  -2   7  -3    3.60    0.49
  -2   7  -3    3.33    0.60
  -3  -7  -3  154.86    2.10
  -3   7  -3  150.87    2.19
  -3   7  -3  155.62    2.08
  -3  -7  -3  159.36    2.42
  -4   7  -3   70.76    1.64
  -4  -7  -3   68.65    1.58
  -4   7  -3   71.96    1.51
  -4  -7  -3   69.02    1.74
  -5   7  -3    6.37    0.68
  -5  -7  -3    6.16    0.73
  -5  -7  -3    6.06    0.78
  -6   7  -3    3.76    0.69
  -6  -7  -3    4.01    0.76
  -6  -7  -3    4.75    0.80
  -7   7  -3   -1.29    0.65
  -7  -7  -3    0.01    0.73
  -7  -7  -3    0.43    0.69
   9   8  -3    5.10    0.90
  -9  -8   3    4.83    0.96
   9  -8  -3    5.80    0.93
   8  -8  -3    0.34    0.63
   8   8  -3    0.54    0.67
   7   8  -3   38.70    1.34
   7  -8  -3   38.46    1.43
   6   8  -3   47.20    1.33
   6   8  -3   48.04    1.30
   6  -8  -3   46.26    1.47
   5   8  -3   15.03    0.79
   5   8  -3   14.29    0.80
   5  -8  -3   14.43    0.85
  -4  -8   3   21.31    0.77
   4   8  -3   21.93    0.80
   4  -8  -3   22.08    0.72
   4  -8  -3   21.30    0.92
   4   8  -3   20.85    0.90
   3   8  -3   79.39    1.54
   3  -8  -3   82.68    1.35
   3  -8  -3   76.21    1.56
  -3  -8   3   81.74    1.44
   2   8  -3    8.57    0.62
   2  -8  -3    6.65    0.59
   2  -8  -3    7.59    0.53
  -2  -8   3    8.06    0.63
   1   8  -3    6.06    0.58
   1  -8  -3    5.74    0.58
   1  -8  -3    6.52    0.54
   1  -8  -3    5.61    0.33
   0   8  -3   28.08    0.98
   0  -8  -3   28.65    0.94
   0  -8  -3   29.25    1.00
   0   8  -3   28.20    0.85
   0  -8  -3   30.13    0.75
  -1  -8  -3    9.57    0.53
  -1  -8  -3    8.31    0.62
  -1   8  -3    9.07    0.73
  -1   8  -3    8.63    0.58
  -2  -8  -3   13.04    0.66
  -2  -8  -3   12.09    0.76
  -2   8  -3   14.14    0.82
  -2   8  -3   12.97    0.70
  -3  -8  -3    5.30    0.54
  -3  -8  -3    4.93    0.67
  -3   8  -3    5.02    0.67
  -3   8  -3    4.00    0.58
  -4  -8  -3    0.21    0.48
  -4   8  -3    0.75    0.51
  -4  -8  -3    0.07    0.46
  -4   8  -3    0.07    0.56
  -5   8  -3    5.34    0.69
  -5  -8  -3    6.85    0.74
  -5  -8  -3    6.46    0.81
  -6  -8  -3    0.62    0.65
  -6   8  -3    0.32    0.58
  -6  -8  -3    0.45    0.63
  -7  -8  -3   12.21    1.06
  -7  -8  -3   12.76    1.07
  -9  -9   3    4.82    1.04
   9  -9  -3    5.48    0.92
   9   9  -3    4.21    0.87
   8   9  -3   14.18    1.06
   8  -9  -3   13.73    1.08
   7  -9  -3    1.80    0.63
   7   9  -3    2.52    0.73
   6   9  -3   65.05    1.61
   6   9  -3   67.25    1.56
   6  -9  -3   65.49    1.75
   5   9  -3    3.86    0.51
   5  -9  -3    3.52    0.62
   5   9  -3    3.42    0.58
   4  -9  -3    0.00    0.46
   4  -9  -3    0.10    0.32
   4   9  -3    0.01    0.48
  -4  -9   3    0.45    0.39
   3   9  -3    6.77    0.63
   3  -9  -3    6.77    0.63
   3  -9  -3    6.74    0.52
  -3  -9   3    6.52    0.62
   2   9  -3  108.04    1.82
   2  -9  -3  109.92    1.85
   2  -9  -3  108.60    1.69
  -2  -9   3  111.99    1.83
   1   9  -3   15.27    0.80
   1  -9  -3   15.03    0.74
   1  -9  -3   15.01    0.82
  -1  -9   3   14.26    0.82
   0  -9  -3   19.66    0.88
   0   9  -3   19.98    0.93
   0  -9  -3   19.63    0.87
   0   9  -3   18.59    0.74
  -1  -9  -3    0.88    0.47
  -1   9  -3    0.94    0.38
  -1  -9  -3    0.90    0.32
  -1   9  -3    0.75    0.56
  -2  -9  -3    2.78    0.53
  -2   9  -3    2.76    0.48
  -2  -9  -3    2.47    0.38
  -2   9  -3    3.43    0.65
  -3  -9  -3   72.79    1.46
  -3  -9  -3   76.92    1.80
  -3   9  -3   78.25    1.69
  -3   9  -3   75.48    1.61
  -4  -9  -3   23.43    0.99
  -4   9  -3   25.82    1.11
  -4  -9  -3   23.86    1.16
  -4   9  -3   22.42    1.02
  -5  -9  -3    0.64    0.55
  -5  -9  -3    1.69    0.55
  -6  -9  -3    2.08    0.64
  -6  -9  -3    2.56    0.74
  -7  -9  -3    0.87    0.70
  -7  -9  -3    0.85    0.79
  -9 -10   3    7.92    1.13
   9  10  -3   10.10    1.13
   9 -10  -3    9.24    1.06
   8  10  -3    3.13    0.76
   8 -10  -3    3.22    0.78
   7 -10  -3    2.85    0.75
   7  10  -3    3.07    0.72
   6 -10  -3    2.14    0.71
   6  10  -3    1.34    0.54
   6  10  -3    1.60    0.61
   5 -10  -3   -0.28    0.56
   5  10  -3    0.26    0.45
   4 -10  -3    3.33    0.62
   4 -10  -3    3.80    0.46
   4  10  -3    3.06    0.58
  -4 -10   3    3.75    0.50
   3 -10  -3    0.60    0.39
  -3 -10   3    0.73    0.53
   3  10  -3    0.45    0.50
   3 -10  -3    0.66    0.49
   2 -10  -3   12.05    0.78
   2  10  -3   13.58    0.82
   2 -10  -3   12.96    0.70
  -2 -10   3   14.23    0.83
  -1 -10   3    4.29    0.65
   1  10  -3    5.02    0.64
   1 -10  -3    5.05    0.57
   1 -10  -3    3.90    0.58
   0 -10  -3    7.74    0.69
   0  10  -3    6.97    0.71
   0 -10  -3    7.48    0.64
   0  10  -3    7.30    0.54
  -1 -10  -3    1.51    0.47
  -1  10  -3    1.02    0.37
  -1  10  -3    1.48    0.61
  -2 -10  -3    2.14    0.55
  -2  10  -3    2.26    0.63
  -3 -10  -3    5.88    0.71
  -3  10  -3    6.52    0.78
  -4 -10  -3    0.06    0.55
  -4  10  -3   -0.04    0.67
  -5 -10  -3    9.14    0.78
  -5 -10  -3    9.98    0.91
  -6 -10  -3   19.63    1.13
  -6 -10  -3   21.65    1.33
  -9 -11   3    1.32    0.89
   9  11  -3    1.44    0.89
   8 -11  -3   -0.09    0.71
   8  11  -3    0.21    0.74
   7  11  -3   -0.06    0.65
   7 -11  -3    0.40    0.67
   6 -11  -3   21.20    1.13
   5 -11  -3    2.27    0.65
   5  11  -3    2.00    0.61
   4  11  -3   16.16    0.89
   4 -11  -3   15.57    0.94
   4 -11  -3   16.99    0.77
  -4 -11   3   16.45    0.83
   3 -11  -3  108.41    2.02
   3 -11  -3  112.03    1.86
  -3 -11   3  111.05    1.96
   3  11  -3  108.78    1.98
   2 -11  -3   58.98    1.51
   2  11  -3   60.32    1.50
   2 -11  -3   58.26    1.41
  -2 -11   3   60.86    1.52
   1 -11  -3   46.79    1.36
   1  11  -3   48.40    1.41
   1 -11  -3   48.35    1.31
  -1 -11   3   49.14    1.41
   0  11  -3   70.45    1.64
   0 -11  -3   72.16    1.66
   0 -11   3   76.12    1.78
  -1 -11  -3   22.88    1.02
  -1  11  -3   23.23    1.10
  -2 -11  -3    0.47    0.52
  -2  11  -3    0.67    0.63
  -3 -11  -3    7.22    0.76
  -3  11  -3    8.39    0.88
  -4 -11  -3    0.49    0.60
  -4  11  -3    0.23    0.71
  -5  11  -3    0.02    0.63
  -5 -11  -3    0.27    0.65
  -6 -11  -3   -0.33    0.68
   8 -12  -3    5.77    0.90
  -8 -12   3    3.35    0.90
   7 -12  -3    0.32    0.65
   6 -12  -3    0.51    0.59
   5 -12  -3    0.64    0.59
   5  12  -3    0.57    0.55
   4 -12  -3   15.35    0.81
   4  12  -3   15.18    0.93
   4 -12  -3   14.88    0.96
  -4 -12   3   16.70    0.90
  -3 -12   3   10.15    0.80
   3  12  -3   10.58    0.79
   3 -12  -3    9.78    0.82
   3 -12  -3   10.02    0.74
   2 -12  -3    0.75    0.47
  -2 -12   3    0.76    0.56
   2 -12  -3    0.65    0.58
   2  12  -3    0.73    0.54
   1 -12  -3   80.73    1.84
   1  12  -3   79.77    1.82
   1 -12  -3   79.31    1.76
  -1 -12   3   82.87    1.87
   0 -12  -3  149.56    2.43
   0  12  -3  151.01    2.40
   0 -12   3  156.32    2.54
  -1  12  -3   12.39    0.97
  -1 -12  -3   12.11    0.86
   1 -12   3   10.50    0.93
  -2 -12  -3    4.87    0.66
  -2  12  -3    5.09    0.78
  -3 -12  -3   30.35    1.30
  -3  12  -3   32.38    1.38
  -4 -12  -3    0.47    0.60
  -4  12  -3    0.73    0.77
  -5 -12  -3   11.70    1.01
  -5  12  -3   11.86    1.03
  -6 -12  -3    0.80    0.74
   7 -13  -3    1.10    0.73
   6 -13  -3   18.53    1.10
   5 -13  -3   -0.11    0.57
   5  13  -3    0.38    0.57
   4  13  -3   27.08    1.18
   4 -13  -3   24.90    1.14
   4 -13  -3   27.84    1.08
  -4 -13   3   26.02    1.11
   3 -13  -3  137.59    2.45
   3 -13  -3  137.93    2.28
   3  13  -3  141.69    2.43
  -3 -13   3  140.39    2.35
   2  13  -3  119.93    2.23
   2 -13  -3  111.49    2.11
   2 -13  -3  112.80    2.22
  -2 -13   3  115.17    2.21
   1 -13  -3   28.14    1.22
   1  13  -3   31.91    1.30
   1 -13  -3   29.86    1.19
  -1 -13   3   31.87    1.30
   0  13  -3   55.69    1.61
   0 -13  -3   55.41    1.60
   0 -13   3   53.53    1.64
  -1 -13  -3    1.13    0.55
   1 -13   3    1.01    0.62
  -1  13  -3    2.11    0.78
  -2 -13  -3    0.07    0.55
   2 -13   3    0.26    0.66
  -2  13  -3    0.01    0.75
  -3 -13  -3    4.42    0.74
   3 -13   3    4.40    0.83
  -3  13  -3    5.45    0.92
  -4 -13  -3    0.21    0.63
   4 -13   3   -0.33    0.77
  -4  13  -3    0.47    0.81
  -5 -13  -3    1.25    0.78
  -5  13  -3    0.25    0.82
   7 -14  -3    3.08    0.75
   6 -14  -3    2.44    0.75
   5  14  -3    0.51    0.60
   5 -14  -3    0.93    0.59
   4 -14  -3   23.90    1.18
   4  14  -3   24.45    1.15
   4 -14  -3   22.65    1.06
  -4 -14   3   23.33    1.15
   3 -14  -3    2.83    0.60
  -3 -14   3    2.61    0.62
   3 -14  -3    1.99    0.55
   3  14  -3    2.11    0.68
   2  14  -3    1.39    0.66
   2 -14  -3    0.91    0.55
  -2 -14   3    0.41    0.62
   2 -14  -3    0.63    0.62
   1 -14  -3    3.75    0.62
  -1 -14   3    4.15    0.77
   1 -14  -3    4.27    0.76
   1  14  -3    3.47    0.77
   0 -14  -3    3.00    0.64
   0 -14   3    2.86    0.72
   0  14  -3    2.43    0.74
  -1  14  -3   32.14    1.41
  -1 -14  -3   29.63    1.30
   1 -14   3   28.93    1.39
  -2 -14  -3    4.62    0.74
   2 -14   3    5.11    0.81
  -2  14  -3    5.65    0.93
  -3 -14  -3    0.43    0.59
   3 -14   3    0.38    0.72
  -3  14  -3   -0.10    0.76
  -4  14  -3   11.07    1.13
   4 -14   3   10.70    1.08
  -4 -14  -3    9.85    1.00
   5 -14   3    0.78    0.80
  -5  14  -3    1.39    0.85
   6 -15  -3    8.46    0.90
   5 -15  -3    5.72    0.82
   4 -15  -3    0.92    0.49
  -4 -15   3    0.29    0.64
   4  15  -3    0.07    0.56
   4 -15  -3   -0.14    0.63
   3 -15  -3    1.65    0.58
  -3 -15   3    1.25    0.57
   3 -15  -3    0.96    0.67
   3  15  -3    1.09    0.66
   2 -15  -3    0.76    0.50
  -2 -15   3    0.62    0.65
   2 -15  -3    0.57    0.60
   2  15  -3    1.75    0.66
   1 -15  -3   -0.16    0.56
  -1 -15   3    0.41    0.65
   1 -15  -3    0.90    0.60
   1  15  -3   -0.06    0.76
   0 -15  -3   -0.20    0.56
   0 -15   3    1.21    0.71
   0  15  -3    0.51    0.67
  -1 -15  -3    1.57    0.63
   1 -15   3    1.54    0.75
  -1  15  -3    2.35    0.83
  -2 -15  -3    3.30    0.69
   2 -15   3    3.08    0.79
  -2  15  -3    3.08    0.95
  -3 -15  -3    9.10    0.97
  -3  15  -3    9.73    1.14
   3 -15   3    8.39    1.03
   4 -15   3    4.95    0.93
  -4  15  -3    5.52    1.07
   5 -16  -3    7.88    0.92
   4 -16  -3    0.85    0.59
   4  16  -3    1.28    0.65
  -4 -16   3    0.85    0.67
   4 -16  -3    0.57    0.63
   3 -16  -3    2.89    0.62
  -3 -16   3    3.11    0.73
   3 -16  -3    2.59    0.76
   3  16  -3    3.43    0.75
   2 -16  -3    0.32    0.59
  -2 -16   3    0.79    0.62
   2 -16  -3    0.51    0.66
   2  16  -3    0.33    0.67
   1 -16  -3    2.20    0.66
  -1 -16   3    1.88    0.75
   1  16  -3    2.23    0.86
   0  16  -3   11.87    1.08
   0 -16  -3   12.10    0.98
   0 -16   3   11.26    1.05
  -1 -16  -3    0.12    0.63
   1 -16   3    0.66    0.73
  -1  16  -3   -0.06    0.84
  -2 -16  -3    0.25    0.68
   2 -16   3   -0.45    0.72
  -2  16  -3   -0.01    0.86
  -3 -16  -3    0.89    0.68
   3 -16   3    1.23    0.83
  -3  16  -3    0.45    1.01
  -4 -17   3    1.06    0.65
   4 -17  -3    0.03    0.75
   4  17  -3    0.31    0.70
   3 -17  -3    4.94    0.74
  -3 -17   3    6.15    0.83
   3 -17  -3    5.53    0.92
   3  17  -3    4.73    0.83
   2 -17  -3    3.14    0.67
  -2 -17   3    2.76    0.77
   2 -17  -3    2.57    0.81
   2  17  -3    4.46    0.78
   1 -17  -3   -0.55    0.57
  -1 -17   3    0.23    0.72
   1  17  -3   -0.79    0.84
   0 -17  -3   -0.36    0.64
   0 -17   3    0.11    0.80
   0  17  -3    0.02    0.81
  -1  17  -3   11.90    1.25
  -1 -17  -3   14.06    1.12
   1 -17   3   12.64    1.22
   4  18  -3   13.64    1.12
   3 -18  -3    3.76    0.76
  -3 -18   3    1.70    0.79
   3 -18  -3    2.29    0.87
   3  18  -3    2.74    0.71
  -2 -18   3    7.17    0.95
   2 -18  -3    7.43    0.93
   2 -18  -3    8.35    0.93
   2  18  -3    6.93    0.96
   1  18  -3    9.52    1.08
   1 -18  -3    8.70    0.98
  -1 -18   3    8.96    1.04
   0 -18  -3    1.18    0.69
  10   0  -4   -0.78    0.79
 -10   0   4    0.60    0.82
   9   0  -4    1.95    0.77
   8   0  -4   10.88    0.90
   8   0  -4   11.93    0.83
   7   0  -4   14.43    0.87
   7   0  -4   13.60    0.80
   6   0  -4   45.09    1.25
   6   0  -4   46.59    1.30
   5   0  -4  116.02    1.78
   5   0  -4  116.12    1.86
   4   0  -4   59.34    1.30
   4   0  -4   63.03    1.22
   3   0  -4  550.88    3.70
   3   0  -4  567.62    3.18
   2   0  -4 3732.50    9.20
   2   0  -4 3768.75    9.46
   1   0  -4  737.97    3.93
   1   0  -4  712.21    3.07
   1   0  -4  709.32    4.21
   0   0  -4  151.20    1.73
   0   0  -4  156.79    2.05
  -1   0  -4  282.36    2.23
  -1   0  -4  279.65    2.84
  -2   0  -4  254.12    2.89
  -3   0  -4   36.34    1.23
  -4   0  -4   40.66    1.38
  -5   0  -4   20.32    1.12
  -6   0  -4    4.16    0.76
  -7   0  -4    1.01    0.75
  10   1  -4   -0.67    0.71
 -10   1   4    0.24    0.84
 -10  -1   4    0.16    0.84
  10  -1  -4    0.32    0.75
   9  -1  -4   26.77    1.30
   9   1  -4   29.98    1.39
   8   1  -4    0.33    0.61
   8  -1  -4    0.25    0.52
   8   1  -4   -0.16    0.47
   8  -1  -4    0.14    0.59
   7  -1  -4    5.29    0.71
   7   1  -4    5.63    0.67
   7  -1  -4    5.67    0.64
   7   1  -4    6.66    0.63
   6  -1  -4  112.56    1.92
   6   1  -4  113.21    1.86
   6  -1  -4  119.36    1.99
   6   1  -4  118.56    1.95
   5  -1  -4  102.28    1.68
   5   1  -4   99.61    1.61
   5  -1  -4  101.93    1.77
   5   1  -4   98.83    1.74
   4   1  -4   27.21    0.81
   4   1  -4   26.56    0.94
   4  -1  -4   27.58    0.92
   4  -1  -4   27.46    0.87
   3  -1  -4   24.61    0.84
   3   1  -4   27.50    0.90
   3  -1  -4   25.79    0.77
   3   1  -4   26.14    0.72
   2  -1  -4  379.96    2.99
   2  -1  -4  382.61    2.95
   2  -1  -4  364.15    2.48
   2   1  -4  377.72    2.94
   2   1  -4  373.89    2.18
   2   1  -4  368.63    3.06
   1  -1  -4   16.70    0.70
   1   1  -4   18.54    0.50
   1   1  -4   17.20    0.69
   1  -1  -4   17.83    0.60
   1  -1  -4   18.20    0.68
   1   1  -4   17.34    0.74
   1  -1  -4   18.66    0.75
   0  -1  -4   13.12    0.57
   0  -1  -4   11.33    0.67
   0   1  -4   12.57    0.61
   0   1  -4   10.99    0.64
   0  -1  -4   12.26    0.66
  -1  -1  -4   40.30    0.86
  -1   1  -4   39.68    0.91
  -1   1  -4   39.02    1.11
  -1  -1  -4   38.99    1.12
  -2  -1  -4    7.84    0.66
  -2   1  -4    9.08    0.50
  -2   1  -4    8.02    0.66
  -3   1  -4    4.80    0.61
  -3  -1  -4    4.73    0.61
  -4   1  -4    3.35    0.60
  -4  -1  -4    3.26    0.60
  -5   1  -4    4.01    0.68
  -5  -1  -4    4.70    0.75
  -6   1  -4    1.32    0.66
  -6  -1  -4    1.32    0.66
  -7   1  -4   -0.15    0.71
  -7  -1  -4    0.22    0.74
  10   2  -4    0.32    0.81
 -10   2   4    0.24    0.79
  10  -2  -4    0.64    0.76
   9   2  -4    3.31    0.77
   9  -2  -4    3.22    0.79
   8   2  -4    0.01    0.60
   8  -2  -4    0.23    0.53
   8   2  -4   -0.22    0.48
   8  -2  -4    0.53    0.62
   7   2  -4    1.33    0.56
   7  -2  -4    1.19    0.52
   7   2  -4    1.62    0.47
   7  -2  -4    1.40    0.56
   6   2  -4    0.35    0.46
   6  -2  -4    0.46    0.48
   6   2  -4    0.32    0.44
   6  -2  -4    0.28    0.50
   5   2  -4    0.57    0.42
   5  -2  -4    0.37    0.46
   5  -2  -4    0.65    0.43
   5   2  -4    0.09    0.44
   4   2  -4   30.22    0.83
   4   2  -4   31.27    1.00
   4  -2  -4   31.56    1.00
   4  -2  -4   30.27    0.92
   3   2  -4   38.06    1.04
   3  -2  -4   37.79    0.80
   3  -2  -4   37.19    1.02
   3  -2  -4   36.99    0.94
   3   2  -4   37.64    0.79
   2  -2  -4  212.28    2.04
   2  -2  -4  208.94    1.98
   2   2  -4  214.40    1.53
   2   2  -4  216.32    2.30
   2   2  -4  204.89    2.34
   2  -2  -4  217.66    2.26
   2  -2  -4  212.99    2.16
   1   2  -4   33.68    0.92
   1  -2  -4   31.97    0.81
   1  -2  -4   33.04    0.92
   1  -2  -4   33.29    0.85
   1   2  -4   34.27    0.55
   1   2  -4   31.13    0.97
   1  -2  -4   34.66    0.96
   0   2  -4    0.00    0.35
   0  -2  -4    0.16    0.33
   0  -2  -4    0.02    0.27
   0   2  -4    0.14    0.31
   0  -2  -4    0.01    0.37
  -1  -2  -4   11.77    0.72
  -1   2  -4   12.01    0.57
  -1  -2  -4   11.43    0.49
  -1   2  -4   11.23    0.67
  -1  -2  -4   10.79    0.67
  -2  -2  -4    4.44    0.56
  -2   2  -4    3.50    0.53
  -2   2  -4    3.88    0.44
  -2  -2  -4    3.82    0.58
  -3   2  -4    2.10    0.51
  -3  -2  -4    2.08    0.54
  -4   2  -4   21.84    1.08
  -4  -2  -4   21.28    1.06
  -5   2  -4   15.53    1.04
  -5  -2  -4   14.18    1.01
  -6   2  -4   -0.08    0.61
  -6  -2  -4   -0.03    0.65
  -7   2  -4    3.65    0.91
  -7  -2  -4    3.48    0.85
  10   3  -4   -0.92    0.74
 -10   3   4    0.34    0.78
  10  -3  -4    0.63    0.79
   9   3  -4    1.71    0.71
   9  -3  -4    1.79    0.72
   8  -3  -4   20.94    1.17
   8   3  -4   19.22    1.05
   8   3  -4   20.95    1.00
   7  -3  -4   17.36    0.99
   7   3  -4   16.14    0.91
   7  -3  -4   16.29    0.92
   7   3  -4   15.94    0.86
   6   3  -4    6.31    0.60
   6  -3  -4    5.29    0.64
   6   3  -4    6.30    0.63
   6  -3  -4    5.86    0.65
   5   3  -4   -0.05    0.38
   5  -3  -4    0.26    0.46
   5  -3  -4    0.05    0.44
   5   3  -4    0.12    0.45
   4   3  -4   23.30    0.72
   4  -3  -4   24.59    0.91
   4  -3  -4   26.48    0.60
   4   3  -4   25.25    0.91
   4  -3  -4   24.49    0.89
   3  -3  -4   10.20    0.63
   3  -3  -4   10.51    0.48
   3  -3  -4   11.22    0.61
   3   3  -4   10.89    0.65
   3   3  -4   11.06    0.46
   2  -3  -4   34.62    0.87
   2  -3  -4   34.25    0.89
   2   3  -4   34.59    1.00
   2   3  -4   35.91    0.59
   2  -3  -4   34.60    0.94
   2   3  -4   34.87    1.02
   2  -3  -4   33.82    0.93
   1   3  -4    1.16    0.39
   1  -3  -4    0.91    0.34
   1  -3  -4    1.26    0.33
   1  -3  -4    0.99    0.37
   1   3  -4    0.94    0.38
   1  -3  -4    1.25    0.36
   0   3  -4    1.16    0.41
   0  -3  -4    0.87    0.36
   0  -3  -4    1.17    0.32
   0   3  -4    0.73    0.41
   0  -3  -4    1.08    0.39
  -1  -3  -4    7.13    0.41
  -1  -3  -4    7.07    0.61
  -1   3  -4    7.31    0.55
  -1   3  -4    7.24    0.60
  -1  -3  -4    7.03    0.58
  -2  -3  -4    9.07    0.67
  -2  -3  -4    8.73    0.72
  -2   3  -4    9.04    0.56
  -2   3  -4    9.04    0.70
  -3   3  -4   17.62    0.94
  -3  -3  -4   17.56    0.92
  -3  -3  -4   17.44    1.00
  -4   3  -4    1.35    0.60
  -4  -3  -4    2.23    0.60
  -4  -3  -4    1.91    0.68
  -5   3  -4    2.99    0.66
  -5  -3  -4    2.37    0.64
  -6   3  -4   -0.12    0.63
  -6  -3  -4   -0.44    0.64
  -7   3  -4    2.04    0.78
  -7  -3  -4    3.92    0.86
  10  -4  -4    8.86    1.01
 -10   4   4    7.15    1.07
  10   4  -4    9.94    0.99
   9   4  -4   -0.35    0.71
   9  -4  -4    0.10    0.73
   8   4  -4   38.37    1.39
   8   4  -4   37.71    1.27
   8  -4  -4   36.97    1.49
   7   4  -4   69.63    1.59
   7   4  -4   70.38    1.61
   7  -4  -4   69.37    1.76
   6   4  -4    0.36    0.47
   6  -4  -4    0.26    0.52
   6  -4  -4    0.42    0.46
   6   4  -4    0.08    0.45
   5   4  -4   17.45    0.74
   5   4  -4   17.88    0.83
   5  -4  -4   16.46    0.86
   5  -4  -4   16.97    0.87
   4   4  -4   22.13    0.69
   4   4  -4   22.45    0.89
   4  -4  -4   22.13    0.59
   4  -4  -4   22.00    0.89
   4  -4  -4   21.61    0.87
   3   4  -4    8.33    0.42
   3  -4  -4    7.98    0.60
   3  -4  -4    8.20    0.46
   3   4  -4    8.07    0.60
   3  -4  -4    8.17    0.60
   2  -4  -4  188.51    2.12
   2  -4  -4  194.68    2.00
   2   4  -4  192.58    2.21
   2  -4  -4  188.14    2.07
   2   4  -4  182.63    2.30
   2  -4  -4  196.46    2.11
   1   4  -4   14.11    0.70
   1  -4  -4   13.53    0.63
   1  -4  -4   14.28    0.67
   1  -4  -4   13.69    0.67
   1   4  -4   13.84    0.70
   1  -4  -4   14.61    0.66
   0  -4  -4   10.53    0.65
   0   4  -4   11.02    0.65
   0  -4  -4   11.32    0.54
   0   4  -4   11.69    0.67
   0  -4  -4   11.91    0.64
  -1   4  -4    1.83    0.46
  -1  -4  -4    2.35    0.45
  -1  -4  -4    2.22    0.32
  -1   4  -4    2.46    0.45
  -1  -4  -4    1.78    0.43
  -2  -4  -4    8.39    0.65
  -2  -4  -4    8.05    0.70
  -2   4  -4    8.18    0.59
  -2   4  -4    7.56    0.68
  -3  -4  -4   89.39    1.82
  -3  -4  -4   86.87    1.94
  -3   4  -4   86.95    1.85
  -4   4  -4   91.32    2.03
  -4  -4  -4   87.32    1.94
  -4  -4  -4   93.36    2.16
  -5   4  -4    1.40    0.64
  -5  -4  -4    1.85    0.62
  -5  -4  -4    1.83    0.68
  -6   4  -4    1.26    0.75
  -6  -4  -4    1.01    0.70
  10   5  -4    1.67    0.91
  10  -5  -4    1.63    0.81
  -9   5   4    3.73    0.80
   9   5  -4    4.25    0.86
   9  -5  -4    2.76    0.78
   8   5  -4    3.20    0.73
   8  -5  -4    2.56    0.76
   7  -5  -4    0.48    0.58
   7   5  -4    0.70    0.58
   7   5  -4    0.14    0.44
   6   5  -4    1.77    0.53
   6   5  -4    0.97    0.47
   6  -5  -4    1.21    0.51
   5   5  -4   21.05    0.79
   5  -5  -4   19.87    0.91
   5   5  -4   20.43    0.89
   5  -5  -4   21.88    0.98
   4   5  -4   36.82    0.85
   4  -5  -4   35.68    1.10
   4   5  -4   38.80    1.16
   4  -5  -4   36.85    0.79
   4  -5  -4   35.99    1.10
  -4  -5   4   36.18    0.87
   3  -5  -4    3.76    0.50
   3   5  -4    3.95    0.49
   3  -5  -4    4.62    0.40
   3  -5  -4    3.26    0.48
   2   5  -4    8.46    0.64
   2  -5  -4    7.86    0.58
   2  -5  -4    8.87    0.53
   2  -5  -4    8.27    0.59
   2   5  -4    9.35    0.63
   2  -5  -4    9.13    0.54
   1  -5  -4    0.15    0.35
   1   5  -4   -0.12    0.35
   1  -5  -4    0.10    0.34
   1  -5  -4    0.13    0.33
   1  -5  -4   -0.02    0.40
   1   5  -4    0.00    0.43
   0  -5  -4  155.98    1.72
   0  -5  -4  159.87    2.16
   0   5  -4  163.86    2.04
   0   5  -4  151.31    2.16
   0  -5  -4  169.73    2.07
  -1  -5  -4   19.94    0.91
  -1   5  -4   20.09    0.83
  -1   5  -4   18.25    0.84
  -1  -5  -4   19.70    0.84
  -2   5  -4    0.74    0.41
  -2  -5  -4    0.66    0.43
  -2   5  -4    0.94    0.41
  -2  -5  -4    0.83    0.47
  -3  -5  -4   25.20    1.06
  -3  -5  -4   26.26    1.18
  -3   5  -4   25.85    0.90
  -3   5  -4   26.61    1.14
  -4   5  -4   51.18    1.58
  -4  -5  -4   49.35    1.51
  -4  -5  -4   52.77    1.71
  -5   5  -4    1.55    0.64
  -5  -5  -4    1.69    0.62
  -5  -5  -4    2.78    0.72
  -6   5  -4   15.96    1.13
  -6  -5  -4   15.32    1.12
  10   6  -4    2.86    0.89
   9  -6  -4    0.27    0.74
   9   6  -4   -0.17    0.73
   8   6  -4   30.97    1.29
   8  -6  -4   32.40    1.44
   7  -6  -4    2.88    0.72
   7   6  -4    2.66    0.59
   7   6  -4    3.24    0.66
   6   6  -4   10.40    0.72
   6   6  -4   10.01    0.73
   6  -6  -4   10.19    0.80
   5  -6  -4    0.29    0.49
   5   6  -4    0.44    0.41
   5   6  -4    0.49    0.44
   4   6  -4   38.08    1.16
   4  -6  -4   37.11    0.83
   4  -6  -4   36.18    1.15
  -4  -6   4   37.26    0.94
   3   6  -4    6.22    0.58
   3  -6  -4    5.91    0.44
   3  -6  -4    6.46    0.60
   2  -6  -4    0.63    0.34
   2  -6  -4    0.67    0.32
   2   6  -4    0.46    0.47
   2  -6  -4    0.70    0.42
   1  -6  -4   42.62    1.15
   1  -6  -4   44.36    1.15
   1   6  -4   42.25    1.16
   1   6  -4   42.74    1.16
   1  -6  -4   44.88    1.05
   0  -6  -4    4.12    0.51
   0   6  -4    4.97    0.59
   0   6  -4    3.72    0.51
   0  -6  -4    4.80    0.49
  -1  -6  -4    0.17    0.41
  -1   6  -4    0.02    0.38
  -1  -6  -4   -0.10    0.40
  -1   6  -4    0.11    0.45
  -2  -6  -4    1.49    0.50
  -2   6  -4    1.42    0.47
  -2  -6  -4    1.19    0.45
  -2   6  -4    1.41    0.44
  -3   6  -4    0.93    0.53
  -3  -6  -4    1.31    0.50
  -3   6  -4    1.57    0.47
  -3  -6  -4    1.12    0.58
  -4   6  -4    0.38    0.55
  -4  -6  -4    0.23    0.54
  -4  -6  -4    0.32    0.63
  -5   6  -4   -0.24    0.58
  -5  -6  -4   -0.60    0.59
  -5  -6  -4    0.21    0.62
  -6   6  -4    0.06    0.70
  -6  -6  -4    0.63    0.60
  -6  -6  -4   -1.13    0.67
  10   7  -4    2.80    0.93
   9  -7  -4    2.44    0.80
   9   7  -4    2.00    0.80
   8  -7  -4    0.30    0.60
   8   7  -4   -1.26    0.61
   7  -7  -4    2.17    0.75
   7   7  -4    1.49    0.56
   7   7  -4    1.58    0.63
   6   7  -4    8.14    0.70
   6  -7  -4    9.33    0.82
   6   7  -4    7.90    0.69
   5  -7  -4    0.37    0.49
   5   7  -4    0.48    0.45
   4  -7  -4    0.43    0.29
   4  -7  -4    0.31    0.47
  -4  -7   4    0.47    0.41
   4   7  -4    0.49    0.45
   3   7  -4   81.58    1.66
   3  -7  -4   84.82    1.39
   3  -7  -4   82.83    1.65
  -3  -7   4   82.88    1.50
   2  -7  -4    1.61    0.40
   2  -7  -4    2.34    0.37
   2   7  -4    2.61    0.54
   2  -7  -4    2.47    0.51
   1  -7  -4  113.71    1.87
   1   7  -4  120.46    1.92
   1  -7  -4  118.53    1.85
   1   7  -4  112.62    1.88
   1  -7  -4  122.66    1.64
   0  -7  -4    3.76    0.51
   0   7  -4    4.20    0.58
   0   7  -4    3.58    0.50
   0  -7  -4    3.66    0.46
  -1  -7  -4    1.21    0.48
  -1   7  -4    1.10    0.43
  -1  -7  -4    1.04    0.43
  -1   7  -4    1.52    0.51
  -2  -7  -4   38.21    1.18
  -2   7  -4   39.89    1.17
  -2  -7  -4   38.40    1.31
  -2   7  -4   37.90    1.22
  -3  -7  -4   81.83    1.77
  -3  -7  -4   85.81    2.03
  -3   7  -4   86.60    1.67
  -3   7  -4   81.50    1.83
  -4   7  -4    3.37    0.65
  -4  -7  -4    3.51    0.63
  -4  -7  -4    3.07    0.73
  -5   7  -4    0.75    0.60
  -5  -7  -4    0.23    0.53
  -5  -7  -4    0.80    0.65
  -6   7  -4   -0.09    0.70
  -6  -7  -4   -0.01    0.63
  -6  -7  -4    0.16    0.77
   9   8  -4    9.11    0.98
   9  -8  -4    9.79    1.02
   8   8  -4    1.54    0.68
   8  -8  -4    2.69    0.71
   7   8  -4   98.95    1.98
   7  -8  -4  100.92    2.26
   7   8  -4   97.31    2.02
   6   8  -4   85.28    1.83
   6  -8  -4   83.42    1.99
   5   8  -4    5.60    0.64
   5  -8  -4    5.52    0.70
   4   8  -4    5.36    0.62
   4  -8  -4    6.04    0.47
   4  -8  -4    5.52    0.64
  -4  -8   4    5.39    0.57
   3   8  -4   14.23    0.86
   3  -8  -4   14.29    0.67
   3  -8  -4   14.73    0.82
  -3  -8   4   15.40    0.81
   2  -8  -4    0.58    0.37
   2   8  -4    0.09    0.50
   2  -8  -4    0.31    0.45
   1   8  -4    5.08    0.62
   1  -8  -4    4.81    0.51
   1   8  -4    4.64    0.55
   1  -8  -4    4.65    0.42
   1  -8  -4    4.35    0.59
   0  -8  -4    0.50    0.42
   0   8  -4    0.07    0.41
   0  -8  -4    0.24    0.34
   0   8  -4    0.35    0.51
  -1  -8  -4    8.67    0.73
  -1   8  -4    8.32    0.69
  -1   8  -4    8.55    0.67
  -1  -8  -4    8.19    0.60
  -2  -8  -4   49.73    1.30
  -2  -8  -4   49.90    1.52
  -2   8  -4   49.35    1.35
  -2   8  -4   48.71    1.38
  -3  -8  -4   58.78    1.52
  -3  -8  -4   62.60    1.76
  -3   8  -4   59.77    1.49
  -3   8  -4   59.53    1.58
  -4  -8  -4    5.41    0.70
  -4  -8  -4    7.76    0.87
  -4   8  -4    6.21    0.75
  -5  -8  -4   15.02    1.00
  -5  -8  -4   14.65    1.14
  -5   8  -4   14.01    1.05
  -6  -8  -4   17.65    1.11
  -6  -8  -4   21.12    1.35
  -6   8  -4   18.67    1.21
   9  -9  -4    0.03    0.77
   8  -9  -4    1.56    0.77
   7  -9  -4    0.28    0.61
   7   9  -4    0.25    0.49
   6  -9  -4    2.63    0.67
   6   9  -4    3.56    0.63
   5  -9  -4    0.26    0.58
   5   9  -4    0.49    0.51
   4  -9  -4    3.91    0.62
  -4  -9   4    3.58    0.53
   4  -9  -4    4.05    0.45
   4   9  -4    3.07    0.59
   3  -9  -4    0.29    0.38
  -3  -9   4    0.07    0.47
   3   9  -4   -0.08    0.51
   3  -9  -4    0.06    0.48
   2  -9  -4    0.76    0.40
  -2  -9   4    0.79    0.56
   2  -9  -4    0.81    0.47
   2   9  -4    0.86    0.52
   1  -9  -4    0.51    0.41
   1   9  -4    0.91    0.40
   1  -9  -4    1.00    0.51
   1   9  -4    1.14    0.55
   0  -9  -4   33.14    1.15
   0   9  -4   33.96    1.17
   0   9  -4   30.59    1.03
  -1  -9  -4    1.14    0.50
  -1   9  -4    0.30    0.43
  -1   9  -4    0.85    0.52
  -2  -9  -4   10.17    0.71
  -2  -9  -4   10.16    0.82
  -2   9  -4   12.66    0.82
  -2   9  -4   10.13    0.76
  -3  -9  -4   13.05    0.82
  -3  -9  -4   12.30    0.95
  -3   9  -4   12.69    0.91
  -3   9  -4   12.51    0.80
  -4  -9  -4   16.98    0.99
  -4  -9  -4   18.72    1.15
  -4   9  -4   17.46    1.02
  -5  -9  -4    2.29    0.64
  -5  -9  -4    3.21    0.85
  -6  -9  -4   14.89    1.14
  -6  -9  -4   16.74    1.24
   8 -10  -4   17.76    1.19
   7 -10  -4    0.55    0.68
   6 -10  -4    1.28    0.66
   6  10  -4    1.32    0.57
   5 -10  -4   -0.08    0.54
   5  10  -4    0.53    0.49
   4 -10  -4   12.73    0.68
   4 -10  -4   11.82    0.88
  -4 -10   4   12.53    0.78
   4  10  -4   13.10    0.89
   3 -10  -4    1.96    0.45
  -3 -10   4    1.91    0.56
   3  10  -4    1.76    0.56
   3 -10  -4    1.51    0.54
   2 -10  -4   10.14    0.79
   2  10  -4    9.87    0.77
   2 -10  -4   10.16    0.70
  -2 -10   4   11.15    0.82
   1 -10  -4   61.89    1.58
   1  10  -4   65.27    1.62
   1 -10  -4   64.60    1.54
   0 -10  -4    7.40    0.66
   0  10  -4    7.92    0.73
   0  10  -4    7.03    0.64
  -1 -10  -4    2.36    0.53
  -1  10  -4    2.27    0.48
  -1  10  -4    2.70    0.63
  -2 -10  -4    6.90    0.75
  -2  10  -4    6.38    0.76
  -2  10  -4    6.48    0.65
  -3 -10  -4   14.58    1.04
  -3  10  -4   14.25    0.96
  -4 -10  -4    2.15    0.76
  -5 -10  -4    0.48    0.80
   8 -11  -4    2.78    0.84
   7 -11  -4   18.17    1.19
   6  11  -4   25.44    1.20
   6 -11  -4   23.63    1.30
   5 -11  -4    5.03    0.76
   5  11  -4    4.91    0.67
   4  11  -4    7.11    0.79
   4 -11  -4    6.54    0.76
   4 -11  -4    6.55    0.59
  -4 -11   4    7.53    0.70
   3  11  -4   96.57    2.01
   3 -11  -4   97.37    2.05
   3 -11  -4   96.46    1.82
  -3 -11   4   96.63    1.93
   2 -11  -4    8.41    0.81
   2  11  -4    8.53    0.80
   2 -11  -4    8.50    0.71
  -2 -11   4    8.66    0.81
   1 -11  -4   39.46    1.36
   1  11  -4   39.12    1.36
   1 -11  -4   40.22    1.30
  -1 -11   4   38.67    1.36
   0 -11  -4    4.99    0.63
   0  11  -4    5.68    0.71
  -1 -11  -4    0.23    0.49
  -1  11  -4    0.91    0.58
  -2 -11  -4   31.12    1.35
  -2  11  -4   29.71    1.30
  -3 -11  -4   48.61    1.68
  -3  11  -4   45.69    1.57
  -4 -11  -4    0.29    0.71
  -4  11  -4    0.40    0.70
  -5 -11  -4    0.58    0.73
   7 -12  -4    6.53    0.88
   6 -12  -4    1.70    0.76
   6  12  -4    0.35    0.51
   5  12  -4   13.30    0.93
   5 -12  -4   13.25    1.05
  -4 -12   4    0.04    0.53
   4  12  -4    0.04    0.59
   4 -12  -4    0.07    0.61
   3 -12  -4   49.02    1.56
   3  12  -4   50.79    1.56
   3 -12  -4   52.81    1.43
  -3 -12   4   50.66    1.49
   2  12  -4  142.09    2.49
   2 -12  -4  140.98    2.35
   2 -12  -4  138.71    2.53
  -2 -12   4  140.53    2.47
   1  12  -4  139.62    2.46
   1 -12  -4  138.84    2.41
   1 -12  -4  141.43    2.51
  -1 -12   4  142.65    2.55
   0 -12  -4    0.71    0.53
   0 -12   4    0.74    0.69
   0  12  -4    0.63    0.59
  -1 -12  -4   36.63    1.37
  -1  12  -4   37.80    1.41
  -2 -12  -4    1.96    0.63
  -2  12  -4    1.38    0.74
  -3 -12  -4    0.22    0.65
  -3  12  -4    0.13    0.73
  -4 -12  -4    0.32    0.61
  -4  12  -4   -0.40    0.76
   7 -13  -4    1.66    0.72
   6 -13  -4    1.44    0.71
   6  13  -4    1.27    0.67
   5  13  -4   35.42    1.46
   5 -13  -4   36.44    1.47
   4  13  -4    5.14    0.80
  -4 -13   4    4.90    0.67
   4 -13  -4    5.18    0.86
   3 -13  -4   11.19    0.94
   3  13  -4   11.31    0.93
   3 -13  -4   10.73    0.81
  -3 -13   4   10.39    0.90
   2  13  -4    8.15    0.89
   2 -13  -4    8.27    0.78
  -2 -13   4    8.12    0.87
   2 -13  -4    8.48    0.91
   1  13  -4   17.91    1.07
   1 -13  -4   16.30    0.99
   1 -13  -4   14.74    1.01
  -1 -13   4   17.23    1.09
   0 -13  -4    0.94    0.56
   0 -13   4    0.90    0.69
   0  13  -4    1.34    0.68
  -1 -13  -4    0.03    0.58
   1 -13   4    0.19    0.71
  -1  13  -4    0.07    0.73
  -2 -13  -4    3.34    0.73
  -2  13  -4    3.06    0.86
  -3 -13  -4    0.26    0.64
  -3  13  -4    0.04    0.74
  -4 -13  -4    2.17    0.82
  -4  13  -4    2.30    0.87
   6 -14  -4    4.06    0.80
   5  14  -4    9.70    0.95
   5 -14  -4    9.65    0.99
  -4 -14   4    3.46    0.64
   4  14  -4    3.10    0.71
   4 -14  -4    3.32    0.72
   3 -14  -4   34.55    1.47
   3  14  -4   36.16    1.44
   3 -14  -4   33.98    1.30
  -3 -14   4   33.58    1.38
   2 -14  -4   39.50    1.51
   2 -14  -4   40.10    1.43
  -2 -14   4   39.70    1.48
   2  14  -4   40.86    1.56
   1 -14  -4    4.25    0.68
  -1 -14   4    4.47    0.80
   1  14  -4    3.90    0.78
   0  14  -4    8.06    0.90
   0 -14  -4    7.80    0.82
   0 -14   4    8.10    0.96
  -1 -14  -4   28.74    1.33
  -1  14  -4   27.83    1.42
   1 -14   4   27.43    1.44
  -2 -14  -4   -0.04    0.65
   2 -14   4   -0.09    0.73
  -2  14  -4    0.26    0.87
  -3 -14  -4    0.43    0.67
   3 -14   4    0.32    0.80
  -3  14  -4   -0.17    0.85
  -4  14  -4    2.74    0.89
   5  15  -4   -0.18    0.66
   5 -15  -4    0.76    0.72
  -4 -15   4    0.03    0.55
   4 -15  -4   -0.88    0.66
   4  15  -4    0.09    0.68
   3 -15  -4    1.29    0.57
  -3 -15   4    0.60    0.63
   3 -15  -4    1.53    0.71
   3  15  -4    0.83    0.70
   2 -15  -4    0.21    0.51
  -2 -15   4    0.01    0.71
   2 -15  -4    0.88    0.70
   2  15  -4    0.36    0.67
   1 -15  -4    0.21    0.62
  -1 -15   4    0.46    0.74
   1  15  -4    0.70    0.71
   0 -15  -4    0.59    0.63
   0 -15   4   -0.21    0.73
   0  15  -4    0.27    0.73
  -1 -15  -4    1.61    0.69
   1 -15   4    0.43    0.80
  -1  15  -4    1.25    0.87
  -2 -15  -4   -0.36    0.62
   2 -15   4    0.11    0.84
  -2  15  -4    0.05    0.85
  -3  15  -4   -0.13    0.88
   5  16  -4   13.70    1.10
  -4 -16   4    0.35    0.58
   4 -16  -4   -1.21    0.76
   4  16  -4    0.09    0.69
   3 -16  -4   17.46    1.21
   3  16  -4   16.28    1.13
   3 -16  -4   15.07    1.00
  -3 -16   4   14.92    1.10
  -2 -16   4    7.19    0.96
   2 -16  -4    8.13    1.03
   2  16  -4    7.72    0.94
   2 -16  -4    8.15    0.86
   1  16  -4   17.51    1.22
   1 -16  -4   17.43    1.14
  -1 -16   4   17.52    1.23
   0 -16  -4    1.32    0.68
   0 -16   4    1.54    0.82
   0  16  -4    1.66    0.84
  -1 -16  -4   17.69    1.19
  -1  16  -4   19.21    1.34
   1 -16   4   15.28    1.30
  -4 -17   4    0.77    0.72
   3 -17  -4   -0.28    0.69
  -3 -17   4    0.14    0.66
   3  17  -4    0.24    0.68
   2 -17  -4    0.82    0.61
  -2 -17   4    0.36    0.79
   2 -17  -4    1.05    0.79
   2  17  -4    0.58    0.82
   1 -17  -4    5.06    0.80
  -1 -17   4    5.87    1.03
   3 -18  -4    0.73    0.76
  10   0  -5    0.09    0.72
   9   0  -5    0.10    0.59
   9   0  -5   -1.30    0.71
   8   0  -5   -0.28    0.54
   8   0  -5    0.02    0.62
   7   0  -5    0.19    0.53
   7   0  -5    0.01    0.61
   6   0  -5   -0.01    0.42
   6   0  -5    0.03    0.48
   5   0  -5   -0.11    0.43
   5   0  -5    0.15    0.48
   4   0  -5   -0.06    0.38
   4   0  -5   -0.04    0.44
   3   0  -5   -0.01    0.35
   3   0  -5    0.27    0.42
   2   0  -5    0.17    0.42
   2   0  -5   -0.03    0.44
   2   0  -5    0.12    0.32
   1   0  -5   -0.19    0.39
   1   0  -5    0.10    0.31
   1   0  -5    0.07    0.40
   0   0  -5    0.17    0.43
   0   0  -5   -0.08    0.34
  -1   0  -5    0.10    0.43
  -1   0  -5   -0.12    0.36
  -2   0  -5   -0.04    0.48
  -3   0  -5   -0.25    0.56
  -4   0  -5   -0.07    0.71
  -5   0  -5    0.07    0.66
  -6   0  -5   -0.23    0.75
  10  -1  -5    0.57    0.84
  10   1  -5    0.37    0.73
   9  -1  -5    0.72    0.60
   9   1  -5    1.35    0.58
   9  -1  -5    1.21    0.80
   9   1  -5    1.08    0.66
   8  -1  -5   11.06    0.95
   8   1  -5   10.81    0.91
   8  -1  -5   11.64    0.93
   8   1  -5   11.91    0.89
   7  -1  -5    0.06    0.51
   7  -1  -5    0.08    0.54
   7   1  -5    0.23    0.49
   7   1  -5   -0.20    0.56
   6   1  -5   26.11    1.00
   6  -1  -5   26.91    1.11
   6   1  -5   25.59    1.08
   6  -1  -5   26.85    1.06
   5  -1  -5   14.05    0.83
   5   1  -5   14.72    0.84
   5  -1  -5   14.11    0.77
   5   1  -5   14.71    0.75
   4  -1  -5   41.11    1.21
   4   1  -5   45.25    1.28
   4  -1  -5   45.05    1.12
   4   1  -5   44.88    1.07
   3  -1  -5   15.32    0.77
   3   1  -5   17.70    0.84
   3  -1  -5   15.83    0.69
   3   1  -5   17.79    0.64
   2  -1  -5   76.30    1.51
   2   1  -5   77.66    1.55
   2   1  -5   77.28    1.11
   2  -1  -5   78.22    1.28
   2   1  -5   72.33    1.60
   2  -1  -5   73.20    1.59
   1   1  -5   10.30    0.65
   1  -1  -5   11.82    0.58
   1  -1  -5   10.63    0.67
   1   1  -5   10.68    0.72
   1  -1  -5    9.78    0.71
   0  -1  -5   10.55    0.62
   0   1  -5   11.09    0.64
   0   1  -5    9.83    0.72
   0  -1  -5    9.75    0.73
  -1   1  -5   56.20    1.22
  -1   1  -5   52.27    1.46
  -1  -1  -5   52.78    1.44
  -2   1  -5   23.08    1.08
  -2  -1  -5   24.98    1.11
  -3   1  -5    9.39    0.83
  -3  -1  -5   10.35    0.88
  -4   1  -5    3.76    0.74
  -4  -1  -5    3.15    0.74
  -5   1  -5    1.50    0.69
  -5  -1  -5    0.92    0.66
  -6  -1  -5    0.03    0.75
  10   2  -5    0.54    0.86
  10  -2  -5    0.06    0.85
   9   2  -5    3.56    0.81
   9  -2  -5    4.27    0.75
   9   2  -5    3.47    0.66
   9  -2  -5    3.51    0.84
   8   2  -5    8.11    0.86
   8  -2  -5    7.86    0.81
   8   2  -5    8.13    0.82
   8  -2  -5    9.01    0.88
   7  -2  -5    4.63    0.72
   7   2  -5    3.96    0.66
   7   2  -5    3.87    0.64
   7  -2  -5    4.62    0.68
   6   2  -5    6.61    0.64
   6  -2  -5    6.72    0.72
   6   2  -5    6.19    0.67
   6  -2  -5    6.59    0.70
   5  -2  -5    6.22    0.64
   5   2  -5    5.40    0.64
   5  -2  -5    7.15    0.66
   5   2  -5    6.70    0.55
   4  -2  -5    8.68    0.71
   4   2  -5    8.12    0.69
   4  -2  -5    8.19    0.62
   4   2  -5    8.19    0.53
   3  -2  -5    0.01    0.35
   3  -2  -5    0.00    0.43
   3   2  -5   -0.04    0.45
   2  -2  -5   23.01    0.88
   2   2  -5   24.32    0.94
   2  -2  -5   23.68    0.81
   2   2  -5   23.86    0.97
   2  -2  -5   23.96    0.95
   1  -2  -5   15.35    0.67
   1  -2  -5   14.62    0.71
   1   2  -5   15.35    0.77
   1  -2  -5   14.67    0.78
   1   2  -5   13.84    0.80
   1  -2  -5   15.25    0.82
   0   2  -5    1.06    0.43
   0  -2  -5    1.51    0.47
   0  -2  -5    1.38    0.51
   0  -2  -5    1.53    0.39
   0   2  -5    1.23    0.42
  -1   2  -5    1.77    0.48
  -1  -2  -5    2.23    0.50
  -1   2  -5    1.59    0.43
  -2   2  -5   -0.03    0.46
  -2  -2  -5   -0.05    0.51
  -3   2  -5    1.36    0.58
  -3  -2  -5    1.41    0.57
  -4   2  -5    4.89    0.76
  -4  -2  -5    4.44    0.77
  -5   2  -5    4.20    0.79
  -5  -2  -5    3.88    0.84
  10   3  -5   15.47    1.23
  10  -3  -5   15.74    1.24
   9   3  -5   17.43    1.12
   9   3  -5   16.75    1.03
   9  -3  -5   15.13    1.15
   8   3  -5    0.08    0.58
   8  -3  -5    0.38    0.59
   8  -3  -5    0.49    0.59
   8   3  -5    0.12    0.59
   7   3  -5    0.22    0.49
   7  -3  -5    0.45    0.57
   7  -3  -5    0.02    0.55
   7   3  -5    0.17    0.53
   6  -3  -5    0.37    0.51
   6  -3  -5    0.44    0.52
   6   3  -5    0.36    0.53
   6   3  -5    0.36    0.46
   5   3  -5    6.17    0.56
   5  -3  -5    5.42    0.63
   5   3  -5    5.52    0.63
   5  -3  -5    5.94    0.62
   4  -3  -5   14.07    0.80
   4   3  -5   15.27    0.85
   4  -3  -5   15.06    0.79
   3  -3  -5    1.42    0.46
   3  -3  -5    1.62    0.48
   3   3  -5    1.16    0.46
   3  -3  -5    1.39    0.36
   2  -3  -5    6.02    0.54
   2  -3  -5    6.78    0.60
   2   3  -5    6.84    0.62
   2  -3  -5    6.39    0.54
   2   3  -5    5.86    0.62
   2  -3  -5    6.18    0.57
   1  -3  -5   15.67    0.81
   1  -3  -5   14.92    0.72
   1   3  -5   15.53    0.78
   1  -3  -5   15.35    0.72
   1   3  -5   15.51    0.84
   1  -3  -5   14.88    0.79
   0   3  -5    0.33    0.44
   0  -3  -5    0.64    0.45
   0  -3  -5    0.50    0.35
   0   3  -5    0.52    0.43
   0  -3  -5    0.49    0.48
  -1  -3  -5    5.85    0.69
  -1   3  -5    5.57    0.54
  -1   3  -5    5.61    0.63
  -1  -3  -5    6.15    0.63
  -2   3  -5    2.50    0.55
  -2  -3  -5    2.69    0.60
  -2  -3  -5    2.16    0.62
  -3   3  -5   18.78    1.09
  -3  -3  -5   20.65    1.13
  -4   3  -5    2.91    0.69
  -4  -3  -5    2.39    0.67
  -5  -3  -5   18.26    1.21
  -5   3  -5   20.27    1.31
  10   4  -5    1.98    0.82
   9   4  -5   30.48    1.38
   9  -4  -5   29.80    1.51
   8   4  -5   64.54    1.71
   8   4  -5   63.23    1.71
   8  -4  -5   67.50    1.92
   7   4  -5    6.62    0.72
   7  -4  -5    5.98    0.78
   7   4  -5    6.89    0.71
   7  -4  -5    6.53    0.76
   6  -4  -5    0.65    0.51
   6  -4  -5    0.42    0.49
   6   4  -5    0.18    0.51
   6   4  -5    0.53    0.45
   5  -4  -5   21.68    1.00
   5   4  -5   20.50    0.98
   5  -4  -5   21.01    0.97
   4  -4  -5   13.44    0.82
   4   4  -5   13.83    0.85
   4  -4  -5   14.28    0.81
   3  -4  -5    3.62    0.43
   3  -4  -5    2.77    0.54
   3   4  -5    3.12    0.53
   3  -4  -5    3.13    0.51
   2  -4  -5   16.19    0.77
   2   4  -5   17.13    0.85
   2  -4  -5   16.66    0.77
   2   4  -5   16.31    0.85
   2  -4  -5   15.06    0.77
   2  -4  -5   16.25    0.76
   1  -4  -5   28.28    0.92
   1  -4  -5   26.86    0.92
   1   4  -5   26.37    0.99
   1  -4  -5   27.22    1.01
   1   4  -5   26.14    1.04
   1  -4  -5   27.19    1.01
   0  -4  -5  134.34    1.76
   0  -4  -5  133.92    2.23
   0   4  -5  135.97    2.02
   0   4  -5  135.23    2.26
   0  -4  -5  135.09    2.19
  -1   4  -5    3.77    0.57
  -1   4  -5    3.75    0.55
  -1  -4  -5    4.16    0.64
  -1  -4  -5    4.41    0.58
  -2   4  -5    3.60    0.61
  -2  -4  -5    3.41    0.66
  -2  -4  -5    3.80    0.69
  -3  -4  -5   94.68    2.12
  -3  -4  -5  101.10    2.33
  -3   4  -5   95.62    2.18
  -4  -4  -5   80.90    2.10
  -4   4  -5   80.67    2.13
  -5   4  -5   -0.11    0.69
  -5  -4  -5    0.10    0.67
  10   5  -5   -0.04    0.78
   9   5  -5    0.72    0.72
   9  -5  -5    0.83    0.76
   8   5  -5   46.84    1.49
   8  -5  -5   46.14    1.68
   8   5  -5   44.69    1.50
   7   5  -5   48.87    1.36
   7   5  -5   54.63    1.58
   7  -5  -5   51.42    1.64
   6  -5  -5   12.02    0.87
   6   5  -5   13.89    0.90
   6  -5  -5   13.40    0.91
   5  -5  -5   77.64    1.79
   5   5  -5   78.47    1.75
   5  -5  -5   82.03    1.76
   4  -5  -5  100.97    1.93
   4   5  -5  101.64    1.96
   4  -5  -5  100.37    1.88
   3  -5  -5    1.84    0.41
   3  -5  -5    1.87    0.52
   3   5  -5    1.52    0.49
   3  -5  -5    2.04    0.48
   2   5  -5    3.32    0.57
   2  -5  -5    2.84    0.49
   2  -5  -5    3.33    0.47
   2  -5  -5    2.48    0.50
   2   5  -5    3.11    0.55
   2  -5  -5    2.79    0.52
   1  -5  -5   58.77    1.29
   1  -5  -5   56.57    1.35
   1  -5  -5   56.52    1.41
   1   5  -5   56.69    1.40
   1   5  -5   58.08    1.47
   1  -5  -5   58.71    1.41
   0  -5  -5   38.42    0.99
   0  -5  -5   39.87    1.29
   0   5  -5   39.47    1.21
   0   5  -5   39.42    1.28
   0  -5  -5   38.94    1.22
  -1  -5  -5    9.42    0.80
  -1   5  -5   10.05    0.70
  -1   5  -5    9.39    0.74
  -1  -5  -5    8.97    0.69
  -2   5  -5    0.43    0.51
  -2  -5  -5    0.55    0.51
  -2   5  -5    0.36    0.50
  -2  -5  -5    0.62    0.58
  -3   5  -5    2.08    0.64
  -3  -5  -5    1.81    0.62
  -3  -5  -5    1.74    0.70
  -4  -5  -5   15.12    1.05
  -4  -5  -5   15.40    1.16
  -4   5  -5   14.70    1.04
  -5   5  -5    0.19    0.69
  -5  -5  -5    0.04    0.69
   9  -6  -5   11.14    1.13
   8   6  -5   56.73    1.71
   8  -6  -5   57.42    1.84
   7   6  -5   12.43    0.91
   7  -6  -5   12.62    1.01
   6  -6  -5    0.09    0.63
   6   6  -5    0.34    0.52
   5  -6  -5    0.21    0.53
   5  -6  -5    0.66    0.52
   5   6  -5    0.14    0.45
   4  -6  -5    6.29    0.66
   4   6  -5    5.59    0.67
   4  -6  -5    6.04    0.65
   3  -6  -5   17.06    0.85
   3  -6  -5   18.64    0.77
   3   6  -5   17.38    0.89
   3  -6  -5   15.62    0.86
   2  -6  -5    4.72    0.54
   2  -6  -5    4.84    0.53
   2   6  -5    4.65    0.57
   2  -6  -5    4.47    0.60
   2   6  -5    3.77    0.59
   2  -6  -5    4.70    0.52
   1  -6  -5   18.02    0.78
   1  -6  -5   17.84    0.86
   1  -6  -5   17.44    0.88
   1   6  -5   17.94    0.90
   1   6  -5   16.73    0.87
   1  -6  -5   17.75    0.83
   0  -6  -5   27.89    1.12
   0   6  -5   30.15    1.09
   0   6  -5   28.87    1.12
   0  -6  -5   31.39    1.10
  -1   6  -5    1.52    0.50
  -1  -6  -5    1.41    0.45
  -1   6  -5    1.56    0.51
  -1  -6  -5    1.21    0.56
  -2  -6  -5   40.89    1.49
  -2   6  -5   42.67    1.27
  -2   6  -5   41.24    1.44
  -2  -6  -5   43.02    1.38
  -3  -6  -5   76.53    2.08
  -3   6  -5   77.05    1.98
  -3  -6  -5   73.24    1.89
  -4  -6  -5    8.45    0.91
  -4  -6  -5   10.40    1.04
  -4   6  -5    9.45    0.97
  -5   6  -5    2.56    0.80
  -5  -6  -5    2.75    0.71
  -5  -6  -5    2.96    0.85
   9  -7  -5    1.65    0.85
   8   7  -5   37.81    1.48
   8  -7  -5   36.37    1.61
   7   7  -5   67.00    1.81
   7  -7  -5   64.02    1.90
   6   7  -5   15.46    0.96
   6  -7  -5   15.37    1.00
   5   7  -5   31.75    1.26
   5  -7  -5   32.88    1.26
   4   7  -5   98.29    2.01
   4  -7  -5   95.55    1.95
   3  -7  -5   14.95    0.73
   3   7  -5   13.12    0.82
   3  -7  -5   14.18    0.87
   2  -7  -5   15.07    0.77
   2  -7  -5   15.14    0.85
   2   7  -5   14.50    0.87
   2  -7  -5   15.56    0.73
   1  -7  -5   71.07    1.61
   1  -7  -5   73.97    1.66
   1   7  -5   75.41    1.70
   1   7  -5   70.81    1.67
   1  -7  -5   74.83    1.55
   0  -7  -5   23.16    1.05
   0   7  -5   24.03    1.03
   0   7  -5   23.91    1.06
   0  -7  -5   23.87    0.97
  -1  -7  -5    3.97    0.63
  -1   7  -5    5.16    0.66
  -1   7  -5    4.60    0.65
  -1  -7  -5    4.34    0.58
  -2  -7  -5   15.01    1.02
  -2   7  -5   16.82    0.91
  -2   7  -5   15.66    0.99
  -2  -7  -5   16.00    0.94
  -3   7  -5    4.04    0.72
  -3  -7  -5    4.56    0.72
  -3  -7  -5    3.73    0.78
  -4   7  -5    4.53    0.79
  -4  -7  -5    4.43    0.76
  -4  -7  -5    4.81    0.82
  -5  -7  -5    7.12    0.97
  -5  -7  -5    6.69    1.02
  -5   7  -5    7.33    0.91
   9  -8  -5    1.19    0.88
   8  -8  -5    4.82    0.82
   8   8  -5    4.56    0.74
   7   8  -5   39.26    1.43
   7  -8  -5   36.05    1.50
   6  -8  -5    0.19    0.60
   6   8  -5    0.16    0.50
   5  -8  -5   -0.06    0.55
   5   8  -5    0.22    0.57
   4   8  -5    0.25    0.49
   4  -8  -5   -0.04    0.49
   3   8  -5   22.92    1.06
   3  -8  -5   25.04    0.94
   3  -8  -5   23.98    1.08
   2  -8  -5   19.85    1.02
   2  -8  -5   20.12    0.92
   2   8  -5   18.11    0.96
   1  -8  -5   17.40    0.94
   1  -8  -5   17.10    0.92
   1   8  -5   17.06    0.93
   1   8  -5   16.58    0.92
   0  -8  -5    1.18    0.51
   0   8  -5    0.89    0.47
   0  -8  -5    0.76    0.43
   0   8  -5    0.98    0.56
  -1  -8  -5   -0.10    0.51
  -1   8  -5   -0.10    0.46
  -1  -8  -5    0.27    0.46
  -1   8  -5    0.04    0.53
  -2   8  -5   92.17    1.94
  -2   8  -5   96.37    2.15
  -2  -8  -5   98.82    2.28
  -2  -8  -5   99.64    2.05
  -3  -8  -5   21.32    1.25
  -3   8  -5   23.06    1.20
  -3  -8  -5   22.08    1.13
  -4   8  -5    4.45    0.72
  -4  -8  -5    3.58    0.69
  -4  -8  -5    5.03    0.96
  -5   8  -5    0.37    0.70
  -5  -8  -5   -0.06    0.69
   8  -9  -5    6.58    0.93
   7  -9  -5    0.12    0.78
   7   9  -5    0.06    0.60
   6  -9  -5    0.79    0.63
   6   9  -5    1.33    0.60
   5  -9  -5    5.18    0.77
   5   9  -5    5.02    0.72
   4   9  -5    2.29    0.60
   4  -9  -5    1.23    0.55
   3   9  -5    7.32    0.79
   3  -9  -5    7.39    0.62
   3  -9  -5    8.28    0.78
  -3  -9   5    7.77    0.72
   2  -9  -5    1.71    0.48
   2  -9  -5    2.14    0.62
   2   9  -5    1.82    0.63
   1  -9  -5    0.18    0.49
   1   9  -5    0.27    0.41
   1  -9  -5   -0.14    0.53
   1   9  -5    0.10    0.58
   0  -9  -5    0.22    0.49
   0   9  -5    0.06    0.41
   0   9  -5    0.51    0.57
  -1  -9  -5    1.12    0.59
  -1   9  -5    0.52    0.51
  -1   9  -5    1.20    0.59
  -2  -9  -5    0.43    0.63
  -2   9  -5    0.33    0.53
  -2   9  -5    0.58    0.60
  -3  -9  -5    0.00    0.66
  -3   9  -5    0.24    0.56
  -4  -9  -5   10.11    1.07
  -4   9  -5    9.51    0.86
   8 -10  -5    0.17    0.77
   7 -10  -5    0.64    0.68
   7  10  -5    0.27    0.59
   6 -10  -5   -0.07    0.65
   6  10  -5    0.17    0.61
   5  10  -5    1.52    0.55
   5 -10  -5    1.27    0.63
   4  10  -5    3.91    0.63
   4 -10  -5    4.45    0.70
   3 -10  -5    1.81    0.50
  -3 -10   5    1.41    0.58
   3  10  -5    0.87    0.62
   3 -10  -5    1.06    0.59
   2 -10  -5    7.44    0.78
   2 -10  -5    6.40    0.68
   2  10  -5    6.86    0.80
   1 -10  -5    6.36    0.77
   1 -10  -5    6.30    0.71
   1  10  -5    6.70    0.79
   1  10  -5    6.66    0.67
   0 -10  -5    0.17    0.55
   0  10  -5    0.09    0.48
   0  10  -5    0.56    0.60
  -1 -10  -5    0.15    0.55
  -1  10  -5   -0.08    0.49
  -1  10  -5    0.26    0.57
  -2 -10  -5    6.32    0.84
  -2  10  -5    6.97    0.81
  -2  10  -5    7.33    0.75
  -3 -10  -5    4.11    0.77
  -3  10  -5    4.71    0.78
  -4 -10  -5    0.38    0.77
   7 -11  -5   -0.13    0.71
   7  11  -5    0.21    0.61
   6 -11  -5   -0.21    0.65
   6  11  -5    0.08    0.61
   5  11  -5    7.66    0.81
   5 -11  -5    6.88    0.89
   4  11  -5    1.34    0.65
   4 -11  -5    1.72    0.67
   3 -11  -5    0.47    0.48
  -3 -11   5    0.41    0.58
   3 -11  -5    0.32    0.53
   3  11  -5    0.11    0.64
   2 -11  -5    7.08    0.83
   2  11  -5    6.30    0.87
   2 -11  -5    6.87    0.73
  -2 -11   5    5.68    0.79
   1 -11  -5   38.24    1.43
   1 -11  -5   39.03    1.39
   1  11  -5   38.87    1.45
   0 -11  -5    0.77    0.55
   0  11  -5    0.32    0.60
  -1 -11  -5    4.97    0.76
  -1  11  -5    5.15    0.77
  -2 -11  -5    3.23    0.76
  -2  11  -5    3.28    0.77
  -3 -11  -5    2.01    0.80
  -3  11  -5    1.48    0.68
   7  12  -5   26.70    1.34
   7 -12  -5   25.70    1.40
   6  12  -5    2.48    0.76
   6 -12  -5    1.63    0.74
   5  12  -5   32.43    1.41
   5 -12  -5   30.85    1.41
   4  12  -5  128.39    2.61
   4 -12  -5  130.98    2.62
   3 -12  -5   85.35    2.13
   3  12  -5   85.79    2.13
   3 -12  -5   83.35    1.88
  -3 -12   5   85.76    2.02
   2 -12  -5   41.27    1.55
   2  12  -5   41.30    1.57
   2 -12  -5   40.03    1.40
  -2 -12   5   42.07    1.51
   1 -12  -5   89.40    2.08
   1  12  -5   93.25    2.19
  -1 -12   5   91.37    2.20
   0 -12  -5   12.56    0.94
   0  12  -5   13.59    1.00
  -1 -12  -5    0.16    0.69
  -1  12  -5    0.46    0.71
  -2 -12  -5   13.80    1.11
  -2  12  -5   14.56    1.07
  -3 -12  -5    0.79    0.74
  -3  12  -5    0.15    0.70
   6  13  -5    0.13    0.66
   6 -13  -5   -0.86    0.70
   5  13  -5    1.86    0.68
   5 -13  -5    1.50    0.77
   4  13  -5    0.21    0.71
   4 -13  -5    0.07    0.66
   3 -13  -5    0.68    0.54
  -3 -13   5    1.26    0.71
   3 -13  -5    0.85    0.72
   3  13  -5    1.49    0.81
   2 -13  -5   11.73    1.03
   2  13  -5   11.83    1.02
   2 -13  -5   11.87    0.92
  -2 -13   5   11.81    0.96
   1 -13  -5   32.00    1.34
   1  13  -5   31.78    1.47
  -1 -13   5   32.50    1.47
   0 -13  -5   19.04    1.15
   0  13  -5   19.73    1.23
   0 -13   5   18.91    1.27
  -1 -13  -5    0.02    0.62
  -1  13  -5    0.65    0.73
  -2 -13  -5    3.43    0.82
  -2  13  -5    3.13    0.80
  -3  13  -5    0.85    0.72
   6  14  -5   -0.12    0.71
   5  14  -5    2.70    0.73
   5 -14  -5    2.80    0.88
   4 -14  -5   21.64    1.35
   4  14  -5   21.97    1.28
   3 -14  -5   10.13    1.06
   3  14  -5   10.03    1.03
   3 -14  -5   10.45    0.89
  -3 -14   5   11.28    0.97
   2 -14  -5    1.68    0.64
  -2 -14   5    1.45    0.75
   2 -14  -5    1.81    0.80
   2  14  -5    1.39    0.75
   1 -14  -5    3.64    0.68
  -1 -14   5    4.60    0.91
   1  14  -5    3.86    0.85
   0 -14  -5    0.16    0.61
   0 -14   5    0.58    0.77
   0  14  -5    0.29    0.74
  -1 -14  -5    0.54    0.64
   1 -14   5   -0.53    0.78
  -1  14  -5   -0.91    0.79
  -2  14  -5    0.59    0.86
   5  15  -5    5.75    0.83
   4 -15  -5    1.04    0.77
   4  15  -5    0.17    0.69
   3 -15  -5    1.36    0.64
  -3 -15   5    1.07    0.73
   3 -15  -5    0.77    0.82
   3  15  -5    1.07    0.77
   2 -15  -5    0.74    0.60
  -2 -15   5    0.36    0.74
   2 -15  -5    0.22    0.77
   2  15  -5    0.43    0.76
   1 -15  -5    2.77    0.72
  -1 -15   5    2.88    0.91
   1  15  -5    3.33    0.89
   0 -15  -5    5.11    0.83
   0 -15   5    4.76    0.97
   0  15  -5    5.04    0.99
  -3 -16   5    2.86    0.85
   2 -16  -5    0.62    0.68
  -2 -16   5    0.50    0.74
   1 -16  -5    0.71    0.67
  10   0  -6   14.76    1.12
  10   0  -6   15.16    1.16
   9   0  -6    0.39    0.69
   9   0  -6    0.33    0.69
   8   0  -6    6.96    0.83
   8   0  -6    6.86    0.85
   7   0  -6   74.22    1.96
   7   0  -6   80.34    1.86
   6   0  -6   97.09    2.12
   6   0  -6   99.81    1.90
   5   0  -6   31.90    1.23
   5   0  -6   32.36    1.07
   4   0  -6   32.13    1.23
   3   0  -6  350.41    3.61
   3   0  -6  349.72    3.71
   2   0  -6   23.81    1.03
   2   0  -6   25.31    1.11
   1   0  -6    2.49    0.56
   1   0  -6    2.80    0.54
   0   0  -6    3.79    0.64
   0   0  -6    3.41    0.51
  -1   0  -6   -0.26    0.53
  -2   0  -6   12.78    0.98
  -3   0  -6    2.65    0.67
  -4   0  -6    0.16    0.73
  10  -1  -6    1.54    0.86
  10  -1  -6    1.65    0.73
  10   1  -6    1.89    0.78
  10   1  -6    1.28    0.83
   9  -1  -6    1.92    0.72
   9  -1  -6    1.80    0.78
   9   1  -6    1.83    0.73
   9   1  -6    2.57    0.67
   8  -1  -6    2.37    0.62
   8   1  -6    1.57    0.64
   8  -1  -6    1.36    0.67
   8   1  -6    1.74    0.68
   7  -1  -6    0.34    0.57
   7   1  -6    0.48    0.54
   7  -1  -6    0.80    0.66
   7   1  -6    0.13    0.60
   6  -1  -6   18.25    1.07
   6   1  -6   18.13    1.03
   6  -1  -6   19.51    0.98
   6   1  -6   20.38    0.94
   5  -1  -6    6.56    0.73
   5   1  -6    5.65    0.71
   5  -1  -6    5.62    0.64
   4  -1  -6   87.21    1.88
   4   1  -6   88.12    1.92
   4  -1  -6   91.53    1.65
   3  -1  -6  452.67    3.98
   3   1  -6  478.71    4.23
   3   1  -6  477.59    4.37
   3  -1  -6  468.28    4.28
   2  -1  -6  155.34    2.32
   2   1  -6  161.00    2.42
   2   1  -6  159.17    2.56
   2  -1  -6  158.62    2.51
   1  -1  -6   12.86    0.77
   1   1  -6   14.12    0.80
   1   1  -6   13.07    0.88
   1  -1  -6   12.96    0.85
   0  -1  -6   70.90    1.49
   0   1  -6   73.34    1.58
   0   1  -6   71.38    1.84
   0  -1  -6   68.60    1.79
  -1   1  -6   43.10    1.52
  -1  -1  -6   41.75    1.48
  -2   1  -6    1.81    0.59
  -2  -1  -6    2.05    0.65
  -3   1  -6    1.97    0.70
  -3  -1  -6    1.43    0.64
  -4   1  -6   10.14    1.02
  -4  -1  -6    8.72    1.02
  10   2  -6    6.81    0.88
  10   2  -6    8.57    1.01
   9  -2  -6    6.35    0.84
   9  -2  -6    6.02    0.83
   9   2  -6    6.65    0.91
   9   2  -6    5.23    0.82
   8  -2  -6    3.25    0.78
   8  -2  -6    2.45    0.71
   8   2  -6    2.58    0.73
   8   2  -6    2.76    0.68
   7   2  -6    5.35    0.73
   7  -2  -6    5.30    0.80
   7  -2  -6    5.76    0.76
   6  -2  -6    8.80    0.86
   6   2  -6    7.33    0.78
   6  -2  -6    8.41    0.80
   5  -2  -6    0.16    0.48
   5  -2  -6    0.22    0.52
   5   2  -6    0.14    0.56
   4  -2  -6   20.49    1.02
   4   2  -6   21.01    1.04
   4  -2  -6   21.00    0.92
   3  -2  -6   17.66    0.97
   3   2  -6   19.06    0.97
   3  -2  -6   18.06    0.85
   3  -2  -6   20.28    0.98
   2   2  -6    0.28    0.48
   2  -2  -6    0.34    0.49
   2  -2  -6    0.50    0.46
   2  -2  -6    0.16    0.48
   2   2  -6    0.26    0.45
   1   2  -6    3.81    0.61
   1  -2  -6    3.24    0.57
   1  -2  -6    2.87    0.51
   1   2  -6    3.24    0.55
   0   2  -6    2.25    0.59
   0  -2  -6    3.07    0.62
   0   2  -6    2.87    0.54
  -1   2  -6    5.95    0.74
  -1  -2  -6    5.88    0.73
  -2   2  -6    0.14    0.57
  -2  -2  -6    0.25    0.56
  -3   2  -6    1.93    0.64
  -3  -2  -6    1.03    0.64
  -4   2  -6    1.36    0.79
  -4  -2  -6    2.29    0.78
   9  -3  -6    2.84    0.78
   9  -3  -6    3.03    0.76
   9   3  -6    3.47    0.76
   8  -3  -6   10.07    0.98
   8   3  -6    9.18    0.92
   8  -3  -6    8.83    0.91
   7  -3  -6   -0.04    0.60
   7  -3  -6   -0.58    0.62
   7   3  -6   -0.16    0.61
   6  -3  -6    8.28    0.83
   6   3  -6    7.94    0.79
   6  -3  -6    8.69    0.76
   5  -3  -6    1.70    0.53
   5  -3  -6    1.88    0.61
   5   3  -6    2.22    0.61
   4  -3  -6    0.57    0.45
   4  -3  -6    0.62    0.53
   4   3  -6    0.35    0.51
   3  -3  -6    6.31    0.70
   3   3  -6    6.10    0.68
   3  -3  -6    6.83    0.65
   3  -3  -6    6.55    0.66
   2   3  -6    4.14    0.61
   2  -3  -6    3.98    0.58
   2  -3  -6    3.66    0.54
   2  -3  -6    3.58    0.55
   2   3  -6    3.70    0.58
   1  -3  -6    5.76    0.60
   1   3  -6    5.15    0.61
   1   3  -6    5.51    0.66
   1  -3  -6    5.60    0.65
   0   3  -6    0.00    0.52
   0  -3  -6    0.03    0.49
   0   3  -6    0.05    0.42
  -1   3  -6    0.48    0.56
  -1  -3  -6    0.76    0.55
  -2   3  -6   16.72    1.07
  -2  -3  -6   16.80    1.05
  -3   3  -6   57.40    1.87
  -3  -3  -6   60.47    1.92
  -4   3  -6    4.30    0.82
  -4  -3  -6    3.57    0.81
   9  -4  -6    2.30    0.81
   9   4  -6    1.88    0.75
   8  -4  -6    6.83    0.84
   8   4  -6    7.31    0.85
   8  -4  -6    7.25    0.88
   7  -4  -6    3.27    0.69
   7  -4  -6    3.63    0.75
   7   4  -6    3.76    0.73
   6  -4  -6    0.36    0.58
   6  -4  -6    0.09    0.59
   6   4  -6    0.42    0.58
   5  -4  -6   -0.11    0.51
   5  -4  -6    0.31    0.56
   5   4  -6    0.20    0.55
   4  -4  -6    0.23    0.55
   4   4  -6    0.49    0.50
   4  -4  -6    0.49    0.43
   3  -4  -6   27.05    0.99
   3  -4  -6   27.02    1.09
   3   4  -6   27.46    1.12
   3  -4  -6   25.43    1.02
   2   4  -6    0.71    0.49
   2  -4  -6    1.26    0.46
   2  -4  -6    0.77    0.47
   2  -4  -6    0.56    0.51
   2   4  -6    0.60    0.50
   2  -4  -6    0.49    0.44
   1  -4  -6   21.75    1.04
   1  -4  -6   22.43    0.91
   1   4  -6   22.31    1.02
   1   4  -6   20.61    1.05
   1  -4  -6   21.48    1.05
   0  -4  -6    9.14    0.82
   0   4  -6    9.56    0.75
   0   4  -6    9.84    0.81
   0  -4  -6    9.89    0.82
  -1   4  -6    0.47    0.55
  -1  -4  -6    0.19    0.51
  -1   4  -6    0.29    0.45
  -1  -4  -6    0.49    0.55
  -2   4  -6   45.54    1.65
  -2  -4  -6   46.68    1.62
  -3   4  -6   13.38    1.06
  -3  -4  -6   11.24    1.04
  -4   4  -6    2.83    0.80
  -4  -4  -6    4.97    0.89
   9   5  -6   20.14    1.22
   9  -5  -6   20.57    1.36
   8   5  -6    9.36    0.92
   8  -5  -6   10.98    1.04
   7  -5  -6   -0.28    0.59
   7  -5  -6    0.14    0.60
   7   5  -6    0.34    0.63
   6  -5  -6    6.84    0.80
   6   5  -6    6.10    0.80
   6  -5  -6    6.62    0.78
   5  -5  -6   13.01    0.92
   5   5  -6   12.43    0.92
   5  -5  -6   13.06    0.87
   4  -5  -6    1.66    0.59
   4   5  -6    2.78    0.63
   4  -5  -6    2.14    0.56
   3  -5  -6    9.61    0.79
   3  -5  -6   10.38    0.71
   3   5  -6    9.90    0.82
   3  -5  -6    8.57    0.70
   2   5  -6    0.01    0.49
   2  -5  -6    0.34    0.42
   2  -5  -6   -0.01    0.51
   2  -5  -6    0.32    0.44
   2   5  -6   -0.35    0.50
   2  -5  -6   -0.01    0.46
   1   5  -6    0.97    0.51
   1  -5  -6    0.85    0.49
   1  -5  -6    1.00    0.47
   1   5  -6    1.71    0.54
   1  -5  -6    1.07    0.53
   0   5  -6    0.38    0.49
   0  -5  -6    0.10    0.50
   0   5  -6    0.10    0.45
   0  -5  -6   -0.18    0.50
  -1   5  -6   -0.14    0.56
  -1  -5  -6   -0.11    0.53
  -1   5  -6   -0.09    0.50
  -1  -5  -6   -0.13    0.60
  -2  -5  -6   15.45    1.14
  -2   5  -6   15.09    1.07
  -2  -5  -6   15.17    1.02
  -3   5  -6    5.96    0.86
  -3  -5  -6    6.30    0.88
  -4   5  -6    0.18    0.66
  -4  -5  -6    0.36    0.75
   9  -6  -6    0.80    0.80
   9   6  -6    0.06    0.69
   8  -6  -6    0.80    0.82
   8   6  -6    0.32    0.68
   7  -6  -6    1.38    0.70
   7   6  -6    1.04    0.62
   6  -6  -6    4.44    0.74
   6  -6  -6    4.28    0.75
   6   6  -6    3.95    0.67
   5  -6  -6    1.80    0.60
   5  -6  -6    1.86    0.59
   5   6  -6    1.50    0.59
   4  -6  -6    2.77    0.62
   4   6  -6    2.83    0.63
   4  -6  -6    3.01    0.59
   3  -6  -6    0.57    0.49
   3   6  -6    0.66    0.53
   3  -6  -6    1.05    0.51
   3  -6  -6    0.53    0.44
   2   6  -6    4.05    0.68
   2  -6  -6    4.37    0.58
   2  -6  -6    4.05    0.65
   2  -6  -6    4.21    0.62
   2   6  -6    4.63    0.68
   2  -6  -6    4.26    0.57
   1  -6  -6    7.55    0.63
   1  -6  -6    8.14    0.77
   1   6  -6    7.81    0.72
   1   6  -6    6.82    0.76
   1  -6  -6    7.53    0.70
   0  -6  -6   10.63    0.87
   0   6  -6   10.68    0.78
   0   6  -6   10.26    0.82
   0  -6  -6   10.65    0.83
  -1   6  -6    2.50    0.65
  -1  -6  -6    3.00    0.64
  -1   6  -6    3.63    0.62
  -1  -6  -6    2.99    0.72
  -2   6  -6    1.18    0.61
  -2  -6  -6    0.67    0.60
  -2  -6  -6    1.20    0.75
  -3  -6  -6   14.00    1.21
  -3   6  -6   11.92    1.05
  -3  -6  -6   12.99    1.03
  -4   6  -6    0.30    0.76
  -4  -6  -6    0.50    0.71
   9   7  -6    1.48    0.72
   8   7  -6   26.88    1.39
   8  -7  -6   28.12    1.48
   7   7  -6   39.49    1.59
   7  -7  -6   38.53    1.56
   6  -7  -6    3.08    0.70
   6   7  -6    3.64    0.74
   5  -7  -6    1.17    0.56
   5   7  -6    1.02    0.56
   4   7  -6   10.88    0.92
   4  -7  -6    9.89    0.84
   3   7  -6    1.80    0.62
   3  -7  -6    1.59    0.53
   3  -7  -6    1.83    0.49
   2  -7  -6   22.93    1.08
   2  -7  -6   21.26    1.05
   2   7  -6   22.21    1.11
   2   7  -6   21.85    1.12
   2  -7  -6   23.92    1.02
   1   7  -6    0.38    0.52
   1  -7  -6    0.79    0.41
   1   7  -6    0.73    0.53
   1  -7  -6    0.56    0.53
   0   7  -6    3.20    0.66
   0  -7  -6    4.24    0.63
   0   7  -6    4.28    0.72
   0  -7  -6    4.54    0.71
  -1   7  -6    5.04    0.74
  -1  -7  -6    6.76    0.82
  -1   7  -6    5.50    0.74
  -1  -7  -6    6.30    0.74
  -2   7  -6    6.33    0.87
  -2  -7  -6    5.82    0.79
  -2  -7  -6    6.22    0.94
  -3   7  -6    5.98    0.85
  -3  -7  -6    7.29    1.06
  -3  -7  -6    6.80    0.84
  -4   7  -6    4.28    0.82
  -4  -7  -6    5.56    0.85
   8  -8  -6    0.63    0.83
   8   8  -6    1.21    0.65
   7  -8  -6    0.41    0.62
   7   8  -6    0.21    0.59
   6  -8  -6    0.30    0.63
   6   8  -6    0.31    0.57
   5   8  -6    3.87    0.73
   5  -8  -6    3.82    0.72
   4   8  -6    8.91    0.85
   4  -8  -6    9.34    0.83
   3  -8  -6    0.72    0.45
   3  -8  -6    0.14    0.52
   3   8  -6    0.61    0.56
   2  -8  -6   26.67    1.15
   2  -8  -6   27.48    1.16
   2   8  -6   25.15    1.17
   1  -8  -6   26.75    1.20
   1   8  -6   24.26    1.19
   1   8  -6   24.44    1.17
   0   8  -6   -0.09    0.54
   0   8  -6   -0.21    0.65
   0  -8  -6   -0.12    0.56
  -1  -8  -6   35.06    1.54
  -1   8  -6   32.15    1.32
  -1   8  -6   31.32    1.39
  -2  -8  -6   58.65    2.01
  -2   8  -6   60.44    1.91
  -2  -8  -6   60.23    1.79
  -3   8  -6    5.98    0.86
  -3  -8  -6    6.40    0.85
  -3  -8  -6    5.57    0.99
  -4  -8  -6    2.92    0.81
   8   9  -6   13.29    1.07
   8  -9  -6   12.49    1.08
   7   9  -6    9.08    0.90
   7  -9  -6    9.63    1.02
   6  -9  -6    0.36    0.65
   6   9  -6    0.34    0.60
   5   9  -6    5.41    0.82
   5  -9  -6    4.89    0.76
   4   9  -6    0.13    0.58
   4  -9  -6    0.54    0.64
   3  -9  -6    0.33    0.50
   3  -9  -6    0.28    0.58
   3   9  -6    0.69    0.62
   2  -9  -6    5.74    0.77
   2  -9  -6    5.06    0.67
   2   9  -6    5.25    0.76
   1  -9  -6    0.18    0.54
   1   9  -6    0.37    0.54
   1   9  -6    0.27    0.67
   0  -9  -6   -0.21    0.56
   0   9  -6    0.28    0.56
   0   9  -6    0.07    0.64
  -1  -9  -6   16.59    1.15
  -1   9  -6   15.50    1.04
  -1   9  -6   12.64    0.99
  -2  -9  -6   24.61    1.44
  -2   9  -6   24.86    1.26
  -3   9  -6    0.64    0.70
   8  10  -6    4.36    0.81
   7  10  -6   11.68    1.05
   7 -10  -6    9.40    1.06
   6  10  -6   -0.02    0.68
   6 -10  -6    0.76    0.70
   5  10  -6    3.74    0.78
   5 -10  -6    3.02    0.71
   4  10  -6   12.39    1.00
   4 -10  -6   14.39    1.03
   3 -10  -6    6.42    0.83
   3 -10  -6    6.46    0.68
   3  10  -6    6.86    0.77
  -3 -10   6    6.92    0.88
   2 -10  -6    3.38    0.66
   2 -10  -6    3.48    0.72
   2  10  -6    3.73    0.81
   1 -10  -6   -0.07    0.60
   1  10  -6   -0.19    0.57
   1  10  -6   -0.11    0.74
   0 -10  -6    0.15    0.63
   0  10  -6    1.10    0.56
   0  10  -6    0.86    0.67
  -1 -10  -6    0.59    0.64
  -1  10  -6    0.91    0.59
  -1  10  -6    0.65    0.70
  -2  10  -6    3.65    0.70
  -2  10  -6    2.31    0.79
  -2 -10  -6    2.70    0.86
   7  11  -6    7.56    0.97
   6  11  -6    0.37    0.66
   6 -11  -6   -0.33    0.67
   5  11  -6    0.33    0.66
   5 -11  -6   -0.23    0.74
   4  11  -6    1.11    0.68
   4 -11  -6    1.60    0.75
   3 -11  -6   36.17    1.53
   3  11  -6   38.94    1.57
  -3 -11   6   39.34    1.45
   2 -11  -6   86.76    2.17
   2 -11  -6   88.30    2.11
   2  11  -6   85.49    2.20
   1 -11  -6    5.51    0.76
   1  11  -6    5.15    0.88
   0 -11  -6    1.20    0.68
   0  11  -6    1.44    0.61
   0  11  -6    1.22    0.74
  -1 -11  -6    6.64    0.91
  -1  11  -6    5.35    0.85
  -2  11  -6    3.45    0.88
   6  12  -6   17.72    1.22
   6 -12  -6   17.68    1.23
   5  12  -6    0.02    0.66
   5 -12  -6    0.78    0.72
   4  12  -6   34.23    1.50
   4 -12  -6   35.77    1.56
   3 -12  -6   18.06    1.22
   3  12  -6   19.60    1.22
  -3 -12   6   19.91    1.17
   2 -12  -6    1.13    0.63
  -2 -12   6    1.04    0.72
   2 -12  -6    1.21    0.80
   2  12  -6    1.51    0.79
   1 -12  -6    1.58    0.64
   1  12  -6    1.27    0.77
   0 -12  -6   -0.19    0.67
   0  12  -6   -0.16    0.72
  -1 -12  -6    9.68    0.94
  -1  12  -6   11.22    1.07
  -2  12  -6    7.82    0.99
   5  13  -6    0.55    0.69
   5 -13  -6    1.44    0.76
   4 -13  -6   36.96    1.65
   4  13  -6   38.19    1.60
   3 -13  -6   69.74    2.13
   3  13  -6   72.94    2.19
  -3 -13   6   71.97    2.05
   2 -13  -6   24.12    1.41
   2 -13  -6   24.80    1.31
   2  13  -6   24.08    1.40
  -2 -13   6   23.60    1.34
   1 -13  -6    0.57    0.63
  -1 -13   6    1.47    0.84
   1  13  -6    1.53    0.83
   0 -13  -6   33.02    1.54
   0  13  -6   31.76    1.58
  -1  13  -6    2.68    0.90
  -3 -14   6    4.65    0.85
  -2 -14   6    5.47    0.90
   2 -14  -6    6.37    0.92
   1 -14  -6    0.06    0.67
  -3 -15   6    0.81    0.79
   2 -15  -6    7.11    0.81
   8   0  -7    0.29    0.74
   7   0  -7   -0.12    0.65
   6   0  -7    0.26    0.60
   5   0  -7    0.42    0.62
   4   0  -7    0.12    0.58
   3   0  -7    0.44    0.54
   3   0  -7   -0.13    0.53
   2   0  -7    0.30    0.54
   2   0  -7   -0.01    0.53
   1   0  -7    0.02    0.60
   1   0  -7   -1.14    0.50
   0   0  -7    0.26    0.59
  -1   0  -7    0.57    0.65
  -2   0  -7    0.30    0.69
  -3   0  -7    0.18    0.69
   8  -1  -7    2.44    0.82
   8   1  -7    1.96    0.72
   7  -1  -7    1.19    0.70
   7   1  -7    0.60    0.70
   6  -1  -7   -0.21    0.56
   6   1  -7    0.02    0.53
   5  -1  -7    6.49    0.84
   5   1  -7    6.84    0.81
   4  -1  -7    2.53    0.64
   4   1  -7    1.89    0.63
   3  -1  -7    6.09    0.72
   3   1  -7    6.15    0.79
   3   1  -7    6.55    0.76
   3  -1  -7    7.00    0.78
   2   1  -7    2.73    0.64
   2  -1  -7    2.31    0.62
   2  -1  -7    3.14    0.59
   2   1  -7    1.71    0.56
   1   1  -7    2.33    0.65
   1  -1  -7    2.99    0.66
   1  -1  -7    2.45    0.53
   1   1  -7    2.80    0.58
   0   1  -7    1.99    0.63
   0  -1  -7    2.68    0.69
  -1   1  -7    0.18    0.65
  -1  -1  -7    0.71    0.65
  -2   1  -7   -0.03    0.72
  -2  -1  -7    0.52    0.66
  -3  -1  -7    1.25    0.80
   9  -2  -7    1.56    0.80
   8  -2  -7    0.02    0.69
   8  -2  -7    1.00    0.71
   8   2  -7    0.73    0.75
   7  -2  -7    6.65    0.77
   7  -2  -7    6.35    0.89
   7   2  -7    6.77    0.89
   6  -2  -7    5.47    0.77
   6   2  -7    5.17    0.76
   5  -2  -7   12.21    0.95
   5   2  -7   11.97    0.94
   4  -2  -7    0.92    0.53
   4   2  -7    0.16    0.64
   3  -2  -7   17.91    1.02
   3   2  -7   17.47    1.04
   3   2  -7   17.29    1.06
   3  -2  -7   17.71    1.04
   2  -2  -7    4.39    0.66
   2  -2  -7    4.69    0.63
   2   2  -7    5.45    0.73
   2   2  -7    5.91    0.77
   1   2  -7    4.21    0.73
   1  -2  -7    5.01    0.74
   1   2  -7    5.26    0.66
   0   2  -7   19.19    1.14
   0  -2  -7   19.87    1.17
  -1   2  -7    9.60    0.93
  -1  -2  -7   10.87    1.04
  -2   2  -7    6.31    0.90
  -2  -2  -7    5.21    0.84
  -3  -2  -7    3.97    0.82
   9  -3  -7    2.88    0.85
   8  -3  -7    0.09    0.70
   8  -3  -7    0.14    0.75
   8   3  -7    0.43    0.72
   7  -3  -7    1.20    0.64
   7  -3  -7    1.15    0.71
   7   3  -7    0.69    0.66
   6  -3  -7    5.98    0.69
   6  -3  -7    7.42    0.87
   6   3  -7    6.72    0.84
   5  -3  -7   -0.04    0.60
   5   3  -7    0.57    0.60
   4  -3  -7    2.70    0.64
   4   3  -7    2.66    0.69
   3  -3  -7   10.25    0.85
   3   3  -7   10.83    0.89
   3  -3  -7    9.75    0.85
   2   3  -7    0.82    0.57
   2  -3  -7    0.08    0.51
   2  -3  -7    0.75    0.53
   2   3  -7    0.71    0.56
   1   3  -7   11.90    0.84
   1   3  -7   13.01    0.96
   1  -3  -7   11.92    0.95
   0   3  -7    8.35    0.86
   0  -3  -7    8.34    0.88
  -1   3  -7    1.31    0.68
  -1  -3  -7    0.97    0.64
  -2   3  -7   21.13    1.34
  -2  -3  -7   19.06    1.24
  -3  -3  -7   15.36    1.22
   9  -4  -7    3.90    0.87
   8  -4  -7    4.50    0.88
   8  -4  -7    3.08    0.82
   8   4  -7    4.82    0.90
   7  -4  -7    5.64    0.79
   7  -4  -7    5.87    0.87
   7   4  -7    5.87    0.89
   6  -4  -7   13.88    1.04
   6   4  -7   13.51    1.04
   6  -4  -7   13.02    0.94
   5   4  -7    7.23    0.82
   5  -4  -7    5.64    0.77
   5  -4  -7    5.23    0.71
   4  -4  -7    0.63    0.57
   4   4  -7    0.58    0.61
   4  -4  -7    0.46    0.56
   3  -4  -7    1.22    0.55
   3   4  -7    1.76    0.59
   3  -4  -7    2.10    0.60
   2   4  -7    4.45    0.73
   2  -4  -7    4.48    0.65
   2   4  -7    5.21    0.73
   2  -4  -7    4.27    0.67
   1   4  -7    9.49    0.82
   1   4  -7    9.31    0.87
   1  -4  -7    8.02    0.83
   0   4  -7    0.33    0.64
   0  -4  -7    1.38    0.71
   0   4  -7    0.55    0.56
  -1   4  -7    0.24    0.68
  -1  -4  -7    0.34    0.62
  -2   4  -7    0.80    0.68
  -2  -4  -7   -0.26    0.68
  -3  -4  -7    0.78    0.80
   8  -5  -7   13.19    1.16
   8   5  -7   14.52    1.18
   8  -5  -7   12.72    1.08
   7  -5  -7    0.24    0.67
   7  -5  -7   -0.27    0.72
   7   5  -7   -0.14    0.78
   6  -5  -7    4.09    0.84
   6  -5  -7    2.95    0.74
   6   5  -7    3.29    0.77
   5  -5  -7    3.42    0.75
   5   5  -7    3.87    0.68
   5  -5  -7    3.27    0.67
   4  -5  -7    5.40    0.76
   4   5  -7    6.10    0.78
   4  -5  -7    5.95    0.74
   3  -5  -7    0.45    0.60
   3  -5  -7    0.35    0.60
   3   5  -7    0.47    0.59
   2   5  -7    5.22    0.75
   2  -5  -7    5.16    0.71
   2  -5  -7    5.02    0.71
   2  -5  -7    5.90    0.71
   2   5  -7    5.46    0.75
   1  -5  -7   33.34    1.39
   1   5  -7   34.41    1.35
   1   5  -7   31.49    1.44
   1  -5  -7   34.88    1.41
   0   5  -7    0.65    0.62
   0  -5  -7    0.54    0.60
   0   5  -7    0.01    0.56
  -1   5  -7    8.87    0.96
  -1  -5  -7    9.99    1.02
  -2   5  -7   48.59    1.86
  -2  -5  -7   50.93    1.84
   8   6  -7   39.91    1.66
   8  -6  -7   38.39    1.60
   7  -6  -7    0.67    0.70
   7   6  -7   -0.61    0.66
   6  -6  -7   25.27    1.32
   6   6  -7   27.16    1.37
   6  -6  -7   28.20    1.34
   5  -6  -7   58.60    1.80
   5   6  -7   56.31    1.83
   5  -6  -7   59.19    1.71
   4  -6  -7   13.59    0.99
   4   6  -7   14.64    1.05
   4  -6  -7   12.75    0.95
   3  -6  -7    3.60    0.68
   3  -6  -7    2.75    0.66
   3   6  -7    2.61    0.69
   2  -6  -7   46.27    1.49
   2  -6  -7   46.13    1.45
   2  -6  -7   48.01    1.59
   2   6  -7   46.81    1.59
   2   6  -7   44.28    1.65
   2  -6  -7   46.83    1.54
   1  -6  -7   22.87    1.21
   1   6  -7   23.87    1.21
   1   6  -7   22.92    1.26
   1  -6  -7   24.64    1.18
   0   6  -7    0.06    0.63
   0  -6  -7    0.18    0.62
   0   6  -7    0.41    0.53
   0  -6  -7    0.02    0.66
  -1  -6  -7    9.09    1.01
  -1   6  -7    7.73    0.91
  -1  -6  -7    8.30    0.93
  -2   6  -7    6.79    0.91
  -2  -6  -7    7.59    0.91
   8  -7  -7   19.55    1.28
   7  -7  -7    0.87    0.74
   7   7  -7    0.18    0.77
   6   7  -7    0.51    0.65
   6  -7  -7   -0.16    0.67
   5   7  -7    0.12    0.65
   5  -7  -7    0.00    0.62
   4  -7  -7   -0.09    0.61
   4   7  -7    0.21    0.62
   4  -7  -7    0.00    0.57
   3  -7  -7    4.45    0.74
   3  -7  -7    4.38    0.73
   3   7  -7    4.43    0.77
   2   7  -7    3.13    0.71
   2  -7  -7    4.25    0.79
   2   7  -7    3.95    0.76
   2  -7  -7    4.01    0.68
   1   7  -7    0.99    0.60
   1   7  -7    0.70    0.63
   1  -7  -7    1.12    0.68
   0   7  -7    1.31    0.70
   0  -7  -7    0.62    0.66
   0   7  -7    1.19    0.59
   0  -7  -7    1.00    0.68
  -1  -7  -7   29.61    1.54
  -1   7  -7   26.12    1.44
  -1  -7  -7   29.59    1.41
  -2   7  -7   19.49    1.31
  -2  -7  -7   17.69    1.19
   7  -8  -7    3.55    0.83
   7   8  -7    4.15    0.86
   6   8  -7    9.36    0.98
   6  -8  -7    9.39    0.94
   5   8  -7   11.57    0.99
   5  -8  -7    9.44    0.94
   4   8  -7   -0.46    0.62
   4  -8  -7   -0.45    0.61
   3  -8  -7    4.17    0.80
   3   8  -7    3.82    0.71
   2  -8  -7    6.04    0.80
   2  -8  -7    5.20    0.85
   2   8  -7    4.98    0.76
   1   8  -7    3.44    0.74
   1   8  -7    3.75    0.69
   1  -8  -7    2.96    0.77
   0   8  -7    1.74    0.70
   0   8  -7    3.14    0.62
   0  -8  -7    1.14    0.65
  -1  -8  -7    9.39    1.05
  -1   8  -7    8.67    0.94
   7  -9  -7    0.06    0.80
   6   9  -7    0.51    0.68
   6  -9  -7    0.82    0.69
   5   9  -7    0.16    0.65
   5  -9  -7    0.03    0.70
   4   9  -7    8.57    0.96
   4  -9  -7    8.95    0.96
   3  -9  -7    0.07    0.67
   3   9  -7   -0.52    0.70
   2  -9  -7    1.68    0.70
   2   9  -7    1.59    0.69
   2  -9  -7    1.23    0.65
   1   9  -7    0.24    0.64
   1   9  -7    1.73    0.67
   1  -9  -7    0.66    0.67
   0   9  -7   -0.30    0.63
   0   9  -7    0.97    0.64
   0  -9  -7    0.10    0.66
  -1  -9  -7   23.99    1.44
  -1   9  -7   22.79    1.33
   6 -10  -7    0.60    0.75
   5  10  -7    0.15    0.64
   5 -10  -7    0.45    0.70
   4 -10  -7    4.51    0.80
   4  10  -7    2.87    0.82
   3 -10  -7    0.70    0.73
   3  10  -7    0.14    0.66
   2  10  -7    2.38    0.75
   2 -10  -7    1.72    0.71
   1  10  -7    0.10    0.60
   1  10  -7    0.98    0.68
   1 -10  -7    0.21    0.68
   0  10  -7    1.99    0.74
   0  10  -7    2.20    0.68
   0 -10  -7    1.45    0.73
  -1  10  -7    1.00    0.71
   5 -11  -7   31.86    1.58
   4 -11  -7   11.68    1.13
   4  11  -7    9.85    1.04
   3 -11  -7   18.50    1.23
   3  11  -7   16.51    1.21
   2 -11  -7   41.57    1.65
   2  11  -7   40.53    1.69
   1  11  -7    4.48    0.86
   1 -11  -7    2.37    0.72
   0  11  -7    0.37    0.70
   0  11  -7   -0.69    0.80
   3 -12  -7    2.93    0.89
   2 -12  -7   18.07    1.21
   1 -12  -7    4.13    0.81
   7   0  -8    7.72    1.00
   6   0  -8   -0.09    0.67
   5   0  -8   44.13    1.69
   4   0  -8  171.19    3.04
   3   0  -8  101.85    2.32
   3   0  -8  101.36    2.50
   2   0  -8    6.21    0.79
   2   0  -8    6.43    0.87
   1   0  -8   43.92    1.72
   0   0  -8   23.14    1.39
   7  -1  -8   30.42    1.55
   7   1  -8   32.00    1.57
   6  -1  -8    4.46    0.81
   6   1  -8    4.52    0.84
   5  -1  -8   22.79    1.35
   5   1  -8   23.33    1.32
   4  -1  -8   95.24    2.33
   4   1  -8   94.37    2.34
   3  -1  -8   10.31    0.98
   3   1  -8    9.87    1.00
   3   1  -8   12.12    1.05
   3  -1  -8   11.19    0.98
   2   1  -8    1.41    0.72
   2  -1  -8    1.51    0.76
   2  -1  -8    1.99    0.64
   2   1  -8    1.68    0.67
   1   1  -8    0.17    0.67
   1  -1  -8   -0.07    0.66
   0   1  -8   -0.45    0.72
   0  -1  -8   -0.25    0.71
   7  -2  -8   -0.26    0.78
   7   2  -8    0.11    0.73
   6  -2  -8    2.03    0.82
   6   2  -8    0.86    0.72
   5  -2  -8    3.40    0.85
   5   2  -8    3.07    0.78
   4  -2  -8   22.02    1.29
   4   2  -8   24.99    1.38
   3  -2  -8   11.07    1.01
   3   2  -8    9.45    1.00
   3  -2  -8   12.56    1.01
   2   2  -8    0.23    0.59
   2  -2  -8    0.67    0.64
   2   2  -8   -0.10    0.69
   1   2  -8    7.49    0.89
   1  -2  -8    7.28    0.84
   0   2  -8    2.40    0.78
   0  -2  -8    2.24    0.78
   6  -3  -8    0.60    0.74
   6   3  -8    0.19    0.67
   5  -3  -8    3.48    0.81
   5   3  -8    2.96    0.84
   4  -3  -8    1.10    0.77
   4   3  -8    0.39    0.81
   3  -3  -8    0.06    0.65
   3   3  -8   -0.36    0.77
   3  -3  -8    0.56    0.54
   2   3  -8    1.87    0.70
   2  -3  -8    2.55    0.65
   2   3  -8    1.34    0.67
   1   3  -8    3.14    0.76
   1  -3  -8    1.29    0.67
   0   3  -8    1.37    0.70
   0  -3  -8    0.72    0.66
   6  -4  -8    0.20    0.71
   6   4  -8   -0.84    0.70
   5  -4  -8    0.86    0.73
   5   4  -8    1.18    0.69
   4  -4  -8    3.40    0.77
   4   4  -8    4.10    0.83
   3  -4  -8    5.83    0.83
   3   4  -8    6.23    0.80
   2   4  -8    0.43    0.65
   2  -4  -8    0.00    0.62
   2   4  -8   -0.89    0.62
   1   4  -8   -1.43    0.66
   1  -4  -8   -0.04    0.66
   1   4  -8    0.18    0.64
   0   4  -8   -0.09    0.64
   6  -5  -8   -0.25    0.77
   6   5  -8   -0.01    0.76
   5  -5  -8   -0.11    0.73
   5   5  -8    0.31    0.71
   4  -5  -8    1.61    0.73
   4   5  -8    1.66    0.70
   3  -5  -8    0.38    0.62
   3   5  -8    0.26    0.64
   2   5  -8    9.47    0.92
   2   5  -8    7.99    0.96
   2  -5  -8    8.42    0.94
   1   5  -8    8.00    0.87
   1   5  -8    8.14    1.01
   1  -5  -8    8.57    0.96
   0  -5  -8   -0.21    0.69
   6  -6  -8    2.79    0.78
   5  -6  -8    2.82    0.87
   5   6  -8    1.41    0.79
   4  -6  -8    0.60    0.69
   4   6  -8    0.12    0.72
   3   6  -8    3.22    0.79
   2   6  -8    0.91    0.66
   2  -6  -8    1.05    0.67
   2   6  -8    0.84    0.62
   1   6  -8    0.51    0.73
   1  -6  -8    1.31    0.66
   1   6  -8    0.48    0.72
   0  -6  -8   -1.11    0.71
   6  -7  -8    1.07    0.81
   4  -7  -8    1.74    0.69
   4   7  -8    1.19    0.73
   3   7  -8    4.42    0.87
   2   7  -8    3.29    0.79
   2   7  -8    3.13    0.88
   1   7  -8    3.00    0.70
   6  -8  -8    0.88    0.88
   5  -8  -8    2.58    0.85
   3   8  -8    3.24    0.84
   2   8  -8    0.79    0.76
   1   8  -8    0.54    0.82
   1  -8  -8    1.22    0.84
   5  -9  -8    0.41    0.89
   4  -9  -8    0.26    0.81
   3  -9  -8    3.51    0.85
   4   0  -9   -0.17    0.79
   3   0  -9    0.20    0.79
   4  -1  -9    3.72    0.86
   4   1  -9    2.21    0.76
   3   1  -9    0.00    0.75
   4  -2  -9    7.56    0.99
   3   2  -9    0.19    0.75
   4  -3  -9   -0.19    0.75
   4  -4  -9   -0.57    0.76
   0   0   0    0.00    0.00
;
_shelx_hkl_checksum              57131
#END Tags that were not found in dictionaries
loop_
_space_group_symop_operation_xyz
'x, y, z'
'-x, y+1/2, -z+1/2'
'-x, -y, -z'
'x, -y-1/2, z-1/2'
loop_
_atom_site_label
_atom_site_type_symbol
_atom_site_fract_x
_atom_site_fract_y
_atom_site_fract_z
_atom_site_U_iso_or_equiv
_atom_site_adp_type
_atom_site_occupancy
_atom_site_site_symmetry_order
_atom_site_calc_flag
_atom_site_refinement_flags_posn
_atom_site_refinement_flags_adp
O1 O 0.86347(10) 0.06255(5) 0.04307(12) 0.0329(2) Uani 1 1 d . .
O2 O 0.64999(11) 0.16033(6) -0.07405(16) 0.0507(3) Uani 1 1 d . .
N1 N 1.19624(12) 0.11668(6) 0.20116(14) 0.0271(2) Uani 1 1 d . .
H1 H 1.1226(17) 0.0703(8) 0.1520(19) 0.033 Uiso 1 1 d . U
N2 N 0.81018(12) 0.14315(6) 0.01261(14) 0.0285(2) Uani 1 1 d . .
C1 C 1.12151(14) 0.20033(7) 0.16946(15) 0.0241(3) Uani 1 1 d . .
C2 C 0.93510(14) 0.21655(6) 0.07795(15) 0.0247(3) Uani 1 1 d . .
C3 C 0.86524(16) 0.30571(7) 0.04708(17) 0.0314(3) Uani 1 1 d . .
H3 H 0.7426 0.3143 -0.0141 0.038 Uiso 1 1 calc R U
C4 C 0.97538(19) 0.38019(7) 0.10591(18) 0.0367(3) Uani 1 1 d . .
H4 H 0.9286 0.4392 0.0859 0.044 Uiso 1 1 calc R U
C5 C 1.15904(19) 0.36620(8) 0.19646(18) 0.0361(3) Uani 1 1 d . .
H5 H 1.2347 0.4166 0.2369 0.043 Uiso 1 1 calc R U
C6 C 1.22958(16) 0.28015(8) 0.22672(16) 0.0311(3) Uani 1 1 d . .
H6 H 1.3527 0.2734 0.2869 0.037 Uiso 1 1 calc R U
C7 C 1.38694(15) 0.10084(9) 0.28167(19) 0.0389(3) Uani 1 1 d . .
H7A H 1.4100 0.0364 0.2774 0.058 Uiso 1 1 calc R U
H7B H 1.4360 0.1223 0.4263 0.058 Uiso 1 1 calc R U
H7C H 1.4413 0.1333 0.1946 0.058 Uiso 1 1 calc R U
loop_
_atom_site_aniso_label
_atom_site_aniso_U_11
_atom_site_aniso_U_22
_atom_site_aniso_U_33
_atom_site_aniso_U_23
_atom_site_aniso_U_13
_atom_site_aniso_U_12
O1 0.0337(4) 0.0223(4) 0.0428(5) -0.0016(3) 0.0130(4) -0.0020(3)
O2 0.0250(5) 0.0473(6) 0.0731(7) 0.0008(5) 0.0083(4) 0.0033(4)
N1 0.0266(5) 0.0264(5) 0.0266(5) -0.0007(3) 0.0070(4) -0.0002(4)
N2 0.0265(5) 0.0300(5) 0.0300(5) 0.0002(4) 0.0110(4) 0.0008(4)
C1 0.0308(6) 0.0263(6) 0.0170(5) -0.0004(4) 0.0105(4) -0.0017(4)
C2 0.0325(6) 0.0236(6) 0.0205(5) -0.0005(4) 0.0122(4) -0.0011(4)
C3 0.0411(6) 0.0298(6) 0.0268(5) 0.0034(4) 0.0161(5) 0.0080(5)
C4 0.0642(9) 0.0220(5) 0.0308(6) 0.0015(4) 0.0250(6) 0.0038(5)
C5 0.0589(8) 0.0268(6) 0.0290(6) -0.0066(4) 0.0232(5) -0.0136(5)
C6 0.0371(6) 0.0342(6) 0.0237(5) -0.0047(4) 0.0125(5) -0.0094(5)
C7 0.0297(6) 0.0455(7) 0.0373(6) 0.0016(5) 0.0064(5) 0.0053(5)
loop_
_atom_type_symbol
_atom_type_description
_atom_type_scat_dispersion_real
_atom_type_scat_dispersion_imag
_atom_type_scat_source
C C 0.0033 0.0016 'International Tables Vol C Tables 4.2.6.8 and 6.1.1.4'
H H 0.0000 0.0000 'International Tables Vol C Tables 4.2.6.8 and 6.1.1.4'
N N 0.0061 0.0033 'International Tables Vol C Tables 4.2.6.8 and 6.1.1.4'
O O 0.0106 0.0060 'International Tables Vol C Tables 4.2.6.8 and 6.1.1.4'
loop_
_geom_angle_atom_site_label_1
_geom_angle_atom_site_label_2
_geom_angle_atom_site_label_3
_geom_angle
C1 N1 C7 123.84(10)
C1 N1 H1 115.8(8)
C7 N1 H1 119.8(8)
O2 N2 O1 120.64(9)
O2 N2 C2 119.59(9)
O1 N2 C2 119.76(9)
N1 C1 C2 124.20(9)
N1 C1 C6 120.44(10)
C2 C1 C6 115.37(9)
C3 C2 C1 121.50(10)
C3 C2 N2 116.79(10)
C1 C2 N2 121.71(9)
C4 C3 C2 120.72(11)
C4 C3 H3 119.6
C2 C3 H3 119.6
C3 C4 C5 118.95(10)
C3 C4 H4 120.5
C5 C4 H4 120.5
C6 C5 C4 121.22(11)
C6 C5 H5 119.4
C4 C5 H5 119.4
C5 C6 C1 122.24(11)
C5 C6 H6 118.9
C1 C6 H6 118.9
N1 C7 H7A 109.5
N1 C7 H7B 109.5
H7A C7 H7B 109.5
N1 C7 H7C 109.5
H7A C7 H7C 109.5
H7B C7 H7C 109.5
loop_
_geom_bond_atom_site_label_1
_geom_bond_atom_site_label_2
_geom_bond_distance
O1 N2 1.2429(11)
O2 N2 1.2341(12)
N1 C1 1.3426(13)
N1 C7 1.4478(14)
N1 H1 0.882(13)
N2 C2 1.4252(13)
C1 C2 1.4203(15)
C1 C6 1.4208(15)
C2 C3 1.4020(14)
C3 C4 1.3674(17)
C3 H3 0.9300
C4 C5 1.3951(18)
C4 H4 0.9300
C5 C6 1.3619(16)
C5 H5 0.9300
C6 H6 0.9300
C7 H7A 0.9600
C7 H7B 0.9600
C7 H7C 0.9600
loop_
_geom_hbond_atom_site_label_D
_geom_hbond_atom_site_label_H
_geom_hbond_atom_site_label_A
_geom_hbond_distance_DH
_geom_hbond_distance_HA
_geom_hbond_distance_DA
_geom_hbond_angle_DHA
_geom_hbond_site_symmetry_A
N1 H1 O1 0.882(13) 1.945(13) 2.6198(12) 132.1(10) .
N1 H1 O1 0.882(13) 2.358(12) 3.0296(12) 133.1(10) 3_755
C6 H6 O2 0.93 2.43 3.2729(14) 150.5 4_666
loop_
_geom_torsion_atom_site_label_1
_geom_torsion_atom_site_label_2
_geom_torsion_atom_site_label_3
_geom_torsion_atom_site_label_4
_geom_torsion
C7 N1 C1 C2 175.83(9)
C7 N1 C1 C6 -3.68(15)
N1 C1 C2 C3 -179.38(9)
C6 C1 C2 C3 0.16(14)
N1 C1 C2 N2 0.45(16)
C6 C1 C2 N2 179.99(8)
O2 N2 C2 C3 2.74(14)
O1 N2 C2 C3 -177.37(9)
O2 N2 C2 C1 -177.10(10)
O1 N2 C2 C1 2.79(14)
C1 C2 C3 C4 -0.42(16)
N2 C2 C3 C4 179.74(9)
C2 C3 C4 C5 0.32(16)
C3 C4 C5 C6 0.03(16)
C4 C5 C6 C1 -0.30(16)
N1 C1 C6 C5 179.75(9)
C2 C1 C6 C5 0.20(15)
