#------------------------------------------------------------------------------
#$Date: 2016-03-24 14:36:54 +0200 (Thu, 24 Mar 2016) $
#$Revision: 179669 $
#$URL: svn://www.crystallography.net/cod/cif/4/51/22/4512282.cif $
#------------------------------------------------------------------------------
#
# This file is available in the Crystallography Open Database (COD),
# http://www.crystallography.net/
#
# All data on this site have been placed in the public domain by the
# contributors.
#
data_4512282
loop_
_publ_author_name
'Hain, Malia S.'
'Fukuda, Yoko'
'Rojas Ram\'irez, Carolina'
'Winer, Benjamin Y.'
'Winslow, Stephanie E.'
'Pike, Robert D.'
'Bebout, Deborah C.'
_publ_section_title
;
 Staging Bonding between Group 12 Metal Ions and Neutral Selenium Donors:
 Intermolecular Interactions of Mixed N,Se Donor Ligands and Anions
;
_journal_issue                   12
_journal_name_full               'Crystal Growth &amp; Design'
_journal_page_first              6497
_journal_paper_doi               10.1021/cg501395p
_journal_volume                  14
_journal_year                    2014
_chemical_formula_moiety         'C12 H12 Cd N4 O6 Se'
_chemical_formula_sum            'C12 H12 Cd N4 O6 Se'
_chemical_formula_weight         499.62
_chemical_name_systematic
;
bis(nitrato-O,O')-(bis(2-pyridylmethyl)selenide-N,N',Se)-cadmium(ii)
;
_space_group_crystal_system      triclinic
_space_group_IT_number           2
_space_group_name_Hall           '-P 1'
_space_group_name_H-M_alt        'P -1'
_symmetry_space_group_name_Hall  '-P 1'
_symmetry_space_group_name_H-M   'P -1'
_atom_sites_solution_hydrogens   geom
_audit_creation_method           SHELXL-2014/5
_cell_angle_alpha                80.6531(15)
_cell_angle_beta                 79.1801(13)
_cell_angle_gamma                67.1369(12)
_cell_formula_units_Z            2
_cell_length_a                   7.9942(3)
_cell_length_b                   8.4913(3)
_cell_length_c                   12.7305(4)
_cell_measurement_reflns_used    9792
_cell_measurement_temperature    100(2)
_cell_measurement_theta_max      71.83
_cell_measurement_theta_min      3.55
_cell_volume                     778.28(5)
_computing_cell_refinement       'SAINTPLUS (Bruker AXS, 2004)'
_computing_data_collection       'APEX2 (Bruker AXS, 2004)'
_computing_data_reduction        SAINTPLUS
_computing_molecular_graphics    'SHELXLE (Hubschle, 2011)'
_computing_publication_material  'Mercury 3.3 (CCDC, 2014)'
_computing_structure_refinement  'SHELXL-2014/5 (Sheldrick, 2014)'
_computing_structure_solution    'SHELXS97 (Sheldrick, 1997)'
_diffrn_ambient_temperature      100(2)
_diffrn_measured_fraction_theta_full 0.962
_diffrn_measured_fraction_theta_max 0.977
_diffrn_measurement_device_type  'Bruker SMART APEX II CCD'
_diffrn_measurement_method       '\w and \y'
_diffrn_radiation_monochromator  graphite
_diffrn_radiation_source         'fine-focus sealed tube'
_diffrn_radiation_type           CuK\a
_diffrn_radiation_wavelength     1.54178
_diffrn_reflns_av_R_equivalents  0.0313
_diffrn_reflns_av_unetI/netI     0.0254
_diffrn_reflns_Laue_measured_fraction_full 0.962
_diffrn_reflns_Laue_measured_fraction_max 0.977
_diffrn_reflns_limit_h_max       9
_diffrn_reflns_limit_h_min       -9
_diffrn_reflns_limit_k_max       10
_diffrn_reflns_limit_k_min       -8
_diffrn_reflns_limit_l_max       15
_diffrn_reflns_limit_l_min       -15
_diffrn_reflns_number            13813
_diffrn_reflns_point_group_measured_fraction_full 0.962
_diffrn_reflns_point_group_measured_fraction_max 0.977
_diffrn_reflns_theta_full        67.679
_diffrn_reflns_theta_max         66.990
_diffrn_reflns_theta_min         3.552
_exptl_absorpt_coefficient_mu    14.289
_exptl_absorpt_correction_T_max  0.3775
_exptl_absorpt_correction_T_min  0.1048
_exptl_absorpt_correction_type   numerical
_exptl_absorpt_process_details   'SADABS (Sheldrick, 2004)'
_exptl_crystal_colour            colourless
_exptl_crystal_density_diffrn    2.132
_exptl_crystal_description       block
_exptl_crystal_F_000             484
_exptl_crystal_size_max          0.371
_exptl_crystal_size_mid          0.201
_exptl_crystal_size_min          0.119
_refine_diff_density_max         0.471
_refine_diff_density_min         -0.663
_refine_diff_density_rms         0.088
_refine_ls_extinction_method     none
_refine_ls_goodness_of_fit_ref   1.039
_refine_ls_hydrogen_treatment    constr
_refine_ls_matrix_type           full
_refine_ls_number_parameters     217
_refine_ls_number_reflns         2710
_refine_ls_number_restraints     0
_refine_ls_restrained_S_all      1.039
_refine_ls_R_factor_all          0.0220
_refine_ls_R_factor_gt           0.0217
_refine_ls_shift/su_max          0.001
_refine_ls_shift/su_mean         0.000
_refine_ls_structure_factor_coef Fsqd
_refine_ls_weighting_details
'w=1/[\s^2^(Fo^2^)+(0.0333P)^2^+0.8402P] where P=(Fo^2^+2Fc^2^)/3'
_refine_ls_weighting_scheme      calc
_refine_ls_wR_factor_gt          0.0557
_refine_ls_wR_factor_ref         0.0559
_reflns_Friedel_coverage         0.000
_reflns_number_gt                2676
_reflns_number_total             2710
_reflns_threshold_expression     'I > 2\s(I)'
_cod_data_source_file            cg501395p_si_002.cif
_cod_data_source_block           P1bar_Compound_4a
_cod_depositor_comments
'Adding full bibliography for 4512278--4512284.cif.'
_cod_database_code               4512282
#BEGIN Tags that were not found in dictionaries:
_shelx_space_group_comment
;
The symmetry employed for this shelxl refinement is uniquely defined
by the following loop, which should always be used as a source of
symmetry information in preference to the above space-group names.
They are only intended as comments.
;
_shelx_estimated_absorpt_t_min   0.076
_shelx_estimated_absorpt_t_max   0.281
_shelxl_version_number           2014/5
_shelx_res_file
;
TITL P1bar in P-1
CELL 1.54178   7.99420   8.49130  12.73050  80.6531  79.1801  67.1369
ZERR    2.00   0.00030   0.00030   0.00040   0.0015   0.0013   0.0012
LATT  1
SFAC C H N O SE CD
UNIT 24 24 8 12 2 2
LIST 4
TEMP -173.000
SIZE 0.119 0.201 0.371

L.S. 20
BOND $H
CONF
OMIT -2 134
FMAP 2
PLAN 5
ACTA

WGHT    0.033300    0.840200
FVAR       0.15953
MOLE   1
CD1   6    0.299087    0.823653    0.243488    11.00000    0.00986    0.01157 =
         0.01741   -0.00452   -0.00395   -0.00163
SE1   5    0.686030    0.703338    0.172402    11.00000    0.01170    0.01703 =
         0.01552   -0.00439   -0.00102   -0.00542
O1    4    0.360470    0.629816    0.416526    11.00000    0.01230    0.02001 =
         0.02233   -0.00450   -0.00385   -0.00145
O2    4    0.082055    0.792852    0.393337    11.00000    0.01407    0.02744 =
         0.02620    0.00230   -0.00571   -0.00228
O3    4    0.138934    0.633279    0.544227    11.00000    0.03093    0.03576 =
         0.02012    0.00500    0.00284   -0.00476
O4    4    0.259323    0.981056    0.063723    11.00000    0.01173    0.02397 =
         0.02675   -0.00396   -0.00223   -0.00073
O5    4    0.028190    1.029010    0.189555    11.00000    0.01848    0.03530 =
         0.01893    0.00203   -0.00233   -0.00040
O6    4   -0.003131    1.176046    0.032903    11.00000    0.01878    0.02420 =
         0.02931    0.00707   -0.01087   -0.00241
N1    3    0.392272    0.988396    0.323337    11.00000    0.01546    0.01206 =
         0.01564   -0.00280   -0.00402   -0.00422
N2    3    0.352596    0.575607    0.176973    11.00000    0.01372    0.01285 =
         0.01285   -0.00417   -0.00184   -0.00401
N3    3    0.193400    0.684128    0.453755    11.00000    0.01829    0.01571 =
         0.01823   -0.00465   -0.00337   -0.00340
N4    3    0.093324    1.064007    0.092729    11.00000    0.01577    0.01688 =
         0.02213   -0.00325   -0.00644   -0.00588
C1    1    0.269857    1.140062    0.354011    11.00000    0.01640    0.01391 =
         0.01896   -0.00355   -0.00221   -0.00276
AFIX  43
H1    2    0.145242    1.170899    0.345316    11.00000   -1.20000
AFIX   0
C2    1    0.317289    1.252159    0.397330    11.00000    0.02270    0.01620 =
         0.01776   -0.00291   -0.00235   -0.00626
AFIX  43
H2    2    0.226952    1.356956    0.420002    11.00000   -1.20000
AFIX   0
C3    1    0.500215    1.208985    0.407276    11.00000    0.02660    0.01763 =
         0.01320   -0.00207   -0.00293   -0.01179
AFIX  43
H3    2    0.537804    1.285527    0.434934    11.00000   -1.20000
AFIX   0
C4    1    0.627436    1.052466    0.376261    11.00000    0.02116    0.01926 =
         0.01473   -0.00023   -0.00531   -0.01053
AFIX  43
H4    2    0.753187    1.020470    0.382685    11.00000   -1.20000
AFIX   0
C5    1    0.569210    0.943222    0.335800    11.00000    0.01556    0.01374 =
         0.01376   -0.00005   -0.00292   -0.00565
C6    1    0.701466    0.764188    0.312440    11.00000    0.01311    0.01756 =
         0.01924   -0.00682   -0.00711   -0.00293
AFIX  23
H6A   2    0.675318    0.679982    0.369983    11.00000   -1.20000
H6B   2    0.827999    0.756250    0.313567    11.00000   -1.20000
AFIX   0
C7    1    0.669404    0.474991    0.215074    11.00000    0.01390    0.01344 =
         0.02200   -0.00553   -0.00538   -0.00181
AFIX  23
H7A   2    0.788554    0.385656    0.191154    11.00000   -1.20000
H7B   2    0.646062    0.457518    0.294456    11.00000   -1.20000
AFIX   0
C8    1    0.520520    0.452407    0.168830    11.00000    0.01310    0.01326 =
         0.01366   -0.00316   -0.00220   -0.00264
C9    1    0.556943    0.302839    0.122570    11.00000    0.01574    0.01751 =
         0.01459   -0.00350    0.00021   -0.00439
AFIX  43
H9    2    0.677267    0.217996    0.115399    11.00000   -1.20000
AFIX   0
C10   1    0.416031    0.279246    0.087211    11.00000    0.02377    0.01635 =
         0.01502   -0.00571   -0.00073   -0.00913
AFIX  43
H10   2    0.438037    0.177028    0.056533    11.00000   -1.20000
AFIX   0
C11   1    0.241855    0.406244    0.096886    11.00000    0.01830    0.02313 =
         0.02000   -0.00290   -0.00462   -0.00988
AFIX  43
H11   2    0.142695    0.392510    0.073486    11.00000   -1.20000
AFIX   0
C12   1    0.216726    0.552609    0.141306    11.00000    0.01196    0.01935 =
         0.01652   -0.00266   -0.00196   -0.00520
AFIX  43
H12   2    0.098442    0.640904    0.146942    11.00000   -1.20000
AFIX   0
HKLF 4

REM  P1bar in P-1
REM R1 =  0.0217 for    2676 Fo > 4sig(Fo)  and  0.0220 for all    2710 data
REM    217 parameters refined using      0 restraints

END

WGHT      0.0237      0.9375

REM Highest difference peak  0.471,  deepest hole -0.663,  1-sigma level  0.088
Q1    1   0.1511  0.7911  0.2874  11.00000  0.05    0.47
Q2    1   0.5530  0.7377  0.1565  11.00000  0.05    0.43
Q3    1   0.4403  0.8656  0.2077  11.00000  0.05    0.43
Q4    1   0.8238  0.6983  0.1366  11.00000  0.05    0.43
Q5    1   0.3058  0.8023  0.3157  11.00000  0.05    0.39
;
_shelx_res_checksum              34953
_shelx_hkl_file
;
  -1   0   0  162.10    8.50
   1   0   0  150.46    8.50
  -2   0   0  313.73   15.25
  -2   0   0  286.86   15.86
  -2   0   0  293.04   11.91
   2   0   0  302.59   12.02
   2   0   0  265.24   12.47
  -3   0   0  455.92   22.90
  -3   0   0  447.19   23.94
  -3   0   0  429.75   17.96
   3   0   0  431.36   18.01
  -4   0   0   11.67    1.21
  -4   0   0   11.52    0.87
   4   0   0   11.41    0.86
  -5   0   0  196.88    8.21
  -5   0   0  185.98    6.98
   5   0   0  189.88    8.12
  -6   0   0   32.10    1.66
  -6   0   0   33.33    1.55
  -6   0   0   34.05    1.42
  -6   0   0   36.52    1.66
  -6   0   0   34.49    1.99
   6   0   0   33.41    1.51
   6   0   0   34.86    1.85
   6   0   0   32.33    1.50
  -7   0   0   42.66    1.81
  -7   0   0   43.44    1.92
  -7   0   0   43.67    1.67
   7   0   0   41.42    1.73
   7   0   0   41.12    1.78
  -8   0   0   57.82    1.99
  -8   0   0   54.25    2.28
  -8   0   0   60.43    2.19
   8   0   0   55.15    2.04
   8  -1   0    6.62    0.47
  -8   1   0    6.89    0.49
  -8   1   0    6.10    0.43
   7  -1   0   17.49    0.96
  -7   1   0   18.07    0.98
  -7   1   0   18.47    1.02
  -7   1   0   18.35    0.91
  -7   1   0   17.08    1.00
   6  -1   0    2.76    0.47
  -6   1   0    2.67    0.53
  -6   1   0    2.08    0.39
  -6   1   0    2.01    0.37
  -6   1   0    2.23    0.40
  -6   1   0    1.92    0.40
  -5   1   0    9.50    0.85
  -5   1   0    9.88    0.76
  -4   1   0    6.67    0.64
  -3   1   0   26.99    1.59
  -3   1   0   30.40    2.14
  -3   1   0   30.60    1.52
  -2   1   0    1.08    0.34
  -2   1   0    0.49    0.21
  -2   1   0    0.32    0.16
  -2   1   0    0.13    0.17
  -1   1   0    4.06    0.31
  -1   1   0    3.90    0.31
  -1   1   0    4.16    0.35
  -1   1   0    4.35    0.45
   0  -1   0   31.05    1.76
   0   1   0   31.35    1.75
  -1  -1   0   73.72    3.88
   1   1   0   67.74    3.86
  -2  -1   0   21.87    1.58
   2   1   0   23.06    1.26
   2   1   0   25.96    1.15
  -3  -1   0   32.14    2.28
   3   1   0   33.58    1.67
   3   1   0   36.15    1.86
  -4  -1   0   20.63    1.55
  -4  -1   0   20.85    1.73
   4   1   0   20.05    1.35
   4   1   0   21.63    1.21
  -5  -1   0    0.75    0.34
   5   1   0    1.06    0.29
  -6  -1   0   25.39    1.29
  -6  -1   0   26.93    1.39
   6   1   0   25.75    1.44
   6   1   0   26.98    1.28
  -7  -1   0   15.00    0.91
  -7  -1   0   15.25    0.83
  -7  -1   0   15.73    0.99
   7   1   0   13.98    0.88
  -8  -1   0    3.13    0.41
  -8  -1   0    3.11    0.36
  -8  -1   0    3.25    0.46
   8   1   0    3.19    0.39
  -9  -1   0   11.78    0.59
  -9  -1   0   11.72    0.54
   9   1   0   11.39    0.58
   8  -2   0   13.17    0.60
  -8   2   0   12.48    0.61
  -8   2   0   13.47    0.55
  -8   2   0   12.30    0.56
   7  -2   0   83.21    2.91
  -7   2   0   76.85    3.18
  -7   2   0   83.71    3.16
  -7   2   0   85.89    3.07
  -7   2   0   84.84    2.79
   6  -2   0    4.66    0.56
  -6   2   0    4.43    0.48
  -6   2   0    4.08    0.53
  -6   2   0    4.41    0.56
  -6   2   0    3.28    0.49
  -5   2   0   97.20    3.83
  -5   2   0   94.19    3.81
  -5   2   0  102.16    4.33
  -5   2   0   96.28    3.64
  -5   2   0   93.13    3.32
  -4   2   0  159.73    6.56
  -4   2   0  146.69    5.72
  -3   2   0    0.59    0.38
  -3   2   0    0.25    0.19
  -3   2   0    0.30    0.25
  -2   2   0  282.14   11.11
  -2   2   0  273.11   14.94
  -2   2   0  261.46   11.68
   1  -2   0   17.83    0.83
  -1   2   0   19.05    1.25
  -1   2   0   17.36    0.83
  -1   2   0   18.24    1.00
   0   2   0  190.11   10.24
  -1  -2   0  177.59    9.45
  -1  -2   0  173.18    9.44
  -2  -2   0    0.62    0.26
  -3  -2   0  320.96   19.15
   3   2   0  363.14   14.99
   3   2   0  373.15   14.24
  -4  -2   0   97.45    6.29
   4   2   0  112.00    4.56
   4   2   0  111.62    4.97
   5   2   0  153.83    6.61
   5   2   0  159.20    5.83
   5   2   0  162.77    7.18
   5   2   0  153.62    5.33
   5   2   0  159.88    5.94
  -6  -2   0  183.64    6.94
   6   2   0  190.53    6.33
   6   2   0  184.78    7.75
   6   2   0  186.33    6.87
  -7  -2   0    3.23    0.48
  -7  -2   0    2.77    0.37
  -7  -2   0    2.66    0.40
   7   2   0    3.10    0.44
   7   2   0    3.42    0.48
  -8  -2   0  148.13    4.72
  -8  -2   0  146.60    5.15
  -8  -2   0  148.21    5.48
   8   2   0  141.59    4.96
   8   2   0  151.62    5.03
  -9  -2   0   40.34    1.39
  -9  -2   0   38.27    1.50
   9   2   0   37.94    1.45
   9   2   0   39.76    1.44
   7  -3   0   31.75    1.25
  -7   3   0   31.83    1.19
  -7   3   0   30.58    1.29
  -7   3   0   29.07    1.30
  -7   3   0   32.39    1.17
   6  -3   0    0.45    0.28
  -6   3   0    0.23    0.24
  -6   3   0    0.48    0.25
  -6   3   0    0.34    0.28
  -6   3   0    0.09    0.23
  -5   3   0  102.64    4.11
  -5   3   0  103.51    3.93
  -5   3   0  104.57    3.59
  -5   3   0  107.86    3.78
  -4   3   0   57.83    2.45
  -4   3   0   55.43    2.36
  -4   3   0   53.35    2.48
  -3   3   0    6.60    0.66
  -3   3   0    6.79    0.49
  -3   3   0    6.21    0.63
  -3   3   0    7.67    0.57
  -3   3   0    8.16    0.82
  -2   3   0  113.97    4.80
  -2   3   0  120.83    5.30
  -2   3   0  111.57    6.70
  -2   3   0  115.53    4.75
  -1   3   0   45.84    2.26
  -1   3   0   46.37    2.84
   0  -3   0    2.63    0.25
   0   3   0    2.94    0.31
   0   3   0    2.64    0.35
   1   3   0   47.73    2.79
   1   3   0   49.30    2.09
  -2  -3   0   41.97    2.49
   2   3   0   40.96    1.82
  -3  -3   0   33.15    2.28
   3   3   0   35.71    1.71
  -4  -3   0   12.27    1.27
   4   3   0   15.52    1.00
   4   3   0   13.79    0.77
   5   3   0    4.80    0.49
   5   3   0    4.96    0.31
   5   3   0    4.43    0.53
   5   3   0    6.10    0.70
   5   3   0    4.20    0.61
  -6  -3   0    1.67    0.64
   6   3   0    1.89    0.37
   6   3   0    1.67    0.42
   6   3   0    1.48    0.35
   6   3   0    1.99    0.35
   6   3   0    2.00    0.41
  -7  -3   0    1.02    0.36
  -7  -3   0    1.67    0.41
   7   3   0    1.81    0.40
   7   3   0    1.01    0.32
   7   3   0    1.41    0.30
   7   3   0    1.24    0.30
   7   3   0    1.53    0.29
  -8  -3   0    0.53    0.31
  -8  -3   0    0.35    0.23
  -8  -3   0    1.36    0.32
   8   3   0    0.87    0.22
   8   3   0    0.18    0.21
   8   3   0    0.54    0.28
  -9  -3   0    5.27    0.50
  -9  -3   0    5.92    0.45
  -9  -3   0    5.90    0.43
   9   3   0    6.52    0.44
   9   3   0    6.12    0.38
   6  -4   0   58.07    2.09
  -6   4   0   55.94    2.26
  -6   4   0   55.56    2.17
  -6   4   0   58.85    1.99
  -6   4   0   54.42    1.96
  -5   4   0    1.77    0.41
  -5   4   0    1.37    0.29
  -5   4   0    1.47    0.31
  -5   4   0    1.61    0.39
  -4   4   0  158.71    5.81
  -4   4   0  162.90    5.61
  -4   4   0  167.27    5.61
  -4   4   0  169.10    6.83
  -4   4   0  165.83    5.60
  -4   4   0  168.18    5.46
  -4   4   0  160.27    6.22
  -4   4   0  172.66    6.27
  -4   4   0  165.89    5.98
  -3   4   0    8.15    0.91
  -3   4   0    8.10    0.81
  -3   4   0    8.27    0.77
  -3   4   0    7.52    0.62
  -3   4   0    7.60    0.73
  -3   4   0    8.23    0.94
  -2   4   0   57.56    2.87
  -2   4   0   52.54    2.28
  -2   4   0   53.60    2.06
  -2   4   0   53.47    2.30
  -2   4   0   53.94    2.64
  -1   4   0  170.19    7.23
  -1   4   0  155.50    9.10
  -1   4   0  160.44    5.32
  -1   4   0  160.99    6.66
   0   4   0   11.61    0.78
   0   4   0   11.31    0.95
   1   4   0  367.54   19.94
   1   4   0  373.60   15.49
  -2  -4   0  141.40    8.07
   2   4   0  150.14    6.14
   3   4   0   42.58    1.66
   3   4   0   44.69    2.04
   4   4   0  268.43    9.85
   4   4   0  284.78    9.04
   4   4   0  295.30   12.16
   5   4   0    1.70    0.29
   5   4   0    1.16    0.28
   5   4   0    1.34    0.41
   5   4   0    2.57    0.54
  -6  -4   0  107.69    6.69
   6   4   0  110.95    3.68
   6   4   0  111.83    3.93
   6   4   0  112.37    4.04
   6   4   0  114.02    4.31
   6   4   0  113.14    3.93
   6   4   0  114.09    3.85
   6   4   0  112.72    4.52
   6   4   0  112.22    3.99
   6   4   0  116.25    4.25
   7   4   0   88.46    3.20
   7   4   0   86.19    3.05
   7   4   0   84.80    3.02
   7   4   0   81.71    3.05
   7   4   0   88.18    3.00
   7   4   0   83.03    2.86
   7   4   0   80.98    3.23
   7   4   0   87.39    3.09
   7   4   0   81.18    3.38
   7   4   0   92.26    3.35
   7   4   0   84.65    3.31
  -8  -4   0   12.44    0.89
  -8  -4   0   12.83    0.80
  -8  -4   0   13.47    0.75
   8   4   0   11.76    0.77
   8   4   0   11.37    0.78
   8   4   0   13.20    0.65
   8   4   0   13.14    0.80
  -9  -4   0   83.74    2.94
  -9  -4   0   79.36    3.14
  -9  -4   0   86.24    2.71
   9   4   0   83.81    2.88
   9   4   0   82.15    2.68
   6  -5   0   28.12    1.07
  -6   5   0   27.64    1.14
   5  -5   0    3.70    0.46
  -5   5   0    3.36    0.26
  -5   5   0    3.35    0.45
  -5   5   0    3.69    0.45
  -5   5   0    2.81    0.36
  -5   5   0    2.44    0.36
  -4   5   0   57.66    2.06
  -4   5   0   58.20    2.15
  -4   5   0   55.20    2.10
  -4   5   0   58.32    2.21
  -4   5   0   53.75    2.14
  -4   5   0   53.37    2.44
  -4   5   0   53.75    2.01
  -4   5   0   53.45    2.68
  -4   5   0   58.22    2.38
  -3   5   0    0.28    0.36
  -3   5   0    0.36    0.30
  -3   5   0    0.00    0.28
  -3   5   0   -0.19    0.19
  -3   5   0   -0.03    0.33
  -3   5   0    0.28    0.37
  -3   5   0    0.09    0.36
  -3   5   0   -0.20    0.36
  -3   5   0    0.30    0.26
  -3   5   0    1.03    0.26
  -2   5   0   13.39    0.99
  -2   5   0   14.96    1.20
  -2   5   0   14.21    1.20
  -2   5   0   14.67    0.85
  -2   5   0   13.96    1.02
  -2   5   0   13.80    1.18
  -1   5   0   67.37    3.25
  -1   5   0   67.47    2.28
  -1   5   0   64.75    2.80
  -1   5   0   65.05    3.31
  -1   5   0   65.62    2.44
  -1   5   0   68.75    2.71
   0   5   0   31.67    1.87
   0   5   0   28.86    1.22
   0   5   0   31.34    1.64
   1   5   0   29.70    1.36
   1   5   0   29.05    1.07
   1   5   0   26.79    1.68
   2   5   0    2.22    0.19
   3   5   0   13.83    0.76
   3   5   0   13.55    0.54
   4   5   0   11.33    0.56
   4   5   0   11.42    0.80
   4   5   0   10.29    0.82
   4   5   0   10.42    0.54
   5   5   0    2.04    0.43
   5   5   0    1.23    0.24
   5   5   0    1.77    0.30
   5   5   0    1.24    0.25
   5   5   0    1.01    0.37
   5   5   0    1.26    0.45
   6   5   0   17.67    0.93
   6   5   0   17.89    0.87
   6   5   0   18.48    0.93
   6   5   0   16.04    1.15
   6   5   0   17.24    0.74
   6   5   0   17.82    1.05
   6   5   0   18.16    1.12
   6   5   0   17.68    1.23
   6   5   0   18.41    1.25
   6   5   0   18.23    0.94
   6   5   0   18.25    0.92
   6   5   0   19.31    1.17
   7   5   0    5.59    0.62
   7   5   0    5.94    0.63
   7   5   0    5.43    0.51
   7   5   0    5.88    0.36
   7   5   0    4.37    0.47
   7   5   0    4.25    0.56
   7   5   0    4.71    0.43
   7   5   0    5.57    0.49
   7   5   0    5.91    0.63
   7   5   0    5.56    0.73
   7   5   0    5.78    0.47
   7   5   0    4.85    0.63
  -8  -5   0    0.38    0.36
  -8  -5   0    1.13    0.34
   8   5   0    1.23    0.24
   8   5   0    0.72    0.26
   8   5   0    0.68    0.24
   8   5   0    0.79    0.23
   8   5   0    1.13    0.28
   8   5   0    0.66    0.27
   8   5   0    0.95    0.20
   8   5   0    1.15    0.30
   8   5   0    0.88    0.28
  -9  -5   0    1.39    0.26
  -9  -5   0    1.75    0.24
   9   5   0    1.45    0.23
   9   5   0    1.55    0.24
   5  -6   0    5.15    0.41
  -5   6   0    5.18    0.41
  -5   6   0    5.93    0.39
  -5   6   0    5.36    0.36
   4  -6   0   15.27    0.86
  -4   6   0   14.92    0.73
  -4   6   0   14.27    0.76
  -4   6   0   13.80    0.70
  -4   6   0   14.80    0.85
  -4   6   0   15.37    0.92
  -4   6   0   12.17    0.76
  -4   6   0   14.78    0.77
  -3   6   0   72.83    2.84
  -3   6   0   69.67    2.45
  -3   6   0   66.65    2.96
  -3   6   0   71.72    2.56
  -3   6   0   71.47    2.61
  -3   6   0   68.03    2.64
  -3   6   0   70.49    2.84
  -3   6   0   69.58    2.56
  -3   6   0   68.07    2.54
  -2   6   0    0.72    0.26
  -2   6   0    0.48    0.37
  -2   6   0    0.69    0.48
  -2   6   0    0.54    0.26
  -2   6   0    0.37    0.44
  -2   6   0    0.67    0.33
  -2   6   0    0.72    0.40
  -2   6   0    1.70    0.52
  -2   6   0    0.47    0.27
  -1   6   0   80.92    2.96
  -1   6   0   82.32    3.52
  -1   6   0   87.69    4.01
  -1   6   0   81.49    2.94
  -1   6   0   86.43    3.44
  -1   6   0   80.97    3.23
  -1   6   0   87.44    2.98
  -1   6   0   78.98    4.01
  -1   6   0   83.31    3.02
   0   6   0   86.40    3.06
   0   6   0   87.40    3.58
   0   6   0   85.19    4.00
   0   6   0   90.72    4.19
   1   6   0   54.26    1.89
   1   6   0   51.66    2.24
   1   6   0   53.52    2.43
   1   6   0   54.36    2.83
   1   6   0   52.95    2.40
   2   6   0  155.76    5.73
   2   6   0  153.31    4.91
  -3  -6   0   13.82    1.29
   3   6   0   16.42    0.86
   3   6   0   16.26    1.00
   3   6   0   16.60    0.62
   4   6   0  167.59    5.33
   4   6   0  165.29    6.20
   4   6   0  161.90    7.15
   4   6   0  163.25    5.00
   5   6   0   96.67    3.21
   5   6   0   94.55    4.33
   5   6   0   93.25    3.70
   5   6   0   88.86    3.78
   5   6   0   94.28    3.03
   5   6   0   94.87    3.64
   5   6   0   96.09    3.88
   5   6   0   90.12    3.33
   5   6   0   94.79    3.24
   6   6   0    5.56    0.72
   6   6   0    4.18    0.44
   6   6   0    4.87    0.66
   6   6   0    4.44    0.69
   6   6   0    3.93    0.53
   6   6   0    4.52    0.29
   6   6   0    4.20    0.44
   6   6   0    5.20    0.45
   6   6   0    3.95    0.44
   6   6   0    3.85    0.57
   6   6   0    5.28    0.76
   7   6   0   76.43    3.16
   7   6   0   81.01    2.62
   7   6   0   79.37    2.78
   7   6   0   76.91    2.72
   7   6   0   76.06    2.78
   7   6   0   78.40    2.93
   7   6   0   81.75    3.30
   7   6   0   78.68    2.79
   7   6   0   76.17    3.03
   7   6   0   78.01    2.84
   7   6   0   75.31    3.06
  -8  -6   0    3.64    0.45
  -8  -6   0    3.96    0.55
   8   6   0    4.00    0.36
   8   6   0    3.64    0.43
   8   6   0    4.48    0.47
   8   6   0    3.97    0.38
   8   6   0    4.54    0.39
   8   6   0    4.53    0.35
   8   6   0    3.29    0.43
   8   6   0    3.81    0.39
  -9  -6   0   31.92    1.10
   9   6   0   32.25    1.20
   9   6   0   32.63    1.12
   9   6   0   26.37    1.09
   9   6   0   32.14    1.20
   9   6   0   30.16    1.24
  -4   7   0    4.77    0.38
  -4   7   0    4.71    0.30
  -3   7   0   58.69    1.99
  -3   7   0   58.81    2.35
  -3   7   0   55.07    1.92
  -3   7   0   52.51    2.02
  -3   7   0   56.72    2.19
  -3   7   0   54.57    2.02
  -2   7   0    0.40    0.31
  -2   7   0    0.56    0.23
  -2   7   0    0.34    0.20
  -2   7   0    0.45    0.23
  -2   7   0    0.90    0.42
  -2   7   0    0.63    0.21
  -2   7   0    0.18    0.46
  -1   7   0  102.28    3.86
  -1   7   0  103.06    3.59
  -1   7   0  100.91    3.40
  -1   7   0  104.59    3.59
  -1   7   0  103.68    4.71
  -1   7   0  105.11    4.22
  -1   7   0  101.42    4.00
  -1   7   0   97.97    3.49
   0   7   0   22.69    1.04
   0   7   0   27.19    1.85
   0   7   0   22.83    1.51
   0   7   0   25.04    1.12
   0   7   0   25.50    1.34
   0   7   0   25.63    1.48
   1   7   0   23.01    1.14
   1   7   0   24.05    1.54
   1   7   0   23.72    1.27
   1   7   0   24.57    1.80
   1   7   0   23.57    0.91
   1   7   0   25.15    0.98
   1   7   0   24.63    1.39
   2   7   0   80.25    3.20
   2   7   0   72.30    2.84
   2   7   0   79.21    2.49
   2   7   0   77.46    3.21
   2   7   0   78.90    2.57
   2   7   0   82.25    3.05
   3   7   0    0.38    0.36
   3   7   0    0.13    0.33
   3   7   0    0.14    0.10
   3   7   0    0.01    0.36
   4   7   0   39.02    1.41
   4   7   0   39.87    1.95
   4   7   0   39.57    1.44
   4   7   0   40.31    1.34
   4   7   0   40.14    1.98
   4   7   0   39.48    1.82
   4   7   0   39.55    1.72
   5   7   0    0.32    0.18
   5   7   0    0.00    0.37
   5   7   0    0.21    0.39
   5   7   0    0.44    0.18
   5   7   0   -0.15    0.33
   5   7   0    0.91    0.38
   5   7   0    2.25    0.48
   5   7   0    0.48    0.17
   6   7   0    8.29    0.78
   6   7   0    8.28    0.56
   6   7   0    8.78    0.85
   6   7   0    9.21    0.82
   6   7   0    5.98    0.74
   6   7   0    8.46    0.52
   6   7   0    8.12    0.50
   6   7   0    8.47    0.86
   6   7   0    8.91    0.55
   7   7   0   18.65    0.79
   7   7   0   16.55    1.05
   7   7   0   17.29    1.13
   7   7   0   18.79    1.08
   7   7   0   18.66    1.01
   7   7   0   19.73    0.82
   7   7   0   18.03    0.85
   7   7   0   18.53    1.04
   7   7   0   17.19    0.82
  -8  -7   0    0.67    0.34
   8   7   0    0.42    0.21
   8   7   0    0.48    0.17
   8   7   0    0.36    0.14
   8   7   0    0.83    0.17
   8   7   0    0.31    0.14
   8   7   0    0.39    0.22
   8   7   0    0.09    0.20
   8   7   0    0.54    0.21
   9   7   0    5.64    0.27
  -2   8   0   18.78    0.81
  -2   8   0   19.82    0.93
  -2   8   0   19.35    1.01
  -2   8   0   18.74    0.73
  -2   8   0   17.67    0.76
  -1   8   0    4.26    0.37
  -1   8   0    4.40    0.36
  -1   8   0    5.10    0.56
  -1   8   0    4.24    0.69
  -1   8   0    4.49    0.41
  -1   8   0    4.57    0.39
  -1   8   0    5.29    0.67
   0   8   0   77.63    3.83
   0   8   0   82.51    3.12
   0   8   0   82.32    2.89
   0   8   0   82.65    2.71
   0   8   0   81.33    2.80
   0   8   0   80.36    2.65
   0   8   0   82.99    3.37
   1   8   0    6.35    0.96
   1   8   0    6.76    0.71
   1   8   0    5.87    0.28
   1   8   0    6.86    0.76
   1   8   0    5.30    0.41
   1   8   0    5.79    0.36
   2   8   0   14.90    0.61
   2   8   0   15.71    0.98
   2   8   0   14.65    1.00
   4   8   0    3.32    0.59
   4   8   0    3.58    0.64
   4   8   0    5.12    0.62
   4   8   0    3.85    0.28
   5   8   0   51.04    2.05
   5   8   0   51.90    2.40
   5   8   0   53.22    2.30
   5   8   0   51.92    1.79
   5   8   0   52.23    1.74
   6   8   0   18.22    0.84
   6   8   0   18.89    0.77
   6   8   0   19.10    1.13
   6   8   0   18.93    1.10
   6   8   0   20.40    0.78
   6   8   0   19.44    1.06
   6   8   0   18.62    1.20
   6   8   0   17.87    0.67
   7   8   0   19.65    1.01
   7   8   0   16.90    0.88
   7   8   0   18.38    0.74
   7   8   0   18.14    0.72
   7   8   0   20.01    0.99
   7   8   0   18.40    1.05
   7   8   0   18.63    0.79
   7   8   0   18.91    0.67
   8   8   0   60.35    2.17
   8   8   0   51.66    1.84
   8   8   0   58.25    2.06
   8   8   0   56.41    1.92
   8   8   0   56.38    1.80
  -1   9   0    4.53    0.39
  -1   9   0    3.44    0.26
   0   9   0   35.90    1.36
   0   9   0   37.73    1.63
   0   9   0   36.34    1.25
   1   9   0    2.84    0.24
   1   9   0    2.65    0.44
   1   9   0    2.95    0.33
   2   9   0   13.68    0.92
   5   9   0   10.64    0.82
   6   9   0    0.42    0.11
   6   9   0    0.35    0.26
   6   9   0    0.49    0.14
   7   9   0   24.91    1.05
   7   9   0   23.62    1.01
   7   9   0   23.79    0.87
   7   9  -1    1.72    0.16
   6   9  -1   29.35    1.14
   6   9  -1   35.41    1.33
   0   9  -1   16.85    0.72
   0   9  -1   17.35    0.91
   0   9  -1   17.09    0.63
  -1   9  -1    0.77    0.14
   8   8  -1    6.04    0.41
   8   8  -1    5.67    0.39
   8   8  -1    5.86    0.30
   7   8  -1   21.07    0.77
   7   8  -1   21.68    1.04
   7   8  -1   20.65    0.83
   7   8  -1   21.00    1.00
   6   8  -1    5.11    0.37
   6   8  -1    4.28    0.50
   6   8  -1    4.77    0.31
   6   8  -1    3.56    0.46
   6   8  -1    4.57    0.28
   5   8  -1   56.98    1.85
   5   8  -1   57.83    2.41
   1   8  -1    0.19    0.54
   1   8  -1    0.49    0.12
   1   8  -1    0.24    0.48
   1   8  -1    0.35    0.17
   1   8  -1    0.81    0.37
   0   8  -1   66.48    2.09
   0   8  -1   63.62    3.22
   0   8  -1   66.34    2.76
   0   8  -1   66.43    2.78
   0   8  -1   65.30    2.21
   0   8  -1   65.88    2.26
   0   8  -1   67.32    2.37
  -1   8  -1   44.14    1.66
  -1   8  -1   42.81    1.62
  -1   8  -1   43.22    1.56
  -1   8  -1   46.45    1.51
  -1   8  -1   43.23    2.29
  -1   8  -1   47.24    2.04
  -2   8  -1    8.71    0.47
  -2   8  -1    9.55    0.39
  -2   8  -1    8.25    0.45
  -2   8  -1    8.25    0.63
  -2   8  -1    8.86    0.46
   8   7  -1   36.56    1.50
   8   7  -1   35.76    1.22
   8   7  -1   35.60    1.29
   8   7  -1   35.61    1.23
   8   7  -1   36.62    1.39
   8   7  -1   33.60    1.27
   8   7  -1   36.98    1.44
  -8  -7   1   34.23    1.27
   7   7  -1   89.50    3.36
   7   7  -1   86.69    2.94
   7   7  -1   84.82    3.18
   7   7  -1   91.19    2.75
   7   7  -1   89.17    2.82
   7   7  -1   80.33    2.89
   7   7  -1   84.26    3.08
   7   7  -1   79.13    2.88
   6   7  -1    3.27    0.55
   6   7  -1    4.88    0.59
   6   7  -1    3.38    0.52
   6   7  -1    4.62    0.35
   6   7  -1    4.24    0.37
   6   7  -1    3.91    0.35
   6   7  -1    3.38    0.36
   6   7  -1    3.90    0.56
   5   7  -1   72.89    3.02
   5   7  -1   70.35    3.07
   5   7  -1   74.79    2.40
   5   7  -1   72.38    2.43
   5   7  -1   75.63    2.53
   5   7  -1   74.94    3.18
   4   7  -1   49.49    1.61
   4   7  -1   49.32    1.70
   4   7  -1   49.03    2.29
   4   7  -1   48.45    2.27
   1   7  -1    0.59    0.40
   1   7  -1    0.50    0.46
   1   7  -1   -0.03    0.51
   1   7  -1    0.53    0.14
   1   7  -1    1.16    0.18
   0   7  -1   12.40    0.69
   0   7  -1   12.59    0.65
   0   7  -1   13.04    0.98
   0   7  -1   12.68    1.09
   0   7  -1   12.23    1.27
  -1   7  -1    4.66    0.70
  -1   7  -1    4.32    0.45
  -1   7  -1    3.59    0.41
  -1   7  -1    3.38    0.72
  -1   7  -1    3.49    0.40
  -1   7  -1    5.86    0.79
  -2   7  -1   35.65    1.43
  -2   7  -1   35.77    1.46
  -2   7  -1   38.73    1.75
  -2   7  -1   37.81    1.65
  -2   7  -1   36.58    1.47
  -2   7  -1   36.04    1.86
  -2   7  -1   35.10    2.03
  -2   7  -1   36.34    1.40
  -3   7  -1   18.10    0.75
  -3   7  -1   15.04    0.72
  -3   7  -1   15.83    0.96
  -3   7  -1   16.12    0.74
  -3   7  -1   14.14    0.74
  -4   7  -1    1.50    0.23
  -4   7  -1    1.69    0.18
   9   6  -1   13.45    0.67
   9   6  -1   13.88    0.62
   9   6  -1   14.07    0.56
   8   6  -1   18.11    0.77
   8   6  -1   17.57    0.76
   8   6  -1   19.15    0.80
   8   6  -1   17.23    0.82
   8   6  -1   18.15    0.92
   8   6  -1   20.04    0.97
   8   6  -1   18.07    0.90
   8   6  -1   16.94    0.80
  -8  -6   1   17.25    1.01
   7   6  -1   19.75    1.05
   7   6  -1   19.60    1.09
   7   6  -1   19.81    0.89
   7   6  -1   20.04    0.85
   7   6  -1   19.37    1.03
   7   6  -1   21.52    0.93
   7   6  -1   18.34    1.12
   7   6  -1   19.10    0.89
   6   6  -1    9.14    0.90
   6   6  -1    9.01    0.57
   6   6  -1    8.92    0.55
   6   6  -1    9.06    0.85
   6   6  -1    9.96    0.59
   6   6  -1    9.58    0.81
   6   6  -1    8.87    0.81
   6   6  -1    8.67    0.59
   6   6  -1    8.52    0.71
   5   6  -1    0.36    0.32
   5   6  -1    0.24    0.40
   5   6  -1    1.12    0.23
   5   6  -1    0.61    0.43
   5   6  -1   -0.06    0.32
   5   6  -1    0.34    0.41
   5   6  -1    0.90    0.21
   5   6  -1    0.00    0.18
   4   6  -1   58.10    2.54
   4   6  -1   57.17    2.00
   4   6  -1   56.33    1.85
   3   6  -1    8.55    0.77
   3   6  -1    9.04    0.39
   1   6  -1   72.09    2.43
   1   6  -1   71.53    3.04
   1   6  -1   70.54    3.09
   1   6  -1   73.45    3.54
   0   6  -1    0.41    0.19
   0   6  -1    0.56    0.23
   0   6  -1    0.74    0.26
   0   6  -1    1.64    0.52
   0   6  -1    0.95    0.53
  -1   6  -1   32.30    1.41
  -1   6  -1   33.99    1.34
  -1   6  -1   35.19    1.80
  -1   6  -1   30.44    1.87
  -1   6  -1   33.20    1.42
  -1   6  -1   33.93    1.77
  -1   6  -1   35.08    2.07
  -1   6  -1   35.72    1.63
  -2   6  -1   24.42    1.54
  -2   6  -1   26.49    1.36
  -2   6  -1   24.43    1.16
  -2   6  -1   26.66    1.20
  -2   6  -1   24.45    1.12
  -2   6  -1   24.05    1.40
  -2   6  -1   21.94    1.31
  -2   6  -1   26.82    1.71
  -3   6  -1   69.40    2.52
  -3   6  -1   66.86    2.60
  -3   6  -1   71.39    2.79
  -3   6  -1   65.75    2.47
  -3   6  -1   71.21    2.77
  -3   6  -1   68.58    2.95
  -3   6  -1   67.66    3.24
  -3   6  -1   70.12    2.56
  -4   6  -1   24.33    1.02
  -4   6  -1   22.54    1.07
  -4   6  -1   24.11    1.25
  -4   6  -1   24.46    1.03
  -4   6  -1   24.79    1.17
  -4   6  -1   23.96    1.02
  -4   6  -1   26.47    1.08
  -5   6  -1    1.48    0.21
  -5   6  -1    1.10    0.21
   5  -6   1    1.42    0.25
   9   5  -1   40.00    1.52
   9   5  -1   42.46    1.46
   9   5  -1   41.44    1.54
  -9  -5   1   42.25    1.42
   8   5  -1    1.43    0.32
   8   5  -1    1.16    0.26
   8   5  -1    1.47    0.26
   8   5  -1    1.79    0.32
   8   5  -1    1.17    0.22
   8   5  -1    0.86    0.26
   8   5  -1    1.53    0.22
   8   5  -1    1.02    0.22
  -8  -5   1    1.72    0.30
  -8  -5   1    1.55    0.40
  -8  -5   1    1.61    0.35
   7   5  -1   75.84    2.70
   7   5  -1   84.91    3.37
   7   5  -1   87.26    2.99
   7   5  -1   85.78    3.15
   7   5  -1   81.64    2.93
   7   5  -1   89.35    3.17
   7   5  -1   83.83    2.97
   7   5  -1   86.29    2.80
   7   5  -1   84.98    3.22
   7   5  -1   82.31    3.21
   7   5  -1   87.59    3.00
   6   5  -1   33.92    1.33
   6   5  -1   36.30    1.46
   6   5  -1   33.02    1.56
   6   5  -1   33.78    1.70
   6   5  -1   32.45    1.75
   6   5  -1   33.33    1.16
   6   5  -1   34.29    1.42
   6   5  -1   34.01    1.41
   6   5  -1   34.02    1.79
   6   5  -1   35.00    1.43
   6   5  -1   32.31    1.57
   6   5  -1   35.32    1.70
   5   5  -1   21.38    0.95
   5   5  -1   21.61    1.34
   5   5  -1   21.81    0.92
   5   5  -1   19.93    1.13
   5   5  -1   21.44    0.98
   4   5  -1  224.15    9.33
   4   5  -1  220.59    6.95
   4   5  -1  203.87    7.89
   4   5  -1  213.63    7.41
   3   5  -1    2.44    0.20
   3   5  -1    3.31    0.33
   1   5  -1  264.74   10.95
   1   5  -1  262.28   10.47
   1   5  -1  256.30    8.21
   0   5  -1   10.71    1.00
   0   5  -1   10.91    0.94
   0   5  -1    9.97    0.54
   0   5  -1   10.13    0.75
  -1   5  -1  163.35    5.56
  -1   5  -1  170.62    7.51
  -1   5  -1  169.07    6.07
  -1   5  -1  169.69    7.06
  -1   5  -1  167.07    5.21
  -2   5  -1   29.30    1.14
  -2   5  -1   30.01    1.32
  -2   5  -1   29.96    1.22
  -2   5  -1   29.00    1.57
  -2   5  -1   28.85    1.68
  -2   5  -1   27.91    1.31
  -2   5  -1   28.31    1.24
  -2   5  -1   30.24    1.83
  -2   5  -1   29.56    1.79
  -2   5  -1   29.43    1.49
  -3   5  -1   54.71    2.55
  -3   5  -1   54.81    2.39
  -3   5  -1   56.45    2.17
  -3   5  -1   52.66    1.98
  -3   5  -1   55.11    2.09
  -3   5  -1   53.34    2.13
  -3   5  -1   53.17    2.34
  -3   5  -1   53.27    2.21
  -3   5  -1   58.17    2.78
  -4   5  -1   23.69    1.27
  -4   5  -1   22.45    1.11
  -4   5  -1   22.89    0.95
  -4   5  -1   22.37    1.31
  -4   5  -1   23.55    1.06
  -4   5  -1   24.12    1.16
  -4   5  -1   22.00    1.47
  -4   5  -1   22.81    1.21
  -4   5  -1   22.61    1.26
  -5   5  -1    0.60    0.11
  -5   5  -1    1.05    0.29
  -5   5  -1    0.88    0.26
  -5   5  -1    0.59    0.27
   5  -5   1    0.72    0.30
  -6   5  -1   37.28    1.46
   6  -5   1   36.09    1.33
   9   4  -1    1.72    0.25
  -9  -4   1    0.94    0.19
  -9  -4   1    0.87    0.22
   8   4  -1    1.97    0.35
   8   4  -1    1.55    0.30
   8   4  -1    2.04    0.25
   8   4  -1    2.17    0.33
   8   4  -1    2.20    0.34
   8   4  -1    1.93    0.28
  -8  -4   1    2.78    0.42
  -8  -4   1    2.31    0.32
  -8  -4   1    2.07    0.42
   7   4  -1    2.60    0.32
   7   4  -1    1.56    0.37
   7   4  -1    2.18    0.28
   7   4  -1    2.76    0.41
   7   4  -1    2.02    0.39
   7   4  -1    1.43    0.32
   7   4  -1    2.47    0.43
   7   4  -1    2.17    0.33
   7   4  -1    1.60    0.32
   7   4  -1    2.43    0.38
  -7  -4   1    1.67    0.44
   6   4  -1    9.20    0.89
   6   4  -1    9.96    0.85
   6   4  -1    9.21    0.72
   6   4  -1    8.68    0.72
   6   4  -1   10.37    0.66
   6   4  -1    9.39    0.66
   6   4  -1    8.86    0.59
   6   4  -1    9.65    0.57
   6   4  -1    8.87    0.78
   6   4  -1    9.75    0.84
   6   4  -1    8.44    0.81
   6   4  -1    9.56    0.62
  -6  -4   1    8.78    1.31
   5   4  -1    1.61    0.45
   5   4  -1    1.34    0.27
   5   4  -1    1.59    0.27
   5   4  -1    1.58    0.29
   4   4  -1   61.53    2.16
   4   4  -1   57.00    2.28
   4   4  -1   62.81    2.93
   3   4  -1   94.65    3.31
   3   4  -1   97.14    4.16
  -3  -4   1   89.24    5.52
   2   4  -1    2.23    0.17
  -2  -4   1    2.42    0.46
  -1  -4   1  115.98    6.54
   0   4  -1   73.57    3.23
   0   4  -1   65.46    3.23
   0   4  -1   72.17    4.18
  -1   4  -1  119.77    5.22
  -1   4  -1  114.12    7.03
  -1   4  -1  133.25    5.56
  -1   4  -1  123.28    4.07
  -2   4  -1  139.22    5.06
  -2   4  -1  140.09    5.89
  -2   4  -1  144.01    6.39
  -2   4  -1  135.87    4.70
  -3   4  -1    0.21    0.33
  -3   4  -1    0.47    0.24
  -3   4  -1    0.19    0.34
  -3   4  -1    0.45    0.26
  -3   4  -1    0.07    0.35
  -4   4  -1   53.62    2.06
  -4   4  -1   57.45    2.14
  -4   4  -1   52.40    3.12
  -4   4  -1   51.59    2.31
  -4   4  -1   51.90    2.25
  -4   4  -1   52.60    2.07
  -4   4  -1   55.50    2.16
  -4   4  -1   55.61    2.66
  -4   4  -1   54.95    2.20
  -4   4  -1   52.04    2.44
  -5   4  -1   41.76    1.66
  -5   4  -1   43.72    1.69
  -5   4  -1   42.88    1.96
  -5   4  -1   43.19    1.88
  -6   4  -1   17.02    0.90
  -6   4  -1   17.50    0.81
  -6   4  -1   18.95    0.98
  -6   4  -1   19.16    0.77
   6  -4   1   17.88    0.91
   9   3  -1   34.43    1.30
   9   3  -1   34.91    1.22
  -9  -3   1   31.94    1.31
  -9  -3   1   35.89    1.24
   8   3  -1   67.39    2.41
   8   3  -1   63.26    2.28
   8   3  -1   57.16    2.52
  -8  -3   1   66.31    2.63
  -8  -3   1   62.28    2.42
  -8  -3   1   64.45    2.23
   7   3  -1    6.33    0.50
   7   3  -1    5.27    0.56
   7   3  -1    5.19    0.55
   7   3  -1    5.63    0.54
   7   3  -1    4.65    0.54
   7   3  -1    5.14    0.43
  -7  -3   1    5.68    0.57
  -7  -3   1    5.11    0.60
  -7  -3   1    5.06    0.57
   6   3  -1  125.85    4.54
   6   3  -1  116.95    3.87
   6   3  -1  127.51    4.17
   6   3  -1  115.31    4.14
   6   3  -1  123.13    4.27
   6   3  -1  120.54    4.42
  -6  -3   1  110.43    6.95
   5   3  -1   85.88    3.45
   5   3  -1   92.63    3.21
   5   3  -1   93.63    3.70
  -5  -3   1   91.19    5.47
   4   3  -1   85.57    3.73
   4   3  -1   79.04    2.96
  -4  -3   1   69.60    4.80
   3   3  -1  195.99    8.38
  -3  -3   1  192.92   10.84
   2   3  -1    0.74    0.15
   2   3  -1    0.57    0.15
  -2  -3   1    0.50    0.24
  -1  -3   1  206.06   11.20
   0   3  -1   64.40    3.71
  -1   3  -1  178.60    7.76
  -1   3  -1  180.43    9.94
  -2   3  -1  147.72    6.09
  -2   3  -1  150.01    6.65
  -2   3  -1  148.94    8.49
  -3   3  -1    1.21    0.19
  -3   3  -1    1.03    0.39
  -3   3  -1    1.32    0.38
  -3   3  -1    1.03    0.26
  -4   3  -1  153.33    5.53
  -4   3  -1  149.66    6.30
  -4   3  -1  154.79    6.27
  -4   3  -1  144.82    5.33
  -4   3  -1  163.21    7.13
  -5   3  -1   96.88    3.30
  -5   3  -1   97.28    3.46
  -5   3  -1   95.81    3.63
  -5   3  -1   92.24    3.79
  -5   3  -1   95.22    3.46
  -6   3  -1   58.31    2.15
  -6   3  -1   56.01    2.27
  -6   3  -1   55.54    2.06
  -6   3  -1   58.03    2.40
   6  -3   1   55.90    2.20
  -7   3  -1   36.46    1.43
  -7   3  -1   35.11    1.27
  -7   3  -1   35.51    1.31
  -7   3  -1   34.02    1.46
   7  -3   1   34.64    1.37
   9   2  -1    5.42    0.35
  -9  -2   1    5.92    0.37
  -9  -2   1    5.15    0.38
   8   2  -1   15.52    0.81
   8   2  -1   15.44    0.85
  -8  -2   1   15.58    0.94
  -8  -2   1   16.20    0.87
  -8  -2   1   15.54    0.80
   7   2  -1   36.69    1.56
   7   2  -1   34.68    1.57
  -7  -2   1   36.64    1.61
  -7  -2   1   36.21    1.48
  -7  -2   1   37.25    1.75
   6   2  -1    2.40    0.34
   6   2  -1    2.53    0.47
   6   2  -1    2.10    0.42
  -6  -2   1    2.67    0.48
  -6  -2   1    3.47    0.53
   5   2  -1    2.36    0.40
   5   2  -1    2.59    0.39
   5   2  -1    2.00    0.30
  -5  -2   1    2.58    0.67
   4   2  -1    2.25    0.31
   4   2  -1    1.79    0.33
   4   2  -1    1.66    0.41
  -4  -2   1    1.08    0.45
  -4  -2   1    1.53    0.50
   3   2  -1   58.68    2.75
   3   2  -1   59.18    2.42
  -3  -2   1   52.62    3.53
   2   2  -1    3.09    0.34
  -2  -2   1    3.91    0.48
  -1  -2   1  184.78   10.00
   0   2  -1    4.82    0.45
  -1   2  -1    1.93    0.14
  -1   2  -1    1.89    0.36
  -1   2  -1    1.70    0.15
  -2   2  -1   13.60    1.13
  -2   2  -1   13.24    0.70
  -2   2  -1   12.92    0.88
  -3   2  -1   13.70    0.81
  -3   2  -1   14.48    1.32
  -3   2  -1   13.51    1.00
  -4   2  -1    2.97    0.47
  -4   2  -1    2.61    0.39
  -5   2  -1   39.09    1.75
  -5   2  -1   39.18    1.96
  -5   2  -1   37.61    1.85
  -5   2  -1   38.72    1.81
  -5   2  -1   37.15    1.59
  -5   2  -1   41.21    1.73
  -6   2  -1    4.71    0.61
  -6   2  -1    4.28    0.47
  -6   2  -1    5.50    0.63
   6  -2   1    6.18    0.65
  -7   2  -1   59.56    2.39
  -7   2  -1   60.04    2.22
  -7   2  -1   60.58    2.30
  -7   2  -1   57.44    2.07
   7  -2   1   59.29    2.20
  -8   2  -1   19.57    0.77
  -8   2  -1   18.29    0.82
   8  -2   1   19.58    0.78
   9   1  -1    1.45    0.19
  -9  -1   1    1.77    0.21
  -9  -1   1    0.93    0.19
   8   1  -1  142.49    4.81
   8   1  -1  135.06    4.66
   8   1  -1  140.74    4.83
  -8  -1   1  151.12    4.58
  -8  -1   1  149.11    4.99
  -8  -1   1  139.85    5.27
   7   1  -1    6.13    0.58
   7   1  -1    6.10    0.61
  -7  -1   1    6.64    0.66
  -7  -1   1    7.61    0.59
  -7  -1   1    5.63    0.61
   6   1  -1  110.68    3.84
   6   1  -1  104.13    3.83
   6   1  -1  111.13    4.71
  -6  -1   1  107.17    3.94
  -6  -1   1  103.91    3.60
  -6  -1   1  109.37    4.21
   5   1  -1  240.55   10.07
  -5  -1   1  244.75    8.80
   4   1  -1   34.40    1.71
  -4  -1   1   37.55    2.34
  -4  -1   1   30.08    2.43
   3   1  -1  417.05   17.97
   3   1  -1  447.09   17.22
  -3  -1   1  460.89   22.19
  -3  -1   1  366.71   22.92
   2   1  -1  162.95    6.84
   2   1  -1  168.59    7.20
  -2  -1   1  166.25    9.18
   1   1  -1  195.07    9.21
   1   1  -1  221.17   11.78
   1   1  -1  218.58    9.59
  -1  -1   1  240.78   11.80
   0   1  -1  430.82   22.19
   0   1  -1  378.34   17.81
   0  -1   1  440.10   22.20
  -1   1  -1   82.44    4.52
  -1   1  -1   79.42    3.33
  -2   1  -1  410.09   16.87
  -2   1  -1  425.24   22.51
  -3   1  -1  104.61    5.06
  -3   1  -1  116.39    6.54
  -3   1  -1  116.34    4.81
  -4   1  -1   48.56    2.35
  -5   1  -1   93.87    4.19
  -5   1  -1   90.31    3.61
  -6   1  -1    0.13    0.23
  -6   1  -1    0.16    0.31
  -6   1  -1    0.23    0.27
  -6   1  -1    0.35    0.33
  -6   1  -1    0.53    0.31
   6  -1   1    0.67    0.32
  -7   1  -1   48.49    2.09
  -7   1  -1   49.47    2.02
  -7   1  -1   49.71    2.12
  -7   1  -1   48.45    1.84
   7  -1   1   50.34    1.94
  -8   1  -1   29.16    1.23
  -8   1  -1   30.06    1.12
  -8   1  -1   28.52    1.26
   8  -1   1   30.08    1.18
   8   0  -1    7.20    0.52
  -8   0   1    6.53    0.49
  -8   0   1    7.11    0.57
  -8   0   1    6.70    0.51
   7   0  -1    0.57    0.28
  -7   0   1    0.59    0.29
  -7   0   1    0.32    0.23
  -7   0   1    0.47    0.30
   6   0  -1    2.78    0.48
   6   0  -1    1.99    0.41
  -6   0   1    1.45    0.34
  -6   0   1    2.16    0.35
  -6   0   1    2.14    0.39
   5   0  -1    2.98    0.48
  -5   0   1    3.18    0.49
   4   0  -1  125.99    5.51
  -4   0   1  127.17    5.55
   3   0  -1    4.20    0.53
  -3   0   1    2.00    0.42
  -3   0   1    1.97    0.37
  -3   0   1    2.30    0.55
   2   0  -1    1.16    0.28
   2   0  -1    1.23    0.29
  -2   0   1    0.94    0.25
  -2   0   1    1.05    0.36
   1   0  -1  156.37    8.19
   1   0  -1  148.69    6.55
  -1   0   1  141.38    8.17
  -1   0   1  150.32    7.91
   0   0  -1   15.01    0.76
   0   0   1   15.22    0.93
   0   0   1   16.07    0.92
   0   0   1   17.02    0.93
  -1   0  -1  111.08    5.74
  -1   0  -1  102.91    4.54
   1   0   1  103.25    5.75
  -2   0  -1    1.91    0.36
  -2   0  -1    2.19    0.28
   2   0   1    2.15    0.36
  -3   0  -1   97.60    5.16
  -3   0  -1   88.23    4.28
  -3   0  -1   96.45    4.13
  -3   0  -1   99.81    5.56
   3   0   1   93.68    4.21
  -4   0  -1    1.93    0.54
  -4   0  -1    2.14    0.41
   4   0   1    2.17    0.44
  -5   0  -1   24.77    1.26
  -5   0  -1   24.35    1.48
   5   0   1   23.87    1.45
  -6   0  -1    6.65    0.81
  -6   0  -1    6.57    0.59
  -6   0  -1    7.37    0.66
  -6   0  -1    7.49    0.65
  -6   0  -1    6.86    0.70
   6   0   1    5.61    0.59
   6   0   1    5.22    0.56
   6   0   1    6.17    0.73
  -7   0  -1   15.02    0.95
  -7   0  -1   14.15    0.89
  -7   0  -1   15.26    0.83
  -7   0  -1   13.64    0.92
   7   0   1   14.46    0.90
   7   0   1   15.69    0.88
  -8   0  -1   29.59    1.39
  -8   0  -1   30.78    1.38
  -8   0  -1   32.06    1.36
  -8   0  -1   32.47    1.24
   8   0   1   30.46    1.32
  -9   0  -1   15.93    0.73
   8  -1  -1   23.61    1.00
  -8   1   1   25.29    1.06
  -8   1   1   25.12    0.96
   7  -1  -1   89.69    3.16
  -7   1   1   92.59    3.34
  -7   1   1   88.29    3.51
  -7   1   1   89.62    3.05
   6  -1  -1   -0.08    0.27
  -6   1   1    0.33    0.28
  -6   1   1    0.20    0.25
  -5   1   1  163.85    7.13
  -5   1   1  165.35    6.14
  -4   1   1  111.42    4.93
   3  -1  -1  206.53    9.10
  -3   1   1  230.06   12.18
  -3   1   1  231.86    9.05
  -3   1   1  196.05    9.37
   2  -1  -1  310.29   12.80
   2  -1  -1  275.06   12.17
  -2   1   1  301.98   16.17
  -2   1   1  275.80   12.58
  -2   1   1  293.19   12.10
  -2   1   1  315.23   15.44
   1  -1  -1  238.39   10.03
  -1   1   1  229.79   12.66
  -1   1   1  235.30    9.52
  -1   1   1  223.82    9.89
  -1   1   1  237.55   12.09
   0  -1  -1  313.01   13.63
   0   1   1  335.58   17.03
   0   1   1  310.52   16.42
  -1  -1  -1  136.70    8.13
   1   1   1  167.59    8.15
  -2  -1  -1  196.59   11.66
   2   1   1  225.28   11.74
   2   1   1  227.95    8.78
   2   1   1  211.85    9.16
  -3  -1  -1  252.68   13.40
  -3  -1  -1  237.32   10.06
   3   1   1  239.96   10.52
   3   1   1  245.54   10.05
  -4  -1  -1   80.45    4.71
   4   1   1   70.27    3.68
   4   1   1   78.83    3.47
  -5  -1  -1  135.36    5.14
   5   1   1  136.72    5.88
  -6  -1  -1  116.31    4.22
  -6  -1  -1  113.57    4.45
   6   1   1  117.88    5.06
   6   1   1  114.06    4.10
  -7  -1  -1    6.20    0.64
  -7  -1  -1    3.99    0.43
  -7  -1  -1    5.70    0.60
  -7  -1  -1    4.28    0.52
   7   1   1    4.27    0.49
  -8  -1  -1   81.82    3.32
  -8  -1  -1   90.10    3.18
  -8  -1  -1   85.81    2.90
   8   1   1   86.09    3.07
  -9  -1  -1   10.87    0.53
  -9  -1  -1   11.83    0.59
   9   1   1   10.56    0.58
   8  -2  -1   12.69    0.59
  -8   2   1   13.02    0.54
   7  -2  -1    2.92    0.39
  -7   2   1    3.19    0.40
  -7   2   1    3.24    0.37
  -7   2   1    2.79    0.40
   6  -2  -1    2.60    0.47
  -6   2   1    2.55    0.42
  -6   2   1    2.51    0.39
  -6   2   1    2.24    0.42
  -6   2   1    1.98    0.40
   5  -2  -1   21.88    1.18
  -5   2   1   21.80    1.33
  -5   2   1   21.43    1.18
  -5   2   1   22.00    1.23
  -5   2   1   20.84    1.07
  -5   2   1   22.04    1.28
  -4   2   1   10.47    0.78
  -4   2   1   10.98    0.83
  -3   2   1    2.54    0.50
  -3   2   1    2.89    0.42
  -2   2   1    9.97    0.79
  -2   2   1   10.01    0.67
  -2   2   1   10.87    1.02
   1  -2  -1   23.24    1.10
  -1   2   1   24.37    1.53
  -1   2   1   21.87    1.08
  -1   2   1   21.78    1.32
  -1   2   1   22.85    1.23
   0  -2  -1   54.05    2.37
   0  -2  -1   49.28    3.01
   0   2   1   58.28    2.97
   0   2   1   49.77    2.19
   0   2   1   54.28    2.37
  -1  -2  -1   77.81    4.15
  -1  -2  -1   78.66    4.15
   1   2   1   72.60    3.25
  -2  -2  -1   75.20    4.47
   2   2   1   80.00    4.41
   2   2   1   82.96    3.26
   2   2   1   79.37    3.45
  -3  -2  -1   58.55    3.90
   3   2   1   71.61    2.85
   3   2   1   69.16    3.08
  -4  -2  -1   50.55    3.33
   4   2   1   51.13    2.64
   4   2   1   54.57    2.38
  -5  -2  -1   50.81    3.53
   5   2   1   54.76    2.29
   5   2   1   50.88    2.80
   5   2   1   52.41    2.46
   5   2   1   56.17    2.41
  -6  -2  -1   52.11    2.34
   6   2   1   53.51    2.13
   6   2   1   51.06    2.43
  -7  -2  -1   12.37    0.88
  -7  -2  -1   12.72    0.83
  -7  -2  -1   10.33    0.72
   7   2   1   10.80    0.75
  -8  -2  -1    4.41    0.55
  -8  -2  -1    3.61    0.48
  -8  -2  -1    3.66    0.43
   8   2   1    4.41    0.50
   8   2   1    2.20    0.38
  -9  -2  -1   21.44    0.94
  -9  -2  -1   20.64    0.85
   9   2   1   20.27    0.91
   9   2   1   21.33    0.89
   7  -3  -1   46.63    1.69
  -7   3   1   44.84    1.75
  -7   3   1   46.94    1.66
  -7   3   1   46.62    1.61
   6  -3  -1   42.03    1.72
  -6   3   1   42.88    1.69
  -6   3   1   42.19    1.87
  -6   3   1   40.19    1.62
  -6   3   1   41.75    1.78
   5  -3  -1    2.26    0.41
  -5   3   1    2.25    0.45
  -5   3   1    3.80    0.47
  -5   3   1    2.52    0.45
  -5   3   1    3.64    0.54
  -5   3   1    3.16    0.43
  -4   3   1  112.63    4.37
  -4   3   1  107.41    4.14
  -4   3   1  111.24    4.76
  -3   3   1   27.10    1.55
  -3   3   1   28.91    1.29
  -3   3   1   30.83    1.81
  -3   3   1   28.69    1.50
  -3   3   1   28.16    1.44
  -2   3   1  150.66    6.45
  -2   3   1  137.03    8.14
  -2   3   1  139.10    5.77
  -2   3   1  141.93    5.90
  -1   3   1  299.54   13.22
  -1   3   1  315.42   16.81
  -1   3   1  312.72   12.45
   0  -3  -1   56.44    2.57
   0   3   1   56.12    3.24
   0   3   1   57.18    2.60
  -1  -3  -1  178.34    7.52
  -1  -3  -1  169.85    9.29
   1   3   1  163.55    7.22
   1   3   1  174.36    9.25
  -2  -3  -1   48.87    2.71
  -2  -3  -1   44.95    2.64
   2   3   1   46.21    2.05
  -3  -3  -1  184.33   11.02
   3   3   1  217.06    8.59
   4   3   1  175.92    7.87
   4   3   1  171.45    6.42
   4   3   1  189.29    7.27
   5   3   1    4.43    0.37
   5   3   1    4.37    0.66
   5   3   1    4.55    0.50
   5   3   1    4.88    0.56
   5   3   1    6.16    0.75
   6   3   1  248.89    8.71
   6   3   1  259.89    9.52
   6   3   1  279.86   10.82
   6   3   1  266.67   11.75
   6   3   1  272.29    8.84
   6   3   1  276.53    9.74
   6   3   1  255.97    8.20
  -7  -3  -1   43.28    2.15
   7   3   1   46.90    1.96
   7   3   1   45.50    1.89
   7   3   1   50.68    1.90
   7   3   1   48.93    2.14
  -8  -3  -1   22.13    1.19
  -8  -3  -1   22.41    1.12
  -8  -3  -1   21.84    1.02
   8   3   1   22.42    1.09
   8   3   1   20.24    1.01
   8   3   1   19.90    1.16
  -9  -3  -1   85.90    2.73
  -9  -3  -1   81.54    3.15
  -9  -3  -1   84.64    2.98
   9   3   1   83.04    2.82
   9   3   1   80.93    2.89
   6  -4  -1   17.59    0.89
  -6   4   1   16.99    0.89
  -6   4   1   16.84    0.87
  -6   4   1   15.96    0.78
  -6   4   1   17.91    0.77
   5  -4  -1    4.20    0.51
  -5   4   1    4.51    0.48
  -5   4   1    3.55    0.51
  -5   4   1    4.38    0.54
  -5   4   1    5.69    0.49
  -5   4   1    4.09    0.52
  -4   4   1   14.36    1.02
  -4   4   1   14.01    1.11
  -4   4   1   13.75    0.91
  -4   4   1   14.01    0.77
  -4   4   1   12.69    0.84
  -4   4   1   14.33    1.01
  -4   4   1   14.58    1.00
  -3   4   1    0.54    0.44
  -3   4   1    0.63    0.26
  -3   4   1    0.17    0.30
  -3   4   1    0.72    0.42
  -3   4   1    1.10    0.43
  -3   4   1    0.75    0.37
  -2   4   1   19.95    1.31
  -2   4   1   20.30    1.00
  -2   4   1   19.28    1.12
  -2   4   1   20.66    1.42
  -2   4   1   19.96    1.13
  -1   4   1    7.42    0.72
  -1   4   1    7.96    0.53
  -1   4   1    6.71    0.81
  -1   4   1    7.40    0.73
   0   4   1    9.56    0.70
   0   4   1    9.77    0.84
  -1  -4  -1    0.82    0.24
   1   4   1    1.24    0.19
   2   4   1    1.67    0.18
   3   4   1   60.54    2.30
   3   4   1   62.79    2.78
   4   4   1    1.49    0.34
   4   4   1    1.74    0.25
   4   4   1    0.93    0.26
   5   4   1   22.34    1.04
   5   4   1   22.40    1.30
   5   4   1   21.66    1.42
   5   4   1   22.07    1.12
   6   4   1    3.59    0.48
   6   4   1    3.01    0.61
   6   4   1    2.65    0.39
   6   4   1    2.63    0.51
   6   4   1    3.49    0.43
   6   4   1    3.87    0.68
   6   4   1    3.78    0.53
   7   4   1    5.17    0.59
   7   4   1    3.98    0.54
   7   4   1    5.84    0.62
   7   4   1    4.99    0.59
   7   4   1    5.91    0.74
   7   4   1    5.68    0.49
   7   4   1    5.67    0.59
   7   4   1    3.89    0.43
   7   4   1    4.70    0.55
   7   4   1    4.96    0.45
   7   4   1    3.86    0.52
  -8  -4  -1    3.52    0.47
  -8  -4  -1    4.99    0.62
   8   4   1    3.39    0.43
   8   4   1    4.54    0.49
   8   4   1    3.20    0.43
   8   4   1    3.17    0.43
   8   4   1    5.40    0.41
  -9  -4  -1    6.53    0.44
  -9  -4  -1    4.92    0.50
  -9  -4  -1    5.92    0.49
   9   4   1    6.16    0.45
   9   4   1    5.87    0.34
   6  -5  -1   53.66    1.83
   5  -5  -1   37.73    1.54
  -5   5   1   38.01    1.61
  -5   5   1   35.89    1.44
  -5   5   1   39.10    1.67
  -5   5   1   38.21    1.35
  -4   5   1  104.30    3.65
  -4   5   1  112.71    4.22
  -4   5   1  106.46    3.74
  -4   5   1  104.02    3.73
  -4   5   1  105.18    4.60
  -4   5   1  112.00    3.70
  -4   5   1  112.43    4.06
  -4   5   1  103.57    4.19
  -4   5   1  103.79    3.71
  -3   5   1   70.05    2.92
  -3   5   1   73.21    2.80
  -3   5   1   73.90    2.78
  -3   5   1   70.16    2.64
  -3   5   1   69.59    3.02
  -3   5   1   76.53    2.79
  -3   5   1   70.10    3.14
  -3   5   1   72.20    3.09
  -3   5   1   71.24    2.59
  -3   5   1   75.74    3.46
  -3   5   1   72.90    2.73
  -3   5   1   74.39    2.69
  -2   5   1   31.51    1.65
  -2   5   1   31.52    1.88
  -2   5   1   33.16    1.41
  -2   5   1   33.89    1.71
  -2   5   1   35.82    1.46
  -2   5   1   30.88    1.64
  -2   5   1   33.70    1.98
  -2   5   1   33.87    2.08
  -2   5   1   35.30    1.51
  -1   5   1  247.12    8.41
  -1   5   1  237.96    8.71
  -1   5   1  239.82   10.62
  -1   5   1  241.34    9.77
  -1   5   1  239.81    7.92
   0   5   1   84.26    3.06
   0   5   1   94.10    4.10
   0   5   1   85.36    4.00
   1   5   1   68.13    3.17
   1   5   1   64.87    2.28
   1   5   1   67.77    2.99
  -2  -5  -1  126.82    6.03
   2   5   1  137.90    5.59
   2   5   1  127.40    4.50
   3   5   1   13.76    0.57
   3   5   1   14.70    0.79
   3   5   1   13.54    0.63
   4   5   1  133.49    5.08
   4   5   1  135.27    4.39
   4   5   1  130.83    4.78
   4   5   1  135.72    5.92
   5   5   1  101.88    4.16
   5   5   1  106.87    3.35
   5   5   1  103.29    4.83
   5   5   1  101.37    3.56
   5   5   1  104.36    3.84
   6   5   1   15.31    1.13
   6   5   1   13.16    1.14
   6   5   1   14.32    1.04
   6   5   1   14.80    0.71
   6   5   1   14.55    1.08
   6   5   1   14.07    1.03
   6   5   1   15.77    0.85
   6   5   1   14.80    0.88
   6   5   1   14.41    0.77
   6   5   1   14.06    0.83
   6   5   1   15.18    0.85
   6   5   1   14.69    0.95
   6   5   1   13.83    1.11
   7   5   1   62.73    2.45
   7   5   1   62.47    2.50
   7   5   1   64.64    2.69
   7   5   1   64.07    2.37
   7   5   1   63.39    2.21
   7   5   1   62.86    2.23
   7   5   1   59.14    2.35
   7   5   1   63.78    2.41
   7   5   1   65.68    2.83
   7   5   1   62.09    2.68
   7   5   1   66.78    2.54
   7   5   1   60.98    2.59
  -8  -5  -1    5.08    0.66
   8   5   1    5.18    0.40
   8   5   1    5.90    0.51
   8   5   1    5.39    0.48
   8   5   1    5.67    0.57
   8   5   1    4.62    0.49
   8   5   1    4.62    0.54
   8   5   1    5.36    0.33
   8   5   1    5.58    0.51
   8   5   1    5.84    0.56
   8   5   1    5.08    0.45
  -9  -5  -1   52.42    1.96
  -9  -5  -1   51.76    2.11
  -9  -5  -1   52.18    1.80
   9   5   1   53.15    1.93
   9   5   1   52.14    1.85
   5  -6  -1   -0.11    0.19
  -5   6   1    0.21    0.17
  -5   6   1    0.12    0.15
  -5   6   1    0.21    0.15
   4  -6  -1   26.51    1.18
  -4   6   1   25.00    1.27
  -4   6   1   23.81    1.04
  -4   6   1   26.46    1.11
  -4   6   1   25.50    1.21
  -4   6   1   23.03    1.12
  -4   6   1   26.04    1.10
  -3   6   1    0.92    0.28
  -3   6   1    0.79    0.37
  -3   6   1    0.52    0.42
  -3   6   1    1.13    0.27
  -3   6   1    0.96    0.33
  -3   6   1    0.72    0.29
  -3   6   1    1.75    0.37
  -3   6   1    0.92    0.36
  -2   6   1    1.41    0.35
  -2   6   1    1.53    0.34
  -2   6   1    0.97    0.41
  -2   6   1    1.21    0.29
  -2   6   1    0.71    0.38
  -2   6   1    1.45    0.50
  -2   6   1    2.36    0.64
  -2   6   1    1.37    0.29
  -2   6   1    1.61    0.39
  -2   6   1    1.11    0.39
  -1   6   1   16.97    1.29
  -1   6   1   17.69    1.25
  -1   6   1   18.75    1.45
  -1   6   1   17.66    0.93
  -1   6   1   18.09    1.27
  -1   6   1   17.33    1.00
  -1   6   1   19.57    1.14
  -1   6   1   18.40    1.13
  -1   6   1   18.00    0.98
  -1   6   1   17.84    0.98
   0   6   1    0.02    0.28
   0   6   1    0.12    0.23
   0   6   1    0.31    0.40
   0   6   1    0.16    0.21
   0   6   1    0.64    0.48
   1   6   1   64.87    3.24
   1   6   1   61.23    2.59
   1   6   1   62.82    2.87
   1   6   1   61.59    2.77
   1   6   1   64.34    2.22
   2   6   1   11.03    0.80
   2   6   1   11.50    0.65
   2   6   1   11.50    0.51
  -3  -6  -1    5.03    0.82
   3   6   1    6.45    0.34
   3   6   1    7.98    0.67
   3   6   1    6.03    0.46
  -4  -6  -1    4.65    0.94
   4   6   1    5.28    0.36
   4   6   1    4.38    0.50
   4   6   1    4.83    0.32
   4   6   1    4.09    0.59
   5   6   1    6.33    0.49
   5   6   1    6.49    0.73
   5   6   1    6.25    0.69
   5   6   1    6.05    0.45
   5   6   1    9.58    0.60
   5   6   1    6.27    0.38
   5   6   1    7.87    0.82
   5   6   1    7.61    0.81
   5   6   1    6.37    0.74
   5   6   1    7.27    0.84
   6   6   1    5.38    0.71
   6   6   1    4.28    0.67
   6   6   1    4.13    0.66
   6   6   1    4.85    0.46
   6   6   1    5.37    0.79
   6   6   1    4.22    0.57
   6   6   1    4.44    0.43
   6   6   1    4.77    0.70
   6   6   1    4.17    0.46
   6   6   1    4.06    0.45
   6   6   1    4.88    0.38
   7   6   1   12.44    0.90
   7   6   1   14.06    0.68
   7   6   1   12.88    0.85
   7   6   1   13.50    0.71
   7   6   1   12.63    0.97
   7   6   1   14.10    0.79
   7   6   1   12.03    0.74
   7   6   1   14.03    0.97
   7   6   1   11.96    0.72
   7   6   1   12.98    1.02
   7   6   1   13.19    1.03
   8   6   1   12.76    0.83
   8   6   1   12.27    0.63
   8   6   1   11.41    0.68
   8   6   1   13.93    0.70
   8   6   1   12.95    0.76
   8   6   1   13.24    0.81
   8   6   1   12.72    0.58
   8   6   1   12.65    0.63
   8   6   1   11.78    0.73
   8   6   1   12.72    0.81
  -9  -6  -1    0.32    0.17
  -9  -6  -1    0.26    0.20
   9   6   1    0.40    0.18
   9   6   1    0.27    0.18
   9   6   1    0.13    0.18
   9   6   1    0.59    0.16
  -4   7   1    0.64    0.15
  -4   7   1    0.90    0.20
  -3   7   1   42.56    1.56
  -3   7   1   42.01    1.58
  -3   7   1   40.35    1.51
  -3   7   1   40.49    1.56
  -3   7   1   43.62    1.86
  -3   7   1   40.14    1.60
  -3   7   1   43.58    1.75
  -2   7   1   63.74    2.61
  -2   7   1   60.30    2.28
  -2   7   1   62.20    2.32
  -2   7   1   64.09    2.34
  -2   7   1   61.34    3.05
  -2   7   1   65.54    2.24
  -2   7   1   61.14    2.76
  -2   7   1   63.73    2.35
  -1   7   1   20.85    1.00
  -1   7   1   22.13    1.31
  -1   7   1   20.31    1.02
  -1   7   1   21.10    1.59
  -1   7   1   19.93    1.11
  -1   7   1   22.34    1.39
  -1   7   1   18.99    1.01
  -1   7   1   21.80    1.43
  -1   7   1   20.17    1.22
  -1   7   1   20.51    1.04
   0   7   1  168.53    6.21
   0   7   1  172.56    5.55
   0   7   1  180.51    7.56
   0   7   1  165.25    5.66
   0   7   1  174.80    6.62
   0   7   1  175.78    6.45
   0   7   1  185.94    5.94
   0   7   1  177.56    5.85
   0   7   1  177.50    6.56
   0   7   1  171.70    5.68
   1   7   1   20.56    1.18
   1   7   1   21.82    1.41
   1   7   1   20.76    1.29
   1   7   1   20.59    0.87
   1   7   1   21.83    0.95
   1   7   1   21.29    0.93
   1   7   1   20.90    1.12
   1   7   1   20.64    1.22
   1   7   1   19.24    1.04
   1   7   1   22.31    1.70
   2   7   1  103.16    4.02
   2   7   1  103.74    3.20
   2   7   1   98.63    3.24
   2   7   1  100.16    4.36
   2   7   1   99.26    3.98
   2   7   1  100.84    3.47
   2   7   1  102.52    3.79
   2   7   1  101.44    3.33
   3   7   1   66.80    2.89
   3   7   1   68.83    2.50
   3   7   1   65.77    2.99
   3   7   1   67.67    2.87
   3   7   1   67.13    2.23
   3   7   1   71.82    2.88
   3   7   1   69.56    2.17
   3   7   1   65.57    2.27
   3   7   1   68.78    2.71
   4   7   1   15.85    1.11
   4   7   1   16.44    1.05
   4   7   1   16.70    1.01
   4   7   1   17.28    0.73
   4   7   1   16.94    0.74
   4   7   1   16.86    0.68
   4   7   1   15.47    0.97
   4   7   1   17.35    1.23
   4   7   1   15.25    1.16
   5   7   1   83.29    2.89
   5   7   1   81.90    3.37
   5   7   1   84.05    3.30
   5   7   1   88.24    2.73
   5   7   1   81.91    3.03
   5   7   1   83.61    3.51
   5   7   1   80.02    3.45
   5   7   1   81.37    2.84
   6   7   1    0.56    0.43
   6   7   1    0.50    0.21
   6   7   1    0.76    0.22
   6   7   1    0.35    0.37
   6   7   1    1.07    0.26
   6   7   1    0.72    0.35
   6   7   1    1.19    0.47
   6   7   1    0.40    0.37
   6   7   1    0.57    0.22
   7   7   1   57.20    2.40
   7   7   1   57.57    2.12
   7   7   1   57.15    2.03
   7   7   1   55.25    2.19
   7   7   1   62.09    2.00
   7   7   1   55.82    2.53
   7   7   1   57.04    2.45
   7   7   1   54.46    2.35
   7   7   1   56.08    2.08
   8   7   1   66.51    2.19
   8   7   1   67.57    2.26
   8   7   1   62.45    2.24
   8   7   1   61.89    2.10
   8   7   1   65.90    2.43
   8   7   1   68.62    2.57
   8   7   1   61.39    2.42
   8   7   1   61.50    2.23
  -9  -7  -1    0.97    0.17
   9   7   1    1.00    0.18
   9   7   1    1.07    0.14
   9   7   1    1.02    0.19
  -2   8   1   14.81    0.71
  -2   8   1   16.15    0.90
  -2   8   1   15.78    0.67
  -2   8   1   15.33    0.69
  -2   8   1   16.75    0.86
  -1   8   1   19.25    0.85
  -1   8   1   19.03    1.20
  -1   8   1   19.58    0.99
  -1   8   1   20.73    1.12
  -1   8   1   19.76    0.91
  -1   8   1   19.81    0.92
  -1   8   1   20.45    0.88
  -1   8   1   17.11    1.38
   0   8   1    7.13    0.45
   0   8   1    6.87    0.65
   0   8   1    6.06    0.75
   0   8   1    6.47    0.50
   0   8   1    7.91    0.54
   0   8   1    5.78    0.48
   0   8   1    6.24    0.89
   0   8   1    7.29    0.74
   1   8   1    1.15    0.21
   1   8   1    0.93    0.36
   1   8   1    1.31    0.43
   1   8   1    1.56    0.27
   1   8   1    1.30    0.35
   1   8   1    1.22    0.63
   1   8   1    1.15    0.42
   1   8   1    1.34    0.19
   2   8   1    4.59    0.59
   2   8   1    3.52    0.30
   2   8   1    3.56    0.24
   2   8   1    4.26    0.59
   2   8   1    3.53    0.56
   2   8   1    2.99    0.47
   2   8   1    3.50    0.28
   3   8   1    0.97    0.38
   3   8   1    0.28    0.37
   3   8   1    0.27    0.12
   3   8   1    0.28    0.37
   3   8   1   -0.40    0.32
   3   8   1    0.50    0.15
   4   8   1   15.14    1.13
   4   8   1   14.97    1.16
   4   8   1   15.01    0.97
   4   8   1   14.63    0.65
   4   8   1   15.21    1.08
   4   8   1   13.95    0.98
   4   8   1   14.75    0.62
   5   8   1   11.29    0.52
   5   8   1   11.37    1.01
   5   8   1   10.79    0.89
   5   8   1   12.10    0.60
   5   8   1   10.94    0.85
   5   8   1   11.29    0.55
   5   8   1   10.91    0.95
   6   8   1    0.21    0.37
   6   8   1    0.85    0.22
   6   8   1    0.27    0.15
   6   8   1    0.12    0.35
   6   8   1    0.61    0.33
   6   8   1    2.03    0.49
   6   8   1    0.63    0.39
   6   8   1    0.35    0.17
   6   8   1    0.39    0.18
   7   8   1    2.41    0.39
   7   8   1    1.62    0.39
   7   8   1    1.73    0.40
   7   8   1    1.91    0.20
   7   8   1    1.96    0.23
   7   8   1    1.58    0.22
   7   8   1    2.16    0.38
   7   8   1    1.70    0.35
   7   8   1    1.89    0.25
   8   8   1    1.02    0.23
   8   8   1    1.14    0.24
   8   8   1    0.90    0.15
   8   8   1    1.08    0.16
   8   8   1    1.07    0.23
   8   8   1    1.19    0.13
  -1   9   1   10.58    0.50
  -1   9   1   11.65    0.65
   0   9   1   50.48    1.95
   0   9   1   48.87    1.79
   0   9   1   47.40    1.65
   0   9   1   52.37    2.14
   1   9   1   37.09    1.76
   1   9   1   37.89    1.32
   1   9   1   38.30    1.47
   1   9   1   38.92    1.65
   2   9   1    7.63    0.69
   2   9   1    8.63    0.67
   2   9   1    8.23    0.40
   2   9   1    8.23    0.77
   3   9   1  125.53    4.76
   3   9   1  126.95    4.18
   3   9   1  128.79    4.56
   3   9   1  124.78    3.84
   4   9   1   21.17    1.13
   4   9   1   20.66    1.26
   4   9   1   20.12    0.75
   4   9   1   21.35    1.07
   5   9   1   69.89    2.59
   5   9   1   59.38    2.49
   5   9   1   63.57    2.02
   5   9   1   62.44    2.71
   5   9   1   63.27    2.32
   6   9   1   88.19    2.69
   6   9   1   91.39    3.23
   6   9   1   82.85    3.40
   6   9   1   83.11    3.29
   6   9   1   84.92    2.93
   6   9   1   88.80    2.94
   7   9   1    1.14    0.15
   7   9   1    0.47    0.21
   7   9   1    0.55    0.11
   7   9   1    0.63    0.22
   7   9   1    0.14    0.21
   0   9  -2   31.58    1.15
   7   8  -2   36.82    1.42
   7   8  -2   35.12    1.16
   7   8  -2   33.80    1.25
   7   8  -2   36.07    1.48
   6   8  -2    0.50    0.25
   6   8  -2    0.79    0.28
   6   8  -2    0.66    0.15
   6   8  -2    0.49    0.13
   5   8  -2    9.95    0.82
   5   8  -2    8.38    0.76
   5   8  -2    9.07    0.40
   1   8  -2   13.67    0.58
   1   8  -2   13.23    1.11
   0   8  -2   14.20    1.06
   0   8  -2   12.77    1.24
   0   8  -2   15.13    1.01
   0   8  -2   15.01    0.61
   0   8  -2   14.41    0.66
  -1   8  -2    0.43    0.16
  -1   8  -2   -0.03    0.32
  -1   8  -2    0.19    0.17
  -1   8  -2    0.24    0.29
  -1   8  -2    0.30    0.16
  -2   8  -2   11.06    0.50
  -2   8  -2   11.25    0.68
  -2   8  -2   11.23    0.53
   8   7  -2    2.48    0.21
   8   7  -2    2.59    0.29
   8   7  -2    2.29    0.27
   8   7  -2    2.31    0.28
   8   7  -2    2.33    0.21
   8   7  -2    2.48    0.19
   7   7  -2   24.34    1.19
   7   7  -2   24.30    0.89
   7   7  -2   22.33    0.92
   7   7  -2   22.94    0.93
   7   7  -2   23.51    1.13
   7   7  -2   23.14    0.89
   7   7  -2   23.33    1.09
   6   7  -2   37.06    1.74
   6   7  -2   36.16    1.42
   6   7  -2   37.37    1.31
   6   7  -2   40.49    1.66
   6   7  -2   38.02    1.70
   6   7  -2   35.76    1.37
   6   7  -2   37.93    1.32
   5   7  -2   33.19    1.16
   5   7  -2   34.17    1.68
   5   7  -2   33.21    1.19
   5   7  -2   33.29    1.65
   5   7  -2   33.00    1.23
   4   7  -2   56.93    1.89
   1   7  -2   43.08    1.49
   1   7  -2   43.20    2.11
   1   7  -2   45.81    2.49
   1   7  -2   40.09    1.46
   0   7  -2   23.78    1.44
   0   7  -2   21.89    0.91
   0   7  -2   22.58    0.99
   0   7  -2   26.50    1.74
   0   7  -2   23.44    1.33
  -1   7  -2   89.31    3.51
  -1   7  -2   86.60    3.10
  -1   7  -2   86.17    3.00
  -1   7  -2   92.40    3.65
  -1   7  -2   88.63    4.11
  -1   7  -2   91.55    3.10
  -2   7  -2    1.46    0.53
  -2   7  -2    1.81    0.40
  -2   7  -2    1.81    0.27
  -2   7  -2    1.37    0.42
  -2   7  -2    2.12    0.50
  -2   7  -2    2.28    0.30
  -2   7  -2    1.64    0.28
  -3   7  -2   40.02    1.45
  -3   7  -2   40.96    1.53
  -3   7  -2   42.80    1.48
  -3   7  -2   41.63    1.80
  -3   7  -2   40.08    1.57
  -4   7  -2   39.81    1.31
  -4   7  -2   38.57    1.53
   9   6  -2   49.45    1.62
   8   6  -2    0.65    0.22
   8   6  -2    0.97    0.19
   8   6  -2    1.09    0.24
   8   6  -2    0.89    0.18
   8   6  -2    1.20    0.26
   8   6  -2    0.80    0.20
   8   6  -2    0.93    0.17
  -8  -6   2    1.07    0.33
   7   6  -2   35.68    1.39
   7   6  -2   36.30    1.67
   7   6  -2   35.75    1.61
   7   6  -2   36.51    1.41
   7   6  -2   37.43    1.38
   7   6  -2   36.27    1.58
   7   6  -2   37.53    1.33
  -7  -6   2   35.96    1.75
   6   6  -2    7.56    0.74
   6   6  -2    8.03    0.51
   6   6  -2    8.15    0.80
   6   6  -2    8.62    0.78
   6   6  -2    7.71    0.71
   6   6  -2    8.24    0.53
   6   6  -2    7.81    0.51
   6   6  -2    7.92    0.49
   5   6  -2   29.01    1.10
   5   6  -2   27.47    1.53
   5   6  -2   27.95    1.54
   5   6  -2   28.60    1.60
   5   6  -2   29.15    1.13
   5   6  -2   27.70    1.39
   5   6  -2   29.94    1.17
   4   6  -2   36.58    1.28
   4   6  -2   35.58    1.78
   4   6  -2   34.20    1.23
   4   6  -2   34.31    1.19
   4   6  -2   32.99    1.74
  -4  -6   2   26.54    2.63
   3   6  -2    4.47    0.27
  -3  -6   2    3.21    1.09
   1   6  -2    5.39    0.79
   1   6  -2    6.27    0.92
   0   6  -2    4.23    0.42
   0   6  -2    4.04    0.46
   0   6  -2    4.34    0.36
   0   6  -2    4.17    0.76
   0   6  -2    3.76    0.65
   0   6  -2    4.44    0.38
  -1   6  -2   80.81    2.85
  -1   6  -2   81.57    3.31
  -1   6  -2   81.94    3.35
  -1   6  -2   82.41    3.85
  -1   6  -2   80.19    2.80
  -1   6  -2   77.35    2.97
  -1   6  -2   76.92    3.79
  -1   6  -2   78.51    2.66
  -2   6  -2    1.68    0.45
  -2   6  -2    1.56    0.51
  -2   6  -2    1.46    0.31
  -2   6  -2    2.06    0.31
  -2   6  -2    2.12    0.34
  -2   6  -2    1.74    0.52
  -2   6  -2    1.67    0.48
  -3   6  -2    8.28    0.81
  -3   6  -2   10.23    0.82
  -3   6  -2    8.71    0.62
  -3   6  -2    6.10    0.79
  -3   6  -2    9.08    0.61
  -3   6  -2    8.93    0.74
  -3   6  -2    9.37    0.58
  -4   6  -2    1.82    0.29
  -4   6  -2    1.95    0.38
  -4   6  -2    1.54    0.27
  -4   6  -2    1.83    0.28
  -4   6  -2    2.33    0.37
  -4   6  -2    2.07    0.28
  -5   6  -2    9.22    0.54
  -5   6  -2    9.31    0.46
   5  -6   2    9.32    0.52
   9   5  -2   10.24    0.51
   9   5  -2    9.86    0.46
   9   5  -2    9.33    0.48
   8   5  -2   20.80    1.03
   8   5  -2   21.01    0.88
   8   5  -2   22.96    1.03
   8   5  -2   21.97    0.92
   8   5  -2   21.24    1.02
   8   5  -2   19.10    0.92
   8   5  -2   20.83    0.86
  -8  -5   2   20.85    1.10
  -8  -5   2   21.69    0.91
   7   5  -2   38.37    1.52
   7   5  -2   37.92    1.53
   7   5  -2   38.65    1.73
   7   5  -2   40.38    1.46
   7   5  -2   37.93    1.57
   7   5  -2   41.35    1.71
   7   5  -2   41.37    1.58
   7   5  -2   38.97    1.80
   7   5  -2   39.93    1.59
  -7  -5   2   40.82    1.90
   6   5  -2   95.17    3.22
   6   5  -2   93.68    3.78
   6   5  -2   93.08    3.24
   6   5  -2   92.35    3.42
   6   5  -2   94.68    3.38
   6   5  -2   87.20    3.24
   6   5  -2   88.92    3.52
   6   5  -2   91.63    3.16
   6   5  -2   90.54    3.68
   6   5  -2   93.53    3.02
   5   5  -2    1.59    0.50
   5   5  -2    1.73    0.27
   5   5  -2    1.93    0.31
   5   5  -2    1.62    0.37
   5   5  -2    1.73    0.24
   5   5  -2    1.40    0.44
   5   5  -2    1.71    0.28
   5   5  -2    1.80    0.52
  -5  -5   2    1.61    0.72
   4   5  -2   94.07    3.87
   4   5  -2   95.28    3.05
   4   5  -2  100.47    3.27
   3   5  -2  180.47    5.75
   1   5  -2  178.03    7.40
   0   5  -2    5.05    0.50
   0   5  -2    4.39    0.71
   0   5  -2    5.05    0.68
   0   5  -2    4.49    0.33
  -1   5  -2   64.21    2.30
  -1   5  -2   64.50    3.17
  -1   5  -2   63.91    2.12
  -1   5  -2   62.54    2.71
  -1   5  -2   63.72    3.13
  -2   5  -2  121.38    4.06
  -2   5  -2  115.27    3.76
  -2   5  -2  123.05    5.17
  -2   5  -2  115.35    5.46
  -2   5  -2  110.99    4.08
  -2   5  -2  121.29    4.44
  -2   5  -2  115.91    4.67
  -2   5  -2  116.67    3.78
  -2   5  -2  115.96    3.99
  -2   5  -2  115.49    3.99
  -3   5  -2   22.23    1.42
  -3   5  -2   21.98    1.11
  -3   5  -2   20.60    1.22
  -3   5  -2   24.95    1.15
  -3   5  -2   21.35    1.03
  -3   5  -2   22.17    0.92
  -3   5  -2   22.31    1.50
  -3   5  -2   23.40    1.32
  -3   5  -2   23.25    1.29
  -4   5  -2   71.51    3.31
  -4   5  -2   72.36    2.71
  -4   5  -2   73.44    2.85
  -4   5  -2   72.52    2.42
  -4   5  -2   69.97    2.61
  -4   5  -2   76.00    2.70
  -4   5  -2   74.71    2.84
  -4   5  -2   72.75    3.03
  -4   5  -2   67.90    2.61
  -5   5  -2    0.66    0.27
  -5   5  -2    0.69    0.25
  -5   5  -2    0.66    0.28
  -6   5  -2   28.54    1.14
   6  -5   2   25.81    1.02
   9   4  -2   30.07    1.14
  -9  -4   2   28.74    1.04
   8   4  -2   22.11    0.98
   8   4  -2   19.22    0.91
   8   4  -2   21.90    1.06
   8   4  -2   21.98    1.02
   8   4  -2   22.73    0.83
   8   4  -2   22.79    1.05
  -8  -4   2   22.76    0.96
  -8  -4   2   20.49    1.14
   7   4  -2   28.56    1.36
   7   4  -2   27.67    1.42
   7   4  -2   28.87    1.29
   7   4  -2   28.82    1.38
   7   4  -2   29.68    1.29
   7   4  -2   28.70    1.18
   7   4  -2   30.60    1.36
   7   4  -2   27.48    1.26
   7   4  -2   30.14    1.17
   7   4  -2   29.17    1.21
  -7  -4   2   30.88    1.54
   6   4  -2  122.12    4.31
   6   4  -2  113.86    3.72
   6   4  -2  114.39    3.97
   6   4  -2  114.26    4.14
   6   4  -2  118.46    3.98
   6   4  -2  115.54    3.88
   6   4  -2  114.34    4.46
   6   4  -2  114.38    4.27
   6   4  -2  114.22    3.92
   6   4  -2  113.36    3.93
   5   4  -2   13.10    0.87
   5   4  -2   13.23    0.69
   5   4  -2   14.26    0.77
   5   4  -2   12.64    1.01
   5   4  -2   14.44    0.75
  -5  -4   2   15.74    1.59
   4   4  -2  110.92    3.64
   4   4  -2  109.58    4.33
   4   4  -2  104.82    3.87
  -4  -4   2  105.30    6.39
   3   4  -2  181.81    6.23
  -3  -4   2  179.74   10.25
  -2  -4   2   43.34    2.80
  -1  -4   2  153.65    8.62
   0   4  -2   13.84    1.04
   0   4  -2   12.78    1.11
  -1   4  -2  175.81    5.66
  -1   4  -2  170.55    7.19
  -1   4  -2  178.33    7.68
  -2   4  -2   70.51    2.85
  -2   4  -2   70.71    2.53
  -2   4  -2   73.90    3.49
  -2   4  -2   67.17    3.28
  -3   4  -2    8.40    0.84
  -3   4  -2    7.96    0.60
  -3   4  -2    7.69    0.75
  -3   4  -2    9.03    0.89
  -3   4  -2    6.57    0.54
  -3   4  -2    7.65    0.87
  -4   4  -2   27.41    1.59
  -4   4  -2   30.40    1.38
  -4   4  -2   26.58    1.35
  -4   4  -2   28.35    1.28
  -4   4  -2   31.08    1.29
  -4   4  -2   29.17    1.48
  -4   4  -2   32.01    1.54
  -4   4  -2   29.07    1.71
  -4   4  -2   32.06    1.46
  -5   4  -2    1.43    0.37
  -5   4  -2    1.53    0.26
  -5   4  -2    2.19    0.42
  -5   4  -2    1.38    0.28
  -5   4  -2    1.97    0.41
  -6   4  -2    4.67    0.48
  -6   4  -2    4.25    0.30
  -6   4  -2    3.30    0.38
   6  -4   2    5.08    0.49
   9   3  -2    3.10    0.18
  -9  -3   2    2.80    0.26
   8   3  -2    8.36    0.50
   8   3  -2    7.65    0.58
   8   3  -2    7.21    0.58
   8   3  -2    8.30    0.59
  -8  -3   2    7.88    0.54
  -8  -3   2    7.47    0.59
  -8  -3   2    7.75    0.65
   7   3  -2    1.11    0.30
   7   3  -2    1.50    0.26
   7   3  -2    0.71    0.30
   7   3  -2    0.83    0.32
   7   3  -2    0.71    0.21
  -7  -3   2    0.65    0.35
  -7  -3   2    0.76    0.28
  -7  -3   2    0.48    0.30
   6   3  -2   19.98    1.05
   6   3  -2   17.71    1.02
   6   3  -2   20.30    0.91
   6   3  -2   17.52    1.13
   6   3  -2   20.06    0.93
   6   3  -2   17.77    1.00
   6   3  -2   17.93    0.95
   6   3  -2   18.64    1.10
   6   3  -2   16.91    0.86
   6   3  -2   17.33    0.99
  -6  -3   2   19.65    1.19
  -6  -3   2   17.83    1.76
  -6  -3   2   15.99    1.10
   5   3  -2   52.26    1.87
   5   3  -2   49.87    1.96
   5   3  -2   50.86    2.12
   5   3  -2   51.86    2.33
  -5  -3   2   53.38    3.50
   4   3  -2    1.86    0.29
  -4  -3   2    2.88    0.73
  -4  -3   2    0.56    0.44
   3   3  -2   85.59    3.08
  -3  -3   2   83.41    5.08
  -2  -3   2   28.04    1.90
  -1  -3   2  137.20    7.63
   0   3  -2  192.85   10.57
  -1   3  -2    1.38    0.36
  -2   3  -2  290.25   16.54
  -2   3  -2  303.25    9.63
  -2   3  -2  317.36   12.95
  -2   3  -2  291.54   11.75
  -3   3  -2   15.78    0.80
  -3   3  -2   12.52    1.00
  -3   3  -2   12.37    0.90
  -3   3  -2   13.39    1.06
  -4   3  -2   34.61    1.60
  -4   3  -2   30.78    1.32
  -4   3  -2   34.00    1.57
  -4   3  -2   29.51    1.95
  -4   3  -2   30.28    1.51
  -4   3  -2   31.39    1.73
  -4   3  -2   30.43    1.73
  -5   3  -2  171.24    6.46
  -5   3  -2  179.63    5.84
  -5   3  -2  171.13    5.89
  -5   3  -2  173.70    6.16
  -6   3  -2    3.26    0.39
  -6   3  -2    2.50    0.42
  -6   3  -2    2.90    0.44
  -7   3  -2   61.50    2.08
  -7   3  -2   58.63    2.32
  -7   3  -2   60.10    2.22
   7  -3   2   61.25    2.14
   9   2  -2   15.87    0.62
  -9  -2   2   15.25    0.64
   8   2  -2  127.47    4.25
   8   2  -2  124.66    4.28
  -8  -2   2  126.46    4.06
  -8  -2   2  128.17    4.40
  -8  -2   2  122.97    4.70
   7   2  -2   13.57    0.90
   7   2  -2   13.34    0.79
   7   2  -2   13.85    0.94
   7   2  -2   13.70    0.84
   7   2  -2   10.72    0.81
  -7  -2   2   14.29    0.92
  -7  -2   2   12.38    0.82
  -7  -2   2   12.96    0.76
   6   2  -2   79.93    2.71
   6   2  -2   77.25    2.69
   6   2  -2   74.94    3.21
   6   2  -2   75.18    2.90
   6   2  -2   74.61    2.78
   6   2  -2   75.01    2.83
   6   2  -2   74.62    2.78
  -6  -2   2   78.55    3.13
  -6  -2   2   73.20    2.66
  -6  -2   2   70.10    2.86
   5   2  -2   93.51    3.61
   5   2  -2   92.43    3.30
   5   2  -2   95.52    3.98
  -5  -2   2   94.85    5.56
  -5  -2   2   91.23    3.73
   4   2  -2    5.44    0.42
   4   2  -2    4.83    0.46
  -4  -2   2    5.77    0.84
  -4  -2   2    4.46    0.90
   3   2  -2  192.90    7.72
  -3  -2   2  198.83   10.43
  -3  -2   2  179.49   10.68
  -2  -2   2   74.59    4.35
   1   2  -2    2.73    0.18
  -1  -2   2    3.01    0.38
   0   2  -2   49.59    2.80
   0  -2   2   46.40    2.78
  -1   2  -2    9.92    0.82
  -2   2  -2  224.28   12.54
  -2   2  -2  231.13    9.24
  -3   2  -2   27.90    1.62
  -3   2  -2   28.00    1.35
  -3   2  -2   27.43    1.47
  -4   2  -2   13.96    1.10
  -4   2  -2   11.69    0.79
  -5   2  -2  144.82    5.58
  -5   2  -2  144.74    5.30
  -5   2  -2  144.77    5.17
  -5   2  -2  148.78    6.30
  -5   2  -2  150.01    4.85
  -5   2  -2  156.59    5.05
  -6   2  -2    7.77    0.71
  -6   2  -2    8.35    0.74
  -6   2  -2    7.90    0.65
  -6   2  -2    8.05    0.68
  -7   2  -2   40.99    1.75
  -7   2  -2   39.92    1.60
  -7   2  -2   41.06    1.66
  -7   2  -2   36.67    1.47
   7  -2   2   40.30    1.60
  -8   2  -2    3.30    0.31
  -8   2  -2    3.92    0.28
  -8   2  -2    3.82    0.32
   8  -2   2    3.35    0.33
   9   1  -2   10.73    0.48
  -9  -1   2   10.20    0.45
   8   1  -2    0.74    0.24
   8   1  -2    1.22    0.25
  -8  -1   2    1.22    0.31
  -8  -1   2    0.91    0.27
  -8  -1   2    0.94    0.25
   7   1  -2    9.09    0.72
   7   1  -2    9.75    0.71
  -7  -1   2    9.90    0.68
  -7  -1   2   10.93    0.79
  -7  -1   2    9.68    0.70
   6   1  -2    4.98    0.60
   6   1  -2    3.80    0.48
   6   1  -2    3.12    0.44
  -6  -1   2    3.87    0.48
  -6  -1   2    3.77    0.53
  -6  -1   2    4.09    0.54
   5   1  -2   33.11    1.71
  -5  -1   2   35.46    1.64
   4   1  -2   11.55    0.78
   4   1  -2   12.08    0.78
  -4  -1   2   13.47    1.18
  -4  -1   2   10.16    1.22
   3   1  -2    2.68    0.38
  -3  -1   2    1.81    0.53
  -3  -1   2    1.38    0.48
   2   1  -2  167.80    7.15
   2   1  -2  182.29    7.80
  -2  -1   2  167.59    9.60
  -2  -1   2  175.47    9.40
   1   1  -2    7.90    0.47
   1   1  -2    8.16    0.69
  -1  -1   2    7.60    0.81
  -1  -1   2    8.52    0.67
   0   1  -2   60.65    2.82
   0   1  -2   58.05    2.43
   0   1  -2   62.37    3.37
   0  -1   2   59.28    3.30
  -1   1  -2   38.41    1.67
  -1   1  -2   34.76    1.52
  -1   1  -2   34.84    2.13
  -2   1  -2   72.62    4.14
  -2   1  -2   69.93    3.01
  -3   1  -2  169.68    7.05
  -3   1  -2  169.38    9.53
  -4   1  -2    2.39    0.38
  -5   1  -2   74.60    3.45
  -6   1  -2   56.41    2.73
  -6   1  -2   56.42    2.43
  -6   1  -2   55.80    2.28
  -6   1  -2   57.58    2.09
   6  -1   2   53.31    2.22
  -7   1  -2   30.15    1.40
  -7   1  -2   30.82    1.27
  -7   1  -2   30.59    1.48
   7  -1   2   28.88    1.33
  -8   1  -2   46.25    1.86
  -8   1  -2   47.65    1.81
  -8   1  -2   46.68    1.80
  -8   1  -2   46.20    1.61
   8  -1   2   46.11    1.67
   8   0  -2   70.07    2.40
  -8   0   2   73.27    2.56
  -8   0   2   71.75    2.35
  -8   0   2   65.43    2.70
   7   0  -2   99.63    3.59
  -7   0   2  108.10    4.04
  -7   0   2  104.69    3.48
  -7   0   2  103.64    3.79
   6   0  -2    3.93    0.57
   6   0  -2    2.29    0.42
  -6   0   2    3.33    0.45
  -6   0   2    3.34    0.51
  -6   0   2    3.61    0.51
   5   0  -2  216.60    9.09
  -5   0   2  214.30    7.87
   4   0  -2   61.41    2.89
  -4   0   2   60.92    3.65
   3   0  -2  223.83    9.17
  -3   0   2  212.63    9.15
  -3   0   2  221.44    9.18
  -3   0   2  239.63   11.74
  -3   0   2  198.28   12.24
   2   0  -2  343.67   14.45
   2   0  -2  382.32   15.41
  -2   0   2  344.31   14.42
  -2   0   2  323.83   19.23
  -2   0   2  376.44   18.56
   1   0  -2   65.46    2.75
   1   0  -2   64.10    2.97
  -1   0   2   63.98    3.70
  -1   0   2   62.95    3.61
   0   0  -2  282.06   12.05
   0   0   2  257.63   14.49
   0   0   2  298.17   15.01
   0   0   2  285.41   15.00
  -1   0  -2  214.46    9.10
  -1   0  -2  231.30   11.40
  -1   0  -2  210.48    8.57
   1   0   2  186.29   10.91
   1   0   2  219.31   11.40
  -2   0  -2   56.48    2.48
  -2   0  -2   54.15    2.41
  -2   0  -2   57.13    3.23
   2   0   2   55.89    2.51
  -3   0  -2  302.56   16.13
  -3   0  -2  327.94   12.75
  -3   0  -2  291.58   12.10
   3   0   2  259.18   12.17
  -4   0  -2    9.85    1.04
  -4   0  -2   10.01    0.75
   4   0   2    9.57    0.83
  -5   0  -2   86.45    3.93
  -5   0  -2   85.48    3.34
   5   0   2   83.47    3.93
  -6   0  -2   54.57    2.09
  -6   0  -2   58.11    2.86
  -6   0  -2   56.47    2.46
  -6   0  -2   56.19    2.30
  -6   0  -2   58.34    2.41
   6   0   2   56.42    2.27
  -7   0  -2    3.95    0.51
  -7   0  -2    2.89    0.40
  -7   0  -2    3.41    0.50
  -7   0  -2    4.00    0.52
   7   0   2    4.29    0.51
   7   0   2    5.01    0.63
  -8   0  -2   47.05    1.70
  -8   0  -2   46.92    1.88
  -8   0  -2   47.38    1.95
   8   0   2   47.25    1.81
  -9   0  -2    1.22    0.20
   8  -1  -2    5.06    0.37
  -8   1   2    4.91    0.39
  -8   1   2    4.43    0.35
   7  -1  -2    1.81    0.36
  -7   1   2    1.00    0.29
  -7   1   2    1.48    0.35
  -7   1   2    1.31    0.28
   6  -1  -2    2.82    0.48
  -6   1   2    2.58    0.39
  -6   1   2    2.50    0.40
  -6   1   2    3.05    0.49
   5  -1  -2    2.92    0.52
  -5   1   2    6.67    0.80
  -5   1   2    4.35    0.55
  -5   1   2    4.15    0.52
   4  -1  -2   61.41    2.99
  -4   1   2   61.75    2.94
  -4   1   2   59.59    2.54
   3  -1  -2    1.04    0.34
  -3   1   2    1.39    0.51
  -3   1   2    1.63    0.38
  -3   1   2    1.50    0.42
   2  -1  -2  177.73    7.64
   2  -1  -2  189.30    8.03
  -2   1   2  166.04    7.87
  -2   1   2  186.44    7.61
  -2   1   2  190.79    9.73
  -2   1   2  180.22   10.20
   1  -1  -2    8.86    0.57
  -1   1   2    8.44    0.69
  -1   1   2    8.91    0.60
  -1   1   2    8.37    0.82
  -1   1   2    9.17    0.57
   0  -1  -2    2.70    0.27
   0  -1  -2    2.83    0.24
   0   1   2    2.98    0.33
   0   1   2    2.51    0.26
  -1  -1  -2  146.56    7.55
  -1  -1  -2  134.15    6.12
   1   1   2  140.06    7.56
   1   1   2  144.58    5.74
  -2  -1  -2   10.20    0.69
  -2  -1  -2    8.86    0.55
   2   1   2    8.69    0.58
   2   1   2    9.14    0.53
   2   1   2    8.05    0.72
  -3  -1  -2   46.09    2.18
  -3  -1  -2   47.64    2.88
   3   1   2   47.41    2.19
   3   1   2   47.95    2.35
  -4  -1  -2   52.11    2.40
  -4  -1  -2   51.01    3.19
  -4  -1  -2   49.54    2.40
   4   1   2   44.95    2.34
   5   1   2   55.96    2.70
  -6  -1  -2  137.15    4.83
  -6  -1  -2  136.61    5.09
   6   1   2  132.67    4.70
   6   1   2  129.61    5.81
  -7  -1  -2   20.39    1.14
  -7  -1  -2   20.87    1.11
  -7  -1  -2   19.84    0.99
  -7  -1  -2   19.03    1.16
   7   1   2   20.13    1.09
  -8  -1  -2   16.42    0.89
  -8  -1  -2   14.54    0.91
  -8  -1  -2   15.42    0.81
  -8  -1  -2   15.55    0.92
   8   1   2   16.18    0.87
  -9  -1  -2   31.19    1.12
  -9  -1  -2   31.04    1.23
   9   1   2   29.86    1.22
   7  -2  -2   91.95    3.11
  -7   2   2   87.90    3.45
  -7   2   2   89.93    2.99
  -7   2   2   92.74    3.28
   6  -2  -2   49.68    2.02
  -6   2   2   51.04    2.11
  -6   2   2   51.89    2.23
  -6   2   2   50.93    1.93
   5  -2  -2   70.05    2.61
  -5   2   2   67.15    2.49
  -5   2   2   68.94    2.87
  -5   2   2   70.09    3.25
  -5   2   2   64.81    2.70
  -4   2   2  247.66    9.26
  -4   2   2  263.19   10.71
  -3   2   2    2.53    0.54
  -3   2   2    4.01    0.48
  -3   2   2    2.99    0.73
  -3   2   2    3.59    0.50
  -2   2   2  338.11   18.79
  -2   2   2  339.83   17.86
  -2   2   2  351.62   14.06
   1  -2  -2  217.53    9.39
  -1   2   2  217.78    9.32
  -1   2   2  211.82    8.92
  -1   2   2  213.38   11.32
  -1   2   2  223.80   11.89
   0  -2  -2   12.63    0.96
   0  -2  -2   14.36    0.74
   0   2   2   14.08    0.72
   0   2   2   13.85    0.76
   0   2   2   13.86    0.89
   0   2   2   12.65    0.88
  -1  -2  -2 1000.00   39.86
   1   2   2  907.94   37.43
   1   2   2  897.66   38.91
  -2  -2  -2   69.36    3.14
  -2  -2  -2   68.90    3.74
   2   2   2   64.39    2.99
   2   2   2   69.85    3.75
   2   2   2   69.33    2.85
  -3  -2  -2  134.65    7.75
   3   2   2  147.71    5.82
   3   2   2  138.99    6.13
  -4  -2  -2  100.31    6.15
   4   2   2  114.37    4.60
   4   2   2  105.62    4.92
   5   2   2   34.10    1.66
   5   2   2   35.33    2.07
   5   2   2   33.96    1.74
   6   2   2   78.05    2.94
   6   2   2   77.35    3.50
  -7  -2  -2    8.27    0.68
  -7  -2  -2    8.30    0.76
  -7  -2  -2    8.37    0.66
  -7  -2  -2    7.74    0.73
   7   2   2    8.15    0.67
   7   2   2    8.91    0.69
  -8  -2  -2   16.00    0.97
  -8  -2  -2   15.73    0.82
  -8  -2  -2   16.08    0.95
  -8  -2  -2   16.25    0.93
   8   2   2   15.82    0.90
   8   2   2   16.11    0.90
  -9  -2  -2   19.49    0.82
  -9  -2  -2   19.72    0.91
   9   2   2   20.00    0.87
   9   2   2   19.47    0.89
   7  -3  -2    1.71    0.27
  -7   3   2    2.10    0.25
  -7   3   2    2.47    0.25
  -7   3   2    1.89    0.26
   6  -3  -2    0.49    0.27
  -6   3   2    0.43    0.22
  -6   3   2    0.41    0.26
  -6   3   2    0.55    0.30
  -6   3   2    1.01    0.28
   5  -3  -2    4.42    0.56
  -5   3   2    5.03    0.55
  -5   3   2    2.85    0.46
  -5   3   2    3.24    0.49
  -5   3   2    4.44    0.62
  -5   3   2    3.96    0.55
  -4   3   2    0.36    0.28
  -4   3   2    0.00    0.39
  -4   3   2    0.12    0.27
  -4   3   2    0.36    0.30
  -4   3   2    0.77    0.38
  -3   3   2    7.05    0.61
  -3   3   2    6.76    0.82
  -3   3   2    7.24    0.70
  -3   3   2    6.53    0.67
  -3   3   2    7.91    0.85
  -2   3   2   28.68    1.42
  -2   3   2   29.10    1.69
  -2   3   2   25.80    1.48
  -2   3   2   28.15    2.10
  -1   3   2   11.27    0.86
  -1   3   2   12.68    0.70
  -1   3   2   11.87    1.02
   0  -3  -2   55.24    2.52
   0   3   2   50.01    2.27
   0   3   2   56.34    3.11
   0   3   2   52.23    2.25
   0   3   2   57.57    2.55
  -1  -3  -2    0.67    0.19
  -1  -3  -2    0.13    0.13
   1   3   2    0.20    0.11
  -2  -3  -2  400.48   16.88
   2   3   2  380.55   16.35
   3   3   2    3.48    0.24
   3   3   2    3.62    0.36
   4   3   2    3.44    0.31
   4   3   2    3.40    0.52
   4   3   2    4.26    0.49
   5   3   2   42.17    2.31
   5   3   2   41.04    1.95
   5   3   2   41.74    1.69
   5   3   2   40.55    1.91
   5   3   2   41.31    1.86
   6   3   2   17.92    1.04
   6   3   2   17.48    1.11
   6   3   2   18.73    1.01
   6   3   2   17.25    1.15
  -7  -3  -2   47.94    2.17
  -7  -3  -2   45.97    2.10
   7   3   2   45.59    2.03
   7   3   2   45.80    1.93
   7   3   2   46.67    2.11
   7   3   2   46.06    1.85
   7   3   2   42.90    1.99
   7   3   2   45.68    1.89
  -8  -3  -2    0.37    0.29
  -8  -3  -2    0.47    0.26
  -8  -3  -2   -0.11    0.28
  -8  -3  -2    0.58    0.32
   8   3   2    0.34    0.22
   8   3   2    0.16    0.22
  -9  -3  -2   42.01    1.62
  -9  -3  -2   40.14    1.47
  -9  -3  -2   40.56    1.70
   9   3   2   40.39    1.51
   9   3   2   40.73    1.59
   6  -4  -2   77.18    2.63
  -6   4   2   72.13    2.51
  -6   4   2   73.94    2.75
  -6   4   2   78.28    2.59
   5  -4  -2    6.99    0.65
  -5   4   2    4.50    0.55
  -5   4   2    7.00    0.64
  -5   4   2    7.21    0.68
  -5   4   2    7.34    0.57
  -5   4   2    6.55    0.56
   4  -4  -2   66.47    2.68
  -4   4   2   74.61    2.92
  -4   4   2   73.94    2.66
  -4   4   2   69.01    2.68
  -4   4   2   71.78    3.05
  -4   4   2   68.96    2.61
  -3   4   2   96.36    3.80
  -3   4   2   95.59    3.51
  -3   4   2   99.98    4.29
  -3   4   2   98.40    4.82
  -3   4   2   93.73    3.29
  -3   4   2   97.92    3.67
  -3   4   2   98.23    4.01
  -2   4   2   12.71    0.92
  -2   4   2   14.42    0.97
  -2   4   2   13.24    1.04
  -2   4   2   13.40    0.81
  -2   4   2   15.90    1.21
  -1   4   2  272.33    9.16
  -1   4   2  282.51   11.18
  -1   4   2  295.76   12.34
   0   4   2    1.18    0.29
   0   4   2    0.69    0.35
  -1  -4  -2  277.13   12.00
   1   4   2  273.76   11.63
  -2  -4  -2  274.55   11.81
   2   4   2  263.24   11.32
  -3  -4  -2    3.63    0.60
   3   4   2    3.30    0.34
   3   4   2    3.37    0.31
   4   4   2  289.19   11.82
   4   4   2  260.47    9.64
   4   4   2  275.25    8.80
   5   4   2  104.16    4.19
   5   4   2  105.59    4.03
   5   4   2  106.69    4.97
   5   4   2  106.88    3.67
   6   4   2   84.75    3.56
   6   4   2   83.59    4.20
   6   4   2   83.07    2.88
   6   4   2   80.83    3.08
   6   4   2   87.60    3.45
   6   4   2   85.70    3.17
   6   4   2   84.91    3.35
  -7  -4  -2  105.63    4.54
   7   4   2  122.74    4.12
   7   4   2  115.97    4.58
   7   4   2  122.06    4.57
   7   4   2  122.69    4.75
   7   4   2  116.59    4.13
   7   4   2  124.65    4.29
   7   4   2  121.64    4.15
   7   4   2  124.56    4.52
  -8  -4  -2   -0.01    0.29
  -8  -4  -2    0.38    0.33
   8   4   2    0.51    0.27
   8   4   2    0.36    0.22
   8   4   2    0.53    0.29
   8   4   2    0.29    0.19
   8   4   2   -0.02    0.26
  -9  -4  -2   69.68    2.53
  -9  -4  -2   70.06    2.31
  -9  -4  -2   64.82    2.67
   9   4   2   70.37    2.34
   9   4   2   69.04    2.47
   5  -5  -2    1.44    0.33
  -5   5   2    1.65    0.21
  -5   5   2    1.02    0.30
  -5   5   2    1.58    0.32
  -5   5   2    1.27    0.29
  -5   5   2    1.66    0.29
   4  -5  -2    9.14    0.75
  -4   5   2    8.70    0.59
  -4   5   2    9.27    0.77
  -4   5   2    9.23    0.78
  -4   5   2    8.95    0.59
  -4   5   2    9.25    0.77
  -4   5   2    9.02    0.71
  -3   5   2    0.71    0.36
  -3   5   2    0.52    0.37
  -3   5   2    0.33    0.34
  -3   5   2    0.56    0.24
  -3   5   2    1.75    0.33
  -3   5   2    0.32    0.39
  -3   5   2    0.42    0.34
  -3   5   2    0.22    0.24
  -3   5   2    0.17    0.38
  -3   5   2    0.69    0.33
  -2   5   2    2.16    0.43
  -2   5   2    1.94    0.43
  -2   5   2    1.50    0.33
  -2   5   2    2.82    0.65
  -2   5   2    2.85    0.46
  -2   5   2    2.57    0.63
  -2   5   2    2.73    0.40
  -2   5   2    2.93    0.53
  -2   5   2    2.49    0.51
  -2   5   2    3.21    0.63
  -2   5   2    2.07    0.37
  -2   5   2    2.85    0.65
  -1   5   2    2.54    0.46
  -1   5   2    2.80    0.58
  -1   5   2    3.40    0.63
  -1   5   2    2.47    0.39
  -1   5   2    2.33    0.58
   0   5   2   14.62    1.19
   0   5   2   13.65    1.08
   0   5   2   15.93    1.03
   0   5   2   15.13    0.79
   0   5   2   12.97    0.83
   1   5   2    4.91    0.42
   1   5   2    4.63    0.70
   1   5   2    4.30    0.35
  -2  -5  -2    2.04    0.42
   2   5   2    2.38    0.22
   2   5   2    2.40    0.26
  -3  -5  -2    2.58    0.56
   3   5   2    2.36    0.22
   3   5   2    2.42    0.28
   3   5   2    2.10    0.26
  -4  -5  -2   -0.02    0.31
   4   5   2    0.26    0.19
   4   5   2    0.50    0.23
   4   5   2    0.36    0.15
   4   5   2    0.49    0.31
  -5  -5  -2   47.74    2.93
   5   5   2   48.61    1.88
   5   5   2   50.24    2.06
   5   5   2   50.45    1.76
   5   5   2   50.57    2.59
   5   5   2   47.89    2.27
   6   5   2    2.55    0.57
   6   5   2    3.33    0.64
   6   5   2    3.47    0.75
   6   5   2    3.23    0.64
   6   5   2    2.77    0.38
   6   5   2    4.02    0.63
   6   5   2    3.01    0.40
   6   5   2    2.40    0.50
   6   5   2    3.67    0.54
   6   5   2    2.87    0.61
   6   5   2    2.85    0.40
   6   5   2    3.07    0.43
   6   5   2    3.18    0.50
   6   5   2    2.93    0.35
   7   5   2   55.68    2.17
   7   5   2   53.48    2.21
   7   5   2   53.77    2.00
   7   5   2   55.90    2.13
   7   5   2   52.78    2.22
   7   5   2   51.74    2.42
   7   5   2   58.30    2.29
   7   5   2   53.65    2.34
   7   5   2   54.72    2.53
   7   5   2   54.33    2.15
   7   5   2   53.94    2.40
   7   5   2   55.57    2.00
  -8  -5  -2   42.58    1.96
   8   5   2   43.38    1.74
   8   5   2   41.45    1.66
   8   5   2   40.20    1.83
   8   5   2   40.35    1.81
   8   5   2   40.56    1.65
   8   5   2   41.47    1.49
   8   5   2   40.01    1.57
   8   5   2   40.89    1.73
   8   5   2   40.98    1.74
  -9  -5  -2    1.38    0.32
  -9  -5  -2    1.52    0.29
  -9  -5  -2    1.68    0.26
   9   5   2    1.69    0.27
   9   5   2    1.40    0.28
  -5   6   2   45.71    1.68
   4  -6  -2   10.76    0.71
  -4   6   2   10.55    0.63
  -4   6   2    8.89    0.71
  -4   6   2   10.21    0.70
  -4   6   2   10.63    0.73
  -3   6   2  189.36    6.10
  -3   6   2  185.79    6.76
  -3   6   2  179.79    5.79
  -3   6   2  168.41    6.67
  -3   6   2  179.68    5.96
  -3   6   2  175.05    6.43
  -3   6   2  174.92    6.06
  -3   6   2  190.59    5.74
  -3   6   2  180.97    5.89
  -3   6   2  179.63    7.42
  -2   6   2   48.67    1.76
  -2   6   2   50.90    2.09
  -2   6   2   47.37    1.90
  -2   6   2   49.16    1.97
  -2   6   2   50.28    2.32
  -2   6   2   49.05    2.02
  -2   6   2   53.17    2.07
  -2   6   2   52.84    2.68
  -2   6   2   50.35    2.30
  -2   6   2   43.74    2.33
  -1   6   2   17.34    1.04
  -1   6   2   19.88    1.06
  -1   6   2   17.74    0.73
  -1   6   2   18.66    1.35
  -1   6   2   19.92    1.00
  -1   6   2   18.40    1.18
  -1   6   2   18.81    1.06
  -1   6   2   18.13    1.37
  -1   6   2   18.55    1.18
  -1   6   2   20.22    1.55
  -1   6   2   21.09    1.02
  -1   6   2   21.31    1.36
   0   6   2  153.69    5.52
   0   6   2  154.28    5.23
   0   6   2  159.09    6.72
   0   6   2  150.42    5.78
   0   6   2  150.92    6.88
   0   6   2  152.02    5.73
   0   6   2  157.76    4.97
   1   6   2    0.40    0.18
   1   6   2    1.03    0.46
   1   6   2    0.94    0.34
   1   6   2    1.26    0.50
   1   6   2    1.13    0.28
   1   6   2    1.28    0.27
   2   6   2  153.19    5.81
   2   6   2  158.87    5.08
   2   6   2  157.08    6.75
   2   6   2  157.49    4.88
  -3  -6  -2   60.07    3.49
   3   6   2   67.79    2.76
   3   6   2   67.02    2.14
   3   6   2   69.78    3.03
   3   6   2   66.21    2.26
  -4  -6  -2   34.73    2.47
   4   6   2   39.49    1.38
   4   6   2   39.74    1.53
   4   6   2   41.39    1.91
   4   6   2   39.83    2.00
   4   6   2   40.88    1.48
   5   6   2  155.76    5.18
   5   6   2  162.46    5.28
   5   6   2  158.20    6.00
   5   6   2  157.73    5.98
   5   6   2  154.60    5.70
   5   6   2  148.21    5.90
   5   6   2  152.48    5.10
   5   6   2  157.09    5.65
   5   6   2  157.08    5.18
   5   6   2  156.29    4.87
   5   6   2  155.85    5.53
   5   6   2  149.60    6.96
   6   6   2    3.13    0.55
   6   6   2    4.19    0.51
   6   6   2    3.92    0.61
   6   6   2    3.64    0.73
   6   6   2    5.02    0.77
   6   6   2    3.63    0.43
   6   6   2    4.32    0.46
   6   6   2    5.22    0.67
   6   6   2    3.83    0.41
   6   6   2    2.73    0.57
   6   6   2    2.85    0.58
   6   6   2    4.88    0.44
   7   6   2   86.42    2.86
   7   6   2   83.69    3.13
   7   6   2   90.73    3.60
   7   6   2   80.77    3.29
   7   6   2   83.33    2.98
   7   6   2   83.66    3.04
   7   6   2   84.71    3.39
   7   6   2   82.81    3.13
   7   6   2   84.04    3.04
   7   6   2   79.58    3.38
   7   6   2   84.04    3.09
   8   6   2   43.21    1.85
   8   6   2   41.11    1.81
   8   6   2   41.59    1.60
   8   6   2   39.12    1.60
   8   6   2   42.27    1.66
   8   6   2   43.56    1.58
   8   6   2   41.14    1.69
   8   6   2   38.21    1.61
   8   6   2   43.14    1.76
   8   6   2   40.20    1.50
  -9  -6  -2   12.58    0.61
  -9  -6  -2   12.52    0.67
   9   6   2   11.71    0.67
   9   6   2   12.20    0.59
   9   6   2   12.99    0.64
  -4   7   2   13.43    0.56
  -4   7   2   12.65    0.64
  -3   7   2    8.48    0.51
  -3   7   2    7.29    0.51
  -3   7   2    8.61    0.58
  -3   7   2    8.44    0.65
  -3   7   2    8.46    0.63
  -3   7   2    9.28    0.55
  -2   7   2   11.89    0.91
  -2   7   2   11.13    0.91
  -2   7   2   12.10    0.71
  -2   7   2   12.45    0.84
  -2   7   2   13.12    0.73
  -2   7   2   11.68    0.96
  -2   7   2   11.78    0.77
  -2   7   2   11.89    1.14
  -2   7   2   12.33    0.75
  -1   7   2    8.26    0.82
  -1   7   2    9.41    0.68
  -1   7   2    9.04    0.68
  -1   7   2   10.24    1.14
  -1   7   2    9.79    0.66
  -1   7   2   10.11    1.07
  -1   7   2    9.45    0.78
  -1   7   2    9.47    0.65
  -1   7   2    8.61    0.81
   0   7   2    7.09    0.58
   0   7   2    7.53    1.10
   0   7   2    7.69    0.87
   0   7   2    6.82    0.58
   0   7   2    7.24    0.75
   0   7   2    7.57    0.63
   0   7   2    6.85    0.57
   0   7   2    6.10    0.63
   0   7   2    8.51    0.84
   1   7   2   10.04    1.24
   1   7   2   12.27    0.78
   1   7   2   10.01    0.61
   1   7   2   10.79    0.84
   1   7   2    9.82    0.92
   1   7   2   10.57    0.59
   1   7   2   10.04    0.84
   1   7   2    9.84    0.63
   1   7   2    9.95    0.73
   2   7   2    0.75    0.19
   2   7   2    0.66    0.36
   2   7   2    0.53    0.20
   2   7   2    0.70    0.35
   2   7   2    0.47    0.18
   2   7   2    0.05    0.30
   2   7   2    0.60    0.16
   2   7   2    0.53    0.34
   3   7   2    6.65    0.41
   3   7   2    7.19    0.55
   3   7   2    8.21    0.68
   3   7   2    8.17    0.88
   3   7   2    8.53    0.73
   3   7   2    7.05    0.41
   3   7   2    7.71    0.81
   3   7   2    7.03    0.41
   3   7   2    8.83    0.87
   4   7   2    5.78    0.62
   4   7   2    4.53    0.66
   4   7   2    4.56    0.35
   4   7   2    5.65    0.69
   4   7   2    6.22    0.75
   4   7   2    6.06    0.76
   4   7   2    5.33    0.38
   4   7   2    4.67    0.39
   4   7   2    5.51    0.55
   5   7   2    0.72    0.38
   5   7   2    0.55    0.36
   5   7   2    0.58    0.42
   5   7   2    0.41    0.19
   5   7   2    0.65    0.45
   5   7   2    0.13    0.16
   5   7   2    0.41    0.22
   5   7   2    0.05    0.20
   5   7   2    0.02    0.35
   5   7   2    1.55    0.42
   6   7   2    1.19    0.46
   6   7   2    1.70    0.47
   6   7   2    1.40    0.44
   6   7   2    1.51    0.29
   6   7   2    2.04    0.55
   6   7   2    1.30    0.26
   6   7   2    1.72    0.33
   6   7   2    1.23    0.29
   6   7   2    1.12    0.38
   7   7   2    0.64    0.31
   7   7   2    0.53    0.21
   7   7   2    0.32    0.32
   7   7   2    0.54    0.21
   7   7   2    0.30    0.33
   7   7   2    0.28    0.20
   7   7   2    0.30    0.37
   7   7   2    0.15    0.32
   7   7   2    0.70    0.23
   8   7   2    2.99    0.31
   8   7   2    2.53    0.31
   8   7   2    2.57    0.28
   8   7   2    4.01    0.45
   8   7   2    3.54    0.31
   8   7   2    2.83    0.39
   8   7   2    2.42    0.41
   8   7   2    3.30    0.43
  -9  -7  -2    1.60    0.24
  -9  -7  -2    1.21    0.19
   9   7   2    1.15    0.21
   9   7   2    1.13    0.14
   9   7   2    1.35    0.19
   9   7   2    1.36    0.17
   9   7   2    1.50    0.23
  -2   8   2   61.34    2.17
  -2   8   2   61.71    2.10
  -2   8   2   60.27    2.33
  -2   8   2   62.64    2.08
  -2   8   2   60.80    2.04
  -2   8   2   60.32    2.44
  -1   8   2    3.46    0.45
  -1   8   2    2.80    0.34
  -1   8   2    2.86    0.33
  -1   8   2    1.91    0.61
  -1   8   2    2.32    0.45
  -1   8   2    2.81    0.37
  -1   8   2    2.62    0.50
  -1   8   2    2.85    0.35
   0   8   2   90.06    3.14
   0   8   2   87.27    3.53
   0   8   2   87.12    2.94
   0   8   2   85.70    3.05
   0   8   2   87.03    3.06
   0   8   2   82.69    4.05
   0   8   2   87.67    3.62
   0   8   2   84.31    2.91
   0   8   2   87.60    3.37
   1   8   2   39.32    1.82
   1   8   2   38.08    1.65
   1   8   2   41.01    1.52
   1   8   2   40.34    1.51
   1   8   2   39.70    1.98
   1   8   2   39.45    1.44
   1   8   2   38.84    1.64
   1   8   2   38.39    2.40
   1   8   2   39.18    1.91
   2   8   2   74.11    3.10
   2   8   2   73.14    2.67
   2   8   2   71.58    3.08
   2   8   2   72.04    2.41
   2   8   2   71.56    2.41
   2   8   2   73.00    2.92
   2   8   2   75.04    2.50
   3   8   2  142.72    4.80
   3   8   2  140.02    5.23
   3   8   2  145.08    5.51
   3   8   2  143.20    4.48
   3   8   2  145.60    4.70
   3   8   2  145.31    4.58
   3   8   2  148.01    5.41
   3   8   2  148.57    5.58
   4   8   2    2.74    0.57
   4   8   2    2.78    0.53
   4   8   2    2.69    0.28
   4   8   2    2.87    0.29
   4   8   2    3.70    0.61
   4   8   2    3.00    0.49
   4   8   2    2.66    0.29
   4   8   2    2.51    0.48
   5   8   2  133.59    4.59
   5   8   2  140.00    4.52
   5   8   2  133.27    4.58
   5   8   2  136.68    4.41
   5   8   2  133.34    5.08
   5   8   2  134.43    5.21
   5   8   2  133.15    4.99
   5   8   2  141.02    5.35
   5   8   2  140.45    4.27
   6   8   2   79.00    2.86
   6   8   2   77.77    3.19
   6   8   2   79.82    3.21
   6   8   2   81.05    2.71
   6   8   2   82.25    2.95
   6   8   2   79.10    3.27
   6   8   2   81.55    2.81
   6   8   2   85.83    2.67
   6   8   2   81.16    3.42
   7   8   2    2.59    0.49
   7   8   2    5.25    0.35
   7   8   2    4.18    0.50
   7   8   2    4.18    0.50
   7   8   2    4.60    0.38
   7   8   2    4.83    0.39
   7   8   2    4.85    0.59
   7   8   2    4.43    0.54
   7   8   2    4.85    0.36
   8   8   2   73.24    2.33
   8   8   2   74.54    2.66
   8   8   2   73.07    2.50
   8   8   2   75.27    2.37
   8   8   2   77.88    2.80
   8   8   2   71.18    2.44
   8   8   2   69.91    2.66
  -1   9   2    1.83    0.28
  -1   9   2    1.84    0.21
   0   9   2    9.68    0.59
   0   9   2    8.41    0.47
   0   9   2    7.62    0.48
   0   9   2    9.43    0.66
   0   9   2    9.78    0.72
   1   9   2    1.81    0.22
   1   9   2    1.72    0.25
   1   9   2    1.92    0.37
   1   9   2    1.95    0.44
   1   9   2    2.38    0.41
   1   9   2    1.91    0.30
   2   9   2   15.66    0.76
   2   9   2   15.54    1.03
   2   9   2   15.24    0.65
   2   9   2   14.98    0.95
   2   9   2   14.94    0.62
   2   9   2   15.85    0.89
   2   9   2   14.92    1.04
   3   9   2    3.33    0.26
   3   9   2    3.70    0.46
   3   9   2    3.92    0.55
   3   9   2    4.12    0.54
   3   9   2    3.41    0.29
   3   9   2    4.15    0.63
   4   9   2    5.49    0.65
   4   9   2    6.08    0.36
   4   9   2    7.28    0.71
   4   9   2    6.55    0.62
   4   9   2    5.92    0.68
   4   9   2    7.09    0.78
   5   9   2    1.81    0.21
   5   9   2    2.69    0.43
   5   9   2    2.04    0.26
   5   9   2    2.30    0.52
   5   9   2    1.67    0.44
   5   9   2    2.04    0.20
   5   9   2    2.31    0.44
   6   9   2    8.97    0.45
   6   9   2    8.88    0.75
   6   9   2    9.58    0.51
   6   9   2    9.24    0.80
   6   9   2    8.76    0.67
   6   9   2    8.47    0.73
   7   9   2    1.79    0.18
   7   9   2    2.13    0.32
   7   9   2    1.73    0.21
   7   9   2    2.40    0.33
   7   9   2    2.13    0.37
   7   9   2    2.34    0.32
   2  10   2    3.02    0.26
   2  10   2    3.70    0.43
   3  10   2   30.97    1.17
   3  10   2   28.40    1.08
   3  10   2   28.46    1.33
   3  10   2   30.10    1.28
   4  10   2   44.97    1.58
   4  10   2   45.79    1.64
   4  10   2   45.67    1.80
   5  10   2    3.62    0.39
   5  10   2    4.21    0.28
   7   8  -3   40.82    1.54
   7   8  -3   40.31    1.41
   7   8  -3   42.35    1.63
   6   8  -3    7.50    0.38
   6   8  -3    7.51    0.55
   6   8  -3    7.93    0.59
   6   8  -3    7.83    0.34
   5   8  -3   38.41    1.70
   0   8  -3   65.41    3.23
   0   8  -3   70.75    2.79
   0   8  -3   71.24    2.24
  -1   8  -3   90.15    3.39
  -1   8  -3   93.87    3.13
  -1   8  -3   93.36    2.91
  -2   8  -3    0.58    0.14
   8   7  -3    3.26    0.21
   8   7  -3    3.16    0.31
   8   7  -3    3.39    0.32
   8   7  -3    3.30    0.16
   7   7  -3   17.69    0.71
   7   7  -3   16.92    0.85
   7   7  -3   17.10    0.67
   7   7  -3   16.97    0.89
   7   7  -3   16.75    0.64
   7   7  -3   15.54    0.84
   7   7  -3   16.09    0.68
   6   7  -3    1.19    0.19
   6   7  -3    1.00    0.33
   6   7  -3    1.16    0.17
   6   7  -3    1.15    0.19
   6   7  -3    1.84    0.36
   6   7  -3    1.11    0.31
   6   7  -3    1.37    0.21
   5   7  -3   13.57    0.58
   5   7  -3   13.18    0.50
   5   7  -3   12.59    0.56
   5   7  -3   12.68    0.92
   5   7  -3   13.69    0.86
   5   7  -3   13.22    0.92
   4   7  -3    5.68    0.65
   4   7  -3    6.59    0.34
   1   7  -3    1.17    0.53
   1   7  -3    1.91    0.65
   0   7  -3    1.38    0.19
   0   7  -3    1.36    0.47
   0   7  -3    1.84    0.59
   0   7  -3    1.78    0.26
   0   7  -3    1.36    0.24
  -1   7  -3    1.87    0.27
  -1   7  -3    1.50    0.54
  -1   7  -3    1.35    0.40
  -1   7  -3    1.39    0.45
  -1   7  -3    1.72    0.44
  -1   7  -3    1.99    0.28
  -1   7  -3    1.70    0.26
  -2   7  -3    0.58    0.45
  -2   7  -3    1.67    0.43
  -2   7  -3    1.38    0.24
  -2   7  -3    1.24    0.24
  -2   7  -3    1.51    0.42
  -2   7  -3    1.28    0.23
  -2   7  -3    2.13    0.38
  -3   7  -3    9.77    0.59
  -3   7  -3    8.13    0.63
  -3   7  -3    8.18    0.45
  -3   7  -3    9.14    0.48
  -3   7  -3    8.18    0.63
  -3   7  -3    9.27    0.48
   8   6  -3    2.07    0.21
   8   6  -3    2.46    0.22
   8   6  -3    1.83    0.27
   8   6  -3    2.25    0.29
   8   6  -3    1.39    0.25
   8   6  -3    2.54    0.23
   7   6  -3   45.40    1.53
   7   6  -3   42.07    1.61
   7   6  -3   44.82    1.58
   7   6  -3   43.16    1.61
   7   6  -3   43.66    1.89
   7   6  -3   45.53    1.82
   7   6  -3   43.89    1.78
   6   6  -3  114.57    3.99
   6   6  -3  108.69    4.25
   6   6  -3  112.15    3.71
   6   6  -3  110.72    3.50
   6   6  -3  110.77    3.63
   6   6  -3  110.51    4.07
   6   6  -3  107.05    3.74
   5   6  -3    3.73    0.53
   5   6  -3    3.50    0.50
   5   6  -3    4.36    0.58
   5   6  -3    4.64    0.37
   5   6  -3    4.52    0.36
   5   6  -3    4.99    0.36
   4   6  -3   98.45    3.79
   4   6  -3   98.84    3.56
   4   6  -3   98.63    3.22
   4   6  -3   94.94    3.14
   4   6  -3   99.68    3.06
   4   6  -3   94.23    3.87
   3   6  -3   23.25    0.83
   1   6  -3   96.49    3.84
   1   6  -3   96.76    4.48
   1   6  -3   97.00    3.15
   0   6  -3    1.96    0.24
   0   6  -3    1.57    0.28
   0   6  -3    2.29    0.35
   0   6  -3    2.03    0.54
   0   6  -3    2.29    0.29
   0   6  -3    2.19    0.47
   0   6  -3    1.95    0.62
  -1   6  -3   97.15    4.38
  -1   6  -3   92.34    3.74
  -1   6  -3   97.63    3.80
  -1   6  -3   94.55    3.22
  -1   6  -3   93.82    3.28
  -1   6  -3   93.77    3.07
  -1   6  -3   93.18    3.41
  -2   6  -3   46.40    1.79
  -2   6  -3   47.01    1.79
  -2   6  -3   48.26    2.50
  -2   6  -3   45.23    1.71
  -2   6  -3   48.03    1.84
  -2   6  -3   48.80    2.15
  -2   6  -3   44.28    1.95
  -2   6  -3   48.28    2.22
  -3   6  -3   22.38    1.27
  -3   6  -3   20.07    1.10
  -3   6  -3   21.61    0.97
  -3   6  -3   21.61    0.99
  -3   6  -3   21.83    1.01
  -3   6  -3   21.93    1.22
  -3   6  -3   20.30    1.38
  -4   6  -3   87.79    2.78
  -4   6  -3   77.74    2.91
  -4   6  -3   85.89    3.19
  -4   6  -3   79.77    2.86
  -4   6  -3   82.82    2.84
  -4   6  -3   80.56    2.69
  -4   6  -3   80.76    3.00
  -5   6  -3    2.49    0.28
  -5   6  -3    2.53    0.24
   5  -6   3    2.64    0.28
   8   5  -3    6.16    0.47
   8   5  -3    6.76    0.44
   8   5  -3    5.97    0.37
   8   5  -3    6.34    0.40
   8   5  -3    5.86    0.47
   8   5  -3    5.66    0.48
  -8  -5   3    6.34    0.55
   7   5  -3   57.51    2.18
   7   5  -3   56.47    2.03
   7   5  -3   53.87    2.04
   7   5  -3   53.80    1.98
   7   5  -3   53.05    1.98
   7   5  -3   55.10    2.21
   7   5  -3   56.81    1.90
   7   5  -3   52.83    2.28
  -7  -5   3   56.95    2.36
   6   5  -3   37.49    1.48
   6   5  -3   40.34    1.52
   6   5  -3   39.94    1.42
   6   5  -3   37.16    1.48
   6   5  -3   37.63    1.68
   6   5  -3   37.52    1.49
   6   5  -3   38.13    1.81
   6   5  -3   34.91    1.70
   5   5  -3    5.31    0.70
   5   5  -3    4.83    0.63
   5   5  -3    5.27    0.42
   5   5  -3    5.21    0.40
   5   5  -3    4.58    0.59
   5   5  -3    5.35    0.34
   5   5  -3    5.50    0.62
   5   5  -3    4.95    0.48
   5   5  -3    5.07    0.43
   4   5  -3   59.89    1.93
   4   5  -3   59.83    2.04
   4   5  -3   55.91    2.28
  -4  -5   3   53.04    3.90
   3   5  -3   14.54    0.61
  -3  -5   3   13.32    1.52
   1   5  -3   54.95    2.75
   1   5  -3   52.62    1.72
   1   5  -3   51.31    2.43
   0   5  -3    3.42    0.43
   0   5  -3    3.09    0.65
   0   5  -3    4.30    0.66
   0   5  -3    3.57    0.28
  -1   5  -3    5.49    0.80
  -1   5  -3    7.58    0.86
  -1   5  -3    6.47    0.65
  -1   5  -3    6.67    0.41
  -1   5  -3    6.28    0.45
  -2   5  -3    5.99    0.76
  -2   5  -3    4.89    0.74
  -2   5  -3    5.30    0.43
  -2   5  -3    4.96    0.44
  -2   5  -3    6.09    0.71
  -2   5  -3    5.36    0.47
  -2   5  -3    6.98    0.83
  -2   5  -3    5.24    0.49
  -2   5  -3    5.55    0.52
  -2   5  -3    5.60    0.66
  -3   5  -3    7.08    0.54
  -3   5  -3    6.84    0.52
  -3   5  -3    7.98    0.72
  -3   5  -3    7.66    0.60
  -3   5  -3    6.62    0.76
  -3   5  -3    7.13    0.84
  -3   5  -3    8.08    0.90
  -3   5  -3    6.16    0.59
  -4   5  -3    0.21    0.31
  -4   5  -3    0.71    0.27
  -4   5  -3    0.43    0.21
  -4   5  -3    0.01    0.28
  -4   5  -3    0.50    0.36
  -4   5  -3    0.05    0.38
  -4   5  -3   -0.08    0.22
  -5   5  -3    0.68    0.28
  -5   5  -3    0.89    0.23
  -5   5  -3    1.02    0.21
  -6   5  -3    7.34    0.45
   6  -5   3    7.37    0.44
   8   4  -3   26.62    1.15
   8   4  -3   27.67    1.17
   8   4  -3   25.55    1.08
  -8  -4   3   25.50    1.04
  -8  -4   3   24.89    1.24
   7   4  -3   -0.07    0.20
   7   4  -3    0.25    0.23
   7   4  -3    0.22    0.15
   7   4  -3    0.16    0.22
   7   4  -3    0.72    0.21
   7   4  -3    0.32    0.16
   7   4  -3    0.06    0.26
   7   4  -3    0.37    0.25
   7   4  -3    0.32    0.21
  -7  -4   3    0.08    0.30
  -7  -4   3    0.10    0.25
   6   4  -3  127.44    4.11
   6   4  -3  130.76    4.38
   6   4  -3  129.58    4.32
   6   4  -3  135.00    4.73
   6   4  -3  130.62    4.27
   6   4  -3  125.99    4.88
   6   4  -3  129.86    4.56
   6   4  -3  131.97    4.38
   6   4  -3  122.42    4.66
  -6  -4   3  123.74    4.98
   5   4  -3   21.92    0.98
   5   4  -3   22.26    0.91
   5   4  -3   20.80    1.00
   5   4  -3   20.44    1.12
   5   4  -3   21.03    1.28
  -5  -4   3   18.27    1.89
   4   4  -3    8.56    0.50
   4   4  -3    8.75    0.52
  -4  -4   3    7.75    1.16
   3   4  -3  180.32    6.47
   3   4  -3  194.00    6.05
  -3  -4   3  190.22   10.52
  -2  -4   3    0.90    0.50
  -2  -4   3    1.15    0.42
   1   4  -3  190.63    8.19
  -1  -4   3  216.24   11.40
   0   4  -3   70.79    4.48
   0   4  -3   79.14    3.48
  -1   4  -3   86.19    3.90
  -1   4  -3   86.12    2.89
  -2   4  -3  189.15    6.75
  -2   4  -3  191.99    5.90
  -2   4  -3  190.04    6.28
  -2   4  -3  195.12    8.52
  -2   4  -3  193.82    7.88
  -3   4  -3   11.92    0.65
  -3   4  -3   10.13    0.70
  -3   4  -3    9.79    0.68
  -3   4  -3   10.87    0.64
  -3   4  -3   10.38    0.98
  -3   4  -3   11.70    1.05
  -3   4  -3   11.45    1.03
  -3   4  -3   10.00    0.73
  -3   4  -3   11.84    0.85
  -3   4  -3   10.53    0.88
  -4   4  -3  217.68    6.93
  -4   4  -3  217.19    8.14
  -4   4  -3  220.27    7.29
  -4   4  -3  218.59    7.27
  -4   4  -3  216.84    7.23
  -4   4  -3  226.67    8.93
  -4   4  -3  224.44    7.37
  -4   4  -3  220.75    7.65
  -4   4  -3  233.98    7.39
  -5   4  -3   66.13    2.33
  -5   4  -3   64.58    2.50
  -5   4  -3   64.57    2.39
  -5   4  -3   65.56    2.75
  -5   4  -3   69.05    2.62
  -6   4  -3    1.05    0.26
  -6   4  -3    1.51    0.16
   6  -4   3    1.59    0.34
   8   3  -3   83.54    2.75
   8   3  -3   79.67    2.91
   8   3  -3   81.33    2.87
  -8  -3   3   80.64    2.69
  -8  -3   3   80.61    3.15
   7   3  -3    7.73    0.67
   7   3  -3    8.97    0.68
   7   3  -3    9.28    0.68
   7   3  -3    8.44    0.53
   7   3  -3    9.48    0.58
  -7  -3   3    9.19    0.75
  -7  -3   3    7.89    0.61
   6   3  -3   92.82    3.26
   6   3  -3   92.10    3.25
   6   3  -3   90.70    3.08
   6   3  -3   97.14    3.60
   6   3  -3   98.88    3.23
   6   3  -3   93.70    3.28
   6   3  -3   91.68    3.41
   6   3  -3   91.73    3.29
   6   3  -3   91.59    3.65
   6   3  -3   92.61    3.50
  -6  -3   3   90.58    3.73
   5   3  -3   37.84    1.50
   5   3  -3   34.25    1.59
   5   3  -3   37.57    1.63
   5   3  -3   37.52    1.39
  -5  -3   3   36.30    2.72
   4   3  -3    7.01    0.49
   4   3  -3    7.00    0.51
  -4  -3   3    7.74    1.06
   3   3  -3  230.83    8.10
  -3  -3   3  251.05   12.79
  -3  -3   3  217.91   13.02
  -2  -3   3    3.20    0.73
  -2  -3   3    2.77    0.55
  -1  -3   3   71.12    4.01
  -1  -3   3   62.42    3.99
   0   3  -3   97.04    5.56
  -1   3  -3   24.78    1.77
  -1   3  -3   24.22    1.44
  -2   3  -3   42.73    1.55
  -2   3  -3   40.36    2.10
  -3   3  -3    0.18    0.20
  -3   3  -3    0.21    0.30
  -3   3  -3    0.76    0.35
  -3   3  -3    1.33    0.37
  -4   3  -3   54.92    3.03
  -4   3  -3   56.97    2.24
  -4   3  -3   58.83    2.14
  -4   3  -3   52.93    2.32
  -4   3  -3   55.85    2.05
  -4   3  -3   60.67    2.28
  -4   3  -3   56.91    2.56
  -4   3  -3   56.79    2.73
  -5   3  -3    5.39    0.62
  -5   3  -3    4.04    0.47
  -5   3  -3    3.92    0.58
  -5   3  -3    4.48    0.45
  -5   3  -3    4.27    0.57
  -6   3  -3    0.67    0.23
  -6   3  -3    0.86    0.29
  -6   3  -3    0.90    0.31
  -7   3  -3   14.37    0.72
  -7   3  -3   15.03    0.64
  -7   3  -3   15.06    0.78
   7  -3   3   14.31    0.73
   9   2  -3    0.43    0.08
   8   2  -3   35.93    1.46
   8   2  -3   36.66    1.49
   8   2  -3   38.99    1.44
  -8  -2   3   37.26    1.64
  -8  -2   3   38.34    1.39
   7   2  -3   19.69    1.03
   7   2  -3   19.11    0.96
   7   2  -3   20.61    1.13
   7   2  -3   18.89    1.01
   7   2  -3   20.13    1.03
  -7  -2   3   20.55    0.97
  -7  -2   3   20.65    1.15
   6   2  -3    7.16    0.69
   6   2  -3    7.24    0.67
   6   2  -3    7.90    0.66
   6   2  -3    7.27    0.53
   6   2  -3    8.25    0.62
   6   2  -3    8.34    0.72
  -6  -2   3    7.01    0.69
  -6  -2   3    8.46    0.64
   5   2  -3   55.63    2.32
   5   2  -3   57.04    2.40
   5   2  -3   52.78    2.10
   5   2  -3   54.86    1.99
  -5  -2   3   54.68    3.61
  -5  -2   3   57.53    2.44
   4   2  -3    1.54    0.28
   4   2  -3    2.29    0.35
   4   2  -3    1.45    0.22
  -4  -2   3    1.11    0.46
   3   2  -3  107.44    4.06
   3   2  -3  114.84    4.54
  -3  -2   3  104.61    6.57
  -3  -2   3  119.69    6.48
  -2  -2   3  115.74    6.56
  -2  -2   3  114.75    6.59
   1   2  -3   54.90    2.79
  -1  -2   3   54.56    3.17
  -1  -2   3   49.59    3.23
   0   2  -3  237.59    9.94
   0   2  -3  226.37   12.23
   0  -2   3  210.55   11.79
  -1   2  -3  192.93   10.59
  -2   2  -3  184.45   10.49
  -2   2  -3  192.79    7.66
  -3   2  -3  173.19    7.28
  -3   2  -3  186.80    5.91
  -3   2  -3  171.48    7.09
  -4   2  -3    0.61    0.22
  -4   2  -3    0.21    0.32
  -4   2  -3    0.37    0.32
  -5   2  -3   91.16    3.40
  -5   2  -3   87.47    3.88
  -5   2  -3   89.18    3.33
  -5   2  -3   89.38    3.23
  -5   2  -3   89.59    3.61
  -6   2  -3   24.09    1.22
  -6   2  -3   26.45    1.25
  -6   2  -3   25.40    1.25
  -6   2  -3   23.94    1.35
  -7   2  -3   29.10    1.26
  -7   2  -3   29.59    1.39
  -7   2  -3   29.66    1.30
   7  -2   3   29.80    1.28
  -8   2  -3   37.04    1.28
  -8   2  -3   35.40    1.42
   8   1  -3   35.15    1.41
   8   1  -3   35.19    1.37
  -8  -1   3   36.54    1.58
  -8  -1   3   37.26    1.45
  -8  -1   3   37.52    1.35
   7   1  -3   43.43    1.72
   7   1  -3   41.21    1.74
  -7  -1   3   42.50    1.77
  -7  -1   3   39.66    1.62
  -7  -1   3   45.78    1.94
   6   1  -3    8.54    0.65
   6   1  -3    9.91    0.75
   6   1  -3    7.84    0.71
   6   1  -3    8.37    0.71
  -6  -1   3    8.22    0.70
  -6  -1   3    8.42    0.74
  -6  -1   3    8.87    0.66
   5   1  -3   98.08    4.13
  -5  -1   3   90.95    5.52
  -5  -1   3   93.66    3.72
   4   1  -3   31.98    1.58
   4   1  -3   30.18    1.46
  -4  -1   3   31.63    2.24
   3   1  -3  136.78    5.62
   3   1  -3  133.40    6.17
  -3  -1   3  146.45    7.50
  -3  -1   3  114.59    7.67
   2   1  -3   50.87    2.32
   2   1  -3   55.60    2.70
  -2  -1   3   51.75    3.23
  -2  -1   3   49.16    3.20
   1   1  -3  390.65   16.91
   1   1  -3  383.78   15.69
  -1  -1   3  384.16   20.93
  -1  -1   3  397.57   20.38
   0   1  -3  957.13   49.58
   0   1  -3  935.23   37.25
   0   1  -3  966.30   39.84
   0  -1   3  866.70   47.82
  -1   1  -3   56.79    2.36
  -1   1  -3   59.63    2.68
  -1   1  -3   59.04    3.28
   1  -1   3   52.05    2.99
  -2   1  -3  224.60    9.10
  -2   1  -3  222.60   12.22
  -3   1  -3   46.91    2.11
  -3   1  -3   45.59    2.97
  -4   1  -3    1.54    0.31
  -5   1  -3   68.44    3.07
   5  -1   3   61.14    2.53
  -6   1  -3   12.09    0.83
  -6   1  -3   11.18    0.85
  -6   1  -3   11.14    0.79
   6  -1   3    9.01    0.78
  -7   1  -3   44.22    1.83
  -7   1  -3   43.54    1.95
  -7   1  -3   43.60    1.66
   7  -1   3   43.12    1.76
   7  -1   3   45.67    1.82
  -8   1  -3    5.16    0.44
  -8   1  -3    4.65    0.43
  -8   1  -3    5.18    0.47
   8   0  -3    0.02    0.17
   8   0  -3    0.09    0.19
  -8   0   3    0.12    0.21
  -8   0   3    0.13    0.15
  -8   0   3    0.36    0.19
   7   0  -3   18.73    1.00
  -7   0   3   20.22    0.95
  -7   0   3   20.12    1.03
  -7   0   3   20.37    1.12
   6   0  -3    2.89    0.44
  -6   0   3    1.99    0.36
  -6   0   3    2.18    0.41
  -6   0   3    1.99    0.37
   5   0  -3   41.48    2.13
  -5   0   3   42.96    1.94
   4   0  -3   38.33    1.99
  -4   0   3   40.84    2.60
  -4   0   3   37.76    1.76
   3   0  -3    0.16    0.21
   3   0  -3    0.91    0.28
  -3   0   3    0.20    0.26
  -3   0   3    0.27    0.31
   2   0  -3  141.69    5.87
   2   0  -3  146.69    6.30
  -2   0   3  138.07    7.59
  -2   0   3  137.30    5.83
  -2   0   3  127.63    7.85
   1   0  -3    3.34    0.40
   1   0  -3    2.23    0.27
  -1   0   3    1.77    0.39
  -1   0   3    1.51    0.40
   0   0  -3  126.28    5.48
   0   0  -3  127.47    5.08
   0   0   3  114.00    6.55
   0   0   3  128.60    6.78
  -1   0  -3   18.37    1.11
  -1   0  -3   17.30    0.81
  -1   0  -3   18.07    0.91
   1   0   3   15.49    1.00
  -2   0  -3    0.87    0.17
  -2   0  -3    1.14    0.26
  -2   0  -3    0.37    0.13
   2   0   3    0.48    0.19
  -3   0  -3   81.75    4.57
  -3   0  -3   80.63    3.39
   3   0   3   70.52    3.48
  -4   0  -3   37.60    1.81
  -4   0  -3   37.71    2.50
   4   0   3   29.80    1.96
  -5   0  -3   33.14    1.80
  -6   0  -3  176.14    6.16
  -6   0  -3  172.96    5.61
  -6   0  -3  179.12    6.50
  -6   0  -3  173.03    7.59
   6   0   3  177.88    6.05
  -7   0  -3   17.96    0.94
  -7   0  -3   18.87    1.03
  -7   0  -3   19.38    1.11
   7   0   3   18.31    1.03
  -8   0  -3  103.00    3.72
  -8   0  -3  105.68    3.39
  -8   0  -3  104.26    3.90
   8   0   3  105.16    3.62
   8  -1  -3    9.24    0.48
  -8   1   3    8.32    0.49
  -8   1   3    8.64    0.43
   7  -1  -3  133.31    4.49
  -7   1   3  131.84    5.03
  -7   1   3  135.60    4.74
  -7   1   3  140.69    4.36
   6  -1  -3    0.46    0.27
  -6   1   3    0.42    0.26
  -6   1   3    0.00    0.27
  -6   1   3    0.36    0.25
   5  -1  -3  106.70    4.97
   5  -1  -3  112.24    3.88
  -5   1   3  106.30    5.01
  -5   1   3  109.59    4.07
  -5   1   3  111.44    3.74
  -5   1   3  116.23    4.33
   4  -1  -3  186.45    8.19
  -4   1   3  192.24    7.04
  -4   1   3  193.45    8.19
   3  -1  -3    9.52    0.83
   3  -1  -3    9.04    0.80
  -3   1   3   10.28    0.80
  -3   1   3   10.03    1.16
  -3   1   3   10.20    0.80
  -3   1   3   10.43    0.97
   2  -1  -3  198.12    8.25
   2  -1  -3  214.86    8.74
  -2   1   3  204.04   10.57
  -2   1   3  177.49    8.50
  -2   1   3  180.45   10.99
  -2   1   3  203.42    8.22
   1  -1  -3   56.60    2.48
   1  -1  -3   60.94    2.66
  -1   1   3   52.42    3.38
  -1   1   3   54.13    2.58
  -1   1   3   54.25    3.20
  -1   1   3   58.23    2.50
   0  -1  -3   23.57    1.09
   0  -1  -3   23.85    1.18
   0  -1  -3   23.87    1.40
   0   1   3   22.87    1.13
   0   1   3   22.41    1.46
   0   1   3   25.07    1.08
   0   1   3   20.20    1.38
  -1  -1  -3   77.80    3.57
   1   1   3   77.45    3.48
   1   1   3   87.52    4.35
   1   1   3   83.45    3.34
   1   1   3   73.95    4.25
  -2  -1  -3   51.19    2.37
  -2  -1  -3   49.39    2.24
  -2  -1  -3   56.53    2.92
   2   1   3   53.09    2.25
   2   1   3   46.99    2.35
  -3  -1  -3  134.09    5.56
  -3  -1  -3  118.83    5.81
  -3  -1  -3  140.43    7.35
   3   1   3  135.45    5.59
   3   1   3  130.97    5.86
  -4  -1  -3   18.05    1.10
  -4  -1  -3   17.86    1.42
   4   1   3   16.78    1.08
  -5  -1  -3   34.51    1.88
   5   1   3   32.47    1.80
  -6  -1  -3   19.32    1.11
  -6  -1  -3   18.99    1.13
   6   1   3   21.34    1.28
   6   1   3   18.49    1.08
  -7  -1  -3    5.94    0.56
  -7  -1  -3    6.66    0.67
  -7  -1  -3    6.35    0.61
   7   1   3    4.70    0.54
  -8  -1  -3   24.15    1.17
  -8  -1  -3   23.62    1.06
  -8  -1  -3   24.72    1.23
   8   1   3   24.93    1.16
  -9  -1  -3    2.92    0.31
  -9  -1  -3    3.22    0.34
  -9  -1  -3    2.77    0.27
   9   1   3    3.13    0.31
   7  -2  -3    3.33    0.39
  -7   2   3    4.66    0.42
  -7   2   3    3.40    0.42
  -7   2   3    3.27    0.34
   6  -2  -3   74.71    2.76
  -6   2   3   74.51    2.64
  -6   2   3   75.56    2.90
  -6   2   3   76.54    3.07
   5  -2  -3   12.30    0.83
  -5   2   3   11.37    0.76
  -5   2   3   12.52    0.86
  -5   2   3   10.38    0.94
  -5   2   3   12.33    0.88
  -4   2   3   20.56    1.31
  -4   2   3   20.25    1.18
  -3   2   3  154.94    6.04
  -3   2   3  164.93    6.88
   2  -2  -3   33.02    1.79
  -2   2   3   36.51    2.47
  -2   2   3   34.10    1.74
  -2   2   3   35.08    2.20
  -2   2   3   30.16    1.82
  -2   2   3   35.17    1.74
   1  -2  -3   36.71    1.77
  -1   2   3   36.96    1.73
  -1   2   3   34.38    2.33
  -1   2   3   33.84    1.80
  -1   2   3   35.66    2.15
   0  -2  -3   50.71    2.97
   0  -2  -3   51.91    2.41
   0   2   3   52.60    2.28
   0   2   3   52.31    2.99
   0   2   3   49.23    2.89
   0   2   3   53.36    2.38
  -1  -2  -3  150.41    6.27
   1   2   3  139.99    6.09
   1   2   3  138.00    5.84
  -2  -2  -3   87.99    3.98
   2   2   3   86.76    3.85
   2   2   3   89.09    3.67
  -3  -2  -3   39.54    1.98
  -3  -2  -3   39.92    2.34
   3   2   3   37.61    1.93
   3   2   3   41.44    1.82
  -4  -2  -3  244.15   10.27
   4   2   3  234.90    9.64
   4   2   3  218.52   10.13
   5   2   3    5.78    0.58
   6   2   3   52.41    2.59
   6   2   3   56.20    2.23
  -7  -2  -3   20.90    1.16
  -7  -2  -3   20.77    1.19
  -7  -2  -3   20.70    1.05
  -7  -2  -3   20.27    1.22
   7   2   3   21.01    1.14
   7   2   3   21.66    1.07
  -8  -2  -3   12.65    0.81
  -8  -2  -3   11.68    0.83
  -8  -2  -3   11.61    0.85
  -8  -2  -3   12.67    0.71
   8   2   3   13.55    0.80
  -9  -2  -3   49.83    1.86
  -9  -2  -3   49.50    1.68
  -9  -2  -3   48.71    1.92
   9   2   3   49.57    1.82
   9   2   3   47.10    1.80
   7  -3  -3   23.47    0.92
  -7   3   3   22.86    0.89
  -7   3   3   22.16    0.94
  -7   3   3   22.91    0.88
   6  -3  -3   68.31    2.43
  -6   3   3   67.80    2.56
  -6   3   3   66.50    2.45
  -6   3   3   66.91    2.34
  -6   3   3   63.38    2.69
   5  -3  -3    1.07    0.34
  -5   3   3    0.05    0.27
  -5   3   3    0.14    0.25
  -5   3   3    0.25    0.25
  -5   3   3    0.65    0.34
   4  -3  -3   99.36    3.62
  -4   3   3  100.32    3.53
  -4   3   3  101.93    4.08
  -4   3   3  103.13    4.49
  -4   3   3  101.15    3.88
  -3   3   3   62.27    2.82
  -3   3   3   56.51    2.74
  -3   3   3   60.27    2.65
  -2   3   3   93.90    4.51
  -2   3   3   92.34    4.04
  -2   3   3   95.43    5.75
  -2   3   3   96.90    4.16
   1  -3  -3   61.94    2.95
  -1   3   3   62.30    3.57
  -1   3   3   61.54    3.04
  -1   3   3   64.43    2.81
   0  -3  -3    8.59    0.59
   0   3   3    8.15    0.61
   0   3   3    8.65    0.67
   0   3   3    8.38    0.56
  -1  -3  -3  777.92   32.44
   1   3   3  748.91   31.66
   1   3   3  748.80   30.45
  -2  -3  -3  118.97    5.48
   2   3   3  127.26    5.01
   2   3   3  119.45    5.26
  -3  -3  -3  102.08    4.85
   3   3   3  104.74    4.65
   3   3   3  108.52    4.37
  -4  -3  -3  138.16    6.30
   4   3   3  139.12    5.71
   4   3   3  133.51    4.99
   4   3   3  136.03    6.11
  -5  -3  -3   12.20    1.04
   5   3   3   12.39    0.79
   5   3   3   12.54    0.81
   5   3   3   12.96    1.07
   5   3   3   15.51    1.02
   5   3   3   11.95    0.85
   6   3   3   73.66    3.07
   6   3   3   69.21    2.74
   6   3   3   72.61    3.20
   6   3   3   69.00    2.98
  -7  -3  -3   40.85    1.97
  -7  -3  -3   40.06    1.94
   7   3   3   38.40    1.87
   7   3   3   38.43    1.74
   7   3   3   40.76    1.78
   7   3   3   42.52    1.72
   7   3   3   44.09    1.90
  -8  -3  -3    2.62    0.45
  -8  -3  -3    1.88    0.39
  -8  -3  -3    1.98    0.34
  -8  -3  -3    2.77    0.45
   8   3   3    3.56    0.45
   8   3   3    2.27    0.35
  -9  -3  -3   23.33    0.96
  -9  -3  -3   23.50    1.08
  -9  -3  -3   24.02    1.07
   9   3   3   24.92    1.01
   9   3   3   22.61    1.04
   6  -4  -3    0.24    0.22
  -6   4   3    0.18    0.15
  -6   4   3    0.43    0.19
  -6   4   3    0.47    0.16
   5  -4  -3    3.89    0.49
  -5   4   3    5.38    0.51
  -5   4   3    3.71    0.49
  -5   4   3    3.66    0.42
  -5   4   3    3.96    0.50
   4  -4  -3    0.74    0.33
  -4   4   3    0.48    0.33
  -4   4   3    0.05    0.31
  -4   4   3    0.50    0.29
  -4   4   3    0.30    0.30
  -4   4   3    0.38    0.26
  -3   4   3   26.15    1.18
  -3   4   3   27.42    1.21
  -3   4   3   24.38    1.23
  -3   4   3   28.48    1.56
  -3   4   3   24.28    1.40
  -3   4   3   23.60    1.48
  -3   4   3   26.29    1.35
  -3   4   3   27.55    1.60
  -3   4   3   25.19    1.30
  -2   4   3    8.78    0.94
  -2   4   3    9.51    0.86
  -2   4   3    9.33    0.80
  -2   4   3    8.71    0.68
  -2   4   3    8.42    0.56
  -1   4   3   45.51    2.31
  -1   4   3   44.97    1.98
  -1   4   3   51.05    2.53
  -1   4   3   44.55    1.82
   0  -4  -3   66.61    3.34
   0   4   3   76.58    3.39
   0   4   3   71.69    3.23
  -1  -4  -3    4.29    0.44
   1   4   3    3.89    0.37
  -2  -4  -3  250.37   11.05
   2   4   3  251.32   10.63
  -3  -4  -3   11.36    0.91
   3   4   3   11.76    0.73
  -4  -4  -3  100.84    4.90
   4   4   3   98.57    3.76
   4   4   3  101.08    3.42
   4   4   3  104.14    4.61
  -5  -4  -3   79.24    4.03
   5   4   3   74.40    3.09
   5   4   3   81.03    2.84
   5   4   3   77.56    3.23
   5   4   3   78.48    3.83
   6   4   3    6.77    0.64
   6   4   3    7.88    0.79
   6   4   3    9.49    0.93
   6   4   3    7.40    0.69
   6   4   3    7.67    0.61
   6   4   3    6.45    0.90
   6   4   3    7.20    0.71
  -7  -4  -3   69.80    3.10
   7   4   3   73.90    2.74
   7   4   3   80.83    3.13
   7   4   3   76.03    3.08
   7   4   3   77.11    2.81
   7   4   3   75.38    2.77
   7   4   3   72.49    2.86
   7   4   3   73.59    3.09
   7   4   3   75.78    3.21
  -8  -4  -3   15.14    0.90
  -8  -4  -3   11.99    0.93
  -8  -4  -3   11.65    0.86
   8   4   3   12.81    0.74
   8   4   3   12.18    0.81
   8   4   3   14.06    0.79
   8   4   3   13.17    0.88
   8   4   3   13.24    0.88
  -9  -4  -3   12.53    0.65
  -9  -4  -3   11.84    0.76
  -9  -4  -3   13.48    0.73
   9   4   3   13.62    0.61
   9   4   3   12.03    0.69
   5  -5  -3   27.36    1.13
  -5   5   3   24.50    1.21
  -5   5   3   26.74    1.08
  -5   5   3   26.30    1.17
  -5   5   3   22.65    1.21
  -5   5   3   26.43    0.99
   4  -5  -3   11.57    0.79
  -4   5   3   10.54    0.84
  -4   5   3   10.90    0.83
  -4   5   3   11.02    0.81
  -4   5   3   10.83    0.66
  -4   5   3   10.10    0.73
   3  -5  -3   95.82    3.63
  -3   5   3   98.48    3.59
  -3   5   3   98.65    4.15
  -3   5   3  108.88    4.53
  -3   5   3  102.88    3.46
  -3   5   3  104.01    3.96
  -3   5   3  101.11    3.63
  -3   5   3   96.12    4.06
  -3   5   3  108.60    3.73
  -3   5   3   97.05    3.59
  -2   5   3   14.92    1.37
  -2   5   3   16.06    0.94
  -2   5   3   17.29    0.94
  -2   5   3   16.78    1.08
  -2   5   3   16.55    0.99
  -2   5   3   18.06    0.92
  -2   5   3   15.10    1.19
  -2   5   3   17.14    1.14
  -2   5   3   17.63    1.33
  -2   5   3   16.63    1.17
  -2   5   3   18.16    1.09
  -1   5   3   99.51    4.41
  -1   5   3   94.96    3.86
  -1   5   3   95.64    3.49
  -1   5   3   97.98    3.30
  -1   5   3   96.96    4.72
   0   5   3  160.07    6.78
   0   5   3  147.30    6.37
   0   5   3  154.09    5.10
   0   5   3  147.09    5.60
   0   5   3  144.16    5.46
  -1  -5  -3   27.62    1.68
   1   5   3   33.07    1.62
   1   5   3   32.03    1.25
   1   5   3   31.29    1.50
   1   5   3   30.39    1.77
  -2  -5  -3  128.33    6.36
   2   5   3  141.03    4.53
   2   5   3  142.13    5.75
   2   5   3  143.62    6.04
  -3  -5  -3   24.26    1.63
   3   5   3   27.47    1.37
   3   5   3   24.79    1.30
   3   5   3   26.46    1.02
   4   5   3  158.20    5.88
   4   5   3  156.47    5.66
   4   5   3  154.19    5.16
   4   5   3  161.12    6.94
   5   5   3  131.95    5.04
   5   5   3  125.73    4.80
   5   5   3  125.78    5.91
   5   5   3  129.19    4.13
   5   5   3  132.74    4.40
   6   5   3    1.29    0.47
   6   5   3    1.35    0.32
   6   5   3    1.36    0.44
   6   5   3    2.46    0.53
   6   5   3    1.73    0.51
   6   5   3    1.81    0.33
   6   5   3    1.40    0.57
   6   5   3    2.79    0.58
   6   5   3    2.47    0.59
   6   5   3    2.01    0.39
   6   5   3    1.98    0.34
   6   5   3    1.34    0.27
   6   5   3    2.71    0.64
   6   5   3    2.90    0.49
  -7  -5  -3   94.18    4.05
   7   5   3  100.34    4.07
   7   5   3  114.73    4.12
   7   5   3  106.06    3.78
   7   5   3  103.34    3.72
   7   5   3  100.37    3.68
   7   5   3  104.74    3.57
   7   5   3  103.69    3.69
   7   5   3  107.51    4.25
   7   5   3   98.05    3.46
   7   5   3   97.92    3.92
   7   5   3  106.13    4.25
   7   5   3  103.54    3.68
   7   5   3  108.96    4.00
  -8  -5  -3    3.80    0.55
   8   5   3    3.72    0.36
   8   5   3    4.35    0.50
   8   5   3    6.28    0.65
   8   5   3    3.82    0.45
   8   5   3    4.65    0.40
   8   5   3    3.44    0.44
   8   5   3    4.30    0.52
   8   5   3    3.91    0.48
  -9  -5  -3   20.45    1.05
  -9  -5  -3   21.98    0.89
  -9  -5  -3   21.24    0.99
   9   5   3   21.29    0.95
   9   5   3   20.78    0.99
   9   5   3   20.54    0.73
  -4   6   3    7.97    0.63
  -4   6   3    9.02    0.59
  -4   6   3    8.33    0.55
  -4   6   3    8.18    0.61
  -4   6   3    7.47    0.59
   3  -6  -3    0.65    0.44
  -3   6   3    0.35    0.28
  -3   6   3    0.92    0.25
  -3   6   3    0.48    0.31
  -3   6   3    0.10    0.30
  -3   6   3    0.74    0.35
  -3   6   3    0.55    0.18
  -3   6   3    0.46    0.28
  -3   6   3    0.04    0.22
  -3   6   3    0.52    0.45
  -3   6   3    0.13    0.29
  -2   6   3   18.44    1.25
  -2   6   3   18.96    0.88
  -2   6   3   20.23    1.11
  -2   6   3   19.55    1.47
  -2   6   3   18.63    1.13
  -2   6   3   19.22    1.00
  -2   6   3   18.31    0.98
  -2   6   3   16.01    1.22
  -2   6   3   18.15    1.07
  -2   6   3   17.56    1.21
  -1   6   3   12.26    1.07
  -1   6   3   10.75    0.79
  -1   6   3   10.47    0.58
  -1   6   3    9.11    1.02
  -1   6   3   11.47    0.74
  -1   6   3   11.04    0.74
  -1   6   3   10.23    0.88
  -1   6   3   10.43    0.81
  -1   6   3   10.82    0.81
  -1   6   3   12.89    1.18
  -1   6   3    9.87    0.87
   0   6   3   12.43    0.77
   0   6   3   13.40    1.04
   0   6   3   13.05    0.93
   0   6   3   12.82    0.91
   0   6   3   13.46    0.83
   0   6   3   12.88    1.27
   1   6   3   28.00    1.19
   1   6   3   27.70    1.16
   1   6   3   25.97    1.49
   1   6   3   27.12    1.40
   1   6   3   27.74    1.83
   2   6   3   15.04    0.93
   2   6   3   15.48    1.20
   2   6   3   13.92    0.89
   2   6   3   15.09    0.70
   2   6   3   15.39    0.70
  -3  -6  -3    8.16    0.98
   3   6   3    9.22    0.74
   3   6   3    9.21    0.52
   3   6   3    8.80    0.49
   3   6   3    9.29    0.48
   3   6   3    8.84    0.65
   4   6   3    1.37    0.27
   4   6   3    0.71    0.31
   4   6   3    1.02    0.29
   4   6   3    0.90    0.20
   4   6   3    1.62    0.24
   5   6   3   94.39    3.48
   5   6   3   95.24    3.80
   5   6   3   94.40    3.30
   5   6   3   91.42    4.35
   5   6   3   93.13    3.22
   5   6   3   89.12    3.78
   5   6   3   91.98    3.18
   5   6   3   90.68    3.02
   5   6   3   91.82    3.63
   5   6   3   95.75    3.60
   5   6   3   85.75    3.74
   5   6   3   88.23    2.98
   5   6   3   90.56    3.24
   6   6   3   34.14    1.74
   6   6   3   35.64    1.79
   6   6   3   32.53    1.20
   6   6   3   33.75    1.46
   6   6   3   34.64    1.46
   6   6   3   34.33    1.51
   6   6   3   31.09    2.11
   6   6   3   33.07    1.62
   6   6   3   34.61    1.84
   6   6   3   33.54    1.36
   6   6   3   30.60    1.45
   6   6   3   35.66    1.90
   6   6   3   31.32    1.73
   7   6   3   13.47    1.07
   7   6   3   12.89    0.96
   7   6   3   13.45    1.07
   7   6   3   12.08    1.16
   7   6   3   13.46    0.84
   7   6   3   12.37    0.75
   7   6   3   10.75    0.95
   7   6   3   12.93    0.96
   7   6   3   13.88    0.83
   7   6   3   13.56    0.77
   7   6   3   13.39    0.75
   7   6   3   12.34    0.51
   8   6   3   43.37    1.70
   8   6   3   43.67    1.66
   8   6   3   41.67    1.86
   8   6   3   42.61    1.56
   8   6   3   41.09    1.70
   8   6   3   39.52    1.66
   8   6   3   43.22    1.88
   8   6   3   43.19    1.61
   8   6   3   41.46    1.78
   8   6   3   40.76    1.67
  -9  -6  -3    0.45    0.20
  -9  -6  -3    0.42    0.23
   9   6   3    0.97    0.21
   9   6   3    0.73    0.22
   9   6   3    0.69    0.20
   9   6   3    0.72    0.20
  -3   7   3   69.07    2.48
  -3   7   3   74.95    2.45
  -3   7   3   69.81    2.67
  -3   7   3   72.37    2.79
  -3   7   3   73.98    2.47
  -3   7   3   67.02    2.36
   2  -7  -3   40.15    2.24
  -2   7   3   43.44    1.68
  -2   7   3   44.55    1.63
  -2   7   3   41.91    2.27
  -2   7   3   39.93    1.65
  -2   7   3   39.24    1.95
  -2   7   3   38.93    1.72
  -2   7   3   42.51    1.91
  -2   7   3   40.67    1.71
  -2   7   3   41.59    1.98
  -1   7   3   11.65    1.02
  -1   7   3   12.00    0.98
  -1   7   3   11.45    0.97
  -1   7   3   13.07    0.80
  -1   7   3   12.45    1.27
  -1   7   3   12.34    0.88
  -1   7   3   13.51    0.79
  -1   7   3   11.48    0.80
  -1   7   3   11.78    0.79
   0   7   3  130.43    4.39
   0   7   3  121.36    4.24
   0   7   3  126.70    4.43
   0   7   3  118.57    4.13
   0   7   3  125.94    5.00
   0   7   3  124.03    4.40
   0   7   3  124.89    4.67
   0   7   3  123.69    4.90
   0   7   3  118.90    4.24
   0   7   3  133.38    5.75
   1   7   3   49.72    1.93
   1   7   3   46.32    2.08
   1   7   3   45.80    1.82
   1   7   3   46.52    1.79
   1   7   3   48.35    1.96
   1   7   3   45.90    1.76
   1   7   3   45.79    1.88
   1   7   3   45.00    2.15
   1   7   3   46.43    2.25
   1   7   3   44.28    2.34
   1   7   3   51.64    2.82
   2   7   3   28.99    1.45
   2   7   3   27.52    1.15
   2   7   3   29.90    1.57
   2   7   3   27.88    1.90
   2   7   3   29.72    1.15
   2   7   3   27.88    1.50
   2   7   3   30.71    1.58
   2   7   3   29.09    1.14
   2   7   3   26.19    1.49
   2   7   3   26.78    1.29
   3   7   3   78.63    3.72
   3   7   3   82.03    2.92
   3   7   3   83.48    3.38
   3   7   3   79.85    3.28
   3   7   3   83.92    3.39
   3   7   3   81.62    2.80
   3   7   3   83.24    3.19
   3   7   3   82.49    2.75
   3   7   3   80.73    2.67
   4   7   3   12.12    1.01
   4   7   3   12.03    0.90
   4   7   3   10.17    0.81
   4   7   3   11.64    0.62
   4   7   3   12.00    0.86
   4   7   3   11.85    0.60
   4   7   3   12.43    0.98
   4   7   3   11.43    0.93
   4   7   3   11.55    0.63
   5   7   3   70.79    2.42
   5   7   3   69.57    3.09
   5   7   3   73.54    2.58
   5   7   3   71.96    3.02
   5   7   3   75.36    3.15
   5   7   3   73.50    2.72
   5   7   3   71.06    2.54
   5   7   3   68.71    2.60
   5   7   3   74.26    2.97
   5   7   3   69.17    3.10
   6   7   3   38.00    1.74
   6   7   3   38.13    1.58
   6   7   3   38.78    1.90
   6   7   3   39.80    2.02
   6   7   3   38.30    1.60
   6   7   3   36.75    1.90
   6   7   3   37.86    2.00
   6   7   3   39.31    1.93
   6   7   3   40.59    1.61
   6   7   3   39.04    1.49
   7   7   3   18.22    1.24
   7   7   3   18.55    1.22
   7   7   3   18.77    0.94
   7   7   3   18.84    0.92
   7   7   3   18.01    1.09
   7   7   3   17.44    1.24
   7   7   3   17.96    1.12
   7   7   3   18.53    0.88
   7   7   3   17.87    1.11
   7   7   3   18.47    0.92
   8   7   3   60.17    2.24
   8   7   3   58.81    2.06
   8   7   3   54.25    2.40
   8   7   3   58.45    2.34
   8   7   3   54.17    2.06
   8   7   3   55.36    2.27
   8   7   3   55.81    1.94
   8   7   3   57.13    2.02
   8   7   3   58.51    2.09
  -9  -7  -3    2.10    0.27
   9   7   3    1.85    0.22
   9   7   3    1.77    0.26
   9   7   3    1.52    0.19
  -2   8   3   10.96    0.56
  -2   8   3   11.22    0.56
  -2   8   3   10.59    0.67
  -2   8   3   10.96    0.69
  -2   8   3   11.32    0.61
  -2   8   3   11.38    0.56
   1  -8  -3    4.26    0.68
  -1   8   3    4.27    0.56
  -1   8   3    4.36    0.42
  -1   8   3    4.52    0.45
  -1   8   3    5.69    0.66
  -1   8   3    6.03    0.58
  -1   8   3    4.04    0.59
  -1   8   3    4.20    0.42
  -1   8   3    5.00    0.44
   0  -8  -3    0.26    0.53
   0   8   3    0.71    0.36
   0   8   3    0.67    0.24
   0   8   3   -0.06    0.53
   0   8   3    1.15    0.29
   0   8   3    0.36    0.28
   0   8   3    0.29    0.36
   0   8   3    0.72    0.25
   0   8   3    0.23    0.37
   0   8   3    0.28    0.22
  -1  -8  -3    9.76    1.24
   1   8   3   13.22    0.71
   1   8   3   13.60    1.42
   1   8   3   13.79    1.06
   1   8   3   12.52    0.80
   1   8   3   13.26    0.96
   1   8   3   12.05    0.86
   1   8   3   12.81    0.67
   1   8   3   13.52    0.74
   1   8   3   12.42    0.99
   2   8   3   10.45    0.88
   2   8   3    8.60    0.52
   2   8   3    9.67    0.58
   2   8   3    8.52    0.80
   2   8   3   10.56    0.70
   2   8   3   10.20    0.57
   2   8   3   10.32    0.79
   2   8   3    9.29    0.88
   3   8   3    4.52    0.35
   3   8   3    5.27    0.74
   3   8   3    5.04    0.70
   3   8   3    4.39    0.37
   3   8   3    4.86    0.67
   3   8   3    7.18    0.73
   3   8   3    4.66    0.38
   3   8   3    6.18    0.63
   4   8   3    7.06    0.79
   4   8   3    7.76    0.48
   4   8   3    8.04    0.49
   4   8   3    7.82    0.82
   4   8   3    7.88    0.53
   4   8   3    6.82    0.81
   4   8   3    8.27    0.76
   4   8   3    6.53    0.73
   4   8   3    7.79    0.47
   5   8   3    3.90    0.64
   5   8   3    3.57    0.63
   5   8   3    4.21    0.68
   5   8   3    3.02    0.35
   5   8   3    3.04    0.33
   5   8   3    3.66    0.38
   5   8   3    3.99    0.52
   5   8   3    4.11    0.61
   5   8   3    3.21    0.36
   6   8   3   30.50    1.43
   6   8   3   31.50    1.20
   6   8   3   29.94    1.65
   6   8   3   31.33    1.67
   6   8   3   29.11    1.56
   6   8   3   29.81    1.57
   6   8   3   29.40    1.23
   6   8   3   29.96    1.28
   6   8   3   34.49    1.62
   6   8   3   29.24    1.26
   7   8   3    6.12    0.60
   7   8   3    5.66    0.64
   7   8   3    4.73    0.56
   7   8   3    4.93    0.41
   7   8   3    5.14    0.40
   7   8   3    5.19    0.57
   7   8   3    4.79    0.64
   7   8   3    5.15    0.43
   7   8   3    5.28    0.41
   8   8   3   11.55    0.50
   8   8   3   10.71    0.51
   8   8   3   10.15    0.67
   8   8   3   10.49    0.65
   8   8   3   10.82    0.62
   8   8   3   11.37    0.69
   8   8   3   10.89    0.52
  -1   9   3   16.36    0.69
  -1   9   3   16.76    0.82
  -1   9   3   17.11    0.83
   0   9   3   27.97    1.07
   0   9   3   27.94    1.15
   0   9   3   29.52    1.01
   0   9   3   28.27    1.20
   0   9   3   30.84    1.36
   0   9   3   27.29    1.38
   1   9   3   82.28    2.92
   1   9   3   84.84    3.47
   1   9   3   93.09    3.53
   1   9   3   87.62    2.84
   1   9   3   87.12    3.29
   1   9   3   83.83    3.05
   1   9   3   90.83    2.79
   1   9   3   87.94    3.00
   2   9   3    0.71    0.35
   2   9   3    0.28    0.12
   2   9   3    0.38    0.28
   2   9   3    0.16    0.14
   2   9   3    0.46    0.35
   2   9   3    0.56    0.21
   2   9   3    0.91    0.20
   2   9   3    0.26    0.33
   3   9   3  116.82    4.35
   3   9   3  122.73    4.01
   3   9   3  119.12    3.72
   3   9   3  119.43    4.59
   3   9   3  118.53    4.04
   3   9   3  120.25    4.65
   3   9   3  115.37    3.87
   4   9   3   47.13    1.68
   4   9   3   47.81    2.20
   4   9   3   47.81    2.06
   4   9   3   48.74    1.91
   4   9   3   47.80    1.78
   4   9   3   47.06    2.17
   4   9   3   48.79    1.63
   4   9   3   47.66    2.14
   5   9   3   25.76    0.99
   5   9   3   25.18    1.44
   5   9   3   26.20    1.09
   5   9   3   27.34    1.39
   5   9   3   25.32    1.02
   5   9   3   27.04    1.36
   5   9   3   27.66    1.42
   5   9   3   26.38    1.25
   6   9   3   74.91    2.63
   6   9   3   78.00    2.88
   6   9   3   72.93    3.04
   6   9   3   73.72    2.58
   6   9   3   74.31    2.38
   6   9   3   74.14    2.48
   6   9   3   70.52    2.93
   6   9   3   72.01    2.85
   7   9   3    3.84    0.30
   7   9   3    3.88    0.40
   7   9   3    3.35    0.40
   7   9   3    3.91    0.28
   7   9   3    3.49    0.38
   7   9   3    3.48    0.44
   2  10   3    3.53    0.40
   2  10   3    2.80    0.33
   2  10   3    3.32    0.28
   2  10   3    3.40    0.44
   3  10   3    0.74    0.29
   3  10   3    0.58    0.29
   3  10   3    0.54    0.16
   3  10   3    0.55    0.25
   4  10   3    4.32    0.31
   4  10   3    4.40    0.43
   4  10   3    4.61    0.48
   4  10   3    5.12    0.52
   5  10   3    1.74    0.30
   5  10   3    1.91    0.36
   5  10   3    2.02    0.34
   5  10   3    2.14    0.35
   5  10   3    1.68    0.20
   6  10   3    5.70    0.31
   6  10   3    6.10    0.46
   7   8  -4    7.15    0.46
   7   8  -4    6.88    0.31
   6   8  -4    0.32    0.10
   6   8  -4    0.40    0.21
   6   8  -4    0.36    0.11
   5   8  -4    3.73    0.44
   0   8  -4    0.92    0.40
  -1   8  -4   17.83    0.98
  -1   8  -4   17.87    0.74
  -1   8  -4   18.27    0.68
  -2   8  -4    6.24    0.33
   7   7  -4   30.24    1.28
   7   7  -4   28.50    1.18
   7   7  -4   29.32    1.01
   7   7  -4   30.55    1.09
   7   7  -4   29.73    1.22
   7   7  -4   28.87    0.95
   6   7  -4   34.21    1.27
   6   7  -4   35.21    1.46
   6   7  -4   34.47    1.47
   6   7  -4   34.85    1.14
   6   7  -4   35.12    1.19
   6   7  -4   35.71    1.57
   6   7  -4   33.49    1.23
   5   7  -4    9.76    0.47
   5   7  -4   10.30    0.72
   5   7  -4    9.89    0.75
   5   7  -4    9.96    0.46
   5   7  -4   10.99    0.79
   4   7  -4   75.05    3.01
   4   7  -4   73.19    2.31
   1   7  -4  111.08    3.42
   0   7  -4    1.54    0.23
   0   7  -4    1.65    0.49
   0   7  -4    1.37    0.22
   0   7  -4    1.91    0.61
   0   7  -4    1.52    0.41
  -1   7  -4   53.87    2.16
  -1   7  -4   54.33    1.98
  -1   7  -4   55.51    2.01
  -1   7  -4   56.33    1.91
  -1   7  -4   56.59    2.78
  -1   7  -4   58.56    2.39
  -1   7  -4   56.63    1.90
  -2   7  -4   32.12    1.23
  -2   7  -4   29.92    1.33
  -2   7  -4   32.24    1.47
  -2   7  -4   28.74    1.71
  -2   7  -4   30.24    1.20
  -2   7  -4   32.08    1.14
  -3   7  -4   28.72    1.21
  -3   7  -4   26.79    0.99
  -3   7  -4   26.91    1.04
  -3   7  -4   25.49    1.10
  -3   7  -4   27.06    0.96
   8   6  -4    0.43    0.15
   8   6  -4    0.53    0.11
   8   6  -4    0.06    0.14
   8   6  -4    0.25    0.10
   8   6  -4    0.50    0.16
   7   6  -4    2.83    0.28
   7   6  -4    2.81    0.27
   7   6  -4    3.48    0.41
   7   6  -4    2.56    0.35
   7   6  -4    3.26    0.28
   7   6  -4    3.47    0.29
   7   6  -4    2.95    0.37
   6   6  -4    6.28    0.60
   6   6  -4    5.31    0.41
   6   6  -4    5.99    0.62
   6   6  -4    6.14    0.60
   6   6  -4    6.08    0.40
   6   6  -4    5.59    0.39
   6   6  -4    6.35    0.41
   5   6  -4    6.53    0.66
   5   6  -4    6.19    0.40
   5   6  -4    7.54    0.72
   5   6  -4    6.48    0.42
   5   6  -4    5.58    0.61
   5   6  -4    6.20    0.40
   4   6  -4    1.88    0.22
   4   6  -4    1.33    0.40
   4   6  -4    2.01    0.23
   4   6  -4    1.69    0.21
   4   6  -4    1.47    0.38
   3   6  -4    2.04    0.38
   3   6  -4    2.32    0.20
   3   6  -4    2.14    0.52
   2   6  -4   12.20    0.47
   1   6  -4    2.28    0.63
   1   6  -4    2.16    0.45
   1   6  -4    2.63    0.24
   1   6  -4    2.39    0.66
   0   6  -4    7.16    0.83
   0   6  -4    8.41    0.72
   0   6  -4    7.74    0.47
   0   6  -4    7.73    0.59
   0   6  -4    8.04    0.43
   0   6  -4    8.19    1.04
   0   6  -4    8.01    0.49
  -1   6  -4    1.70    0.29
  -1   6  -4    2.96    0.57
  -1   6  -4    1.80    0.55
  -1   6  -4    1.29    0.38
  -1   6  -4    1.52    0.26
  -1   6  -4    1.67    0.28
  -1   6  -4    1.26    0.24
  -2   6  -4    1.59    0.42
  -2   6  -4    1.30    0.43
  -2   6  -4    1.04    0.46
  -2   6  -4    1.06    0.24
  -2   6  -4    1.36    0.27
  -2   6  -4    1.37    0.45
  -2   6  -4    1.24    0.26
  -2   6  -4    1.05    0.24
  -3   6  -4   12.82    0.83
  -3   6  -4   10.87    0.99
  -3   6  -4   11.31    0.67
  -3   6  -4   12.22    0.90
  -3   6  -4   12.70    0.67
  -3   6  -4   11.94    0.87
  -3   6  -4   12.27    0.65
  -4   6  -4    1.88    0.32
  -4   6  -4    1.91    0.25
  -4   6  -4    1.73    0.25
  -4   6  -4    2.12    0.34
  -4   6  -4    2.29    0.39
  -4   6  -4    2.13    0.25
   8   5  -4   30.99    1.15
   8   5  -4   32.65    1.35
   8   5  -4   35.09    1.32
   8   5  -4   34.49    1.21
   8   5  -4   31.37    1.19
   8   5  -4   34.67    1.33
   7   5  -4    3.08    0.32
   7   5  -4    2.85    0.29
   7   5  -4    3.15    0.41
   7   5  -4    2.45    0.37
   7   5  -4    3.29    0.42
   7   5  -4    2.76    0.31
   7   5  -4    2.51    0.31
   6   5  -4   61.11    2.46
   6   5  -4   59.64    2.57
   6   5  -4   61.24    2.19
   6   5  -4   62.07    2.10
   6   5  -4   64.24    2.24
   6   5  -4   64.36    2.23
   6   5  -4   59.41    2.42
   6   5  -4   61.12    2.22
   5   5  -4   12.78    0.88
   5   5  -4   12.43    0.63
   5   5  -4   13.37    0.68
   5   5  -4   12.43    0.93
   5   5  -4   13.10    0.93
   5   5  -4   12.73    0.67
   5   5  -4   13.27    0.68
   4   5  -4  138.06    4.84
   4   5  -4  135.15    4.44
   4   5  -4  139.10    5.24
   4   5  -4  138.05    4.27
   4   5  -4  148.41    5.14
   4   5  -4  140.02    4.53
  -4  -5   4  124.94    8.01
   3   5  -4   84.91    2.66
   3   5  -4   81.13    2.96
   3   5  -4   83.41    2.51
  -3  -5   4   66.14    4.92
   2   5  -4    4.61    0.26
   1   5  -4  135.32    4.43
   1   5  -4  140.10    5.15
   1   5  -4  143.54    6.01
   0   5  -4   14.80    0.64
   0   5  -4   14.08    0.57
   0   5  -4   14.11    1.21
   0   5  -4   16.49    1.12
  -1   5  -4   78.24    2.65
  -1   5  -4   77.96    2.46
  -1   5  -4   75.22    2.63
  -1   5  -4   76.93    2.81
  -1   5  -4   73.61    3.10
  -1   5  -4   73.73    3.60
  -1   5  -4   74.36    3.63
  -2   5  -4  122.82    4.29
  -2   5  -4  127.89    4.84
  -2   5  -4  120.85    3.97
  -2   5  -4  122.56    4.23
  -2   5  -4  122.46    4.65
  -2   5  -4  131.70    5.47
  -2   5  -4  125.08    4.18
  -2   5  -4  123.27    5.71
  -2   5  -4  123.28    4.20
  -3   5  -4    0.56    0.22
  -3   5  -4    0.39    0.36
  -3   5  -4    0.67    0.38
  -3   5  -4    0.07    0.23
  -3   5  -4   -0.01    0.20
  -3   5  -4   -0.20    0.17
  -3   5  -4    0.32    0.38
  -3   5  -4    0.20    0.35
  -4   5  -4   81.11    3.08
  -4   5  -4   82.14    2.87
  -4   5  -4   81.58    2.94
  -4   5  -4   76.80    3.56
  -4   5  -4   79.73    2.90
  -4   5  -4   84.52    3.28
  -4   5  -4   80.21    2.84
  -5   5  -4   34.24    1.31
  -5   5  -4   33.59    1.37
  -5   5  -4   33.18    1.28
  -5   5  -4   34.67    1.51
   8   4  -4   30.09    1.22
   8   4  -4   31.76    1.18
   8   4  -4   31.21    1.25
  -8  -4   4   27.65    1.31
   7   4  -4   10.49    0.76
   7   4  -4   11.93    0.67
   7   4  -4   11.05    0.67
   7   4  -4   11.60    0.75
   7   4  -4   10.30    0.58
   7   4  -4   11.37    0.46
   7   4  -4   11.01    0.73
   7   4  -4   11.40    0.65
   7   4  -4   10.52    0.60
  -7  -4   4   12.84    0.83
   6   4  -4   50.39    1.87
   6   4  -4   48.54    2.00
   6   4  -4   51.57    1.99
   6   4  -4   50.27    1.83
   6   4  -4   49.81    2.07
   6   4  -4   46.12    1.73
   6   4  -4   47.35    1.84
   6   4  -4   46.30    1.69
   6   4  -4   46.90    2.12
  -6  -4   4   47.58    2.16
   5   4  -4   12.95    0.69
   5   4  -4   13.46    0.86
   5   4  -4   13.37    0.96
   5   4  -4   12.60    0.72
   5   4  -4   12.66    0.70
   5   4  -4   12.85    0.94
   5   4  -4   12.79    0.73
   5   4  -4   12.91    0.65
   5   4  -4   12.23    0.58
   4   4  -4   24.67    0.97
   4   4  -4   25.33    1.07
   4   4  -4   24.85    1.25
   4   4  -4   24.95    1.05
  -4  -4   4   24.52    2.16
   3   4  -4   15.11    0.67
   3   4  -4   14.59    0.63
  -3  -4   4   14.71    1.55
   2   4  -4    2.60    0.22
  -2  -4   4    2.29    0.68
   1   4  -4   25.99    1.56
   1   4  -4   23.90    0.86
   0   4  -4    6.78    0.34
   0   4  -4    6.85    0.87
  -1   4  -4    2.23    0.25
  -1   4  -4    1.85    0.49
  -1   4  -4    2.05    0.51
  -2   4  -4    4.09    0.39
  -2   4  -4    3.16    0.60
  -2   4  -4    4.64    0.59
  -2   4  -4    4.50    0.37
  -2   4  -4    4.01    0.63
  -3   4  -4   27.51    1.16
  -3   4  -4   26.95    1.72
  -3   4  -4   26.93    1.33
  -3   4  -4   26.40    1.67
  -3   4  -4   25.91    1.56
  -3   4  -4   27.87    1.24
  -3   4  -4   27.50    1.17
  -3   4  -4   26.79    1.42
  -3   4  -4   26.22    1.13
  -3   4  -4   27.58    1.24
  -4   4  -4    6.81    0.62
  -4   4  -4    7.49    0.57
  -4   4  -4    5.76    0.65
  -4   4  -4    6.46    0.50
  -4   4  -4    6.64    0.51
  -4   4  -4    5.66    0.76
  -4   4  -4    6.68    0.79
  -4   4  -4    7.96    0.74
  -4   4  -4    5.94    0.61
  -5   4  -4    0.45    0.27
  -5   4  -4    0.26    0.31
  -5   4  -4    0.36    0.22
  -5   4  -4    0.81    0.19
  -5   4  -4    0.46    0.31
  -6   4  -4    9.75    0.64
   8   3  -4   62.01    2.28
   8   3  -4   64.40    2.34
   8   3  -4   67.42    2.14
  -8  -3   4   62.60    2.51
   7   3  -4   86.04    2.89
   7   3  -4   81.21    3.20
   7   3  -4   83.68    2.93
   7   3  -4   78.89    2.89
   7   3  -4   87.59    3.05
   7   3  -4   80.83    3.10
  -7  -3   4   87.51    3.33
   6   3  -4   63.07    2.50
   6   3  -4   63.26    2.39
   6   3  -4   63.81    2.34
   6   3  -4   66.83    2.61
   6   3  -4   64.98    2.59
   6   3  -4   66.00    2.36
   6   3  -4   67.73    2.42
   6   3  -4   61.83    2.24
   6   3  -4   64.31    2.45
  -6  -3   4   65.42    2.73
   5   3  -4   89.46    3.27
   5   3  -4   89.09    3.12
   5   3  -4   89.88    3.39
   5   3  -4   90.89    2.94
  -5  -3   4   85.76    3.57
  -5  -3   4   85.73    5.43
   4   3  -4    0.99    0.24
   4   3  -4    1.18    0.24
  -4  -3   4    0.99    0.52
   3   3  -4  192.03    6.13
   3   3  -4  183.33    6.63
  -3  -3   4  192.31   10.55
   2   3  -4   83.64    3.02
  -2  -3   4   84.11    5.10
  -2  -3   4   87.19    5.15
  -1  -3   4  101.67    5.73
  -1  -3   4   93.52    5.61
   0   3  -4  283.52   15.53
  -1   3  -4    6.53    0.80
  -1   3  -4    7.09    0.39
  -1   3  -4    6.50    0.71
  -2   3  -4   45.17    2.29
  -2   3  -4   45.39    1.66
  -3   3  -4  145.18    4.79
  -3   3  -4  142.87    5.13
  -3   3  -4  140.18    5.94
  -3   3  -4  142.52    4.48
  -3   3  -4  140.24    6.49
  -4   3  -4   22.56    1.27
  -4   3  -4   23.04    1.05
  -4   3  -4   22.36    1.14
  -4   3  -4   22.68    1.46
  -4   3  -4   22.47    1.62
  -4   3  -4   24.47    1.18
  -4   3  -4   24.77    1.07
  -4   3  -4   23.01    1.40
  -4   3  -4   23.35    1.18
  -4   3  -4   24.05    1.23
  -5   3  -4   58.20    2.19
  -5   3  -4   55.20    2.13
  -5   3  -4   56.75    2.50
  -5   3  -4   57.58    2.25
  -6   3  -4    2.28    0.39
  -6   3  -4    2.76    0.33
  -6   3  -4    1.84    0.38
  -7   3  -4   41.46    1.40
  -7   3  -4   39.91    1.65
   7  -3   4   40.71    1.50
   8   2  -4   18.07    0.81
   8   2  -4   19.46    0.79
  -8  -2   4   18.39    0.94
  -8  -2   4   17.01    0.84
  -8  -2   4   18.76    0.79
   7   2  -4    4.90    0.49
   7   2  -4    5.24    0.51
   7   2  -4    4.37    0.49
   7   2  -4    5.76    0.47
  -7  -2   4    5.26    0.59
  -7  -2   4    4.72    0.48
   6   2  -4   31.38    1.44
   6   2  -4   32.42    1.53
   6   2  -4   31.82    1.44
   6   2  -4   30.26    1.28
   6   2  -4   31.08    1.48
   6   2  -4   30.82    1.37
  -6  -2   4   33.12    1.58
  -6  -2   4   29.00    1.31
   5   2  -4   15.82    0.88
   5   2  -4   15.42    0.82
   5   2  -4   15.54    0.93
   5   2  -4   15.17    0.94
  -5  -2   4   17.59    1.03
  -5  -2   4   18.69    1.67
   4   2  -4    2.03    0.33
   4   2  -4    1.90    0.18
   4   2  -4    2.21    0.32
  -4  -2   4    1.43    0.55
  -4  -2   4    1.98    0.48
   3   2  -4  117.02    4.38
  -3  -2   4  131.74    7.02
  -3  -2   4  114.52    7.16
   2   2  -4   32.50    1.98
  -2  -2   4   33.86    2.38
  -2  -2   4   32.70    2.30
   1   2  -4  145.33    6.70
  -1  -2   4  136.70    7.88
  -1  -2   4  146.54    8.04
   0   2  -4   60.74    3.33
   0   2  -4   76.16    4.02
   0  -2   4   65.27    3.81
  -1   2  -4    5.30    0.61
  -2   2  -4   91.16    3.64
  -2   2  -4   90.21    5.24
  -2   2  -4   83.50    3.80
  -3   2  -4    2.00    0.46
  -3   2  -4    1.71    0.28
  -3   2  -4    2.03    0.24
  -4   2  -4   17.75    1.32
  -4   2  -4   16.72    0.92
  -4   2  -4   18.17    1.19
  -4   2  -4   16.87    1.06
  -4   2  -4   17.22    0.93
  -4   2  -4   16.86    0.86
  -5   2  -4    3.04    0.49
  -5   2  -4    3.50    0.39
  -5   2  -4    4.22    0.58
  -5   2  -4    3.66    0.57
   5  -2   4    4.50    0.58
  -6   2  -4    9.10    0.80
  -6   2  -4    9.65    0.73
  -6   2  -4    9.38    0.73
  -6   2  -4    8.36    0.69
  -7   2  -4    1.50    0.28
  -7   2  -4    0.78    0.25
  -7   2  -4    1.11    0.31
   7  -2   4    0.98    0.30
  -8   2  -4    1.00    0.19
  -8   2  -4    0.79    0.13
   8   1  -4    6.77    0.43
   8   1  -4    5.72    0.41
  -8  -1   4    5.94    0.41
  -8  -1   4    6.67    0.51
   7   1  -4   19.12    1.00
   7   1  -4   21.34    1.03
   7   1  -4   19.54    0.99
  -7  -1   4   18.91    1.01
  -7  -1   4   19.82    0.94
  -7  -1   4   22.58    1.15
   6   1  -4    0.95    0.31
   6   1  -4    0.94    0.34
   6   1  -4    1.05    0.31
  -6  -1   4    1.08    0.31
  -6  -1   4    0.50    0.30
   5   1  -4   56.04    2.24
   5   1  -4   58.80    2.61
   5   1  -4   55.29    2.44
  -5  -1   4   57.51    2.46
  -5  -1   4   57.23    3.68
   4   1  -4  106.44    4.23
   4   1  -4  113.14    4.81
  -4  -1   4  116.81    6.52
  -4  -1   4  111.57    4.30
   3   1  -4   12.24    0.76
   3   1  -4   12.20    0.73
   3   1  -4   11.72    0.98
  -3  -1   4   10.23    1.22
  -3  -1   4   12.26    1.22
   2   1  -4  337.71   13.75
   2   1  -4  339.66   14.88
  -2  -1   4  331.65   18.48
  -2  -1   4  341.54   17.94
   1   1  -4  118.87    4.94
   1   1  -4  120.03    5.52
  -1  -1   4  111.62    6.59
  -1  -1   4  124.21    6.73
   0   1  -4  251.46   10.01
   0   1  -4  253.59   10.92
   0  -1   4  254.14   13.45
   0  -1   4  231.12   12.96
  -1   1  -4  332.27   13.69
  -1   1  -4  324.83   12.65
  -1   1  -4  318.49   16.95
   1  -1   4  280.31   16.18
  -2   1  -4    4.53    0.57
  -2   1  -4    5.04    0.36
  -3   1  -4  430.75   24.21
  -3   1  -4  461.68   18.09
  -4   1  -4   23.30    1.26
  -5   1  -4   25.18    1.41
   5  -1   4   25.19    1.31
  -6   1  -4   99.40    3.65
  -6   1  -4   98.76    3.88
  -6   1  -4   97.60    3.47
   6  -1   4   96.14    3.60
  -7   1  -4    3.50    0.44
  -7   1  -4    3.83    0.50
   7  -1   4    4.79    0.55
   7  -1   4    4.23    0.50
  -8   1  -4   80.13    2.95
  -8   1  -4   73.33    2.76
  -8   1  -4   81.23    2.72
   8   0  -4   10.15    0.52
   8   0  -4   10.00    0.53
  -8   0   4   10.05    0.49
   7   0  -4   43.89    1.72
  -7   0   4   42.41    1.77
  -7   0   4   45.80    1.93
  -7   0   4   43.34    1.63
   6   0  -4    1.56    0.36
   6   0  -4    0.82    0.32
  -6   0   4    1.47    0.36
  -6   0   4    1.31    0.32
  -6   0   4    1.19    0.37
  -6   0   4    0.95    0.32
   5   0  -4   36.76    1.92
   5   0  -4   35.29    1.61
  -5   0   4   39.68    1.80
   4   0  -4   36.48    1.90
  -4   0   4   36.36    2.52
  -4   0   4   35.75    1.71
   3   0  -4   15.67    1.17
   3   0  -4   16.59    1.05
  -3   0   4   18.40    1.45
  -3   0   4   13.55    1.47
   2   0  -4   94.57    3.90
   2   0  -4   85.55    4.20
  -2   0   4   87.52    5.11
  -2   0   4   84.53    5.29
   1   0  -4   72.00    3.39
   1   0  -4   72.01    3.07
  -1   0   4   72.06    4.20
  -1   0   4   68.07    4.11
   0   0  -4    9.47    0.52
   0   0  -4    9.54    0.66
   0   0   4    8.47    0.73
   0   0   4    9.33    0.75
  -1   0  -4    7.80    0.46
  -1   0  -4    8.25    0.65
  -1   0  -4    8.72    0.58
   1   0   4    7.15    0.58
  -2   0  -4   21.48    1.43
  -2   0  -4   22.57    1.14
  -2   0  -4   20.89    1.04
   2   0   4   20.66    1.11
  -3   0  -4   74.25    4.40
  -3   0  -4   75.01    3.26
  -4   0  -4    3.57    0.47
  -4   0  -4    3.41    0.68
  -5   0  -4   21.09    1.30
  -6   0  -4   57.43    2.35
  -6   0  -4   59.66    2.53
  -6   0  -4   59.59    2.89
   6   0   4   56.91    2.35
  -7   0  -4   37.83    1.65
  -7   0  -4   37.74    1.78
   7   0   4   37.61    1.67
  -8   0  -4    9.22    0.66
  -8   0  -4    8.50    0.60
   8   0   4    8.77    0.60
   7  -1  -4   39.56    1.56
  -7   1   4   41.89    1.50
  -7   1   4   36.59    1.72
  -7   1   4   41.91    1.62
   6  -1  -4   73.87    2.74
  -6   1   4   74.22    2.63
  -6   1   4   70.91    2.83
  -6   1   4   78.91    3.08
   5  -1  -4    0.71    0.34
   5  -1  -4    1.50    0.45
  -5   1   4    0.84    0.33
  -5   1   4    0.97    0.36
  -5   1   4    1.48    0.40
  -5   1   4    1.04    0.48
   4  -1  -4   50.08    2.60
  -4   1   4   52.82    2.27
  -4   1   4   49.91    2.61
   3  -1  -4   12.51    1.03
   3  -1  -4   13.38    1.03
  -3   1   4   15.32    1.28
  -3   1   4   14.01    1.00
  -3   1   4   13.74    1.58
   2  -1  -4   62.85    2.79
   2  -1  -4   58.47    2.93
  -2   1   4   59.68    2.75
  -2   1   4   51.64    3.71
  -2   1   4   61.00    3.61
   1  -1  -4  211.22    8.45
   1  -1  -4  199.47    7.89
  -1   1   4  193.61    7.89
  -1   1   4  178.65   10.57
  -1   1   4  170.45    8.17
  -1   1   4  189.13   10.18
   0  -1  -4   47.59    2.08
   0  -1  -4   49.69    2.28
   0   1   4   45.03    2.70
   0   1   4   48.20    2.08
   0   1   4   45.19    2.80
   0   1   4   46.11    2.18
  -1  -1  -4  209.13    8.76
  -1  -1  -4  222.36    9.38
   1   1   4  223.85   11.60
   1   1   4  200.86   11.21
   1   1   4  206.07    9.14
   1   1   4  222.73    8.78
   1   1   4  221.72   11.57
  -2  -1  -4   43.84    1.98
  -2  -1  -4   45.23    2.13
  -2  -1  -4   46.25    2.58
   2   1   4   41.46    2.11
   2   1   4   45.69    2.01
  -3  -1  -4  222.68    9.13
  -3  -1  -4  227.41    9.66
  -3  -1  -4  219.64   12.06
   3   1   4  215.03    9.16
  -4  -1  -4  307.90   12.05
  -4  -1  -4  290.99   15.94
   4   1   4  273.48   12.05
  -5  -1  -4    0.37    0.32
   5   1   4    1.09    0.34
  -6  -1  -4  152.56    5.33
  -6  -1  -4  154.82    5.65
  -6  -1  -4  144.60    6.60
   6   1   4  141.62    6.52
   6   1   4  154.99    5.26
  -7  -1  -4  100.45    3.71
  -7  -1  -4   98.07    3.92
  -7  -1  -4  102.56    3.37
   7   1   4   99.98    3.68
  -8  -1  -4   46.64    1.73
  -8  -1  -4   47.65    2.04
  -8  -1  -4   47.20    1.91
   8   1   4   50.11    1.93
  -9  -1  -4   71.17    2.61
  -9  -1  -4   69.40    2.49
   9   1   4   70.82    2.43
   7  -2  -4   57.30    1.99
  -7   2   4   59.15    1.92
  -7   2   4   56.49    2.06
  -7   2   4   51.15    2.24
   6  -2  -4   46.13    1.87
  -6   2   4   48.99    1.80
  -6   2   4   47.26    2.08
  -6   2   4   46.66    1.93
   5  -2  -4    4.07    0.55
  -5   2   4    3.71    0.50
  -5   2   4    4.61    0.61
  -5   2   4    4.95    0.63
  -4   2   4   99.74    4.49
  -4   2   4   92.84    3.77
  -4   2   4  100.76    3.95
  -3   2   4   20.31    1.28
  -3   2   4   19.54    1.15
   2  -2  -4   83.34    4.12
  -2   2   4   88.78    3.93
  -2   2   4   91.85    5.10
  -2   2   4   84.19    5.32
   1  -2  -4  150.79    6.58
  -1   2   4  146.12    7.97
  -1   2   4  142.32    6.47
  -1   2   4  142.62    8.34
  -1   2   4  152.69    6.24
   0  -2  -4    1.12    0.24
   0  -2  -4    0.99    0.21
   0   2   4    1.56    0.27
   0   2   4    0.78    0.25
   0   2   4    0.85    0.29
   0   2   4    1.21    0.25
  -1  -2  -4    5.22    0.39
  -1  -2  -4    5.60    0.46
   1   2   4    6.33    0.41
   1   2   4    4.46    0.48
   1   2   4    5.06    0.41
  -2  -2  -4   67.24    2.97
  -2  -2  -4   69.33    3.20
   2   2   4   66.80    3.10
   2   2   4   71.93    2.96
  -3  -2  -4    4.06    0.44
   3   2   4    3.87    0.44
   3   2   4    4.34    0.40
  -4  -2  -4   24.79    1.44
   4   2   4   23.97    1.50
   4   2   4   26.54    1.39
   5   2   4    1.58    0.35
   6   2   4   25.63    1.51
   6   2   4   26.29    1.33
   6   2   4   26.64    1.38
  -7  -2  -4    4.66    0.59
  -7  -2  -4    3.80    0.55
  -7  -2  -4    3.84    0.47
   7   2   4    4.54    0.59
  -8  -2  -4    4.13    0.42
  -8  -2  -4    3.43    0.46
  -8  -2  -4    4.02    0.52
   8   2   4    3.52    0.42
  -9  -2  -4    4.44    0.43
  -9  -2  -4    4.16    0.40
  -9  -2  -4    3.87    0.35
   9   2   4    3.86    0.38
   9   2   4    4.22    0.40
   7  -3  -4    0.47    0.16
  -7   3   4    0.30    0.13
   6  -3  -4   30.81    1.29
  -6   3   4   31.69    1.34
  -6   3   4   29.89    1.22
  -6   3   4   27.00    1.40
  -6   3   4   32.06    1.32
   5  -3  -4    7.42    0.66
  -5   3   4    7.98    0.68
  -5   3   4    5.30    0.54
  -5   3   4    7.62    0.71
   4  -3  -4   32.68    1.51
  -4   3   4   31.18    1.45
  -4   3   4   32.13    1.68
  -4   3   4   32.82    1.75
  -4   3   4   31.60    1.60
   3  -3  -4  159.05    6.26
  -3   3   4  143.99    6.22
  -3   3   4  150.14    5.85
  -3   3   4  156.31    6.58
  -2   3   4    1.58    0.42
  -2   3   4    1.34    0.41
  -2   3   4    1.69    0.42
  -2   3   4    1.15    0.33
   1  -3  -4  224.14   10.04
  -1   3   4  229.81    9.96
  -1   3   4  238.33    9.50
  -1   3   4  209.23    8.96
  -1   3   4  237.39   12.16
   0  -3  -4  102.55    4.73
   0   3   4  101.16    4.66
   0   3   4  102.94    5.72
   0   3   4  109.07    4.47
  -1  -3  -4   40.19    2.02
   1   3   4   41.06    1.84
   1   3   4   39.43    1.93
  -2  -3  -4  369.05   15.74
   2   3   4  342.50   15.29
   2   3   4  376.31   14.68
  -3  -3  -4   45.24    2.34
   3   3   4   45.13    2.21
   3   3   4   46.74    2.05
  -4  -3  -4  109.51    4.92
   4   3   4  103.92    4.76
   4   3   4  101.19    4.43
   4   3   4  100.35    3.89
  -5  -3  -4  129.28    5.62
   5   3   4  115.03    5.08
   5   3   4  109.92    4.49
   5   3   4  120.22    5.56
   5   3   4  113.80    4.59
   6   3   4   12.05    0.96
   6   3   4   10.24    0.80
   6   3   4   10.86    0.97
   6   3   4   11.96    0.84
   6   3   4   11.26    0.92
  -7  -3  -4   73.05    3.09
  -7  -3  -4   73.49    3.09
   7   3   4   73.07    2.68
   7   3   4   77.37    2.98
   7   3   4   72.75    2.82
   7   3   4   72.44    2.84
  -8  -3  -4    2.19    0.42
  -8  -3  -4    2.35    0.43
  -8  -3  -4    1.48    0.32
  -8  -3  -4    2.72    0.43
   8   3   4    1.23    0.33
   8   3   4    1.15    0.28
  -9  -3  -4   35.36    1.30
  -9  -3  -4   36.75    1.52
  -9  -3  -4   34.59    1.44
   9   3   4   35.61    1.43
   9   3   4   36.57    1.39
   6  -4  -4   58.95    2.08
  -6   4   4   58.17    2.18
  -6   4   4   61.57    2.08
  -6   4   4   62.46    2.03
   5  -4  -4   23.81    1.13
  -5   4   4   24.72    1.20
  -5   4   4   23.46    1.08
  -5   4   4   22.77    1.24
  -5   4   4   24.36    1.12
   4  -4  -4   41.89    1.84
  -4   4   4   42.89    1.86
  -4   4   4   44.03    1.98
  -4   4   4   42.52    1.79
  -4   4   4   45.96    2.12
   3  -4  -4   56.37    2.25
   3  -4  -4   60.21    2.73
  -3   4   4   53.83    2.48
  -3   4   4   52.32    2.40
  -3   4   4   53.50    2.12
  -3   4   4   53.67    2.21
  -3   4   4   54.32    2.27
  -3   4   4   54.34    2.57
  -3   4   4   56.20    2.71
  -2   4   4   39.87    1.97
  -2   4   4   37.15    1.57
  -2   4   4   39.44    2.11
  -2   4   4   39.79    2.35
  -2   4   4   40.01    1.71
  -2   4   4   39.35    1.88
  -1   4   4  164.81    6.90
  -1   4   4  161.43    5.64
  -1   4   4  174.12    6.27
  -1   4   4  168.21    6.99
  -1   4   4  171.78    7.62
   0  -4  -4   50.75    2.70
   0   4   4   59.65    2.76
   0   4   4   54.79    2.64
   0   4   4   55.22    2.42
  -1  -4  -4   27.25    1.55
   1   4   4   30.18    1.50
   1   4   4   26.60    1.53
  -2  -4  -4  293.30   12.98
   2   4   4  296.16   11.91
   2   4   4  298.15   12.56
  -3  -4  -4   12.13    0.93
   3   4   4   11.06    0.75
   3   4   4   11.01    0.57
  -4  -4  -4   54.19    2.97
   4   4   4   55.27    2.26
   4   4   4   57.97    2.06
   4   4   4   58.81    2.78
   4   4   4   55.42    2.40
  -5  -4  -4   88.63    4.40
   5   4   4   86.46    3.64
   5   4   4   87.07    3.55
   5   4   4   86.88    3.11
   5   4   4   87.75    4.22
   5   4   4   83.29    3.41
   6   4   4    2.57    0.55
   6   4   4    2.72    0.59
   6   4   4    2.98    0.59
   6   4   4    2.21    0.42
   6   4   4    2.24    0.43
   6   4   4    3.57    0.46
   6   4   4    4.50    0.70
   6   4   4    1.98    0.61
   6   4   4    2.23    0.47
  -7  -4  -4   19.55    1.28
   7   4   4   22.03    1.29
   7   4   4   19.11    1.04
   7   4   4   19.05    1.24
   7   4   4   19.12    1.12
   7   4   4   21.90    1.30
   7   4   4   22.48    1.19
   7   4   4   21.52    1.27
  -8  -4  -4    3.74    0.55
  -8  -4  -4    4.52    0.55
  -8  -4  -4    3.43    0.48
   8   4   4    4.83    0.57
   8   4   4    4.16    0.44
   8   4   4    5.06    0.51
   8   4   4    3.22    0.44
  -9  -4  -4    8.00    0.49
  -9  -4  -4    8.07    0.55
  -9  -4  -4    5.96    0.55
   9   4   4    7.82    0.53
   9   4   4    7.56    0.45
   5  -5  -4   10.13    0.61
  -5   5   4    9.24    0.55
  -5   5   4   10.11    0.49
  -5   5   4   10.09    0.61
   4  -5  -4    1.18    0.35
  -4   5   4    1.44    0.35
  -4   5   4    1.29    0.26
  -4   5   4    1.63    0.37
  -4   5   4    1.37    0.34
   3  -5  -4   17.46    1.30
  -3   5   4   16.87    0.92
  -3   5   4   19.43    1.10
  -3   5   4   17.22    1.20
  -3   5   4   18.34    1.16
  -3   5   4   18.11    0.99
  -3   5   4   18.96    1.25
  -2   5   4    7.78    0.65
  -2   5   4    8.54    0.98
  -2   5   4   10.32    0.92
  -2   5   4    8.65    0.84
  -2   5   4    8.43    1.13
  -2   5   4    8.83    0.64
  -2   5   4    7.95    0.73
  -2   5   4    8.99    0.69
  -2   5   4    8.33    0.86
  -2   5   4    6.85    0.75
  -2   5   4    9.07    1.02
  -1   5   4   12.03    0.84
  -1   5   4   13.09    1.18
  -1   5   4   13.85    0.97
  -1   5   4   13.93    0.83
  -1   5   4   13.96    1.15
   0   5   4  136.66    6.07
   0   5   4  138.73    5.35
   0   5   4  144.97    4.89
   0   5   4  149.03    6.50
  -1  -5  -4   28.84    1.78
   1   5   4   32.15    1.48
   1   5   4   33.27    1.86
   1   5   4   33.47    1.73
   1   5   4   32.10    1.31
  -2  -5  -4   83.03    3.87
  -2  -5  -4   87.70    4.30
   2   5   4   87.73    3.02
   2   5   4   94.66    4.05
   2   5   4   90.45    3.92
   2   5   4   90.01    3.44
  -3  -5  -4  210.30    9.71
   3   5   4  225.48    9.24
   3   5   4  204.42    7.73
   3   5   4  214.40    6.90
  -4  -5  -4  101.35    4.98
   4   5   4   98.33    3.71
   4   5   4   98.14    3.88
   4   5   4  100.22    4.56
   4   5   4   97.99    3.38
  -5  -5  -4  112.34    5.96
   5   5   4  120.74    4.53
   5   5   4  117.79    4.70
   5   5   4  120.64    5.57
   5   5   4  123.70    3.89
   5   5   4  122.71    4.14
   6   5   4   15.78    1.02
   6   5   4   17.89    1.12
   6   5   4   16.06    1.33
   6   5   4   15.21    0.85
   6   5   4   17.09    1.03
   6   5   4   15.17    1.28
   6   5   4   15.76    1.17
   6   5   4   15.50    1.17
   6   5   4   14.47    1.14
   6   5   4   15.90    1.13
   6   5   4   15.82    0.87
   6   5   4   16.13    0.91
   6   5   4   17.18    0.96
   7   5   4  151.13    5.34
   7   5   4  134.02    5.28
   7   5   4  146.79    4.80
   7   5   4  140.14    5.51
   7   5   4  142.79    4.93
   7   5   4  133.46    4.85
   7   5   4  143.11    5.39
   7   5   4  135.44    4.59
   7   5   4  141.30    5.28
   7   5   4  138.80    4.87
   7   5   4  141.79    5.54
   7   5   4  144.22    4.82
   7   5   4  140.20    4.95
  -8  -5  -4   79.97    3.27
   8   5   4   83.31    3.04
   8   5   4   83.24    3.28
   8   5   4   86.93    3.22
   8   5   4   83.53    2.88
   8   5   4   81.22    3.23
   8   5   4   82.36    2.90
  -9  -5  -4    6.52    0.52
  -9  -5  -4    6.57    0.45
  -9  -5  -4    6.30    0.50
   9   5   4    6.61    0.33
   9   5   4    5.96    0.47
   9   5   4    6.73    0.52
  -4   6   4   10.31    0.58
  -4   6   4    9.40    0.68
  -4   6   4   11.14    0.66
  -4   6   4    9.06    0.62
   3  -6  -4   70.49    3.32
  -3   6   4   72.83    2.65
  -3   6   4   71.07    2.63
  -3   6   4   75.98    2.69
  -3   6   4   74.97    2.91
  -3   6   4   73.41    2.99
  -3   6   4   72.86    3.05
  -3   6   4   71.14    2.51
   2  -6  -4  118.15    5.00
  -2   6   4  108.45    4.28
  -2   6   4  103.73    3.92
  -2   6   4  112.16    3.82
  -2   6   4  112.46    3.76
  -2   6   4  116.15    4.05
  -2   6   4  119.67    4.60
  -2   6   4  112.28    3.95
  -2   6   4   97.96    4.40
  -2   6   4  110.83    4.95
  -1   6   4    6.25    0.72
  -1   6   4    7.81    0.77
  -1   6   4    8.24    0.64
  -1   6   4    8.08    0.65
  -1   6   4    6.55    0.52
  -1   6   4    7.78    0.80
  -1   6   4    8.79    1.00
  -1   6   4    6.89    0.94
  -1   6   4    8.05    0.72
  -1   6   4    7.94    0.93
  -1   6   4    7.85    0.76
   0   6   4  236.37    7.77
   0   6   4  228.86    8.53
   0   6   4  226.54    7.54
   0   6   4  226.77   10.22
   0   6   4  234.12    8.51
   0   6   4  223.02    7.43
   0   6   4  226.24    7.27
   0   6   4  236.45    7.38
   0   6   4  233.44    8.06
   0   6   4  230.48    9.56
   0   6   4  234.03    7.70
   1   6   4   24.34    1.70
   1   6   4   24.64    1.12
   1   6   4   23.74    1.31
   1   6   4   23.29    1.44
   1   6   4   25.00    1.11
  -2  -6  -4   42.04    2.50
  -2  -6  -4   43.69    2.67
   2   6   4   56.21    2.67
   2   6   4   49.73    2.42
   2   6   4   49.12    2.16
   2   6   4   51.75    1.84
   2   6   4   51.36    1.77
  -3  -6  -4   73.35    4.01
   3   6   4   77.94    2.55
   3   6   4   77.81    3.59
   3   6   4   78.41    2.69
   3   6   4   77.63    3.15
   4   6   4    3.48    0.53
   4   6   4    3.05    0.35
   4   6   4    2.82    0.38
   4   6   4    2.70    0.32
   4   6   4    3.45    0.49
   4   6   4    2.39    0.47
   5   6   4   33.27    1.96
   5   6   4   35.74    1.84
   5   6   4   34.58    1.57
   5   6   4   35.47    1.46
   5   6   4   33.92    1.57
   5   6   4   31.37    1.67
   5   6   4   32.74    1.82
   5   6   4   36.03    1.80
   5   6   4   35.42    1.70
   5   6   4   35.08    1.36
   5   6   4   33.06    1.43
   5   6   4   34.03    1.44
   5   6   4   33.37    1.32
   6   6   4    6.68    0.79
   6   6   4    7.16    0.55
   6   6   4    9.74    0.95
   6   6   4    6.27    0.69
   6   6   4    7.18    0.59
   6   6   4    9.86    0.67
   6   6   4    7.83    0.96
   6   6   4    6.61    0.79
   6   6   4    8.92    0.98
   6   6   4    7.36    0.65
   6   6   4    8.71    0.69
   6   6   4    7.37    0.48
   7   6   4   53.90    2.61
   7   6   4   51.74    2.36
   7   6   4   56.12    1.92
   7   6   4   55.41    2.03
   7   6   4   55.48    2.24
   7   6   4   55.82    2.20
   7   6   4   53.15    2.16
   7   6   4   51.81    2.44
   7   6   4   56.31    2.45
   7   6   4   53.95    2.13
   7   6   4   56.58    2.58
   7   6   4   56.77    2.26
  -8  -6  -4   39.39    1.85
   8   6   4   41.44    1.76
   8   6   4   39.71    1.70
   8   6   4   44.12    1.68
   8   6   4   41.31    1.57
   8   6   4   43.00    1.95
   8   6   4   36.89    1.67
   8   6   4   45.13    1.71
   8   6   4   42.04    1.87
   8   6   4   45.42    1.89
   8   6   4   42.16    1.60
  -9  -6  -4    1.46    0.25
  -9  -6  -4    1.28    0.27
   9   6   4    1.18    0.21
   9   6   4    1.48    0.26
   9   6   4    1.49    0.24
   9   6   4    1.15    0.25
  -3   7   4    0.67    0.24
  -3   7   4    0.43    0.20
  -3   7   4    0.58    0.20
  -3   7   4    0.12    0.21
   2  -7  -4   16.73    1.28
  -2   7   4   16.78    0.88
  -2   7   4   16.70    1.11
  -2   7   4   18.88    1.00
  -2   7   4   17.72    1.05
  -2   7   4   18.16    0.89
  -2   7   4   16.41    1.08
  -2   7   4   16.73    0.95
  -2   7   4   16.01    0.89
   1  -7  -4    3.81    0.75
  -1   7   4    4.51    0.52
  -1   7   4    4.19    0.50
  -1   7   4    3.35    0.60
  -1   7   4    4.37    0.69
  -1   7   4    5.13    0.56
  -1   7   4    3.96    0.54
  -1   7   4    5.08    0.70
  -1   7   4    4.14    0.52
   0  -7  -4   11.62    1.25
   0   7   4   10.64    1.28
   0   7   4   11.69    0.78
   0   7   4   11.83    0.88
   0   7   4   11.79    0.82
   0   7   4   13.00    0.83
   0   7   4   11.30    0.92
   0   7   4   11.37    1.03
   0   7   4   11.85    0.96
   0   7   4   11.65    0.78
  -1  -7  -4   12.38    1.45
   1   7   4   12.43    1.39
   1   7   4   11.01    0.90
   1   7   4   12.19    0.73
   1   7   4   11.80    0.83
   1   7   4   12.99    1.05
   1   7   4   11.72    0.73
   1   7   4   11.66    0.82
   1   7   4   11.96    0.93
   1   7   4   12.74    0.77
  -2  -7  -4   24.50    1.84
   2   7   4   26.97    1.49
   2   7   4   26.70    1.30
   2   7   4   28.98    1.16
   2   7   4   26.18    1.46
   2   7   4   27.59    1.29
   2   7   4   26.02    1.51
   2   7   4   25.80    1.15
   2   7   4   27.15    1.55
   2   7   4   26.95    1.39
   2   7   4   26.50    1.13
   3   7   4   44.22    1.76
   3   7   4   43.13    2.22
   3   7   4   43.04    1.64
   3   7   4   43.70    1.96
   3   7   4   45.66    1.70
   3   7   4   45.39    1.62
   3   7   4   45.30    2.15
   3   7   4   43.67    2.08
   3   7   4   42.62    2.04
   3   7   4   45.12    1.69
   3   7   4   44.16    1.82
   4   7   4   18.49    1.23
   4   7   4   18.27    0.82
   4   7   4   17.10    1.19
   4   7   4   18.52    1.18
   4   7   4   17.84    0.85
   4   7   4   18.61    1.11
   4   7   4   17.26    1.04
   4   7   4   17.04    1.15
   4   7   4   17.38    0.83
   4   7   4   17.01    0.89
   4   7   4   18.25    0.86
   5   7   4    3.88    0.60
   5   7   4    3.13    0.36
   5   7   4    3.98    0.42
   5   7   4    3.01    0.51
   5   7   4    3.52    0.42
   5   7   4    4.01    0.70
   5   7   4    4.39    0.39
   5   7   4    2.98    0.39
   5   7   4    3.53    0.63
   5   7   4    3.20    0.56
   5   7   4    3.66    0.63
   6   7   4   54.12    2.04
   6   7   4   53.66    2.46
   6   7   4   53.23    1.94
   6   7   4   54.86    2.42
   6   7   4   55.72    2.10
   6   7   4   50.24    2.51
   6   7   4   54.18    2.40
   6   7   4   54.10    2.20
   6   7   4   51.42    2.09
   6   7   4   53.31    2.06
   7   7   4    0.66    0.43
   7   7   4    0.11    0.38
   7   7   4    0.81    0.27
   7   7   4    0.74    0.35
   7   7   4    0.47    0.17
   7   7   4    0.37    0.39
   7   7   4    1.37    0.39
   7   7   4    0.37    0.24
   7   7   4    0.38    0.36
   7   7   4    0.47    0.21
   7   7   4    0.85    0.24
  -8  -7  -4   49.90    2.11
   8   7   4   49.42    1.91
   8   7   4   50.84    2.11
   8   7   4   52.52    1.87
   8   7   4   55.01    2.17
   8   7   4   47.06    2.19
   8   7   4   52.72    1.88
   8   7   4   49.65    1.78
   8   7   4   51.84    2.04
   8   7   4   52.85    1.93
  -9  -7  -4   21.73    0.93
   9   7   4   20.80    0.83
   9   7   4   22.48    0.97
   9   7   4   21.16    0.85
  -2   8   4   70.95    2.56
  -2   8   4   66.26    2.38
  -2   8   4   72.22    2.33
  -2   8   4   68.85    2.33
  -2   8   4   68.60    2.64
  -1   8   4    3.97    0.40
  -1   8   4    3.04    0.48
  -1   8   4    4.18    0.50
  -1   8   4    3.41    0.39
  -1   8   4    4.06    0.56
  -1   8   4    3.86    0.43
  -1   8   4    4.52    0.60
  -1   8   4    3.53    0.39
   0  -8  -4   49.95    2.82
   0   8   4   55.04    2.33
   0   8   4   52.90    1.97
   0   8   4   55.48    2.12
   0   8   4   54.49    2.45
   0   8   4   54.36    2.01
   0   8   4   53.10    2.10
   0   8   4   51.27    2.06
   0   8   4   54.71    2.48
  -1  -8  -4   64.82    3.58
   1   8   4   70.16    2.90
   1   8   4   72.51    3.08
   1   8   4   70.49    2.52
   1   8   4   70.46    3.12
   1   8   4   75.40    2.62
   1   8   4   76.28    2.55
   1   8   4   70.90    2.65
   1   8   4   71.20    2.72
   2   8   4   14.14    0.90
   2   8   4   12.98    1.02
   2   8   4   10.70    0.90
   2   8   4   13.62    1.09
   2   8   4   11.89    0.66
   2   8   4   12.94    0.70
   2   8   4   13.79    0.82
   2   8   4   12.83    0.70
   2   8   4   12.64    1.05
   3   8   4  119.26    4.06
   3   8   4  118.99    4.44
   3   8   4  115.76    4.69
   3   8   4  115.91    4.53
   3   8   4  116.60    4.12
   3   8   4  124.04    4.01
   3   8   4  121.32    3.82
   3   8   4  117.23    3.90
   4   8   4   23.00    1.41
   4   8   4   22.83    1.22
   4   8   4   23.18    1.44
   4   8   4   24.33    1.04
   4   8   4   23.37    1.01
   4   8   4   25.32    1.01
   4   8   4   24.28    1.35
   4   8   4   24.65    1.45
   4   8   4   23.79    1.09
   5   8   4   52.95    2.45
   5   8   4   54.73    2.19
   5   8   4   54.32    2.09
   5   8   4   58.04    1.95
   5   8   4   56.91    2.55
   5   8   4   54.09    2.01
   5   8   4   55.81    2.05
   5   8   4   53.30    2.38
   5   8   4   55.63    2.54
   6   8   4   97.25    4.00
   6   8   4  101.35    3.59
   6   8   4  102.54    3.93
   6   8   4  101.36    3.53
   6   8   4  107.15    3.34
   6   8   4  102.03    3.59
   6   8   4  103.51    4.11
   6   8   4  100.64    3.46
   6   8   4  103.68    3.93
   7   8   4    1.71    0.27
   7   8   4    1.45    0.43
   7   8   4    1.19    0.37
   7   8   4    2.42    0.30
   7   8   4    2.03    0.28
   7   8   4    2.06    0.40
   7   8   4    1.79    0.44
   7   8   4    1.84    0.40
   7   8   4    2.07    0.48
   7   8   4    1.97    0.30
   8   8   4   26.64    1.11
   8   8   4   27.15    1.01
   8   8   4   28.28    1.04
   8   8   4   28.45    1.20
   8   8   4   27.50    1.23
   8   8   4   28.14    1.26
   8   8   4   27.50    1.07
  -1   9   4    2.92    0.33
   0   9   4    2.11    0.26
   0   9   4    2.94    0.26
   0   9   4    2.30    0.35
   0   9   4    2.39    0.39
   0   9   4    2.73    0.29
   0   9   4    2.88    0.42
   1   9   4    4.59    0.39
   1   9   4    5.46    0.36
   1   9   4    6.08    0.60
   1   9   4    5.37    0.42
   1   9   4    5.13    0.63
   1   9   4    4.73    0.50
   1   9   4    6.02    0.68
   1   9   4    5.61    0.45
   2   9   4    8.13    0.50
   2   9   4    8.26    0.73
   2   9   4    7.20    0.47
   2   9   4    7.45    0.79
   2   9   4    7.38    0.65
   2   9   4    8.47    0.44
   2   9   4    8.68    0.57
   2   9   4    8.59    0.79
   3   9   4    8.12    0.54
   3   9   4    8.45    0.80
   3   9   4    8.33    0.82
   3   9   4    9.39    0.75
   3   9   4    7.53    0.78
   3   9   4    7.54    0.46
   3   9   4    7.05    0.46
   3   9   4    7.28    0.67
   3   9   4    7.96    0.43
   4   9   4   24.61    0.96
   4   9   4   23.23    0.98
   4   9   4   23.96    1.18
   4   9   4   23.09    1.04
   4   9   4   22.73    1.36
   4   9   4   24.07    0.93
   4   9   4   26.65    1.41
   4   9   4   23.82    1.29
   4   9   4   24.43    1.37
   5   9   4    1.73    0.45
   5   9   4    1.55    0.43
   5   9   4    1.42    0.22
   5   9   4    1.39    0.23
   5   9   4    1.93    0.24
   5   9   4    1.30    0.25
   5   9   4    2.00    0.40
   5   9   4    0.67    0.39
   5   9   4    1.34    0.42
   6   9   4    9.96    0.52
   6   9   4    9.45    0.82
   6   9   4   10.42    0.80
   6   9   4   10.45    0.80
   6   9   4   10.15    0.55
   6   9   4   11.20    0.59
   6   9   4    9.27    0.81
   6   9   4   10.74    0.72
   6   9   4   10.65    0.48
   7   9   4    7.79    0.58
   7   9   4    7.09    0.39
   7   9   4    6.80    0.60
   7   9   4    7.96    0.54
   7   9   4    7.05    0.31
   7   9   4    8.18    0.59
   7   9   4    7.30    0.42
   7   9   4    5.03    0.55
   2  10   4   24.95    1.12
   2  10   4   25.19    1.19
   2  10   4   23.64    0.99
   2  10   4   24.42    0.97
   3  10   4   23.78    0.98
   3  10   4   25.44    1.06
   3  10   4   23.85    1.21
   3  10   4   26.00    1.17
   4  10   4   50.07    1.78
   4  10   4   50.02    1.81
   4  10   4   49.55    1.64
   4  10   4   50.34    1.98
   4  10   4   50.49    2.08
   5  10   4    0.36    0.21
   5  10   4    0.57    0.26
   5  10   4    0.58    0.28
   5  10   4    0.22    0.26
   5  10   4    0.34    0.14
   6  10   4   34.24    1.35
   6  10   4   31.80    1.19
   6  10   4   34.04    1.25
   6   8  -5   24.68    0.89
   6   8  -5   26.63    1.08
   5   8  -5   16.95    0.86
   0   8  -5   12.53    0.55
   0   8  -5   11.41    0.84
  -1   8  -5   50.12    1.73
   7   7  -5    0.75    0.19
   7   7  -5    0.99    0.19
   7   7  -5    0.65    0.12
   7   7  -5    0.52    0.18
   6   7  -5    3.68    0.39
   6   7  -5    4.44    0.45
   6   7  -5    4.21    0.29
   6   7  -5    4.36    0.28
   6   7  -5    4.78    0.44
   5   7  -5    0.70    0.17
   5   7  -5    0.67    0.14
   5   7  -5    0.88    0.14
   5   7  -5    0.73    0.28
   5   7  -5    0.94    0.30
   4   7  -5    1.66    0.18
   4   7  -5    2.15    0.37
   4   7  -5    2.01    0.40
   1   7  -5   14.50    0.58
   1   7  -5   14.15    0.91
   0   7  -5   15.21    0.64
   0   7  -5   14.26    0.88
   0   7  -5   13.51    1.20
   0   7  -5   13.64    0.62
   0   7  -5   16.23    1.10
  -1   7  -5    0.05    0.12
  -1   7  -5    0.54    0.17
  -1   7  -5    0.35    0.41
  -1   7  -5    0.13    0.14
  -1   7  -5    0.55    0.30
  -1   7  -5   -0.11    0.32
  -1   7  -5    0.35    0.17
  -2   7  -5    9.56    0.66
  -2   7  -5    9.63    0.72
  -2   7  -5   10.00    0.44
  -2   7  -5   10.94    0.54
  -2   7  -5    9.23    0.50
  -3   7  -5    0.58    0.14
  -3   7  -5    0.44    0.21
  -3   7  -5    0.46    0.09
   8   6  -5    6.75    0.38
   7   6  -5   25.16    0.90
   7   6  -5   25.70    1.13
   7   6  -5   23.99    1.06
   7   6  -5   24.06    0.94
   7   6  -5   22.94    1.04
   7   6  -5   24.19    0.89
   6   6  -5   80.86    2.93
   6   6  -5   77.74    2.70
   6   6  -5   79.08    2.73
   6   6  -5   81.11    2.56
   6   6  -5   79.06    2.63
   6   6  -5   79.00    2.95
   6   6  -5   82.01    3.13
   5   6  -5    1.70    0.39
   5   6  -5    1.28    0.22
   5   6  -5    1.63    0.36
   5   6  -5    1.13    0.33
   5   6  -5    1.62    0.22
   5   6  -5    1.40    0.21
   5   6  -5    2.40    0.26
   4   6  -5  101.23    3.34
   4   6  -5  106.21    3.79
   4   6  -5  103.97    3.28
   4   6  -5  105.46    4.08
   4   6  -5  106.87    3.45
   3   6  -5  112.75    3.68
   3   6  -5  116.87    3.51
   3   6  -5  113.94    4.05
   3   6  -5  109.31    3.57
   3   6  -5  118.18    4.40
   2   6  -5    2.02    0.19
   2   6  -5    2.88    0.42
   2   6  -5    2.14    0.46
   2   6  -5    2.38    0.21
   1   6  -5  182.73    5.65
   1   6  -5  177.85    5.45
   1   6  -5  182.29    5.78
   1   6  -5  174.67    5.96
   1   6  -5  186.82    7.65
   0   6  -5    4.79    0.81
   0   6  -5    3.79    0.52
   0   6  -5    4.24    0.64
   0   6  -5    4.54    0.37
   0   6  -5    4.33    0.33
   0   6  -5    4.76    0.36
  -1   6  -5   55.13    1.89
  -1   6  -5   55.62    2.17
  -1   6  -5   55.02    1.98
  -1   6  -5   55.95    2.43
  -1   6  -5   53.55    1.96
  -1   6  -5   56.24    2.85
  -1   6  -5   55.01    2.02
  -2   6  -5   74.45    3.52
  -2   6  -5   75.51    2.69
  -2   6  -5   75.02    2.61
  -2   6  -5   76.37    2.81
  -2   6  -5   78.78    2.55
  -2   6  -5   77.89    3.03
  -2   6  -5   74.41    2.68
  -3   6  -5    0.52    0.30
  -3   6  -5    1.23    0.22
  -3   6  -5    0.77    0.21
  -3   6  -5    0.96    0.34
  -3   6  -5    1.06    0.22
  -3   6  -5    1.09    0.43
  -4   6  -5   43.69    1.51
  -4   6  -5   46.25    1.76
  -4   6  -5   42.72    1.62
  -4   6  -5   41.13    1.55
   8   5  -5    0.91    0.18
   8   5  -5    0.84    0.13
   8   5  -5    0.81    0.18
   8   5  -5    0.85    0.18
   8   5  -5    1.05    0.16
   7   5  -5    0.63    0.20
   7   5  -5    0.76    0.17
   7   5  -5    0.77    0.17
   7   5  -5    0.73    0.23
   7   5  -5    0.70    0.25
   7   5  -5    0.75    0.19
   7   5  -5    0.90    0.25
   6   5  -5   12.23    0.65
   6   5  -5   11.95    0.64
   6   5  -5   12.16    0.61
   6   5  -5   12.90    0.83
   6   5  -5   11.82    0.79
   6   5  -5   11.17    0.61
   6   5  -5   12.57    0.82
   5   5  -5    1.02    0.22
   5   5  -5    0.75    0.21
   5   5  -5    0.80    0.32
   5   5  -5    0.29    0.17
   5   5  -5    0.71    0.20
   5   5  -5    1.23    0.33
   5   5  -5    0.40    0.29
   4   5  -5    4.62    0.57
   4   5  -5    5.34    0.66
   4   5  -5    4.52    0.38
   4   5  -5    4.93    0.61
   4   5  -5    5.00    0.36
   4   5  -5    4.90    0.37
   3   5  -5    0.37    0.27
   3   5  -5    0.44    0.16
   3   5  -5    0.60    0.16
   3   5  -5    0.17    0.32
   3   5  -5    0.52    0.16
   3   5  -5    0.30    0.37
  -3  -5   5    0.33    0.55
   2   5  -5    2.89    0.23
   2   5  -5    3.59    0.47
   2   5  -5    3.08    0.24
   1   5  -5    1.24    0.16
   1   5  -5    0.72    0.52
   1   5  -5    1.08    0.30
   1   5  -5    1.30    0.16
   1   5  -5    0.98    0.53
   0   5  -5   33.94    1.28
   0   5  -5   33.08    1.16
   0   5  -5   33.52    1.26
   0   5  -5   34.25    1.79
   0   5  -5   36.75    2.10
  -1   5  -5    4.71    0.78
  -1   5  -5    5.68    0.39
  -1   5  -5    5.70    0.43
  -1   5  -5    5.53    0.59
  -1   5  -5    5.83    0.47
  -1   5  -5    4.85    0.65
  -1   5  -5    5.23    0.60
  -2   5  -5    3.10    0.38
  -2   5  -5    3.66    0.42
  -2   5  -5    3.16    0.34
  -2   5  -5    3.12    0.35
  -2   5  -5    2.52    0.36
  -2   5  -5    3.84    0.53
  -2   5  -5    2.22    0.48
  -2   5  -5    4.05    0.71
  -3   5  -5   17.84    0.91
  -3   5  -5   17.17    1.02
  -3   5  -5   19.07    1.17
  -3   5  -5   18.12    1.30
  -3   5  -5   17.33    0.85
  -3   5  -5   16.44    1.07
  -3   5  -5   15.96    0.82
  -3   5  -5   16.41    0.88
  -4   5  -5    0.37    0.22
  -4   5  -5   -0.01    0.33
  -4   5  -5    0.34    0.26
  -4   5  -5    0.61    0.24
  -4   5  -5    0.22    0.29
  -4   5  -5    0.33    0.18
  -4   5  -5    0.19    0.33
  -5   5  -5   18.22    0.87
  -5   5  -5   16.33    0.80
  -5   5  -5   14.34    0.68
  -5   5  -5   16.58    0.74
   8   4  -5   48.63    1.76
   8   4  -5   48.85    1.81
   8   4  -5   50.21    1.70
   7   4  -5    2.77    0.32
   7   4  -5    3.86    0.43
   7   4  -5    3.18    0.30
   7   4  -5    2.78    0.38
   7   4  -5    3.01    0.32
   7   4  -5    2.18    0.32
   7   4  -5    3.04    0.36
   7   4  -5    3.30    0.33
   6   4  -5   43.62    1.63
   6   4  -5   44.59    1.86
   6   4  -5   40.02    1.88
   6   4  -5   43.12    1.66
   6   4  -5   40.23    1.63
   6   4  -5   41.86    1.79
   6   4  -5   43.79    1.76
   6   4  -5   40.99    1.72
   6   4  -5   44.28    1.57
   5   4  -5  158.33    5.57
   5   4  -5  162.02    5.59
   5   4  -5  157.52    5.19
   5   4  -5  150.99    4.97
   5   4  -5  161.88    4.91
   5   4  -5  150.28    5.80
   5   4  -5  162.13    5.23
   5   4  -5  156.75    5.27
   5   4  -5  151.30    5.09
   5   4  -5  148.18    5.39
   4   4  -5   11.15    0.63
   4   4  -5   11.81    0.60
   4   4  -5   11.80    0.69
   4   4  -5   12.06    0.82
   4   4  -5   11.98    0.63
  -4  -4   5   10.58    1.39
   3   4  -5  121.85    3.72
   3   4  -5  116.99    4.17
   3   4  -5  120.15    4.19
   3   4  -5  122.28    3.94
  -3  -4   5  111.30    6.97
   2   4  -5   12.64    0.56
  -2  -4   5   12.33    1.36
   1   4  -5   80.89    3.75
   1   4  -5   81.76    2.67
   0   4  -5  106.23    3.40
   0   4  -5  100.71    3.98
   0   4  -5  104.79    4.63
  -1   4  -5    1.64    0.49
  -1   4  -5    1.30    0.19
  -1   4  -5    1.75    0.45
  -1   4  -5    2.62    0.27
  -2   4  -5  127.69    5.59
  -2   4  -5  130.99    4.10
  -2   4  -5  131.20    4.83
  -2   4  -5  130.22    4.37
  -3   4  -5   34.38    1.36
  -3   4  -5   33.31    2.04
  -3   4  -5   34.07    1.55
  -3   4  -5   36.32    1.83
  -3   4  -5   35.35    1.48
  -3   4  -5   33.80    1.36
  -3   4  -5   36.59    2.02
  -3   4  -5   35.37    1.49
  -3   4  -5   36.36    1.41
  -3   4  -5   32.69    1.45
  -3   4  -5   33.33    1.67
  -4   4  -5   53.19    2.58
  -4   4  -5   52.17    2.35
  -4   4  -5   50.33    1.85
  -4   4  -5   51.91    1.90
  -4   4  -5   53.00    2.22
  -4   4  -5   48.83    2.07
  -4   4  -5   50.95    1.96
  -4   4  -5   53.92    2.07
  -4   4  -5   51.14    2.01
  -5   4  -5  131.78    4.26
  -5   4  -5  127.92    4.44
  -5   4  -5  136.61    4.42
  -5   4  -5  132.11    4.92
  -5   4  -5  131.86    4.45
  -6   4  -5    3.00    0.33
  -6   4  -5    2.24    0.31
   8   3  -5   32.12    1.23
   8   3  -5   30.50    1.25
  -8  -3   5   33.94    1.29
   7   3  -5    0.41    0.23
   7   3  -5    0.34    0.24
   7   3  -5    0.38    0.15
   7   3  -5    0.21    0.17
   7   3  -5    0.07    0.23
   7   3  -5    0.60    0.25
   7   3  -5    0.36    0.25
  -7  -3   5    0.46    0.30
   6   3  -5   20.47    1.03
   6   3  -5   20.32    1.14
   6   3  -5   20.96    0.97
   6   3  -5   22.21    1.13
   6   3  -5   21.41    1.03
   6   3  -5   23.00    0.97
   6   3  -5   20.64    1.10
   6   3  -5   22.01    0.97
   6   3  -5   22.45    1.17
   6   3  -5   21.37    1.11
  -6  -3   5   22.33    1.21
   5   3  -5    1.17    0.31
   5   3  -5    0.56    0.22
   5   3  -5    0.62    0.38
   5   3  -5    0.98    0.24
   5   3  -5    0.45    0.33
   5   3  -5    0.54    0.27
   5   3  -5    0.40    0.19
   5   3  -5    0.69    0.27
   5   3  -5    0.71    0.36
   5   3  -5    0.36    0.23
   4   3  -5   11.73    0.62
   4   3  -5   11.22    0.66
   4   3  -5   11.97    0.81
   4   3  -5   12.08    0.71
  -4  -3   5   11.62    1.38
   3   3  -5    2.13    0.28
   3   3  -5    2.78    0.32
  -3  -3   5    3.02    0.79
   2   3  -5   20.81    0.89
   2   3  -5   21.93    0.87
  -2  -3   5   20.54    1.78
   1   3  -5   13.19    0.57
   1   3  -5   14.83    1.13
  -1  -3   5   12.65    1.26
  -1  -3   5   15.20    1.33
   0   3  -5    7.85    0.39
   0   3  -5    8.91    0.87
  -1   3  -5    1.27    0.18
  -1   3  -5    0.37    0.31
  -2   3  -5    0.65    0.18
  -2   3  -5    0.74    0.35
  -2   3  -5    0.59    0.38
  -3   3  -5    3.62    0.36
  -3   3  -5    3.21    0.52
  -3   3  -5    3.36    0.40
  -3   3  -5    2.59    0.41
  -3   3  -5    3.04    0.56
  -4   3  -5    1.96    0.44
  -4   3  -5    2.61    0.47
  -4   3  -5    1.81    0.55
  -4   3  -5    2.29    0.45
  -4   3  -5    1.83    0.33
  -4   3  -5    2.27    0.51
  -4   3  -5    2.07    0.31
  -4   3  -5    1.75    0.49
  -4   3  -5    1.65    0.38
  -4   3  -5    2.48    0.40
  -4   3  -5    2.11    0.39
   4  -3   5    1.78    0.43
  -5   3  -5   12.74    0.71
  -5   3  -5   12.67    0.84
  -5   3  -5   13.12    0.76
  -5   3  -5   12.55    0.94
  -6   3  -5   13.18    0.86
  -6   3  -5   13.40    0.67
  -6   3  -5   12.70    0.78
  -7   3  -5    0.42    0.08
  -7   3  -5    0.48    0.17
   7  -3   5    0.29    0.20
   8   2  -5   19.82    0.75
   8   2  -5   19.10    0.81
  -8  -2   5   19.20    0.83
   7   2  -5   60.96    2.65
   7   2  -5   67.34    2.54
   7   2  -5   68.07    2.43
   7   2  -5   67.90    2.40
   7   2  -5   70.68    2.48
  -7  -2   5   69.94    2.73
   6   2  -5    4.47    0.55
   6   2  -5    4.30    0.48
   6   2  -5    3.63    0.38
   6   2  -5    4.69    0.57
   6   2  -5    3.96    0.43
   6   2  -5    4.64    0.51
  -6  -2   5    4.49    0.59
   5   2  -5  226.73    7.70
   5   2  -5  228.47    7.61
   5   2  -5  239.30    8.31
   5   2  -5  224.63    7.50
   5   2  -5  238.85    7.99
   5   2  -5  223.51    7.14
   5   2  -5  226.09    7.58
   5   2  -5  245.81    7.63
  -5  -2   5  221.92    8.39
   4   2  -5   35.61    1.62
   4   2  -5   36.21    1.41
   4   2  -5   36.87    1.51
  -4  -2   5   38.93    2.76
   3   2  -5   48.61    1.95
   3   2  -5   45.85    1.79
  -3  -2   5   49.79    3.28
   2   2  -5  470.57   16.87
   2   2  -5  487.36   21.52
  -2  -2   5  506.93   25.92
  -2  -2   5  500.26   26.76
   1   2  -5   21.15    0.93
   1   2  -5   21.02    1.52
  -1  -2   5   23.77    1.72
  -1  -2   5   23.21    1.75
   0   2  -5  302.07   13.39
   0  -2   5  311.09   16.44
   0  -2   5  287.40   15.74
  -1   2  -5  116.82    4.98
  -1   2  -5  119.50    6.77
  -2   2  -5   59.25    2.09
  -2   2  -5   61.03    2.83
  -3   2  -5  197.46    7.00
  -3   2  -5  207.59    8.15
  -3   2  -5  200.84    8.20
  -3   2  -5  202.17    6.59
  -4   2  -5    8.45    0.52
  -4   2  -5    9.42    0.79
  -4   2  -5    8.80    0.66
  -4   2  -5    8.61    0.85
  -4   2  -5    9.07    0.94
  -4   2  -5    9.79    0.64
   4  -2   5    8.81    0.77
  -5   2  -5  111.67    3.92
  -5   2  -5  111.28    3.83
  -5   2  -5  110.12    4.27
   5  -2   5  101.21    3.95
  -6   2  -5   18.19    1.02
  -6   2  -5   18.19    1.13
  -6   2  -5   18.10    0.98
   6  -2   5   19.48    1.06
  -7   2  -5    3.72    0.36
  -7   2  -5    3.12    0.42
   7  -2   5    3.50    0.41
   8   1  -5    9.94    0.47
   8   1  -5    9.11    0.49
   7   1  -5   21.18    0.99
   7   1  -5   21.33    0.98
  -7  -1   5   21.47    1.12
  -7  -1   5   20.42    0.93
  -7  -1   5   20.62    1.02
   6   1  -5    0.84    0.31
   6   1  -5    0.88    0.32
   6   1  -5    0.91    0.30
  -6  -1   5    0.25    0.29
  -6  -1   5    0.76    0.32
   5   1  -5   35.14    1.70
   5   1  -5   36.60    1.59
   5   1  -5   36.62    1.63
   5   1  -5   36.29    1.69
   5   1  -5   34.64    1.57
  -5  -1   5   35.76    1.71
  -5  -1   5   32.02    2.65
   4   1  -5    0.27    0.18
   4   1  -5    0.93    0.32
  -4  -1   5    0.42    0.40
  -4  -1   5    1.00    0.37
   3   1  -5   11.75    0.75
   3   1  -5   11.75    1.02
   3   1  -5   10.72    0.72
  -3  -1   5   11.89    1.26
   2   1  -5   56.57    2.30
   2   1  -5   59.66    2.67
   2   1  -5   58.36    3.12
  -2  -1   5   62.57    3.82
  -2  -1   5   60.95    3.85
   1   1  -5  154.00    6.37
   1   1  -5  147.18    7.06
  -1  -1   5  154.37    8.50
  -1  -1   5  159.68    8.70
   0   1  -5   22.53    1.02
   0   1  -5   22.22    1.37
   0  -1   5   21.98    1.53
   0  -1   5   19.15    1.44
  -1   1  -5    0.50    0.26
  -1   1  -5    0.84    0.16
  -1   1  -5    1.15    0.32
   1  -1   5    0.81    0.22
  -2   1  -5   56.33    2.44
  -2   1  -5   55.58    3.44
  -3   1  -5    7.15    0.51
  -3   1  -5    6.57    0.69
  -3   1  -5    7.03    0.86
  -4   1  -5    4.36    0.62
  -4   1  -5    3.71    0.43
  -5   1  -5   10.57    0.90
  -5   1  -5   11.09    0.81
   5  -1   5   10.70    0.84
  -6   1  -5    4.21    0.57
  -6   1  -5    4.04    0.58
   6  -1   5    5.04    0.62
  -7   1  -5    1.16    0.34
  -7   1  -5    1.09    0.34
   7  -1   5    1.69    0.35
  -8   1  -5    0.64    0.22
  -8   1  -5    0.55    0.19
   8   0  -5    0.19    0.12
   8   0  -5    0.13    0.13
   7   0  -5   34.78    1.49
   7   0  -5   37.36    1.47
  -7   0   5   37.40    1.64
  -7   0   5   38.11    1.39
   6   0  -5    9.71    0.72
  -6   0   5    9.37    0.67
  -6   0   5   10.92    0.80
  -6   0   5    9.25    0.71
   5   0  -5   28.70    1.39
   5   0  -5   28.92    1.38
   5   0  -5   29.71    1.57
  -5   0   5   29.25    1.49
  -5   0   5   26.50    1.28
   4   0  -5  115.29    5.11
  -4   0   5  118.57    6.73
  -4   0   5  114.74    4.49
   3   0  -5    3.55    0.52
   3   0  -5    3.44    0.63
  -3   0   5    3.93    0.81
   2   0  -5  191.46    9.13
   2   0  -5  214.99    8.50
  -2   0   5  193.00   11.46
  -2   0   5  209.82   11.09
   1   0  -5  207.83    9.56
   1   0  -5  220.54    8.85
  -1   0   5  215.22   11.92
  -1   0   5  214.62   11.56
   0   0  -5  116.27    5.32
   0   0  -5  121.79    4.86
   0   0   5  109.33    6.31
   0   0   5  118.04    6.56
  -1   0  -5  364.14   14.28
  -1   0  -5  356.92   19.02
  -1   0  -5  366.05   15.32
   1   0   5  359.06   19.04
   1   0   5  317.20   18.27
  -2   0  -5  139.08    5.40
  -2   0  -5  115.82    5.77
  -2   0  -5  132.83    7.23
  -3   0  -5  350.34   13.76
  -3   0  -5  323.39   18.33
  -4   0  -5  115.96    5.02
  -5   0  -5   32.59    1.76
   5   0   5   31.84    1.54
  -6   0  -5  276.80    9.88
  -6   0  -5  265.96   11.53
  -6   0  -5  284.26    9.41
   6   0   5  276.03    9.23
  -7   0  -5   49.71    2.23
  -7   0  -5   51.91    2.07
   7   0   5   52.44    2.12
  -8   0  -5   33.29    1.38
  -8   0  -5   35.95    1.53
   8   0   5   32.11    1.39
   7  -1  -5   36.92    1.44
  -7   1   5   37.14    1.37
  -7   1   5   38.67    1.63
   6  -1  -5   25.30    1.21
  -6   1   5   27.04    1.35
  -6   1   5   24.11    1.12
   5  -1  -5    8.44    0.71
   5  -1  -5   10.14    0.96
  -5   1   5    9.41    0.78
  -5   1   5    7.71    0.69
  -5   1   5    7.60    0.67
   4  -1  -5   75.36    3.62
  -4   1   5   76.09    3.14
   3  -1  -5   14.71    1.18
   3  -1  -5   15.71    1.12
  -3   1   5   13.70    0.92
  -3   1   5   14.59    1.11
  -3   1   5   15.61    1.38
   2  -1  -5   57.64    2.64
   2  -1  -5   52.89    2.80
  -2   1   5   57.16    2.63
  -2   1   5   46.80    3.53
  -2   1   5   55.53    3.44
   1  -1  -5   44.47    2.06
   1  -1  -5   44.44    2.26
  -1   1   5   38.26    2.82
  -1   1   5   44.74    2.08
  -1   1   5   45.29    2.78
   0  -1  -5    2.41    0.39
   0  -1  -5    2.31    0.29
   0   1   5    2.62    0.49
   0   1   5    2.30    0.29
  -1  -1  -5   20.18    1.02
  -1  -1  -5   20.89    1.18
   1   1   5   19.19    1.31
   1   1   5   19.95    1.34
   1   1   5   22.01    1.05
  -2  -1  -5    3.28    0.41
  -2  -1  -5    4.39    0.42
  -2  -1  -5    3.13    0.33
   2   1   5    3.60    0.36
  -3  -1  -5   44.94    2.23
  -3  -1  -5   44.49    2.10
  -3  -1  -5   43.70    2.74
   3   1   5   46.63    2.17
  -4  -1  -5   10.11    0.76
   4   1   5    8.55    0.78
  -5  -1  -5    2.45    0.47
   5   1   5    1.14    0.36
  -6  -1  -5    5.07    0.73
  -6  -1  -5    6.69    0.68
  -6  -1  -5    5.05    0.66
   6   1   5    5.34    0.76
   6   1   5    6.17    0.66
  -7  -1  -5    2.67    0.44
  -7  -1  -5    2.69    0.48
   7   1   5    2.09    0.41
  -8  -1  -5    6.24    0.52
  -8  -1  -5    5.99    0.59
   8   1   5    6.57    0.58
  -9  -1  -5    2.63    0.30
   7  -2  -5    5.18    0.39
  -7   2   5    5.84    0.37
   6  -2  -5   71.98    2.63
  -6   2   5   75.81    2.55
  -6   2   5   71.21    2.73
  -6   2   5   73.72    2.95
   5  -2  -5    3.88    0.51
  -5   2   5    4.29    0.51
  -5   2   5    4.97    0.64
  -5   2   5    3.12    0.48
   4  -2  -5   75.28    2.80
  -4   2   5   77.39    3.16
  -4   2   5   75.72    3.59
  -4   2   5   68.19    2.97
  -4   2   5   74.53    2.88
  -4   2   5   75.07    2.73
  -3   2   5   91.79    4.21
  -3   2   5   89.97    3.68
   2  -2  -5    0.06    0.24
   2  -2  -5    1.57    0.40
  -2   2   5    0.14    0.22
  -2   2   5    0.54    0.45
  -2   2   5    0.95    0.46
   1  -2  -5  252.24   10.58
   1  -2  -5  243.47   11.23
  -1   2   5  265.55   10.62
  -1   2   5  258.54   13.63
   0  -2  -5   47.90    2.16
   0  -2  -5   47.74    2.34
   0   2   5   46.76    2.80
   0   2   5   45.09    2.26
   0   2   5   48.54    2.17
   0   2   5   43.64    2.90
  -1  -2  -5  147.64    6.33
  -1  -2  -5  151.30    6.80
   1   2   5  149.86    6.61
   1   2   5  147.08    8.13
   1   2   5  166.10    6.36
  -2  -2  -5  295.48   12.55
  -2  -2  -5  307.79   13.40
   2   2   5  290.14   13.06
   2   2   5  337.76   12.57
  -3  -2  -5    1.71    0.35
   3   2   5    2.98    0.36
   3   2   5    1.55    0.32
  -4  -2  -5  192.36    8.39
   4   2   5  182.07    7.90
   5   2   5   56.50    2.77
  -6  -2  -5   49.49    2.24
   6   2   5   49.07    2.03
   6   2   5   44.87    2.05
   6   2   5   44.58    2.40
  -7  -2  -5  173.36    6.44
  -7  -2  -5  175.70    6.11
   7   2   5  172.07    6.00
  -8  -2  -5    0.27    0.27
  -8  -2  -5    0.26    0.28
   8   2   5    0.07    0.24
  -9  -2  -5  110.84    3.99
  -9  -2  -5  118.27    4.21
   9   2   5  123.89    3.94
   9   2   5  113.13    3.91
   6  -3  -5   63.60    2.19
  -6   3   5   57.17    2.43
  -6   3   5   59.89    2.26
  -6   3   5   60.92    2.10
  -6   3   5   62.95    2.22
   5  -3  -5    0.02    0.25
  -5   3   5    0.12    0.21
  -5   3   5    0.11    0.25
  -5   3   5    0.23    0.29
   4  -3  -5   35.97    1.64
  -4   3   5   37.40    1.64
  -4   3   5   39.71    1.90
  -4   3   5   35.26    1.74
   3  -3  -5   45.24    2.25
  -3   3   5   45.55    2.18
  -3   3   5   45.68    2.33
   2  -3  -5   10.37    0.90
  -2   3   5   10.40    0.83
  -2   3   5   11.78    0.88
   1  -3  -5   53.46    2.51
   1  -3  -5   50.85    2.70
  -1   3   5   57.57    3.36
  -1   3   5   52.39    2.73
  -1   3   5   52.52    2.56
   0  -3  -5    1.40    0.34
   0  -3  -5    2.60    0.48
   0   3   5    1.83    0.44
   0   3   5    1.87    0.35
   0   3   5    1.69    0.36
  -1  -3  -5   35.75    2.01
   1   3   5   39.76    1.96
   1   3   5   42.02    1.87
  -2  -3  -5   74.71    3.64
   2   3   5   83.02    3.34
   2   3   5   71.61    3.49
  -3  -3  -5   15.40    1.08
   3   3   5   16.63    1.03
   3   3   5   16.74    0.92
  -4  -3  -5   66.35    3.31
   4   3   5   64.31    2.65
   4   3   5   67.64    3.25
   4   3   5   65.50    2.98
  -5  -3  -5   17.39    1.26
   5   3   5   15.82    1.17
   5   3   5   15.58    1.03
  -6  -3  -5    8.41    0.84
   6   3   5    7.83    0.91
   6   3   5    7.34    0.81
   6   3   5    7.64    0.74
   6   3   5    7.31    0.68
  -7  -3  -5    3.57    0.58
   7   3   5    4.01    0.61
   7   3   5    4.37    0.56
   7   3   5    4.77    0.57
   7   3   5    4.54    0.59
  -8  -3  -5    2.18    0.34
  -8  -3  -5    1.72    0.38
  -8  -3  -5    2.39    0.42
   8   3   5    1.82    0.34
   8   3   5    1.57    0.37
  -9  -3  -5    5.07    0.43
  -9  -3  -5    4.68    0.39
  -9  -3  -5    5.16    0.46
   9   3   5    4.92    0.44
   9   3   5    5.78    0.42
   6  -4  -5   15.49    0.69
  -6   4   5   16.88    0.66
  -6   4   5   16.07    0.67
   5  -4  -5   60.02    2.16
  -5   4   5   57.54    2.08
  -5   4   5   57.96    2.26
  -5   4   5   59.87    2.16
  -5   4   5   53.97    2.39
   4  -4  -5   11.04    0.80
  -4   4   5   10.84    0.89
  -4   4   5   11.16    0.83
  -4   4   5   10.48    0.80
  -4   4   5   10.03    0.75
   3  -4  -5   98.24    4.17
   3  -4  -5   96.45    3.61
  -3   4   5  102.74    3.99
  -3   4   5   88.22    3.52
  -3   4   5   93.60    3.39
  -3   4   5   90.68    3.67
  -3   4   5   89.72    4.08
   2  -4  -5   30.67    1.79
  -2   4   5   30.37    1.61
  -2   4   5   32.07    1.70
   1  -4  -5  183.20    7.35
  -1   4   5  166.67    6.01
  -1   4   5  189.03    8.15
  -1   4   5  186.01    6.69
  -1   4   5  170.33    7.32
  -1   4   5  177.76    7.52
   0  -4  -5   92.94    4.61
   0  -4  -5   98.15    4.28
   0   4   5   96.49    4.28
   0   4   5   97.68    3.44
   0   4   5  105.40    4.62
   0   4   5   96.73    4.25
  -1  -4  -5   -0.06    0.17
  -1  -4  -5    0.25    0.29
   1   4   5    0.25    0.17
  -2  -4  -5  167.17    7.44
  -2  -4  -5  151.48    6.55
   2   4   5  173.96    7.17
   2   4   5  161.97    6.80
  -3  -4  -5   42.29    2.35
   3   4   5   47.56    2.21
   3   4   5   41.60    1.97
   3   4   5   42.74    1.63
  -4  -4  -5   42.89    2.43
   4   4   5   43.37    1.68
   4   4   5   44.90    2.27
   4   4   5   41.14    1.96
  -5  -4  -5  140.31    6.54
   5   4   5  130.16    4.68
   5   4   5  136.65    5.26
   5   4   5  135.64    5.75
   5   4   5  132.98    5.14
   5   4   5  143.98    6.37
   6   4   5    7.02    0.93
   6   4   5    6.53    0.75
   6   4   5    9.35    0.99
   6   4   5    8.47    0.80
   6   4   5    8.31    0.85
   6   4   5    8.46    0.80
   6   4   5    7.96    0.66
   6   4   5    8.28    0.59
   6   4   5    8.40    0.71
   6   4   5    8.52    0.87
  -7  -4  -5  152.66    5.97
   7   4   5  157.06    5.49
   7   4   5  155.15    6.01
   7   4   5  163.77    5.78
   7   4   5  168.01    6.05
   7   4   5  154.96    5.23
   7   4   5  156.74    5.45
   7   4   5  156.54    5.94
  -8  -4  -5   46.47    2.08
  -8  -4  -5   48.87    1.99
   8   4   5   48.68    1.80
   8   4   5   46.08    1.86
   8   4   5   47.56    1.93
   8   4   5   44.10    2.10
   8   4   5   49.06    2.07
  -9  -4  -5   13.60    0.65
  -9  -4  -5   14.25    0.79
  -9  -4  -5   14.41    0.75
   9   4   5   13.80    0.73
   9   4   5   15.63    0.69
  -5   5   5   33.84    1.20
  -5   5   5   33.14    1.33
  -5   5   5   33.34    1.23
  -4   5   5    7.23    0.64
  -4   5   5    8.09    0.55
  -4   5   5    6.94    0.67
  -4   5   5    6.93    0.59
   3  -5  -5  118.44    4.98
  -3   5   5  113.31    4.35
  -3   5   5  115.48    4.02
  -3   5   5  118.97    4.66
  -3   5   5  111.89    4.08
   2  -5  -5   62.04    2.99
  -2   5   5   59.60    2.30
  -2   5   5   58.37    2.38
  -2   5   5   60.59    2.76
  -2   5   5   59.32    2.37
  -2   5   5   60.09    2.60
  -2   5   5   52.72    2.64
   1  -5  -5   43.58    2.34
  -1   5   5   41.91    2.02
  -1   5   5   41.13    1.69
  -1   5   5   40.23    1.80
  -1   5   5   38.63    2.43
  -1   5   5   43.58    1.77
  -1   5   5   37.61    1.76
  -1   5   5   42.21    1.97
  -1   5   5   42.27    2.33
   0  -5  -5   58.08    2.92
   0   5   5   58.54    3.03
   0   5   5   58.67    2.94
   0   5   5   57.32    2.15
   0   5   5   56.72    2.47
  -1  -5  -5    8.62    0.83
  -1  -5  -5    6.94    0.93
   1   5   5    9.06    0.67
   1   5   5    9.52    0.79
   1   5   5    9.00    0.60
  -2  -5  -5  193.56    8.28
  -2  -5  -5  198.08    9.32
   2   5   5  209.07    6.71
   2   5   5  218.32    8.98
   2   5   5  210.17    7.48
  -3  -5  -5    2.52    0.57
   3   5   5    5.00    0.58
   3   5   5    4.06    0.48
   3   5   5    2.99    0.34
  -4  -5  -5   38.82    2.41
   4   5   5   40.76    2.15
   4   5   5   41.53    1.87
   4   5   5   39.20    1.50
   4   5   5   39.33    1.57
   5   5   5   26.69    1.52
   5   5   5   25.46    1.66
   5   5   5   26.46    1.46
   5   5   5   23.70    1.18
   5   5   5   26.02    1.13
   5   5   5   26.31    1.34
   6   5   5    1.71    0.45
   6   5   5    2.61    0.50
   6   5   5    1.70    0.49
   6   5   5    2.03    0.38
   6   5   5    1.96    0.63
   6   5   5    1.97    0.59
   6   5   5    1.77    0.47
   6   5   5    2.18    0.39
   6   5   5    2.04    0.35
   6   5   5    1.94    0.55
   6   5   5    5.20    0.71
   6   5   5    1.68    0.51
   6   5   5    1.90    0.38
   7   5   5   22.55    1.10
   7   5   5   22.22    1.53
   7   5   5   22.97    1.42
   7   5   5   22.07    1.33
   7   5   5   23.00    1.23
   7   5   5   23.43    1.12
   7   5   5   23.91    1.28
   7   5   5   22.80    1.30
   7   5   5   24.94    1.43
  -8  -5  -5    5.06    0.61
   8   5   5    4.23    0.53
   8   5   5    5.80    0.46
   8   5   5    5.27    0.55
   8   5   5    5.43    0.58
   8   5   5    6.71    0.58
   8   5   5    6.36    0.67
  -9  -5  -5    0.91    0.26
  -9  -5  -5    1.81    0.31
  -9  -5  -5    0.95    0.22
   9   5   5    0.83    0.15
   9   5   5    0.97    0.25
   9   5   5    0.65    0.23
  -4   6   5   13.21    0.65
  -4   6   5   13.01    0.70
   3  -6  -5   10.07    0.96
  -3   6   5   12.13    0.76
  -3   6   5   11.69    0.60
  -3   6   5   11.36    0.81
  -3   6   5   10.95    0.83
  -3   6   5   11.53    0.86
   2  -6  -5   67.10    3.14
  -2   6   5   60.73    2.66
  -2   6   5   68.13    2.90
  -2   6   5   60.12    2.75
  -2   6   5   64.24    2.41
  -2   6   5   61.97    2.46
  -2   6   5   59.01    2.45
  -2   6   5   62.72    2.33
   1  -6  -5    3.62    0.74
  -1   6   5    4.24    0.51
  -1   6   5    3.31    0.63
  -1   6   5    3.42    0.67
  -1   6   5    3.10    0.40
  -1   6   5    2.34    0.53
  -1   6   5    3.78    0.52
  -1   6   5    3.57    0.58
  -1   6   5    3.63    0.55
  -1   6   5    3.73    0.54
   0  -6  -5   66.05    3.45
   0   6   5   65.40    3.54
   0   6   5   70.23    2.65
   0   6   5   67.23    2.81
   0   6   5   66.85    2.66
   0   6   5   68.91    2.58
   0   6   5   70.07    3.09
   0   6   5   70.22    2.67
   0   6   5   68.14    2.44
   0   6   5   67.92    2.82
   0   6   5   69.08    2.53
   0   6   5   71.77    2.98
  -1  -6  -5   25.98    1.86
   1   6   5   28.04    1.28
   1   6   5   27.02    1.12
   1   6   5   27.97    1.68
   1   6   5   26.71    1.37
   1   6   5   28.03    1.43
   1   6   5   26.89    1.45
   1   6   5   29.23    1.26
  -2  -6  -5   32.63    2.12
  -2  -6  -5   32.44    2.01
   2   6   5   35.37    1.68
   2   6   5   34.80    1.41
   2   6   5   34.10    1.36
   2   6   5   34.81    1.87
   3   6   5  236.58    7.70
   3   6   5  234.61   10.29
   3   6   5  241.56    7.31
   3   6   5  234.80    8.64
   4   6   5    1.37    0.26
   4   6   5    1.31    0.50
   4   6   5    1.45    0.26
   4   6   5    1.63    0.40
   4   6   5    2.05    0.30
   4   6   5    0.87    0.40
   4   6   5    1.32    0.40
   4   6   5    3.17    0.54
   4   6   5    1.62    0.33
   4   6   5    1.01    0.27
   4   6   5    1.11    0.38
   5   6   5   79.65    2.78
   5   6   5   79.34    3.18
   5   6   5   76.21    3.14
   5   6   5   75.84    2.85
   5   6   5   80.56    2.90
   5   6   5   75.19    3.85
   5   6   5   75.73    3.36
   5   6   5   78.97    2.91
   5   6   5   78.25    2.69
   5   6   5   82.50    3.14
   5   6   5   80.25    3.40
   5   6   5   77.46    2.83
   5   6   5   77.52    3.32
   6   6   5   55.08    2.54
   6   6   5   55.07    2.27
   6   6   5   55.48    2.18
   6   6   5   53.52    2.18
   6   6   5   54.00    2.04
   6   6   5   56.87    2.38
   6   6   5   53.57    2.43
   6   6   5   53.69    2.47
   6   6   5   55.75    2.59
   6   6   5   57.04    2.22
   6   6   5   55.98    2.66
   6   6   5   54.05    2.04
   7   6   5    1.23    0.42
   7   6   5    1.09    0.35
   7   6   5    0.70    0.47
   7   6   5    0.93    0.49
   7   6   5    1.36    0.30
   7   6   5    1.39    0.34
   7   6   5    1.01    0.27
   7   6   5    0.36    0.42
   7   6   5    0.92    0.21
   7   6   5    0.22    0.42
   7   6   5    1.39    0.41
   7   6   5    1.45    0.41
  -8  -6  -5   83.57    3.27
   8   6   5   81.36    2.87
   8   6   5   81.44    2.70
   8   6   5   84.46    3.18
   8   6   5   77.79    3.10
   8   6   5   82.22    2.92
   8   6   5   85.33    3.26
   8   6   5   84.03    2.88
  -9  -6  -5   11.69    0.58
  -9  -6  -5   10.45    0.62
  -9  -6  -5   10.36    0.62
   9   6   5   10.33    0.59
   9   6   5   11.22    0.55
   9   6   5   12.36    0.67
  -3   7   5   11.49    0.66
  -3   7   5   11.33    0.59
  -3   7   5   11.01    0.60
   2  -7  -5   52.92    2.59
  -2   7   5   54.35    2.00
  -2   7   5   53.74    2.01
  -2   7   5   56.34    2.05
  -2   7   5   53.39    2.35
  -2   7   5   53.37    2.21
  -2   7   5   54.06    2.27
  -2   7   5   47.60    2.03
  -2   7   5   50.86    1.92
   1  -7  -5    1.96    0.59
  -1   7   5    2.50    0.40
  -1   7   5    2.73    0.55
  -1   7   5    2.46    0.38
  -1   7   5    3.76    0.66
  -1   7   5    0.88    0.41
  -1   7   5    2.37    0.44
  -1   7   5    2.30    0.43
  -1   7   5    2.22    0.43
   0  -7  -5   52.11    2.90
   0   7   5   51.63    2.13
   0   7   5   49.54    2.48
   0   7   5   54.85    2.17
   0   7   5   50.18    2.08
   0   7   5   49.06    2.02
   0   7   5   51.67    2.33
   0   7   5   52.03    2.12
   0   7   5   55.86    2.48
  -1  -7  -5   22.32    1.79
   1   7   5   21.97    1.12
   1   7   5   21.01    1.12
   1   7   5   22.82    1.43
   1   7   5   21.28    1.32
   1   7   5   21.66    1.09
   1   7   5   21.89    1.09
   1   7   5   21.81    1.27
   1   7   5   21.43    1.16
   1   7   5   19.89    1.32
  -2  -7  -5   40.64    2.46
   2   7   5   40.45    1.98
   2   7   5   43.20    2.11
   2   7   5   42.81    1.64
   2   7   5   41.46    1.68
   2   7   5   41.97    2.02
   2   7   5   39.60    1.74
   2   7   5   43.78    1.80
   2   7   5   42.05    2.26
   2   7   5   40.21    1.63
   2   7   5   42.49    1.93
   3   7   5   58.99    2.22
   3   7   5   62.65    2.18
   3   7   5   63.46    2.37
   3   7   5   63.20    2.58
   3   7   5   61.98    2.71
   3   7   5   59.91    3.02
   3   7   5   62.48    2.28
   3   7   5   59.16    2.61
   3   7   5   61.56    2.35
   3   7   5   63.80    2.79
   4   7   5    0.35    0.18
   4   7   5    1.56    0.29
   4   7   5    0.80    0.38
   4   7   5    0.03    0.20
   4   7   5    0.84    0.39
   4   7   5    0.12    0.32
   4   7   5    0.31    0.36
   4   7   5    0.49    0.22
   4   7   5    0.37    0.18
   4   7   5    0.27    0.40
   5   7   5   79.41    2.95
   5   7   5   77.48    3.24
   5   7   5   81.86    3.48
   5   7   5   82.61    3.10
   5   7   5   82.86    2.93
   5   7   5   77.59    2.86
   5   7   5   79.77    3.27
   5   7   5   83.94    3.46
   5   7   5   80.43    3.47
   5   7   5   79.91    2.75
   5   7   5   81.03    3.00
   6   7   5   34.88    1.51
   6   7   5   38.21    1.92
   6   7   5   34.57    1.41
   6   7   5   38.08    1.56
   6   7   5   32.32    1.80
   6   7   5   36.29    1.65
   6   7   5   36.08    1.94
   6   7   5   35.04    1.77
   6   7   5   32.94    1.77
   6   7   5   34.89    1.51
   6   7   5   34.25    1.52
   7   7   5    8.28    0.53
   7   7   5    8.63    0.86
   7   7   5    7.48    0.64
   7   7   5    8.52    0.79
   7   7   5    6.83    0.67
   7   7   5    8.08    0.59
   7   7   5    7.83    0.58
   7   7   5    8.94    0.83
   7   7   5    9.64    0.94
   7   7   5    8.70    0.65
   7   7   5    8.38    0.90
  -8  -7  -5   37.89    1.71
   8   7   5   41.17    1.54
   8   7   5   41.22    1.72
   8   7   5   38.82    1.71
   8   7   5   34.52    1.39
   8   7   5   39.63    1.47
   8   7   5   39.57    1.63
   8   7   5   35.10    1.73
   8   7   5   38.37    1.49
  -9  -7  -5    0.14    0.18
   9   7   5    0.31    0.14
   9   7   5    0.22    0.14
   9   7   5    0.09    0.17
  -2   8   5    7.33    0.44
  -2   8   5    6.76    0.40
  -2   8   5    6.46    0.47
  -2   8   5    7.11    0.48
  -1   8   5   18.93    0.87
  -1   8   5   19.53    0.89
  -1   8   5   18.90    1.07
  -1   8   5   18.99    1.05
  -1   8   5   18.35    1.11
  -1   8   5   18.93    0.89
  -1   8   5   19.35    0.95
   0  -8  -5    1.19    0.59
   0   8   5    1.06    0.29
   0   8   5    2.01    0.46
   0   8   5    1.65    0.31
   0   8   5    0.96    0.29
   0   8   5    1.84    0.40
   0   8   5    1.57    0.44
   0   8   5    1.06    0.29
   0   8   5    1.50    0.45
  -1  -8  -5   52.67    3.05
   1   8   5   62.68    2.21
   1   8   5   63.14    2.21
   1   8   5   59.02    2.71
   1   8   5   60.19    2.27
   1   8   5   55.74    2.32
   1   8   5   60.79    2.67
   1   8   5   58.21    2.29
   1   8   5   59.71    2.52
  -2  -8  -5   19.42    1.72
   2   8   5   20.99    1.36
   2   8   5   21.25    1.01
   2   8   5   19.84    1.10
   2   8   5   22.38    1.11
   2   8   5   23.22    1.02
   2   8   5   20.93    1.31
   2   8   5   20.18    1.32
   2   8   5   18.89    1.18
   2   8   5   20.74    0.97
   3   8   5   27.17    1.54
   3   8   5   27.19    1.15
   3   8   5   28.00    1.55
   3   8   5   28.96    1.20
   3   8   5   27.25    1.45
   3   8   5   25.69    1.25
   3   8   5   27.12    1.15
   3   8   5   28.48    1.33
   3   8   5   28.04    1.61
   4   8   5   23.08    1.11
   4   8   5   24.21    1.45
   4   8   5   22.14    1.03
   4   8   5   22.59    1.45
   4   8   5   24.31    1.07
   4   8   5   23.65    1.33
   4   8   5   24.55    1.03
   4   8   5   24.52    1.24
   4   8   5   26.00    1.46
   5   8   5    0.76    0.24
   5   8   5    0.21    0.38
   5   8   5    1.24    0.43
   5   8   5    0.86    0.23
   5   8   5    0.77    0.25
   5   8   5    0.99    0.42
   5   8   5    0.96    0.38
   5   8   5    1.89    0.53
   5   8   5    0.97    0.25
   6   8   5   80.04    2.97
   6   8   5   86.60    2.78
   6   8   5   83.64    3.27
   6   8   5   82.62    2.88
   6   8   5   81.47    2.99
   6   8   5   83.03    3.29
   6   8   5   81.09    3.45
   6   8   5   83.64    3.47
   6   8   5   79.51    2.92
   6   8   5   83.02    3.36
   7   8   5   11.11    0.63
   7   8   5   11.31    0.64
   7   8   5   10.20    0.85
   7   8   5   11.73    0.88
   7   8   5   11.72    0.92
   7   8   5   11.06    0.80
   7   8   5   10.93    0.61
   7   8   5   11.28    0.78
   7   8   5    9.48    0.79
   7   8   5   10.36    0.65
  -8  -8  -5   17.80    0.91
   8   8   5   17.24    0.75
   8   8   5   17.63    0.91
   8   8   5   17.23    0.87
   8   8   5   18.50    0.74
   8   8   5   17.69    0.82
   8   8   5   18.39    0.91
   8   8   5   18.23    0.74
   0   9   5    2.58    0.37
   0   9   5    2.76    0.40
   0   9   5    2.93    0.30
   0   9   5    3.47    0.39
   0   9   5    3.21    0.29
   0   9   5    3.11    0.32
   1   9   5   50.64    2.11
   1   9   5   49.50    1.92
   1   9   5   49.12    1.79
   1   9   5   53.95    1.95
   1   9   5   50.19    2.24
   1   9   5   54.80    1.80
   1   9   5   48.97    2.25
   2   9   5    9.64    0.78
   2   9   5    8.73    0.54
   2   9   5    9.37    0.52
   2   9   5    9.96    0.86
   2   9   5   10.31    0.84
   2   9   5    8.78    0.62
   2   9   5    9.79    0.57
   2   9   5    9.63    0.70
   3   9   5   29.21    1.26
   3   9   5   29.20    1.56
   3   9   5   29.28    1.14
   3   9   5   26.80    1.51
   3   9   5   27.38    1.16
   3   9   5   28.86    1.11
   3   9   5   31.10    1.47
   3   9   5   29.27    1.53
   3   9   5   29.77    1.32
   4   9   5   38.90    1.40
   4   9   5   37.46    1.75
   4   9   5   38.54    1.83
   4   9   5   39.79    1.40
   4   9   5   36.79    1.59
   4   9   5   38.92    1.89
   4   9   5   37.40    1.86
   4   9   5   38.02    1.52
   4   9   5   36.19    1.45
   5   9   5    0.99    0.39
   5   9   5    0.59    0.36
   5   9   5    0.49    0.19
   5   9   5    1.13    0.38
   5   9   5    0.57    0.19
   5   9   5    0.19    0.34
   5   9   5    0.44    0.18
   5   9   5    0.27    0.17
   5   9   5    0.71    0.30
   6   9   5   47.28    1.59
   6   9   5   44.71    1.92
   6   9   5   44.55    2.04
   6   9   5   44.96    1.57
   6   9   5   42.53    1.74
   6   9   5   44.51    2.02
   6   9   5   45.59    1.70
   6   9   5   45.11    1.93
   7   9   5    3.70    0.39
   7   9   5    3.77    0.30
   7   9   5    4.48    0.45
   7   9   5    3.72    0.46
   7   9   5    3.61    0.25
   7   9   5    3.31    0.29
   7   9   5    2.76    0.43
   2  10   5   17.59    0.89
   2  10   5   18.03    0.93
   2  10   5   17.41    0.74
   2  10   5   17.85    0.79
   3  10   5    1.15    0.31
   3  10   5    0.73    0.25
   3  10   5    1.07    0.29
   3  10   5    1.05    0.19
   4  10   5   12.41    0.68
   4  10   5   12.65    0.75
   4  10   5   11.56    0.57
   4  10   5   11.57    0.77
   4  10   5   12.77    0.76
   5  10   5    5.65    0.45
   5  10   5    4.45    0.46
   5  10   5    5.19    0.52
   5  10   5    4.60    0.33
   5  10   5    5.03    0.50
   6  10   5    4.70    0.30
   6  10   5    4.89    0.39
   0   8  -6    0.37    0.13
  -1   8  -6   17.42    0.69
   6   7  -6   65.33    2.20
   6   7  -6   67.84    2.50
   6   7  -6   65.87    2.31
   6   7  -6   63.70    2.04
   5   7  -6    0.50    0.13
   5   7  -6    0.34    0.23
   5   7  -6    0.45    0.21
   5   7  -6    0.26    0.13
   4   7  -6   61.74    2.49
   4   7  -6   60.15    1.94
   4   7  -6   63.45    2.33
   3   7  -6   32.68    1.42
   3   7  -6   32.10    1.06
   2   7  -6   14.01    0.53
   2   7  -6   13.99    0.85
   1   7  -6   48.58    1.90
   1   7  -6   47.75    1.56
   0   7  -6   12.85    1.14
   0   7  -6   13.20    0.56
   0   7  -6   13.18    0.95
   0   7  -6   12.38    0.80
   0   7  -6   13.63    0.58
  -1   7  -6   53.12    1.98
  -1   7  -6   52.08    1.73
  -1   7  -6   53.26    1.78
  -1   7  -6   49.35    2.12
  -1   7  -6   52.27    1.85
  -2   7  -6    6.15    0.38
  -2   7  -6    7.09    0.57
  -2   7  -6    6.41    0.51
  -3   7  -6    5.74    0.30
   7   6  -6    2.29    0.28
   7   6  -6    2.44    0.19
   7   6  -6    2.39    0.27
   7   6  -6    2.87    0.22
   7   6  -6    2.09    0.26
   7   6  -6    2.60    0.19
   6   6  -6    5.03    0.50
   6   6  -6    5.90    0.36
   6   6  -6    6.35    0.55
   6   6  -6    5.62    0.35
   6   6  -6    6.54    0.51
   6   6  -6    6.48    0.36
   6   6  -6    5.72    0.37
   5   6  -6   17.63    0.72
   5   6  -6   17.14    1.01
   5   6  -6   18.35    0.73
   5   6  -6   17.67    0.96
   5   6  -6   17.55    0.76
   5   6  -6   17.15    0.95
   5   6  -6   17.06    0.75
   4   6  -6    1.33    0.20
   4   6  -6    1.26    0.33
   4   6  -6    1.46    0.19
   4   6  -6    1.04    0.33
   4   6  -6    1.55    0.21
   3   6  -6   14.29    0.58
   3   6  -6   15.25    0.91
   3   6  -6   15.30    0.63
   3   6  -6   15.11    0.99
   3   6  -6   15.50    0.96
   3   6  -6   14.79    0.61
   2   6  -6   29.60    1.08
   2   6  -6   30.73    1.04
   2   6  -6   29.17    1.37
   2   6  -6   30.20    1.41
   2   6  -6   29.64    1.03
   1   6  -6    6.24    0.37
   1   6  -6    6.71    0.67
   1   6  -6    6.27    0.61
   1   6  -6    5.80    0.34
   1   6  -6    5.96    0.37
   0   6  -6   25.26    1.01
   0   6  -6   23.34    1.21
   0   6  -6   26.17    1.72
   0   6  -6   26.29    1.48
   0   6  -6   23.54    0.96
   0   6  -6   24.10    0.93
  -1   6  -6    0.90    0.43
  -1   6  -6    0.72    0.20
  -1   6  -6    0.67    0.45
  -1   6  -6    1.11    0.35
  -1   6  -6    0.62    0.19
  -1   6  -6    0.57    0.20
  -1   6  -6    0.54    0.18
  -2   6  -6   39.27    1.46
  -2   6  -6   41.78    1.45
  -2   6  -6   38.11    2.11
  -2   6  -6   39.01    1.50
  -2   6  -6   38.34    1.65
  -2   6  -6   41.70    1.81
  -2   6  -6   38.05    1.51
  -3   6  -6    1.20    0.34
  -3   6  -6    1.04    0.21
  -3   6  -6    1.53    0.23
  -3   6  -6    1.17    0.21
  -3   6  -6    1.18    0.31
  -4   6  -6   11.56    0.48
  -4   6  -6   10.45    0.59
  -4   6  -6   10.48    0.49
   7   5  -6    0.25    0.18
   7   5  -6    0.36    0.14
   7   5  -6    0.27    0.12
   7   5  -6    0.22    0.13
   7   5  -6    0.26    0.19
   7   5  -6    0.34    0.18
   6   5  -6   40.26    1.57
   6   5  -6   41.80    1.75
   6   5  -6   43.02    1.54
   6   5  -6   41.62    1.72
   6   5  -6   41.24    1.83
   6   5  -6   44.16    1.49
   6   5  -6   43.12    1.57
   5   5  -6   42.23    1.51
   5   5  -6   43.54    1.78
   5   5  -6   42.27    1.82
   5   5  -6   43.98    1.62
   5   5  -6   41.85    1.92
   5   5  -6   42.61    1.60
   5   5  -6   41.70    1.57
   5   5  -6   41.74    1.81
   4   5  -6   11.05    0.59
   4   5  -6   11.98    0.61
   4   5  -6   11.24    0.81
   4   5  -6   11.60    0.62
   4   5  -6   10.82    0.87
   4   5  -6   11.82    0.58
   4   5  -6   11.37    0.86
   3   5  -6   80.19    2.98
   3   5  -6   79.85    2.68
   3   5  -6   78.50    2.62
   3   5  -6   78.20    2.54
   3   5  -6   76.22    2.89
   3   5  -6   81.15    3.24
   2   5  -6   11.16    0.88
   2   5  -6   11.12    0.50
   2   5  -6   10.52    0.50
   2   5  -6   10.07    0.79
   2   5  -6    9.22    0.70
   2   5  -6   10.04    0.48
   1   5  -6  124.43    4.34
   1   5  -6  124.52    4.44
   1   5  -6  123.30    3.98
   1   5  -6  126.31    5.49
   1   5  -6  127.84    4.06
   1   5  -6  121.95    3.82
   1   5  -6  122.53    4.25
   0   5  -6   56.31    1.84
   0   5  -6   55.92    1.97
   0   5  -6   54.60    2.18
   0   5  -6   54.19    2.48
   0   5  -6   56.59    1.95
   0   5  -6   56.96    2.91
   0   5  -6   56.20    2.18
  -1   5  -6   40.03    1.42
  -1   5  -6   39.85    2.27
  -1   5  -6   40.85    1.50
  -1   5  -6   39.60    1.71
  -1   5  -6   39.31    1.69
  -1   5  -6   39.90    1.94
  -1   5  -6   40.74    1.53
  -1   5  -6   37.41    1.51
  -2   5  -6   88.78    4.01
  -2   5  -6   86.55    3.12
  -2   5  -6   83.06    2.98
  -2   5  -6   85.14    3.00
  -2   5  -6   89.31    3.04
  -2   5  -6   83.91    2.97
  -2   5  -6   89.00    3.43
  -2   5  -6   84.59    2.83
  -3   5  -6    4.24    0.65
  -3   5  -6    5.77    0.47
  -3   5  -6    3.61    0.42
  -3   5  -6    4.95    0.41
  -3   5  -6    5.58    0.61
  -3   5  -6    4.82    0.48
  -3   5  -6    5.55    0.66
  -3   5  -6    4.69    0.46
  -4   5  -6   72.45    2.67
  -4   5  -6   78.90    2.62
  -4   5  -6   77.98    2.66
  -4   5  -6   76.67    2.71
  -4   5  -6   71.98    3.41
  -4   5  -6   75.67    2.86
  -5   5  -6   55.43    1.87
  -5   5  -6   54.60    2.07
  -5   5  -6   53.14    1.92
   8   4  -6    1.19    0.17
  -8  -4   6    0.97    0.18
   7   4  -6    1.26    0.23
   7   4  -6    1.51    0.27
   7   4  -6    0.95    0.22
   7   4  -6    0.63    0.22
   7   4  -6    1.20    0.18
   7   4  -6    1.20    0.23
   7   4  -6    0.68    0.23
   7   4  -6    0.66    0.19
   6   4  -6    1.08    0.25
   6   4  -6    1.01    0.21
   6   4  -6    0.79    0.30
   6   4  -6    1.39    0.25
   6   4  -6    2.41    0.28
   6   4  -6    0.77    0.27
   6   4  -6    1.15    0.26
   6   4  -6    0.85    0.27
   6   4  -6    1.86    0.35
   5   4  -6    0.93    0.22
   5   4  -6    0.47    0.29
   5   4  -6    1.63    0.26
   5   4  -6    0.92    0.35
   5   4  -6    1.04    0.26
   5   4  -6    1.89    0.40
   5   4  -6    0.74    0.29
   5   4  -6    1.00    0.23
   5   4  -6    0.85    0.24
   4   4  -6    3.25    0.52
   4   4  -6    3.86    0.37
   4   4  -6    3.93    0.53
   4   4  -6    4.01    0.42
   4   4  -6    3.83    0.39
   4   4  -6    4.21    0.36
   4   4  -6    4.12    0.37
   4   4  -6    2.92    0.50
   4   4  -6    3.90    0.54
   3   4  -6    6.98    0.44
   3   4  -6    7.55    0.43
   3   4  -6    7.16    0.47
   3   4  -6    7.02    0.65
   2   4  -6    8.66    0.45
   2   4  -6    7.94    0.45
   2   4  -6    8.57    0.65
   1   4  -6    0.79    0.26
   1   4  -6    0.53    0.14
   1   4  -6    0.75    0.15
   1   4  -6    0.27    0.39
   0   4  -6   19.78    0.77
   0   4  -6   19.38    1.41
   0   4  -6   21.39    0.84
   0   4  -6   21.24    1.32
   0   4  -6   19.52    1.00
  -1   4  -6    5.55    0.65
  -1   4  -6    4.87    0.75
  -1   4  -6    6.30    0.61
  -1   4  -6    6.45    0.42
  -1   4  -6    4.60    0.63
  -1   4  -6    6.20    0.38
  -2   4  -6   21.09    1.12
  -2   4  -6   21.86    0.83
  -2   4  -6   22.29    0.95
  -2   4  -6   21.62    1.11
  -2   4  -6   21.39    1.31
  -2   4  -6   22.19    1.49
  -2   4  -6   21.13    0.91
  -2   4  -6   21.88    1.00
  -2   4  -6   21.43    1.01
  -3   4  -6   33.17    1.66
  -3   4  -6   37.25    2.04
  -3   4  -6   35.68    1.48
  -3   4  -6   35.08    1.28
  -3   4  -6   33.42    1.35
  -3   4  -6   34.07    1.39
  -3   4  -6   33.62    1.53
  -3   4  -6   32.94    1.56
  -3   4  -6   35.27    1.48
  -4   4  -6   16.55    1.23
  -4   4  -6   18.03    0.96
  -4   4  -6   17.13    1.10
  -4   4  -6   16.16    0.69
  -4   4  -6   18.06    1.01
  -4   4  -6   15.85    0.90
  -4   4  -6   18.74    0.88
  -4   4  -6   18.19    0.94
  -4   4  -6   16.86    1.06
  -4   4  -6   15.84    0.82
  -5   4  -6   24.49    1.19
  -5   4  -6   22.82    1.09
  -5   4  -6   23.49    1.04
  -5   4  -6   20.05    0.94
  -6   4  -6   17.23    0.77
  -6   4  -6   19.38    0.87
  -8  -3   6   68.42    2.39
   7   3  -6   46.79    1.70
   7   3  -6   47.05    1.70
   7   3  -6   44.59    1.79
   7   3  -6   45.75    1.53
   7   3  -6   43.57    1.73
   6   3  -6    6.24    0.60
   6   3  -6    4.95    0.54
   6   3  -6    5.01    0.49
   6   3  -6    4.87    0.40
   6   3  -6    6.60    0.48
   6   3  -6    3.63    0.46
   6   3  -6    5.54    0.51
   6   3  -6    5.99    0.53
   6   3  -6    5.54    0.51
   6   3  -6    4.98    0.39
   5   3  -6  102.83    3.39
   5   3  -6   96.85    3.35
   5   3  -6   93.80    3.17
   5   3  -6   96.97    3.53
   5   3  -6   92.30    3.44
   5   3  -6   92.28    3.76
   5   3  -6   96.78    3.39
   5   3  -6   99.13    3.67
   5   3  -6   95.85    3.30
   5   3  -6   97.81    3.64
   4   3  -6   16.18    0.82
   4   3  -6   15.43    1.01
   4   3  -6   16.84    0.84
   4   3  -6   15.50    0.87
   4   3  -6   15.64    1.09
   4   3  -6   16.94    0.79
   4   3  -6   17.66    0.79
   4   3  -6   17.06    0.90
   4   3  -6   15.36    1.04
   4   3  -6   16.55    0.97
  -4  -3   6   16.89    1.74
   3   3  -6  112.13    3.69
   3   3  -6  109.95    3.47
   3   3  -6  107.71    3.87
   3   3  -6  107.74    3.96
  -3  -3   6  104.00    6.46
   2   3  -6   44.22    1.59
   2   3  -6   43.69    1.69
  -2  -3   6   40.81    3.01
   1   3  -6    3.92    0.70
   1   3  -6    4.25    0.30
  -1  -3   6    3.67    0.77
   0   3  -6  143.98    6.19
   0   3  -6  150.07    4.76
  -1   3  -6   48.83    2.52
  -1   3  -6   48.42    2.19
  -1   3  -6   50.18    1.76
  -2   3  -6   56.23    2.00
  -2   3  -6   53.45    2.14
  -2   3  -6   54.49    1.85
  -2   3  -6   54.12    2.72
  -2   3  -6   54.98    2.38
  -3   3  -6  125.11    4.40
  -3   3  -6  127.19    4.23
  -3   3  -6  123.93    4.29
  -3   3  -6  124.71    5.36
  -3   3  -6  123.09    4.21
  -3   3  -6  126.96    3.99
  -3   3  -6  121.36    4.61
  -3   3  -6  123.89    4.24
  -3   3  -6  122.87    4.25
  -4   3  -6    0.84    0.23
  -4   3  -6    0.98    0.32
  -4   3  -6    0.36    0.28
  -4   3  -6    1.16    0.50
  -4   3  -6    1.28    0.41
  -4   3  -6    1.16    0.30
  -4   3  -6    1.15    0.47
  -4   3  -6    0.44    0.31
  -4   3  -6    0.77    0.36
  -4   3  -6    0.67    0.26
   4  -3   6    1.24    0.40
  -5   3  -6   69.85    2.62
  -5   3  -6   75.05    2.94
  -5   3  -6   67.66    2.53
  -5   3  -6   71.56    2.54
   5  -3   6   68.76    2.73
  -6   3  -6   23.51    1.06
  -6   3  -6   21.71    1.14
  -6   3  -6   22.54    0.90
  -7   3  -6    9.00    0.51
   8   2  -6    0.65    0.16
   7   2  -6    2.33    0.32
   7   2  -6    1.86    0.25
   7   2  -6    2.34    0.34
  -7  -2   6    1.79    0.35
  -7  -2   6    2.79    0.37
   6   2  -6   14.54    0.77
   6   2  -6   15.37    0.87
   6   2  -6   14.01    0.90
   6   2  -6   16.55    0.94
   6   2  -6   15.32    0.89
  -6  -2   6   14.09    0.96
   5   2  -6    1.99    0.30
   5   2  -6    1.76    0.31
   5   2  -6    2.10    0.40
   5   2  -6    2.42    0.47
   5   2  -6    1.58    0.40
   5   2  -6    1.65    0.32
   5   2  -6    1.50    0.37
   5   2  -6    3.36    0.40
   5   2  -6    1.43    0.40
   4   2  -6    5.11    0.58
   4   2  -6    5.78    0.49
   4   2  -6    6.65    0.56
   4   2  -6    6.07    0.52
  -4  -2   6    4.77    0.94
   3   2  -6    6.68    0.53
   3   2  -6    7.21    0.52
  -3  -2   6    7.32    1.23
   2   2  -6   70.09    2.41
   2   2  -6   66.49    2.58
   2   2  -6   68.46    3.63
  -2  -2   6   67.52    4.32
   1   2  -6  109.64    3.51
   1   2  -6  103.96    3.81
   1   2  -6  101.12    5.20
   1   2  -6   99.35    4.55
  -1  -2   6  107.37    6.31
  -1  -2   6  112.61    6.17
   0   2  -6   36.94    1.34
   0   2  -6   36.24    2.23
   0   2  -6   34.27    1.93
   0  -2   6   35.32    2.29
   0  -2   6   37.05    2.51
  -1   2  -6   30.60    1.74
  -1   2  -6   30.93    1.16
  -2   2  -6    1.54    0.24
  -2   2  -6    2.30    0.50
  -3   2  -6    9.22    0.90
  -3   2  -6    8.97    0.59
  -3   2  -6    9.29    0.55
  -3   2  -6    9.83    0.80
  -4   2  -6   17.17    0.88
  -4   2  -6   17.71    1.21
  -4   2  -6   17.72    1.26
  -4   2  -6   18.77    0.88
  -4   2  -6   16.78    1.09
  -4   2  -6   17.44    0.95
  -4   2  -6   18.26    1.07
  -4   2  -6   17.90    1.01
   4  -2   6   17.20    1.09
  -5   2  -6   17.94    1.04
  -5   2  -6   15.98    1.00
  -5   2  -6   18.33    1.15
   5  -2   6   17.25    1.09
  -6   2  -6   27.85    1.28
  -6   2  -6   28.26    1.30
  -6   2  -6   28.57    1.45
   6  -2   6   29.80    1.38
  -7   2  -6    5.75    0.51
  -7   2  -6    6.53    0.43
   8   1  -6    2.26    0.17
   7   1  -6   53.67    1.93
   7   1  -6   52.66    1.93
  -7  -1   6   52.40    2.14
  -7  -1   6   52.45    2.01
   6   1  -6   36.42    1.81
   6   1  -6   37.62    1.54
   6   1  -6   32.94    1.55
   6   1  -6   34.69    1.50
  -6  -1   6   38.09    1.71
   5   1  -6  167.35    5.83
   5   1  -6  176.71    6.08
   5   1  -6  175.06    5.76
   5   1  -6  179.31    6.41
   5   1  -6  167.99    7.04
  -5  -1   6  167.33    6.40
   4   1  -6  117.86    4.83
   4   1  -6  111.04    4.37
  -4  -1   6  113.48    6.76
   3   1  -6    0.92    0.42
   3   1  -6    0.72    0.28
   3   1  -6    0.74    0.23
   3   1  -6    0.74    0.27
  -3  -1   6    1.26    0.57
   2   1  -6  223.55    7.83
   2   1  -6  217.80    9.11
   2   1  -6  221.93   10.10
  -2  -1   6  233.06   12.21
  -2  -1   6  208.61   12.76
   1   1  -6   77.88    2.94
   1   1  -6   78.05    3.41
   1   1  -6   77.78    3.96
  -1  -1   6   80.26    4.83
  -1  -1   6   81.60    4.76
   0   1  -6   60.72    2.38
   0   1  -6   62.98    3.26
   0   1  -6   64.91    2.74
   0  -1   6   65.61    3.92
   0  -1   6   64.07    3.72
  -1   1  -6  221.58   10.01
  -1   1  -6  216.60    8.88
  -1   1  -6  236.57    9.12
   1  -1   6  211.87   11.73
   1  -1   6  229.85   12.39
  -2   1  -6    5.26    0.40
  -2   1  -6    4.58    0.65
  -2   1  -6    4.51    0.67
  -3   1  -6   49.04    1.86
  -3   1  -6   49.57    2.26
  -3   1  -6   52.46    2.48
  -4   1  -6  115.15    3.98
  -4   1  -6  109.42    4.73
  -4   1  -6  111.33    4.08
  -4   1  -6  110.07    4.70
   4  -1   6  105.46    4.02
  -5   1  -6   49.97    2.15
  -5   1  -6   51.97    2.27
  -5   1  -6   48.21    2.32
   5  -1   6   47.90    2.12
  -6   1  -6   87.93    3.40
  -6   1  -6   80.59    3.15
   6  -1   6   83.17    3.21
  -7   1  -6    8.41    0.70
  -7   1  -6    9.18    0.67
   7  -1   6    7.79    0.66
  -8   1  -6   52.45    1.78
  -8   1  -6   48.15    1.94
   7   0  -6    4.48    0.41
   7   0  -6    4.76    0.43
  -7   0   6    5.51    0.50
  -7   0   6    4.30    0.40
   6   0  -6    0.56    0.29
   6   0  -6    0.44    0.25
  -6   0   6    0.42    0.25
  -6   0   6    0.95    0.34
   5   0  -6   31.76    1.44
   5   0  -6   28.65    1.44
  -5   0   6   30.75    1.47
  -5   0   6   32.20    1.58
   4   0  -6   -0.04    0.24
  -4   0   6    0.10    0.27
  -4   0   6    0.08    0.36
   3   0  -6    0.55    0.27
   3   0  -6    1.66    0.53
  -3   0   6    1.36    0.56
   2   0  -6   28.54    1.51
   2   0  -6   28.44    1.76
   2   0  -6   26.68    1.31
  -2   0   6   24.80    2.18
  -2   0   6   28.61    2.15
   1   0  -6    4.10    0.43
   1   0  -6    3.31    0.59
  -1   0   6    3.92    0.75
  -1   0   6    4.04    0.81
   0   0  -6   20.36    1.34
   0   0  -6   23.06    1.12
   0   0   6   21.03    1.60
   0   0   6   20.78    1.53
  -1   0  -6    5.79    0.44
  -1   0  -6    5.51    0.60
   1   0   6    6.59    0.69
   1   0   6    5.62    0.59
  -2   0  -6   22.11    1.11
  -2   0  -6   22.61    1.32
  -2   0  -6   20.20    1.54
  -3   0  -6    1.65    0.46
  -3   0  -6    1.56    0.28
  -3   0  -6    1.34    0.39
  -4   0  -6   24.06    1.33
  -5   0  -6   11.51    0.88
   5   0   6   11.42    0.86
  -6   0  -6   41.18    1.95
   6   0   6   41.07    1.87
  -7   0  -6    8.96    0.77
   7   0   6   10.61    0.77
  -8   0  -6    2.08    0.35
  -8   0  -6    2.16    0.35
   8   0   6    1.74    0.32
   7  -1  -6   44.06    1.55
   7  -1  -6   44.52    1.65
  -7   1   6   40.04    1.44
   6  -1  -6  108.79    3.70
  -6   1   6  102.64    3.82
  -6   1   6  111.02    4.16
  -6   1   6  110.03    3.56
   5  -1  -6    8.32    0.68
  -5   1   6    7.99    0.73
  -5   1   6    7.54    0.65
  -5   1   6    6.99    0.64
   4  -1  -6  112.39    3.94
   4  -1  -6  112.27    5.07
  -4   1   6  111.70    4.41
  -4   1   6  110.97    4.14
   3  -1  -6  125.05    5.52
   3  -1  -6  117.65    5.92
  -3   1   6  130.98    7.11
  -3   1   6  116.49    4.72
   2  -1  -6   24.07    1.35
   2  -1  -6   26.49    1.48
   2  -1  -6   25.13    1.61
  -2   1   6   21.01    2.02
  -2   1   6   24.82    1.95
   1  -1  -6  336.58   13.13
   1  -1  -6  312.80   14.05
  -1   1   6  325.20   13.15
  -1   1   6  284.44   17.55
  -1   1   6  334.79   17.02
   0  -1  -6   11.59    0.89
   0  -1  -6   11.78    0.74
   0   1   6   12.04    0.77
   0   1   6   11.93    1.05
  -1  -1  -6  369.22   16.39
  -1  -1  -6  388.15   15.32
   1   1   6  363.53   19.61
   1   1   6  379.13   15.33
   1   1   6  383.06   20.35
  -2  -1  -6  211.17    8.61
  -2  -1  -6  203.18    9.24
   2   1   6  211.14    8.66
  -3  -1  -6  102.35    4.43
  -3  -1  -6  102.25    4.76
  -4  -1  -6  415.52   16.28
   4   1   6  376.60   16.35
  -5  -1  -6   12.92    0.99
   5   1   6   10.78    1.05
   5   1   6   14.04    0.94
  -6  -1  -6   55.59    2.35
  -6  -1  -6   52.63    2.65
   6   1   6   55.18    2.22
   6   1   6   41.17    2.65
  -7  -1  -6   78.24    3.18
   7   1   6   78.28    2.99
  -8  -1  -6    6.90    0.57
  -8  -1  -6    7.25    0.63
   8   1   6    6.43    0.57
  -9  -1  -6   65.72    2.43
   7  -2  -6    2.25    0.24
   6  -2  -6   15.16    0.81
  -6   2   6   15.30    0.75
  -6   2   6   14.55    0.89
   5  -2  -6    4.30    0.51
  -5   2   6    4.93    0.52
  -5   2   6    5.24    0.53
  -5   2   6    6.30    0.70
   4  -2  -6    8.81    0.96
   4  -2  -6    7.89    0.73
  -4   2   6    8.28    0.71
  -4   2   6    8.75    0.82
  -4   2   6    9.95    0.77
  -4   2   6    8.46    0.91
   3  -2  -6   25.89    1.74
  -3   2   6   27.63    1.67
  -3   2   6   26.07    1.47
  -3   2   6   27.73    1.68
   2  -2  -6    1.59    0.47
   2  -2  -6    1.74    0.43
   2  -2  -6    1.63    0.45
  -2   2   6    1.74    0.57
  -2   2   6    2.17    0.47
  -2   2   6    1.28    0.35
   1  -2  -6    0.70    0.30
   1  -2  -6    0.95    0.31
   1  -2  -6    0.85    0.34
  -1   2   6    0.75    0.41
  -1   2   6    0.77    0.30
   0  -2  -6    8.96    0.80
   0  -2  -6    9.74    0.70
   0  -2  -6    9.50    0.79
   0   2   6   10.66    0.99
   0   2   6    9.97    0.71
  -1  -2  -6   44.33    2.09
  -1  -2  -6   43.21    2.29
   1   2   6   45.97    2.71
   1   2   6   45.07    2.09
  -2  -2  -6    0.82    0.23
  -2  -2  -6    0.69    0.27
   2   2   6    1.42    0.28
  -3  -2  -6   22.26    1.34
  -3  -2  -6   21.07    1.21
   3   2   6   21.24    1.21
  -4  -2  -6    0.55    0.32
   4   2   6    1.37    0.34
   5   2   6   19.63    1.30
  -6  -2  -6    1.42    0.48
   6   2   6    2.19    0.44
   6   2   6    1.69    0.43
  -7  -2  -6    0.78    0.35
  -7  -2  -6    0.09    0.31
   7   2   6    0.21    0.28
  -8  -2  -6   34.55    1.61
  -8  -2  -6   33.45    1.46
   8   2   6   35.30    1.52
  -9  -2  -6    4.28    0.38
  -9  -2  -6    5.40    0.43
   9   2   6    5.52    0.41
   6  -3  -6   47.86    1.72
  -6   3   6   50.27    1.67
  -6   3   6   46.00    1.76
   5  -3  -6   49.22    1.94
  -5   3   6   49.02    2.21
  -5   3   6   52.48    1.90
   4  -3  -6   29.77    1.40
  -4   3   6   29.77    1.58
  -4   3   6   28.30    1.37
  -4   3   6   26.85    1.32
   3  -3  -6  140.35    5.67
   3  -3  -6  134.85    4.66
  -3   3   6  128.93    4.57
  -3   3   6  139.12    6.01
  -3   3   6  134.80    4.93
  -3   3   6  135.23    5.33
   2  -3  -6   17.98    1.21
  -2   3   6   17.82    1.17
  -2   3   6   19.55    1.65
  -2   3   6   16.63    1.18
  -2   3   6   16.19    1.18
   1  -3  -6  152.48    6.38
   1  -3  -6  149.95    7.16
  -1   3   6  155.49    5.82
  -1   3   6  168.01    8.80
  -1   3   6  153.40    6.73
   0  -3  -6  123.92    5.45
   0  -3  -6  130.03    6.09
   0   3   6  139.11    5.74
   0   3   6  135.13    7.38
   0   3   6  132.01    5.99
  -1  -3  -6   42.30    2.11
  -1  -3  -6   42.87    2.29
   1   3   6   47.47    2.12
   1   3   6   41.48    2.19
  -2  -3  -6  163.39    6.97
  -2  -3  -6  176.57    7.93
   2   3   6  182.12    7.70
   2   3   6  179.23    7.35
  -3  -3  -6   35.35    1.96
  -3  -3  -6   32.74    1.77
   3   3   6   34.67    1.87
   3   3   6   35.70    1.73
  -4  -3  -6  128.08    5.77
   4   3   6  116.16    5.27
   5   3   6  180.38    7.70
  -6  -3  -6    0.68    0.44
   6   3   6    0.03    0.38
   6   3   6    0.27    0.27
   6   3   6   -0.11    0.30
  -7  -3  -6  118.03    4.46
   7   3   6  111.35    4.09
   7   3   6  110.54    4.38
  -8  -3  -6   67.96    2.60
  -8  -3  -6   67.66    2.77
   8   3   6   70.58    2.60
   8   3   6   67.12    2.59
  -9  -3  -6   43.21    1.74
  -9  -3  -6   42.91    1.63
   9   3   6   44.44    1.64
   9   3   6   41.40    1.61
   5  -4  -6    3.06    0.36
  -5   4   6    2.84    0.39
  -5   4   6    2.73    0.33
  -5   4   6    1.87    0.29
  -5   4   6    2.57    0.34
   4  -4  -6    6.80    0.68
  -4   4   6    7.43    0.65
  -4   4   6    8.19    0.69
  -4   4   6    6.88    0.74
  -4   4   6    7.41    0.67
   3  -4  -6   20.92    1.35
  -3   4   6   21.13    1.34
  -3   4   6   19.62    1.20
  -3   4   6   20.15    1.22
  -3   4   6   20.13    1.15
  -3   4   6   22.59    1.25
   2  -4  -6    1.87    0.53
  -2   4   6    1.79    0.47
  -2   4   6    0.92    0.44
  -2   4   6    2.55    0.53
  -2   4   6    3.03    0.53
  -2   4   6    0.90    0.35
  -2   4   6    2.24    0.49
   1  -4  -6   29.15    1.68
  -1   4   6   27.91    1.47
  -1   4   6   25.17    1.49
   0  -4  -6   24.15    1.54
   0  -4  -6   25.86    1.62
   0   4   6   24.70    1.30
   0   4   6   25.14    1.22
   0   4   6   31.23    1.72
   0   4   6   24.85    1.43
  -1  -4  -6    2.50    0.54
  -1  -4  -6    1.91    0.43
   1   4   6    2.42    0.46
   1   4   6    1.92    0.32
   1   4   6    1.81    0.34
  -2  -4  -6    4.03    0.58
  -2  -4  -6    3.80    0.59
   2   4   6    3.98    0.44
   2   4   6    3.93    0.49
   2   4   6    3.86    0.41
  -3  -4  -6    5.31    0.68
   3   4   6    5.32    0.50
   3   4   6    5.40    0.45
   3   4   6    5.40    0.58
  -4  -4  -6   26.19    1.70
   4   4   6   24.32    1.32
   4   4   6   26.28    1.56
   4   4   6   23.39    1.31
   4   4   6   25.18    1.16
  -5  -4  -6    6.57    0.98
   5   4   6    6.61    0.60
   5   4   6    6.78    0.69
   6   4   6    6.08    0.81
   6   4   6    7.58    0.74
   6   4   6    7.59    0.88
   6   4   6    7.28    0.77
   6   4   6    8.08    0.80
   6   4   6    6.11    0.72
   6   4   6    7.93    1.01
   6   4   6    6.09    0.58
  -7  -4  -6    1.31    0.49
   7   4   6    0.91    0.33
   7   4   6    2.02    0.45
   7   4   6    1.02    0.38
   7   4   6    1.65    0.42
   7   4   6    1.57    0.43
  -8  -4  -6    6.49    0.63
  -8  -4  -6    7.00    0.66
   8   4   6    7.05    0.59
   8   4   6    6.64    0.67
   8   4   6    4.94    0.49
   8   4   6    7.01    0.56
  -9  -4  -6    4.55    0.46
  -9  -4  -6    4.83    0.42
   9   4   6    4.74    0.41
   9   4   6    3.83    0.35
  -5   5   6   60.39    1.99
  -5   5   6   60.96    2.00
  -4   5   6    8.02    0.61
  -4   5   6    7.17    0.64
  -4   5   6    7.61    0.52
  -4   5   6    7.75    0.57
   3  -5  -6   46.52    2.38
  -3   5   6   47.59    1.96
  -3   5   6   50.94    2.30
  -3   5   6   47.49    2.11
  -3   5   6   50.05    1.98
   2  -5  -6  140.63    5.76
  -2   5   6  129.66    4.59
  -2   5   6  120.90    4.93
  -2   5   6  137.57    5.34
  -2   5   6  141.37    4.96
  -2   5   6  130.75    4.71
   1  -5  -6    6.16    0.89
  -1   5   6    7.33    0.87
  -1   5   6    7.99    0.89
  -1   5   6    5.83    0.60
  -1   5   6    7.17    0.79
  -1   5   6    6.67    0.63
  -1   5   6    7.58    0.78
   0  -5  -6  182.06    7.66
   0   5   6  185.65    8.37
   0   5   6  182.59    6.84
  -1  -5  -6   54.53    3.07
  -1  -5  -6   58.70    2.95
   1   5   6   60.58    2.17
   1   5   6   61.26    3.01
   1   5   6   59.72    2.49
   1   5   6   56.47    2.23
  -2  -5  -6   66.48    3.51
  -2  -5  -6   61.15    3.12
   2   5   6   69.96    2.77
   2   5   6   72.49    3.32
   2   5   6   66.78    2.46
  -3  -5  -6  140.69    6.62
   3   5   6  136.67    4.42
   3   5   6  137.91    5.21
   3   5   6  142.08    6.26
   3   5   6  135.37    4.66
  -4  -5  -6    3.72    0.70
   4   5   6    4.03    0.44
   4   5   6    4.37    0.60
   4   5   6    3.42    0.54
   4   5   6    3.75    0.42
   5   5   6  194.13    6.88
   5   5   6  192.83    6.09
   5   5   6  195.37    7.27
   5   5   6  203.29    7.09
   5   5   6  186.67    7.15
   5   5   6  190.96    6.46
   5   5   6  184.83    7.18
   5   5   6  190.48    6.44
   5   5   6  184.49    8.67
   5   5   6  199.32    6.54
   6   5   6   66.28    2.93
   6   5   6   64.65    2.56
   6   5   6   63.80    2.62
   6   5   6   66.53    2.58
   6   5   6   71.33    3.13
   6   5   6   72.11    2.92
   6   5   6   67.57    2.91
   6   5   6   65.79    2.99
   7   5   6   33.69    1.58
   7   5   6   34.20    1.49
   7   5   6   33.73    1.73
   7   5   6   34.08    1.78
   7   5   6   34.94    1.92
   7   5   6   34.59    1.75
   7   5   6   33.03    1.73
  -8  -5  -6   72.81    2.97
   8   5   6   74.88    2.57
   8   5   6   69.24    2.68
   8   5   6   74.49    2.62
   8   5   6   68.93    2.93
   8   5   6   78.73    2.99
   8   5   6   75.22    2.85
  -9  -5  -6   -0.06    0.20
  -9  -5  -6    0.06    0.22
  -9  -5  -6   -0.03    0.16
   9   5   6    0.15    0.21
   9   5   6    0.32    0.20
   9   5   6    0.14    0.11
  -4   6   6    6.15    0.39
  -4   6   6    6.40    0.43
   3  -6  -6   19.03    1.06
  -3   6   6   19.21    1.15
  -3   6   6   21.19    0.87
  -3   6   6   22.90    1.03
  -3   6   6   21.08    1.08
   2  -6  -6   13.45    1.16
  -2   6   6   13.44    0.77
  -2   6   6   11.73    0.74
  -2   6   6   14.08    1.05
  -2   6   6   13.10    0.88
  -2   6   6   15.23    0.98
   1  -6  -6   17.24    1.38
  -1   6   6   13.79    1.02
  -1   6   6   18.22    1.25
  -1   6   6   16.37    0.94
  -1   6   6   17.41    1.08
  -1   6   6   15.21    1.18
  -1   6   6   16.67    1.14
  -1   6   6   17.87    1.08
  -1   6   6   14.60    1.10
  -1   6   6   17.75    0.92
   0  -6  -6   29.43    1.88
   0   6   6   25.31    1.84
   0   6   6   28.23    1.34
   0   6   6   27.74    1.30
   0   6   6   25.40    1.44
   0   6   6   26.13    1.37
   0   6   6   26.23    1.60
   0   6   6   26.76    1.38
   0   6   6   26.49    1.52
   0   6   6   26.86    1.48
   0   6   6   27.03    1.34
   0   6   6   26.92    1.18
  -1  -6  -6   14.39    1.35
   1   6   6   15.50    0.93
   1   6   6   14.11    1.15
   1   6   6   13.29    0.99
   1   6   6   13.36    0.90
   1   6   6   14.81    0.76
   1   6   6   14.97    0.92
   1   6   6   15.32    1.14
   1   6   6   14.98    0.89
   1   6   6   14.33    0.87
   1   6   6   14.06    1.00
   1   6   6   14.03    0.99
  -2  -6  -6   13.58    1.27
   2   6   6   15.82    0.89
   2   6   6   13.05    0.80
   2   6   6   12.58    1.04
   2   6   6   13.71    0.80
   2   6   6   13.08    1.04
   2   6   6   12.86    0.92
   2   6   6   12.92    0.70
   2   6   6   14.64    0.81
   2   6   6   13.91    0.95
   2   6   6   13.93    0.95
   2   6   6   13.28    0.87
   3   6   6   48.32    1.89
   3   6   6   46.79    1.94
   3   6   6   48.03    1.88
   3   6   6   49.02    2.30
   3   6   6   49.64    2.21
   3   6   6   46.65    2.52
   3   6   6   47.63    2.12
   3   6   6   50.54    1.82
   3   6   6   52.35    1.98
   3   6   6   46.40    1.80
   3   6   6   48.77    2.11
   4   6   6    1.31    0.29
   4   6   6    0.80    0.26
   4   6   6    1.00    0.42
   4   6   6    1.12    0.40
   4   6   6    1.47    0.41
   4   6   6    0.90    0.53
   4   6   6    1.23    0.28
   4   6   6    1.06    0.37
   4   6   6    1.48    0.45
   4   6   6    1.43    0.42
   4   6   6    1.26    0.31
   4   6   6    0.94    0.30
   5   6   6    3.11    0.57
   5   6   6    3.28    0.49
   5   6   6    2.89    0.61
   5   6   6    3.40    0.48
   5   6   6    2.32    0.53
   5   6   6    3.11    0.40
   5   6   6    3.07    0.58
   5   6   6    3.31    0.66
   5   6   6    2.98    0.53
   5   6   6    2.73    0.54
   5   6   6    2.47    0.38
   5   6   6    1.94    0.33
   5   6   6    3.34    0.45
   6   6   6    7.68    0.87
   6   6   6    7.78    0.72
   6   6   6    7.05    0.89
   6   6   6    9.01    0.98
   6   6   6    8.28    0.69
   6   6   6    7.29    0.74
   6   6   6    7.22    0.57
   6   6   6    8.65    0.92
   6   6   6    8.96    0.64
   6   6   6    8.12    0.75
   6   6   6    7.66    0.61
   6   6   6    7.91    0.88
   7   6   6    6.21    0.73
   7   6   6    4.66    0.58
   7   6   6    4.88    0.79
   7   6   6    4.91    0.59
   7   6   6    4.96    0.61
   7   6   6    4.63    0.66
   7   6   6    4.59    0.64
   7   6   6    6.45    0.80
   7   6   6    5.66    0.44
   7   6   6    5.14    0.61
   7   6   6    5.47    0.58
   7   6   6    5.52    0.51
  -8  -6  -6    2.41    0.45
   8   6   6    2.99    0.27
   8   6   6    2.89    0.39
   8   6   6    3.67    0.50
   8   6   6    3.69    0.46
   8   6   6    2.80    0.43
   8   6   6    2.73    0.43
  -9  -6  -6    0.73    0.19
  -9  -6  -6    0.46    0.23
  -9  -6  -6    0.57    0.22
   9   6   6    0.42    0.20
  -3   7   6    0.15    0.15
  -3   7   6    0.19    0.16
  -2   7   6   61.88    2.24
  -2   7   6   59.46    2.40
  -2   7   6   63.31    2.22
  -2   7   6   59.16    2.57
   1  -7  -6   22.85    1.61
  -1   7   6   25.31    1.14
  -1   7   6   24.42    1.43
  -1   7   6   23.44    1.31
  -1   7   6   21.84    1.16
  -1   7   6   23.09    1.21
  -1   7   6   22.07    1.32
  -1   7   6   23.14    1.13
   0  -7  -6   35.32    2.14
   0   7   6   33.14    1.53
   0   7   6   32.12    1.67
   0   7   6   32.61    1.48
   0   7   6   33.98    1.78
   0   7   6   30.02    1.43
   0   7   6   31.05    1.52
   0   7   6   29.19    1.47
   0   7   6   33.16    1.19
   0   7   6   29.78    1.73
  -1  -7  -6  134.91    5.77
   1   7   6  123.02    4.21
   1   7   6  125.15    4.50
   1   7   6  125.26    4.95
   1   7   6  115.04    4.96
   1   7   6  129.87    4.44
   1   7   6  127.37    4.73
   1   7   6  124.83    4.32
   1   7   6  120.19    4.67
   1   7   6  127.46    4.10
   1   7   6  125.52    4.28
  -2  -7  -6    7.15    1.04
   2   7   6    6.93    0.58
   2   7   6    8.90    0.98
   2   7   6    7.20    0.78
   2   7   6    6.47    0.57
   2   7   6    7.06    0.59
   2   7   6    7.17    0.63
   2   7   6    6.91    0.39
   2   7   6    5.71    0.69
   2   7   6    6.25    0.63
   2   7   6    6.57    0.78
   3   7   6  112.76    4.57
   3   7   6  112.11    4.33
   3   7   6  116.01    4.12
   3   7   6  119.74    3.98
   3   7   6  117.64    4.40
   3   7   6  117.49    4.02
   3   7   6  115.69    3.82
   3   7   6  113.78    3.75
   3   7   6  117.90    4.65
   3   7   6  112.61    3.92
   4   7   6   94.45    3.58
   4   7   6   82.00    2.96
   4   7   6   90.28    3.24
   4   7   6   89.12    3.17
   4   7   6   90.80    3.80
   4   7   6   89.03    3.57
   4   7   6   97.50    3.26
   4   7   6   90.83    3.31
   4   7   6   93.61    3.76
   4   7   6   85.98    3.05
   4   7   6   94.60    3.47
   5   7   6   68.60    2.56
   5   7   6   65.71    2.87
   5   7   6   68.74    2.45
   5   7   6   65.98    3.08
   5   7   6   74.30    3.09
   5   7   6   73.84    2.63
   5   7   6   73.27    3.12
   5   7   6   72.24    2.78
   5   7   6   66.09    2.63
   5   7   6   66.26    2.61
   5   7   6   69.09    2.90
   6   7   6  112.24    3.94
   6   7   6  105.38    4.22
   6   7   6  110.68    4.28
   6   7   6  111.02    3.90
   6   7   6  108.63    4.52
   6   7   6  108.89    4.15
   6   7   6  112.89    3.96
   6   7   6  107.29    3.85
   6   7   6  118.52    4.53
   6   7   6  114.11    3.70
   6   7   6  112.19    4.44
   7   7   6   17.49    0.94
   7   7   6   17.54    1.09
   7   7   6   16.33    1.07
   7   7   6   15.72    0.99
   7   7   6   15.93    1.18
   7   7   6   15.86    1.13
   7   7   6   15.50    0.83
   7   7   6   17.32    0.87
   7   7   6   18.12    1.14
   7   7   6   15.83    0.83
   7   7   6   14.62    0.91
  -8  -7  -6   52.92    2.14
   8   7   6   51.15    2.06
   8   7   6   45.45    2.10
   8   7   6   51.76    1.86
   8   7   6   50.08    1.82
   8   7   6   53.04    2.11
   8   7   6   50.78    1.87
  -9  -7  -6   24.28    1.06
   9   7   6   26.21    1.08
  -2   8   6   24.30    0.92
   1  -8  -6   15.01    0.93
  -1   8   6   15.09    0.87
  -1   8   6   16.31    0.88
  -1   8   6   14.44    0.73
  -1   8   6   17.00    0.81
  -1   8   6   13.97    0.92
  -1   8   6   15.77    0.74
  -1   8   6   15.69    0.76
   0  -8  -6   13.33    1.20
   0   8   6   12.41    0.78
   0   8   6   12.04    0.93
   0   8   6   14.17    0.86
   0   8   6   13.35    0.76
   0   8   6   12.97    0.99
   0   8   6   11.75    0.88
   0   8   6   13.33    0.76
   0   8   6   11.40    0.73
  -1  -8  -6   41.63    2.54
   1   8   6   47.33    1.79
   1   8   6   46.90    1.79
   1   8   6   46.36    2.18
   1   8   6   45.73    2.08
   1   8   6   45.24    1.88
   1   8   6   45.87    1.87
   1   8   6   44.16    2.04
   1   8   6   41.08    2.15
   1   8   6   44.36    1.84
  -2  -8  -6    4.07    0.87
   2   8   6    4.50    0.53
   2   8   6    3.75    0.44
   2   8   6    3.75    0.54
   2   8   6    6.35    0.66
   2   8   6    3.71    0.42
   2   8   6    4.01    0.44
   2   8   6    5.75    0.74
   2   8   6    4.90    0.70
   2   8   6    3.87    0.64
   3   8   6   39.48    1.59
   3   8   6   40.21    1.70
   3   8   6   40.53    1.97
   3   8   6   37.28    1.91
   3   8   6   42.29    1.56
   3   8   6   36.62    1.83
   3   8   6   38.15    2.01
   3   8   6   38.66    1.67
   3   8   6   38.19    1.54
   4   8   6    8.75    0.97
   4   8   6    7.76    0.70
   4   8   6    7.57    0.83
   4   8   6    8.38    0.58
   4   8   6    8.64    0.58
   4   8   6    6.70    0.73
   4   8   6    8.10    0.61
   4   8   6    7.92    0.82
   4   8   6    7.83    0.56
   5   8   6   19.72    0.97
   5   8   6   18.06    1.08
   5   8   6   18.83    0.97
   5   8   6   19.90    1.33
   5   8   6   20.01    0.92
   5   8   6   17.77    1.23
   5   8   6   18.38    1.19
   5   8   6   18.40    0.93
   5   8   6   18.26    1.22
   6   8   6   13.34    0.99
   6   8   6   12.95    1.08
   6   8   6   14.07    0.77
   6   8   6   13.23    0.96
   6   8   6   13.70    0.76
   6   8   6   11.39    0.94
   6   8   6   11.37    0.95
   6   8   6   12.14    0.75
   6   8   6   13.41    0.89
   6   8   6   13.05    0.70
   7   8   6    0.30    0.21
   7   8   6    0.44    0.32
   7   8   6    0.47    0.19
   7   8   6    0.82    0.29
   7   8   6    0.37    0.28
   7   8   6    1.07    0.40
   7   8   6    0.53    0.23
   7   8   6    0.52    0.21
   7   8   6    0.03    0.31
   7   8   6    0.64    0.34
  -8  -8  -6   12.44    0.71
   8   8   6   12.73    0.58
   8   8   6   12.04    0.70
   8   8   6   12.05    0.70
   8   8   6   11.83    0.66
   8   8   6   11.11    0.54
   8   8   6   11.74    0.62
   0   9   6    2.56    0.34
   0   9   6    2.62    0.31
   0   9   6    2.53    0.33
   0   9   6    2.69    0.25
   0   9   6    2.72    0.27
   1   9   6   18.89    0.89
   1   9   6   19.78    0.95
   1   9   6   22.53    1.30
   1   9   6   22.26    1.02
   1   9   6   21.24    1.16
   1   9   6   23.13    0.91
   1   9   6   21.99    1.11
   2   9   6   30.20    1.15
   2   9   6   30.27    1.31
   2   9   6   29.02    1.18
   2   9   6   29.33    1.27
   2   9   6   28.81    1.43
   2   9   6   27.51    1.19
   2   9   6   27.00    1.49
   2   9   6   30.98    1.55
   2   9   6   31.00    1.48
   3   9   6    8.81    0.55
   3   9   6    9.09    0.56
   3   9   6    9.30    0.62
   3   9   6   10.23    0.89
   3   9   6   10.10    0.77
   3   9   6    8.13    0.80
   3   9   6   10.43    0.71
   3   9   6    9.58    0.54
   3   9   6    8.93    0.86
   4   9   6   31.30    1.67
   4   9   6   35.03    1.41
   4   9   6   33.88    1.29
   4   9   6   34.54    1.61
   4   9   6   32.54    1.34
   4   9   6   34.83    1.75
   4   9   6   36.20    1.48
   4   9   6   32.70    1.28
   4   9   6   32.69    1.65
   5   9   6    4.51    0.38
   5   9   6    2.72    0.49
   5   9   6    4.21    0.38
   5   9   6    4.55    0.60
   5   9   6    4.39    0.40
   5   9   6    3.81    0.54
   5   9   6    3.32    0.34
   5   9   6    3.78    0.49
   5   9   6    5.10    0.61
   6   9   6   37.41    1.63
   6   9   6   35.85    1.73
   6   9   6   37.11    1.34
   6   9   6   36.18    1.44
   6   9   6   38.05    1.67
   6   9   6   37.70    1.51
   6   9   6   37.16    1.36
   6   9   6   37.03    1.74
   7   9   6   45.26    1.66
   7   9   6   48.40    1.81
   7   9   6   47.14    1.56
   7   9   6   46.13    1.66
   7   9   6   45.12    1.83
   7   9   6   44.25    1.91
   3  10   6    1.51    0.22
   3  10   6    0.70    0.22
   3  10   6    1.56    0.34
   3  10   6    1.20    0.29
   4  10   6   13.79    0.65
   4  10   6   14.57    0.84
   4  10   6   14.35    0.73
   4  10   6   14.78    0.80
   5  10   6    6.23    0.44
   5  10   6    5.29    0.48
   5  10   6    5.40    0.34
   5  10   6    5.00    0.50
   5  10   6    5.33    0.50
   6   7  -7   18.88    0.80
   6   7  -7   16.69    0.65
   5   7  -7    5.08    0.45
   5   7  -7    5.02    0.30
   5   7  -7    4.93    0.42
   5   7  -7    5.33    0.27
   4   7  -7    7.11    0.33
   4   7  -7    6.62    0.37
   4   7  -7    6.33    0.55
   4   7  -7    6.97    0.53
   3   7  -7   56.56    1.77
   3   7  -7   56.08    2.13
   2   7  -7    3.00    0.23
   2   7  -7    4.18    0.47
   1   7  -7   14.55    0.58
   1   7  -7   15.52    0.84
   0   7  -7   16.87    0.66
   0   7  -7   16.10    0.70
   0   7  -7   16.12    0.86
   0   7  -7   17.22    1.01
  -1   7  -7    9.96    0.45
  -1   7  -7    9.21    0.70
  -1   7  -7    8.79    0.59
  -1   7  -7    9.72    0.48
  -2   7  -7   31.06    1.21
  -2   7  -7   32.14    1.15
   7   6  -7    0.20    0.08
   6   6  -7   37.43    1.54
   6   6  -7   36.67    1.43
   6   6  -7   36.03    1.43
   6   6  -7   37.72    1.23
   6   6  -7   37.56    1.24
   6   6  -7   36.53    1.32
   5   6  -7    5.69    0.37
   5   6  -7    6.01    0.36
   5   6  -7    5.99    0.56
   5   6  -7    5.64    0.50
   5   6  -7    5.83    0.37
   5   6  -7    6.06    0.33
   4   6  -7   32.00    1.17
   4   6  -7   30.62    1.10
   4   6  -7   32.12    1.13
   4   6  -7   32.60    1.43
   4   6  -7   32.17    1.21
   4   6  -7   31.60    1.40
   4   6  -7   29.97    1.50
   3   6  -7   62.61    2.11
   3   6  -7   61.68    2.35
   3   6  -7   63.32    2.41
   3   6  -7   62.20    2.02
   3   6  -7   61.13    2.01
   3   6  -7   61.32    2.56
   2   6  -7    1.12    0.18
   2   6  -7    1.23    0.18
   2   6  -7    0.67    0.33
   2   6  -7    1.47    0.18
   2   6  -7    1.63    0.36
   1   6  -7   17.97    0.72
   1   6  -7   18.07    1.00
   1   6  -7   18.68    0.72
   1   6  -7   17.37    0.99
   1   6  -7   18.44    0.76
   0   6  -7   19.72    0.84
   0   6  -7   19.76    1.25
   0   6  -7   20.12    1.06
   0   6  -7   19.37    0.80
   0   6  -7   18.97    1.03
   0   6  -7   19.42    0.84
   0   6  -7   19.72    1.47
   0   6  -7   20.25    0.80
  -1   6  -7   22.75    1.26
  -1   6  -7   23.10    0.88
  -1   6  -7   19.86    0.87
  -1   6  -7   21.94    0.91
  -1   6  -7   20.34    0.92
  -1   6  -7   20.83    1.45
  -1   6  -7   21.81    1.10
  -2   6  -7   21.88    0.92
  -2   6  -7   22.21    1.07
  -2   6  -7   20.78    0.87
  -2   6  -7   21.59    1.16
  -2   6  -7   20.13    1.34
  -2   6  -7   21.84    0.87
  -2   6  -7   21.40    0.93
  -3   6  -7    0.57    0.15
  -3   6  -7    0.79    0.29
  -3   6  -7    0.72    0.17
  -3   6  -7    0.40    0.23
   7   5  -7    9.20    0.51
   7   5  -7    9.17    0.41
   7   5  -7    8.41    0.40
   7   5  -7    8.10    0.48
   7   5  -7    8.63    0.47
   6   5  -7    0.28    0.22
   6   5  -7    0.60    0.17
   6   5  -7    0.19    0.22
   6   5  -7    0.53    0.14
   6   5  -7    0.31    0.16
   6   5  -7    0.22    0.23
   6   5  -7    0.25    0.18
   6   5  -7    0.59    0.16
   5   5  -7   20.89    1.09
   5   5  -7   21.83    0.94
   5   5  -7   21.81    0.92
   5   5  -7   22.23    0.88
   5   5  -7   21.50    0.91
   5   5  -7   20.39    1.16
   5   5  -7   23.05    1.11
   5   5  -7   21.72    1.08
   4   5  -7    1.08    0.31
   4   5  -7    1.63    0.38
   4   5  -7    1.07    0.22
   4   5  -7    0.93    0.33
   4   5  -7    1.31    0.22
   4   5  -7    1.50    0.24
   4   5  -7    0.96    0.21
   3   5  -7   23.34    1.21
   3   5  -7   23.07    1.30
   3   5  -7   24.36    0.98
   3   5  -7   23.29    0.92
   3   5  -7   22.67    1.19
   3   5  -7   23.79    0.94
   2   5  -7   27.20    1.04
   2   5  -7   27.02    1.06
   2   5  -7   28.31    1.43
   2   5  -7   27.08    1.32
   2   5  -7   26.85    1.01
   2   5  -7   28.19    1.32
   1   5  -7    1.95    0.40
   1   5  -7    1.71    0.23
   1   5  -7    3.24    0.57
   1   5  -7    2.38    0.41
   1   5  -7    1.83    0.22
   1   5  -7    2.14    0.25
   0   5  -7   92.66    3.73
   0   5  -7   96.95    3.37
   0   5  -7   96.47    4.36
   0   5  -7   92.16    3.13
   0   5  -7   91.23    3.41
   0   5  -7   93.53    2.99
   0   5  -7   96.86    3.19
  -1   5  -7   13.02    0.85
  -1   5  -7   13.45    0.87
  -1   5  -7   13.60    0.64
  -1   5  -7   13.74    1.21
  -1   5  -7   12.70    0.66
  -1   5  -7   11.68    1.00
  -1   5  -7   13.78    0.70
  -1   5  -7   13.43    0.71
  -2   5  -7   53.38    2.78
  -2   5  -7   55.05    1.92
  -2   5  -7   55.44    2.03
  -2   5  -7   56.22    2.06
  -2   5  -7   57.59    2.39
  -2   5  -7   55.65    2.16
  -2   5  -7   53.92    2.01
  -2   5  -7   53.60    2.19
  -3   5  -7   66.14    2.21
  -3   5  -7   63.58    2.31
  -3   5  -7   65.15    2.59
  -3   5  -7   63.49    2.35
  -3   5  -7   63.06    3.01
  -3   5  -7   62.51    2.34
  -3   5  -7   64.66    2.28
  -3   5  -7   65.50    2.42
  -4   5  -7    0.34    0.18
  -4   5  -7    0.23    0.19
  -4   5  -7    0.32    0.16
  -4   5  -7    0.30    0.28
  -4   5  -7    0.41    0.24
  -5   5  -7   29.22    1.14
  -5   5  -7   32.21    1.10
   7   4  -7   25.71    0.98
   7   4  -7   26.37    1.03
   7   4  -7   25.76    1.06
   7   4  -7   27.79    0.98
   7   4  -7   23.83    0.91
   7   4  -7   23.65    0.93
   7   4  -7   22.77    1.05
   6   4  -7   12.12    0.60
   6   4  -7   11.31    0.63
   6   4  -7   11.69    0.71
   6   4  -7   12.31    0.76
   6   4  -7   11.88    0.72
   6   4  -7   10.48    0.63
   6   4  -7   11.81    0.59
   6   4  -7   11.59    0.55
   6   4  -7   11.56    0.73
   5   4  -7   57.19    1.96
   5   4  -7   57.05    2.06
   5   4  -7   55.77    2.12
   5   4  -7   55.10    2.04
   5   4  -7   55.69    2.27
   5   4  -7   55.74    2.19
   5   4  -7   55.62    2.23
   5   4  -7   59.56    2.10
   5   4  -7   55.52    2.38
   4   4  -7    1.11    0.22
   4   4  -7    0.79    0.21
   4   4  -7    0.33    0.18
   4   4  -7    0.21    0.34
   4   4  -7    0.14    0.25
   4   4  -7    0.64    0.36
   4   4  -7    0.77    0.20
   4   4  -7    0.45    0.29
   4   4  -7    0.39    0.19
   3   4  -7   54.80    1.96
   3   4  -7   58.27    2.02
   3   4  -7   53.53    2.19
   3   4  -7   54.15    2.17
   3   4  -7   52.99    1.88
   3   4  -7   53.34    1.98
   3   4  -7   54.30    2.41
   2   4  -7   39.91    1.71
   2   4  -7   42.26    1.91
   2   4  -7   39.66    1.41
   2   4  -7   38.71    1.46
   2   4  -7   39.70    1.70
   2   4  -7   40.03    1.49
   1   4  -7   19.98    1.49
   1   4  -7   18.76    0.81
   1   4  -7   19.56    1.08
   1   4  -7   19.09    0.81
   1   4  -7   19.24    0.77
   1   4  -7   19.43    1.01
   1   4  -7   18.46    1.14
   0   4  -7  188.85    6.17
   0   4  -7  189.93    5.99
   0   4  -7  182.71    6.74
   0   4  -7  191.31    6.35
   0   4  -7  185.70    6.33
   0   4  -7  180.11    7.81
   0   4  -7  188.64    5.74
   0   4  -7  195.07    6.10
  -1   4  -7    3.23    0.31
  -1   4  -7    3.26    0.32
  -1   4  -7    3.19    0.37
  -1   4  -7    3.53    0.45
  -1   4  -7    2.89    0.63
  -1   4  -7    3.43    0.59
  -1   4  -7    3.13    0.44
  -1   4  -7    3.10    0.33
  -1   4  -7    3.72    0.56
  -2   4  -7   31.98    1.89
  -2   4  -7   30.44    1.43
  -2   4  -7   29.33    1.28
  -2   4  -7   28.24    1.60
  -2   4  -7   30.60    1.20
  -2   4  -7   31.11    1.26
  -2   4  -7   32.29    1.31
  -2   4  -7   32.89    1.43
  -3   4  -7   73.85    2.94
  -3   4  -7   73.58    2.65
  -3   4  -7   70.92    2.62
  -3   4  -7   72.62    2.70
  -3   4  -7   72.67    2.60
  -3   4  -7   73.84    2.48
  -3   4  -7   72.96    3.43
  -3   4  -7   69.51    2.77
  -4   4  -7    0.18    0.35
  -4   4  -7    0.45    0.23
  -4   4  -7    0.36    0.30
  -4   4  -7    0.86    0.43
  -4   4  -7    1.05    0.26
  -4   4  -7    0.96    0.23
  -4   4  -7    0.53    0.27
  -4   4  -7    0.67    0.28
   4  -4   7    0.86    0.35
  -5   4  -7   27.18    1.09
  -5   4  -7   25.20    1.25
  -5   4  -7   27.87    1.14
  -5   4  -7   29.75    1.21
   7   3  -7   13.10    0.64
   7   3  -7   11.99    0.63
   7   3  -7   11.90    0.66
   7   3  -7   11.96    0.61
  -7  -3   7   12.74    0.69
   6   3  -7    4.90    0.46
   6   3  -7    5.11    0.42
   6   3  -7    4.82    0.49
   6   3  -7    4.32    0.47
   6   3  -7    4.34    0.47
   6   3  -7    3.67    0.44
   6   3  -7    5.26    0.47
   6   3  -7    4.88    0.37
   6   3  -7    5.09    0.48
   6   3  -7    4.51    0.31
   5   3  -7    5.51    0.51
   5   3  -7    5.26    0.52
   5   3  -7    4.10    0.49
   5   3  -7    4.50    0.53
   5   3  -7    4.59    0.42
   5   3  -7    4.21    0.39
   5   3  -7    5.45    0.39
   5   3  -7    3.91    0.50
   5   3  -7    5.38    0.51
   5   3  -7    4.77    0.57
   4   3  -7   16.44    0.98
   4   3  -7   16.29    0.80
   4   3  -7   16.25    1.07
   4   3  -7   15.94    0.85
   4   3  -7   15.45    0.85
   4   3  -7   17.84    0.92
   4   3  -7   16.63    1.01
   4   3  -7   18.07    0.84
   4   3  -7   16.21    1.05
   4   3  -7   16.69    0.78
   3   3  -7    2.59    0.49
   3   3  -7    1.23    0.25
   3   3  -7    2.49    0.28
   3   3  -7    1.33    0.39
   3   3  -7    1.71    0.29
   3   3  -7    0.68    0.32
   3   3  -7    1.35    0.26
   3   3  -7    1.20    0.31
  -3  -3   7    1.60    0.71
   2   3  -7   37.54    1.61
   2   3  -7   38.25    1.44
   2   3  -7   37.73    1.36
   2   3  -7   36.97    1.52
  -2  -3   7   34.83    2.75
   1   3  -7   13.09    0.63
   1   3  -7   12.66    1.16
   1   3  -7   12.92    0.59
   0   3  -7   27.91    1.50
   0   3  -7   27.02    1.07
   0   3  -7   27.25    1.00
   0   3  -7   26.16    1.71
  -1   3  -7  103.44    3.37
  -1   3  -7   94.29    4.46
  -1   3  -7  105.57    3.81
  -1   3  -7   94.63    3.86
  -1   3  -7   99.95    3.55
  -1   3  -7  100.28    3.16
  -2   3  -7    6.52    0.61
  -2   3  -7    5.98    0.74
  -2   3  -7    5.43    0.62
  -2   3  -7    6.02    0.61
  -2   3  -7    5.31    0.45
  -2   3  -7    5.64    0.80
  -2   3  -7    6.07    0.42
  -3   3  -7   47.54    1.73
  -3   3  -7   46.73    1.88
  -3   3  -7   48.75    1.88
  -3   3  -7   47.81    2.14
  -3   3  -7   45.74    1.86
  -3   3  -7   49.02    1.82
  -3   3  -7   46.95    2.00
  -3   3  -7   47.57    1.92
  -3   3  -7   49.51    2.51
  -4   3  -7   17.47    1.13
  -4   3  -7   18.95    0.90
  -4   3  -7   18.11    0.91
  -4   3  -7   18.27    1.04
  -4   3  -7   19.23    1.34
  -4   3  -7   18.56    0.90
  -4   3  -7   16.97    0.99
  -4   3  -7   18.98    1.00
   4  -3   7   17.31    1.13
  -5   3  -7   45.37    1.84
  -5   3  -7   51.77    2.10
  -5   3  -7   44.19    1.76
  -5   3  -7   46.00    1.72
  -5   3  -7   48.23    1.98
  -5   3  -7   45.24    1.86
   5  -3   7   48.46    2.00
  -6   3  -7   64.39    2.40
  -6   3  -7   58.01    2.14
  -6   3  -7   60.54    2.01
   7   2  -7   62.38    2.18
   7   2  -7   63.01    2.11
  -7  -2   7   63.11    2.32
   6   2  -7    5.36    0.41
   6   2  -7    5.18    0.52
   6   2  -7    4.61    0.52
   6   2  -7    5.16    0.53
   5   2  -7   49.67    2.04
   5   2  -7   48.27    2.16
   5   2  -7   52.51    2.17
   5   2  -7   52.62    1.91
   5   2  -7   53.56    2.15
   5   2  -7   49.25    2.04
   5   2  -7   47.66    1.91
   4   2  -7  191.46    6.63
   4   2  -7  181.16    6.27
   4   2  -7  181.86    5.90
   4   2  -7  196.12    6.28
   4   2  -7  184.63    6.18
   4   2  -7  188.55    6.26
   4   2  -7  182.37    6.91
   4   2  -7  199.76    6.31
   4   2  -7  194.42    6.85
   4   2  -7  183.12    6.39
   3   2  -7   25.71    1.16
   3   2  -7   25.14    1.25
   3   2  -7   25.78    1.09
   3   2  -7   25.46    1.23
  -3  -2   7   25.31    2.21
   2   2  -7  199.89    6.37
   2   2  -7  195.87    6.92
   2   2  -7  188.74    9.07
  -2  -2   7  192.68   10.89
   1   2  -7   54.76    2.08
   1   2  -7   47.36    2.95
   1   2  -7   53.85    1.90
   1   2  -7   51.71    2.63
  -1  -2   7   54.91    3.49
   0   2  -7   54.83    1.88
   0   2  -7   51.70    2.65
   0   2  -7   51.71    3.00
  -1   2  -7  102.68    3.36
  -1   2  -7   97.16    4.43
  -1   2  -7   99.49    3.85
  -2   2  -7    1.45    0.23
  -2   2  -7    1.61    0.25
  -2   2  -7    1.72    0.47
  -2   2  -7    1.91    0.46
  -3   2  -7  113.41    3.61
  -3   2  -7  110.16    3.84
  -3   2  -7  108.62    3.90
  -3   2  -7  112.16    4.22
  -3   2  -7  118.72    4.03
  -3   2  -7  107.10    4.86
  -4   2  -7   45.78    2.07
  -4   2  -7   44.70    1.87
  -4   2  -7   48.62    1.80
  -4   2  -7   50.21    2.43
  -4   2  -7   46.89    1.89
  -4   2  -7   46.94    1.96
  -4   2  -7   43.60    1.72
   4  -2   7   44.38    2.05
  -5   2  -7   17.46    1.13
  -5   2  -7   16.99    0.97
  -5   2  -7   16.42    0.97
   5  -2   7   15.30    1.05
  -6   2  -7   48.24    2.06
  -6   2  -7   48.05    1.84
  -6   2  -7   45.82    1.82
   6  -2   7   47.56    1.97
  -7   2  -7    0.72    0.16
  -7   2  -7    0.99    0.24
   7  -2   7    0.58    0.24
   7   1  -7    0.32    0.18
   7   1  -7    0.22    0.14
  -7  -1   7   -0.07    0.16
   6   1  -7   12.61    0.77
   6   1  -7   12.86    0.72
  -6  -1   7   12.56    0.80
   5   1  -7    0.26    0.27
   5   1  -7    0.80    0.26
   5   1  -7    0.64    0.30
   5   1  -7    0.32    0.32
   4   1  -7   21.14    1.09
   4   1  -7   23.60    1.26
   4   1  -7   21.84    1.03
   4   1  -7   20.26    1.15
   4   1  -7   22.66    1.23
   4   1  -7   21.53    1.01
   3   1  -7   15.62    0.85
   3   1  -7   14.47    0.86
   3   1  -7   15.48    0.84
   3   1  -7   16.33    0.94
   3   1  -7   14.10    1.31
  -3  -1   7   15.66    1.64
   2   1  -7   15.00    1.32
   2   1  -7   15.30    0.82
   2   1  -7   15.23    0.87
   2   1  -7   15.84    0.87
  -2  -1   7   16.43    1.61
   1   1  -7    6.92    0.46
   1   1  -7    7.03    0.82
   1   1  -7    7.10    0.50
   1   1  -7    6.27    0.70
   1   1  -7    6.80    0.51
  -1  -1   7    7.01    0.95
   0   1  -7   32.88    2.06
   0   1  -7   33.63    1.44
   0   1  -7   34.23    1.85
   0   1  -7   33.87    1.58
   0   1  -7   34.63    1.33
   0  -1   7   34.37    2.27
   0  -1   7   35.69    2.47
  -1   1  -7   48.73    2.17
  -1   1  -7   49.30    2.69
  -1   1  -7   48.15    1.76
  -1   1  -7   50.53    2.48
   1  -1   7   49.82    3.24
  -2   1  -7    2.30    0.29
  -2   1  -7    2.30    0.51
  -2   1  -7    2.39    0.29
  -3   1  -7   14.32    0.84
  -3   1  -7   15.91    1.02
  -3   1  -7   14.77    0.78
  -3   1  -7   14.80    1.13
  -4   1  -7   62.30    2.93
  -4   1  -7   61.09    2.73
  -4   1  -7   62.22    2.55
  -4   1  -7   61.18    2.44
   4  -1   7   57.91    2.50
  -5   1  -7    4.76    0.66
  -5   1  -7    5.09    0.53
  -5   1  -7    6.03    0.70
   5  -1   7    5.49    0.67
  -6   1  -7   35.62    1.59
  -6   1  -7   34.92    1.68
   6  -1   7   32.02    1.59
  -7   1  -7   32.81    1.53
  -7   1  -7   35.35    1.42
   7  -1   7   33.77    1.45
  -8   1  -7    3.70    0.27
  -8   1  -7    3.63    0.33
   7   0  -7   53.67    1.86
   7   0  -7   54.60    1.88
  -7   0   7   51.83    1.91
   6   0  -7  147.91    4.93
   6   0  -7  149.32    4.82
  -6   0   7  144.20    5.38
  -6   0   7  140.74    5.06
   5   0  -7    4.02    0.47
   5   0  -7    4.03    0.52
  -5   0   7    3.39    0.46
  -5   0   7    4.96    0.61
   4   0  -7  171.21    5.94
   4   0  -7  176.84    7.54
   4   0  -7  186.46    6.33
  -4   0   7  179.91    6.35
   3   0  -7   11.12    1.20
   3   0  -7   13.01    0.94
  -3   0   7   15.56    1.52
   2   0  -7   75.32    3.39
   2   0  -7   75.17    3.86
   2   0  -7   71.45    2.93
  -2   0   7   72.01    4.62
   1   0  -7  247.20    8.82
   1   0  -7  235.87    9.80
   1   0  -7  249.80   11.26
   1   0  -7  255.88   10.34
  -1   0   7  239.48   14.00
  -1   0   7  267.25   13.58
   0   0  -7    4.43    0.43
   0   0  -7    3.85    0.58
   0   0  -7    3.47    0.61
   0   0  -7    4.63    0.42
   0   0   7    4.84    0.67
   0   0   7    4.48    0.70
  -1   0  -7  237.16    8.91
  -1   0  -7  270.25   10.43
  -1   0  -7  241.97    9.99
  -1   0  -7  253.39   11.33
   1   0   7  254.76   13.41
   1   0   7  264.91   14.05
  -2   0  -7   31.72    1.53
  -2   0  -7   30.00    1.69
  -2   0  -7   30.68    1.80
   2   0   7   31.77    2.20
  -3   0  -7   84.74    3.75
  -3   0  -7   82.22    3.66
  -4   0  -7  165.65    6.82
  -4   0  -7  163.60    5.89
  -4   0  -7  175.32    7.07
   4   0   7  160.36    5.79
  -5   0  -7    0.31    0.28
  -5   0  -7    0.39    0.36
   5   0   7    0.19    0.31
  -6   0  -7   89.53    3.63
   6   0   7   91.79    3.46
  -7   0  -7   18.87    1.10
   7   0   7   19.17    1.07
  -8   0  -7    7.27    0.51
  -8   0  -7    6.46    0.52
   8   0   7    6.68    0.50
   7  -1  -7    4.64    0.33
   6  -1  -7    3.46    0.39
  -6   1   7    3.76    0.40
  -6   1   7    3.26    0.45
   5  -1  -7    2.43    0.42
  -5   1   7    1.50    0.34
  -5   1   7    1.78    0.41
   4  -1  -7    1.09    0.36
   4  -1  -7    0.92    0.39
  -4   1   7    0.36    0.35
  -4   1   7    0.96    0.37
   3  -1  -7   11.17    1.00
  -3   1   7   13.44    1.40
   2  -1  -7    1.62    0.42
   2  -1  -7    1.30    0.46
   2  -1  -7    1.26    0.38
  -2   1   7    1.81    0.62
   1  -1  -7    6.56    0.62
   1  -1  -7    6.28    0.73
   1  -1  -7    5.67    0.67
  -1   1   7    6.90    0.95
   0  -1  -7   56.86    2.95
   0  -1  -7   54.94    2.63
   0  -1  -7   56.78    2.62
   0   1   7   58.75    3.52
  -1  -1  -7   22.11    1.39
  -1  -1  -7   22.93    1.19
  -1  -1  -7   20.21    1.27
   1   1   7   21.72    1.55
  -2  -1  -7   18.96    1.24
  -2  -1  -7   18.28    1.03
  -2  -1  -7   17.33    1.13
  -3  -1  -7    1.58    0.42
  -3  -1  -7    1.29    0.40
  -3  -1  -7    1.56    0.31
  -4  -1  -7   29.69    1.62
  -5  -1  -7   18.63    1.24
   5   1   7   18.48    1.13
  -6  -1  -7    3.43    0.55
   6   1   7    4.95    0.66
  -7  -1  -7   29.41    1.51
   7   1   7   30.23    1.45
  -8  -1  -7    1.56    0.33
   8   1   7    1.67    0.33
   6  -2  -7   53.74    1.83
  -6   2   7   46.97    2.04
   5  -2  -7   16.12    0.88
  -5   2   7   14.78    0.85
  -5   2   7   15.35    0.98
  -5   2   7   12.28    0.80
   4  -2  -7   45.01    1.88
  -4   2   7   42.26    1.92
  -4   2   7   48.10    2.17
   3  -2  -7  175.89    5.66
   3  -2  -7  167.88    7.46
  -3   2   7  162.59    7.38
  -3   2   7  160.05    6.36
  -3   2   7  169.88    6.02
  -3   2   7  170.82    9.46
   2  -2  -7    2.79    0.59
   2  -2  -7    1.92    0.52
   2  -2  -7    2.64    0.51
   2  -2  -7    2.28    0.44
  -2   2   7    1.01    0.34
  -2   2   7    1.89    0.45
  -2   2   7    2.48    0.72
   1  -2  -7  263.95   10.82
   1  -2  -7  272.07   12.34
   1  -2  -7  276.54   11.54
  -1   2   7  290.27   15.00
   0  -2  -7  213.90    8.80
   0  -2  -7  222.00    9.27
   0  -2  -7  217.01    9.95
   0   2   7  224.44    9.30
   0   2   7  230.39   12.01
  -1  -2  -7  194.03    7.99
  -1  -2  -7  187.59    8.60
  -1  -2  -7  180.16    7.60
   1   2   7  190.79   10.26
   1   2   7  198.82    8.01
  -2  -2  -7  385.27   16.72
  -2  -2  -7  351.27   14.69
  -2  -2  -7  392.17   15.63
   2   2   7  397.03   15.65
  -3  -2  -7   58.47    3.03
  -3  -2  -7   57.28    2.70
  -3  -2  -7   61.64    2.80
   3   2   7   59.56    2.80
  -4  -2  -7  263.42   10.79
   4   2   7  250.93   10.82
   5   2   7  103.55    4.98
   5   2   7  115.76    4.05
  -6  -2  -7    2.22    0.52
   6   2   7    3.32    0.60
   6   2   7    2.27    0.51
   6   2   7    3.16    0.52
  -7  -2  -7  101.72    3.98
   7   2   7  100.49    3.72
  -8  -2  -7    6.01    0.62
   8   2   7    7.39    0.59
  -9  -2  -7   21.12    0.94
   9   2   7   20.55    0.89
   6  -3  -7    7.80    0.44
   5  -3  -7    1.94    0.35
  -5   3   7    2.34    0.35
  -5   3   7    2.93    0.46
   4  -3  -7    1.77    0.39
  -4   3   7    1.08    0.41
  -4   3   7    0.89    0.32
  -4   3   7    0.83    0.32
   3  -3  -7    0.33    0.37
  -3   3   7    0.22    0.30
  -3   3   7    0.16    0.35
  -3   3   7    0.71    0.41
  -3   3   7    0.87    0.38
   2  -3  -7   14.37    1.08
   2  -3  -7   13.86    0.93
  -2   3   7   13.73    1.45
  -2   3   7   12.58    1.01
  -2   3   7   12.89    1.08
  -2   3   7   13.16    1.07
   1  -3  -7    6.67    0.67
   1  -3  -7    7.17    0.85
   1  -3  -7    8.47    0.83
  -1   3   7    7.76    0.76
  -1   3   7    7.28    0.71
  -1   3   7    8.56    1.12
   0  -3  -7    2.24    0.48
   0  -3  -7    0.91    0.34
   0  -3  -7    2.04    0.48
   0   3   7    0.96    0.33
   0   3   7    1.47    0.50
  -1  -3  -7    4.62    0.66
  -1  -3  -7    4.80    0.62
   1   3   7    4.78    0.52
  -2  -3  -7    0.87    0.34
  -2  -3  -7    1.70    0.44
   2   3   7    0.35    0.20
  -3  -3  -7   19.94    1.35
  -3  -3  -7   17.82    1.17
   3   3   7   18.62    1.13
  -4  -3  -7   11.86    1.06
   4   3   7   11.46    0.87
   5   3   7   24.18    1.37
   5   3   7   20.94    1.36
  -6  -3  -7    1.13    0.50
   6   3   7    1.19    0.39
   6   3   7    1.01    0.40
   6   3   7    1.39    0.47
  -7  -3  -7    0.71    0.42
  -7  -3  -7    0.58    0.37
   7   3   7    0.88    0.32
   7   3   7    1.06    0.39
  -8  -3  -7   25.96    1.22
  -8  -3  -7   27.26    1.35
   8   3   7   26.53    1.26
   8   3   7   30.48    1.43
  -9  -3  -7    2.68    0.33
   9   3   7    2.20    0.29
   9   3   7    1.97    0.26
   5  -4  -7   67.98    2.37
  -5   4   7   70.79    2.32
  -5   4   7   71.45    2.45
  -4   4   7    2.50    0.41
  -4   4   7    2.15    0.42
  -4   4   7    2.28    0.39
   3  -4  -7   45.09    2.32
  -3   4   7   43.18    2.03
  -3   4   7   52.87    2.32
  -3   4   7   47.45    2.02
  -3   4   7   46.13    1.94
   2  -4  -7   50.36    2.47
  -2   4   7   49.13    2.35
  -2   4   7   44.68    2.00
  -2   4   7   49.07    2.42
  -2   4   7   48.10    2.18
   1  -4  -7   16.84    1.27
  -1   4   7   16.59    1.14
  -1   4   7   16.80    1.14
  -1   4   7   16.79    1.11
   0  -4  -7  237.81    9.46
   0  -4  -7  228.85   10.59
   0   4   7  241.04    8.53
   0   4   7  229.28    9.86
  -1  -4  -7   19.51    1.17
  -1  -4  -7   21.34    1.39
  -1  -4  -7   20.49    1.43
   1   4   7   21.48    1.37
   1   4   7   18.46    1.07
   1   4   7   19.94    1.23
  -2  -4  -7  107.13    4.20
  -2  -4  -7  112.71    4.91
  -2  -4  -7  117.33    5.56
   2   4   7  128.63    5.38
   2   4   7  111.95    5.04
  -3  -4  -7  130.05    6.07
  -3  -4  -7  118.05    4.52
  -3  -4  -7  119.37    5.24
   3   4   7  121.98    5.46
   3   4   7  143.63    5.87
  -4  -4  -7   29.39    1.91
   4   4   7   27.70    1.53
   5   4   7  166.58    6.31
   5   4   7  181.23    6.80
   5   4   7  156.55    7.13
   5   4   7  171.04    6.33
   6   4   7    2.35    0.42
   6   4   7    2.20    0.47
   6   4   7    2.71    0.49
   6   4   7    2.51    0.58
   6   4   7    3.22    0.74
  -7  -4  -7  105.74    4.24
   7   4   7  107.02    3.86
   7   4   7  107.47    4.20
   7   4   7  106.14    3.89
   7   4   7  106.87    4.01
  -8  -4  -7  108.37    4.08
  -8  -4  -7  104.45    3.83
   8   4   7  106.51    3.76
   8   4   7  108.89    4.06
   8   4   7  106.87    3.75
  -9  -4  -7    9.78    0.57
  -9  -4  -7   10.77    0.64
   9   4   7   10.95    0.59
   9   4   7   10.77    0.55
  -4   5   7    1.50    0.32
  -4   5   7    2.11    0.30
  -4   5   7    2.18    0.29
   3  -5  -7   27.19    1.33
   3  -5  -7   25.13    1.55
  -3   5   7   29.42    1.30
  -3   5   7   28.03    1.49
  -3   5   7   28.31    1.37
  -3   5   7   27.29    1.27
   2  -5  -7   17.82    1.28
  -2   5   7   16.11    1.12
  -2   5   7   17.26    1.05
  -2   5   7   18.60    1.26
  -2   5   7   16.94    1.02
  -2   5   7   17.53    1.09
   1  -5  -7   14.27    1.20
  -1   5   7   12.93    1.03
  -1   5   7   11.93    0.91
  -1   5   7   12.14    0.98
  -1   5   7   13.36    0.93
  -1   5   7   13.69    1.07
  -1   5   7   13.59    0.83
   0  -5  -7   43.78    2.33
   0   5   7   40.49    1.71
   0   5   7   39.32    1.94
   0   5   7   38.75    1.72
   0   5   7   38.44    1.86
   0   5   7   38.64    1.70
   0   5   7   42.38    1.92
  -1  -5  -7    3.00    0.68
   1   5   7    3.87    0.70
   1   5   7    2.68    0.46
   1   5   7    1.86    0.37
   1   5   7    2.20    0.32
   1   5   7    2.55    0.50
  -2  -5  -7    0.98    0.42
  -2  -5  -7    2.05    0.57
  -2  -5  -7    1.27    0.52
   2   5   7    1.22    0.25
   2   5   7    1.02    0.36
   2   5   7    1.10    0.39
   2   5   7    3.28    0.45
   2   5   7    1.02    0.32
  -3  -5  -7    7.59    0.72
  -3  -5  -7    6.12    0.82
   3   5   7    6.33    0.56
   3   5   7    6.85    0.74
   3   5   7    6.76    0.67
   3   5   7    6.88    0.56
   4   5   7    7.02    0.76
   4   5   7    6.95    0.57
   4   5   7    6.78    0.79
   4   5   7    6.08    0.56
   5   5   7    2.09    0.50
   5   5   7    0.81    0.43
   5   5   7    0.94    0.39
   5   5   7    0.79    0.44
   5   5   7    1.05    0.47
   5   5   7    0.82    0.31
   5   5   7    1.71    0.38
   6   5   7    6.44    0.77
   6   5   7    8.65    0.89
   6   5   7    6.87    0.95
   6   5   7    4.62    0.69
   6   5   7    5.33    0.56
   6   5   7    5.79    0.76
   6   5   7    5.13    0.57
  -7  -5  -7    5.85    0.74
   7   5   7    6.85    0.60
   7   5   7    5.81    0.73
   7   5   7    6.32    0.83
   7   5   7    6.72    0.78
   7   5   7    5.90    0.65
   7   5   7    5.50    0.66
  -8  -5  -7    1.83    0.42
   8   5   7    2.29    0.43
   8   5   7    2.11    0.31
  -9  -5  -7   12.44    0.63
  -9  -5  -7   11.70    0.67
   9   5   7   12.36    0.66
   9   5   7   11.98    0.52
  -3   6   7   19.38    1.06
  -3   6   7   18.95    0.89
  -3   6   7   18.13    0.94
  -3   6   7   19.64    0.79
   2  -6  -7   98.17    3.66
   2  -6  -7   97.80    4.29
  -2   6   7   97.43    3.96
  -2   6   7   98.60    3.41
  -2   6   7   97.98    3.40
  -2   6   7   96.69    3.68
   1  -6  -7   10.92    1.10
  -1   6   7   10.65    0.73
  -1   6   7   11.05    0.91
  -1   6   7   11.71    1.01
  -1   6   7   12.59    0.95
  -1   6   7   11.47    0.74
  -1   6   7   10.85    0.86
   0  -6  -7   93.85    4.06
   0   6   7   77.87    3.29
   0   6   7   80.27    3.14
   0   6   7   79.91    3.62
   0   6   7   81.55    2.96
   0   6   7   76.78    2.92
   0   6   7   79.60    3.11
   0   6   7   80.06    3.07
   0   6   7   84.64    3.50
   0   6   7   85.31    3.35
   0   6   7   82.04    3.02
  -1  -6  -7   44.88    2.48
   1   6   7   42.56    1.77
   1   6   7   41.45    1.97
   1   6   7   39.65    2.42
   1   6   7   40.53    1.74
   1   6   7   42.46    2.03
   1   6   7   41.61    1.83
   1   6   7   43.68    1.86
   1   6   7   43.89    1.70
   1   6   7   40.84    2.11
   1   6   7   42.37    1.95
   1   6   7   42.10    1.83
  -2  -6  -7   11.91    1.13
  -2  -6  -7    9.79    0.96
   2   6   7    9.70    0.96
   2   6   7    9.83    0.63
   2   6   7   10.77    0.78
   2   6   7   10.21    0.83
   2   6   7   10.37    0.73
   2   6   7    9.56    1.02
   2   6   7   11.04    0.88
   2   6   7   10.07    0.80
   2   6   7    9.90    0.73
   2   6   7    8.90    0.81
   2   6   7   10.15    0.76
  -3  -6  -7  134.70    5.48
   3   6   7  153.03    5.06
   3   6   7  162.00    5.37
   3   6   7  152.04    4.96
   3   6   7  156.16    5.15
   3   6   7  159.57    5.94
   3   6   7  148.72    6.99
   3   6   7  151.22    5.83
   3   6   7  151.07    5.13
   3   6   7  158.37    5.57
   3   6   7  158.91    5.58
   3   6   7  156.72    5.24
   4   6   7   68.74    3.03
   4   6   7   71.62    2.66
   4   6   7   71.56    2.68
   4   6   7   72.14    3.20
   4   6   7   69.82    2.91
   4   6   7   68.21    2.91
   4   6   7   67.98    2.53
   4   6   7   77.38    2.76
   4   6   7   74.03    3.20
   4   6   7   74.00    2.70
   4   6   7   73.07    2.61
   4   6   7   71.10    3.63
   5   6   7   17.55    1.17
   5   6   7   15.01    1.20
   5   6   7   16.30    1.08
   5   6   7   18.27    0.97
   5   6   7   16.70    1.18
   5   6   7   18.35    1.00
   5   6   7   17.62    0.91
   5   6   7   18.34    1.10
   5   6   7   15.31    1.13
   5   6   7   17.23    1.01
   5   6   7   18.82    1.28
   5   6   7   16.93    0.92
   6   6   7  115.72    4.56
   6   6   7  108.64    4.26
   6   6   7  121.15    4.43
   6   6   7  112.58    4.05
   6   6   7  112.38    4.50
   6   6   7  108.60    4.00
   6   6   7  106.58    3.98
   6   6   7  112.32    3.78
   6   6   7  109.94    3.95
   6   6   7  115.39    4.65
   6   6   7  109.37    4.34
   6   6   7  117.09    3.94
   7   6   7   -0.19    0.37
   7   6   7    0.01    0.28
   7   6   7    0.05    0.23
   7   6   7    0.22    0.32
   7   6   7    0.48    0.19
   7   6   7   -0.20    0.33
   7   6   7    0.16    0.30
  -8  -6  -7   78.64    3.09
   8   6   7   75.51    2.64
   8   6   7   80.60    3.08
   8   6   7   75.85    2.92
   8   6   7   79.95    2.62
  -9  -6  -7   21.45    0.96
  -9  -6  -7   21.47    0.90
   9   6   7   21.17    0.96
   2  -7  -7   11.79    0.78
  -2   7   7   11.07    0.70
  -2   7   7   11.80    0.66
  -2   7   7   11.86    0.68
  -2   7   7   11.74    0.79
   1  -7  -7    0.71    0.40
   1  -7  -7    1.20    0.51
  -1   7   7    1.05    0.33
  -1   7   7    0.92    0.16
  -1   7   7    0.79    0.33
  -1   7   7    1.09    0.41
  -1   7   7    1.04    0.29
  -1   7   7    1.21    0.36
   0  -7  -7   23.90    1.66
   0   7   7   24.67    1.43
   0   7   7   21.42    1.12
   0   7   7   20.83    1.35
   0   7   7   21.66    1.19
   0   7   7   23.60    1.20
   0   7   7   24.03    1.38
   0   7   7   22.94    1.32
   0   7   7   23.11    0.95
   0   7   7   21.30    1.13
   0   7   7   19.96    1.19
  -1  -7  -7    0.24    0.57
   1   7   7    0.23    0.27
   1   7   7    0.48    0.37
   1   7   7    1.14    0.44
   1   7   7    0.37    0.26
   1   7   7    0.28    0.30
   1   7   7    0.18    0.17
   1   7   7    1.45    0.40
   1   7   7    1.19    0.45
   1   7   7    0.43    0.29
   1   7   7    0.61    0.30
  -2  -7  -7   11.64    1.14
  -2  -7  -7    8.89    1.19
   2   7   7   10.37    0.58
   2   7   7   11.46    0.81
   2   7   7    9.37    0.73
   2   7   7   10.27    0.79
   2   7   7   10.70    0.76
   2   7   7   10.87    0.94
   2   7   7   11.41    0.89
   2   7   7   11.50    1.05
   2   7   7   11.25    0.94
   2   7   7   11.41    0.79
   3   7   7   38.58    1.47
   3   7   7   38.90    1.58
   3   7   7   38.36    1.89
   3   7   7   39.70    1.96
   3   7   7   37.28    1.61
   3   7   7   39.53    2.05
   3   7   7   40.34    1.67
   3   7   7   42.66    1.75
   3   7   7   37.86    1.68
   3   7   7   38.40    1.86
   4   7   7   16.57    0.95
   4   7   7   18.42    0.94
   4   7   7   17.85    0.99
   4   7   7   19.88    1.25
   4   7   7   19.04    0.99
   4   7   7   18.75    0.83
   4   7   7   18.60    1.17
   4   7   7   17.64    1.15
   4   7   7   18.30    1.08
   4   7   7   18.05    1.31
   4   7   7   18.19    1.03
   5   7   7   24.50    1.01
   5   7   7   26.12    1.16
   5   7   7   25.94    1.58
   5   7   7   24.79    1.29
   5   7   7   25.27    1.57
   5   7   7   25.66    1.43
   5   7   7   23.53    1.20
   5   7   7   25.13    1.23
   5   7   7   24.92    1.21
   5   7   7   25.00    1.29
   5   7   7   24.37    1.41
   5   7   7   26.05    1.50
   6   7   7    2.17    0.45
   6   7   7    3.30    0.59
   6   7   7    1.74    0.48
   6   7   7    1.66    0.34
   6   7   7    1.71    0.18
   6   7   7    2.01    0.40
   6   7   7    2.42    0.54
   6   7   7    1.54    0.39
   6   7   7    2.43    0.51
   6   7   7    2.45    0.37
   6   7   7    2.38    0.36
   6   7   7    1.70    0.51
   7   7   7    3.75    0.43
   7   7   7    4.77    0.56
   7   7   7    4.88    0.44
   7   7   7    3.78    0.60
   7   7   7    4.74    0.62
   7   7   7    3.68    0.54
   7   7   7    3.74    0.48
   7   7   7    4.14    0.50
   7   7   7    3.46    0.61
   7   7   7    5.58    0.70
  -8  -7  -7    0.47    0.29
   8   7   7    0.16    0.21
   8   7   7    0.38    0.22
   8   7   7    0.52    0.26
   8   7   7    0.31    0.23
  -1   8   7   23.06    1.08
  -1   8   7   24.40    1.00
  -1   8   7   24.97    1.02
   0  -8  -7    0.79    0.41
   0   8   7    1.54    0.32
   0   8   7    1.43    0.38
   0   8   7    1.33    0.42
   0   8   7    0.63    0.27
   0   8   7    0.96    0.26
   0   8   7    0.93    0.34
   0   8   7    1.17    0.30
  -1  -8  -7   64.07    3.37
  -1  -8  -7   65.17    2.84
   1   8   7   65.34    2.57
   1   8   7   69.33    2.62
   1   8   7   69.44    2.97
   1   8   7   64.97    2.93
   1   8   7   70.85    2.84
   1   8   7   71.05    2.80
   1   8   7   67.62    2.46
   1   8   7   74.88    2.56
   1   8   7   71.71    2.57
  -2  -8  -7   24.50    1.51
  -2  -8  -7   21.60    1.75
   2   8   7   25.83    1.20
   2   8   7   23.89    1.43
   2   8   7   24.77    1.23
   2   8   7   24.85    1.24
   2   8   7   25.35    1.38
   2   8   7   23.75    1.43
   2   8   7   26.35    1.54
   2   8   7   25.41    1.16
   2   8   7   26.47    1.19
   3   8   7   30.51    1.27
   3   8   7   32.18    1.60
   3   8   7   30.72    1.37
   3   8   7   32.14    1.46
   3   8   7   32.58    1.68
   3   8   7   31.45    1.64
   3   8   7   29.88    1.32
   3   8   7   30.31    1.75
   3   8   7   31.77    1.45
   3   8   7   33.58    1.36
   4   8   7  153.82    5.79
   4   8   7  147.74    5.07
   4   8   7  145.89    5.26
   4   8   7  150.90    5.48
   4   8   7  150.55    4.97
   4   8   7  148.81    5.19
   4   8   7  152.90    5.84
   4   8   7  147.92    5.50
   4   8   7  149.06    4.99
   4   8   7  154.40    4.83
   5   8   7    0.53    0.38
   5   8   7    0.36    0.21
   5   8   7    0.60    0.32
   5   8   7    0.53    0.25
   5   8   7    0.05    0.35
   5   8   7    0.42    0.23
   5   8   7   -0.15    0.32
   5   8   7    0.91    0.42
   5   8   7   -0.02    0.19
   6   8   7   55.29    2.36
   6   8   7   54.21    2.29
   6   8   7   55.20    2.07
   6   8   7   49.19    2.04
   6   8   7   54.46    2.48
   6   8   7   51.15    1.91
   6   8   7   56.17    2.34
   6   8   7   55.82    2.11
   6   8   7   55.57    2.03
   6   8   7   51.28    2.39
   7   8   7   29.89    1.21
   7   8   7   32.51    1.33
   7   8   7   31.61    1.59
   7   8   7   32.47    1.27
   7   8   7   32.51    1.49
   7   8   7   31.06    1.42
   7   8   7   31.70    1.46
   7   8   7   28.66    1.56
   7   8   7   32.92    1.30
  -8  -8  -7    7.86    0.54
   8   8   7    7.63    0.43
   8   8   7    6.78    0.45
   8   8   7    8.19    0.52
   8   8   7    6.87    0.49
   0   9   7    2.42    0.24
   1   9   7   29.94    1.10
   1   9   7   26.17    1.31
   1   9   7   28.18    1.16
   1   9   7   28.02    1.14
   1   9   7   28.36    1.27
   2   9   7    3.21    0.36
   2   9   7    3.02    0.51
   2   9   7    3.18    0.48
   2   9   7    3.68    0.40
   2   9   7    3.31    0.34
   2   9   7    2.64    0.38
   2   9   7    3.73    0.54
   2   9   7    2.98    0.45
   3   9   7    9.29    0.59
   3   9   7    9.87    0.79
   3   9   7    9.74    0.64
   3   9   7    8.76    0.80
   3   9   7    9.97    0.83
   3   9   7    9.91    0.69
   3   9   7    9.10    0.58
   3   9   7   10.10    0.57
   3   9   7    9.87    0.87
   4   9   7    5.48    0.44
   4   9   7    5.83    0.67
   4   9   7    4.98    0.45
   4   9   7    4.90    0.51
   4   9   7    6.04    0.44
   4   9   7    6.69    0.69
   4   9   7    6.01    0.48
   4   9   7    6.76    0.76
   4   9   7    5.09    0.62
   5   9   7    1.61    0.35
   5   9   7    1.55    0.40
   5   9   7    1.53    0.26
   5   9   7    2.25    0.44
   5   9   7    1.91    0.29
   5   9   7    1.71    0.26
   5   9   7    1.75    0.40
   5   9   7    1.93    0.42
   6   9   7    3.98    0.51
   6   9   7    3.32    0.39
   6   9   7    3.92    0.34
   6   9   7    4.05    0.53
   6   9   7    4.04    0.35
   6   9   7    4.21    0.36
   6   9   7    3.49    0.46
   7   9   7    0.28    0.13
   7   9   7    0.50    0.22
   7   9   7    0.32    0.19
   7   9   7    0.43    0.13
   7   9   7    0.02    0.22
   7   9   7    0.23    0.23
   4  10   7   41.69    1.49
   4  10   7   37.77    1.67
   4  10   7   39.41    1.45
   5   7  -8    1.61    0.16
   5   7  -8    1.61    0.23
   4   7  -8   25.63    1.13
   4   7  -8   26.56    0.85
   4   7  -8   25.04    0.95
   4   7  -8   26.72    1.09
   3   7  -8   17.54    0.81
   3   7  -8   17.24    0.60
   3   7  -8   16.77    0.68
   3   7  -8   16.68    0.84
   2   7  -8    0.66    0.15
   2   7  -8    0.50    0.12
   2   7  -8    0.44    0.26
   2   7  -8    0.43    0.23
   1   7  -8    8.17    0.37
   1   7  -8    8.26    0.56
   1   7  -8    8.39    0.41
   0   7  -8    0.23    0.12
   0   7  -8    0.19    0.12
   0   7  -8    0.02    0.20
  -1   7  -8    4.01    0.27
  -1   7  -8    4.53    0.40
   6   6  -8   13.95    0.67
   6   6  -8   13.35    0.55
   5   6  -8   22.00    1.05
   5   6  -8   23.18    0.75
   5   6  -8   21.84    0.80
   5   6  -8   22.43    0.99
   5   6  -8   21.98    0.93
   5   6  -8   20.46    0.85
   4   6  -8    0.19    0.20
   4   6  -8    0.65    0.27
   4   6  -8    0.53    0.25
   4   6  -8    0.46    0.14
   4   6  -8    0.73    0.16
   4   6  -8    0.63    0.16
   4   6  -8    0.75    0.13
   3   6  -8   62.30    1.94
   3   6  -8   60.56    1.96
   3   6  -8   58.12    2.10
   3   6  -8   61.39    2.32
   3   6  -8   60.44    2.46
   3   6  -8   59.09    2.04
   2   6  -8    6.55    0.38
   2   6  -8    6.83    0.38
   2   6  -8    6.60    0.62
   2   6  -8    6.40    0.40
   2   6  -8    6.70    0.58
   2   6  -8    6.83    0.33
   1   6  -8   47.93    1.58
   1   6  -8   47.28    1.58
   1   6  -8   47.89    1.67
   1   6  -8   46.32    1.86
   1   6  -8   47.28    1.91
   1   6  -8   47.05    1.70
   0   6  -8   44.07    1.76
   0   6  -8   42.98    2.29
   0   6  -8   45.89    1.52
   0   6  -8   45.20    1.62
   0   6  -8   43.46    1.96
   0   6  -8   43.29    1.79
   0   6  -8   44.99    1.52
   0   6  -8   43.48    1.59
  -1   6  -8    1.91    0.22
  -1   6  -8    1.80    0.23
  -1   6  -8    1.63    0.24
  -1   6  -8    1.80    0.51
  -1   6  -8    2.43    0.38
  -1   6  -8    1.38    0.41
  -1   6  -8    1.89    0.24
  -2   6  -8   54.21    1.91
  -2   6  -8   53.38    1.80
  -2   6  -8   55.44    1.80
  -2   6  -8   53.18    2.12
  -2   6  -8   53.50    1.99
  -3   6  -8   18.21    0.75
  -3   6  -8   18.60    0.83
  -3   6  -8   19.82    0.68
   6   5  -8   24.53    1.00
   6   5  -8   24.39    1.04
   6   5  -8   25.73    0.92
   6   5  -8   25.27    1.12
   6   5  -8   24.55    0.96
   6   5  -8   26.91    0.93
   6   5  -8   24.90    1.05
   5   5  -8   50.75    1.71
   5   5  -8   54.15    2.12
   5   5  -8   51.66    1.76
   5   5  -8   52.12    1.81
   5   5  -8   50.72    1.96
   5   5  -8   49.63    1.88
   5   5  -8   47.59    1.95
   5   5  -8   48.05    1.80
   4   5  -8    0.83    0.19
   4   5  -8    1.22    0.21
   4   5  -8    0.96    0.28
   4   5  -8    1.05    0.34
   4   5  -8    1.39    0.24
   4   5  -8    1.34    0.34
   4   5  -8    1.08    0.20
   3   5  -8   41.69    1.74
   3   5  -8   40.71    1.52
   3   5  -8   39.90    1.46
   3   5  -8   39.38    1.86
   3   5  -8   39.25    1.71
   3   5  -8   41.02    1.51
   3   5  -8   40.99    1.44
   2   5  -8    5.76    0.40
   2   5  -8    6.36    0.43
   2   5  -8    5.33    0.40
   2   5  -8    6.01    0.66
   2   5  -8    6.50    0.66
   2   5  -8    7.11    0.69
   2   5  -8    5.57    0.38
   1   5  -8   12.04    0.60
   1   5  -8   13.51    0.84
   1   5  -8   11.34    0.59
   1   5  -8   12.07    0.61
   1   5  -8   10.98    0.55
   1   5  -8   11.55    0.78
   1   5  -8   12.84    0.98
   0   5  -8   17.46    0.81
   0   5  -8   17.64    0.76
   0   5  -8   17.35    1.00
   0   5  -8   18.21    1.21
   0   5  -8   18.20    0.81
   0   5  -8   18.99    0.83
   0   5  -8   18.67    1.01
   0   5  -8   18.62    1.40
  -1   5  -8    2.98    0.32
  -1   5  -8    3.21    0.35
  -1   5  -8    2.85    0.34
  -1   5  -8    3.11    0.32
  -1   5  -8    4.18    0.52
  -1   5  -8    2.45    0.52
  -1   5  -8    3.15    0.46
  -1   5  -8    2.96    0.63
  -2   5  -8   36.10    1.56
  -2   5  -8   34.44    1.98
  -2   5  -8   33.56    1.40
  -2   5  -8   34.77    1.38
  -2   5  -8   36.16    1.32
  -2   5  -8   35.49    1.51
  -2   5  -8   34.97    1.37
  -2   5  -8   35.88    1.69
  -3   5  -8    0.27    0.19
  -3   5  -8    0.36    0.26
  -3   5  -8    0.10    0.20
  -3   5  -8    0.16    0.37
  -3   5  -8    0.46    0.19
  -3   5  -8    0.32    0.19
  -3   5  -8   -0.16    0.29
  -3   5  -8    0.07    0.15
  -4   5  -8    7.42    0.42
  -4   5  -8    6.28    0.39
  -4   5  -8    7.29    0.50
   7   4  -8   15.96    0.62
  -7  -4   8   15.34    0.69
   6   4  -8    1.40    0.20
   6   4  -8    1.07    0.21
   6   4  -8    0.84    0.18
   6   4  -8    0.68    0.19
   6   4  -8    1.29    0.26
   6   4  -8    0.84    0.24
   6   4  -8    1.14    0.26
   6   4  -8    0.41    0.18
   5   4  -8   47.29    1.86
   5   4  -8   47.27    1.73
   5   4  -8   48.54    1.89
   5   4  -8   47.51    2.03
   5   4  -8   49.75    1.67
   5   4  -8   46.17    1.76
   5   4  -8   45.25    1.73
   5   4  -8   45.90    1.90
   4   4  -8   25.12    1.22
   4   4  -8   21.67    0.95
   4   4  -8   23.90    1.04
   4   4  -8   22.75    1.17
   4   4  -8   23.33    1.00
   4   4  -8   23.00    1.01
   4   4  -8   21.92    1.26
   3   4  -8   20.75    0.96
   3   4  -8   22.39    0.97
   3   4  -8   21.53    0.92
   3   4  -8   20.96    1.24
   3   4  -8   21.34    1.14
   3   4  -8   23.37    0.99
   3   4  -8   22.40    1.17
   2   4  -8   14.35    0.72
   2   4  -8   15.58    1.02
   2   4  -8   15.63    0.75
   2   4  -8   15.82    0.75
   2   4  -8   15.15    0.93
   2   4  -8   15.40    0.70
   1   4  -8    0.53    0.27
   1   4  -8    1.36    0.38
   1   4  -8    0.55    0.18
   1   4  -8    0.90    0.21
   1   4  -8    1.03    0.20
   1   4  -8    0.83    0.21
   1   4  -8    0.96    0.44
   1   4  -8    0.99    0.51
   1   4  -8    0.98    0.37
   0   4  -8   72.00    2.83
   0   4  -8   73.62    2.70
   0   4  -8   72.53    2.39
   0   4  -8   75.74    3.56
   0   4  -8   72.54    2.52
   0   4  -8   71.60    2.56
   0   4  -8   71.59    3.04
   0   4  -8   71.83    2.54
   0   4  -8   75.54    2.77
  -1   4  -8   38.03    1.90
  -1   4  -8   39.28    1.77
  -1   4  -8   36.60    1.47
  -1   4  -8   40.43    2.23
  -1   4  -8   37.81    1.67
  -1   4  -8   36.65    1.61
  -1   4  -8   39.56    1.51
  -1   4  -8   38.23    1.39
  -1   4  -8   38.50    1.50
  -2   4  -8    8.39    0.69
  -2   4  -8    9.69    1.02
  -2   4  -8    9.23    0.60
  -2   4  -8    9.99    0.56
  -2   4  -8    8.93    0.60
  -2   4  -8    8.19    0.53
  -2   4  -8    8.77    0.91
  -2   4  -8    8.77    0.69
  -3   4  -8   85.78    3.82
  -3   4  -8   87.68    3.27
  -3   4  -8   86.48    2.80
  -3   4  -8   81.48    2.99
  -3   4  -8   81.01    2.92
  -3   4  -8   77.91    3.09
  -3   4  -8   85.28    2.98
  -3   4  -8   81.38    2.93
  -4   4  -8    1.11    0.25
  -4   4  -8    0.59    0.19
  -4   4  -8    0.81    0.37
  -4   4  -8    0.76    0.30
  -4   4  -8    0.93    0.44
  -4   4  -8    0.71    0.28
  -4   4  -8    0.59    0.26
  -4   4  -8    1.03    0.26
   4  -4   8    1.37    0.37
  -5   4  -8   35.14    1.38
  -5   4  -8   36.87    1.36
   7   3  -8   26.15    1.01
   7   3  -8   28.12    1.03
  -7  -3   8   28.32    1.11
   6   3  -8    0.20    0.21
   6   3  -8    0.25    0.20
   6   3  -8    0.28    0.15
   6   3  -8    0.52    0.20
   6   3  -8    0.22    0.21
   6   3  -8    0.00    0.20
   5   3  -8   58.68    2.43
   5   3  -8   59.61    2.05
   5   3  -8   59.24    2.31
   5   3  -8   56.92    2.18
   5   3  -8   61.04    2.35
   5   3  -8   63.14    2.30
   5   3  -8   58.36    2.14
   5   3  -8   58.31    2.15
   5   3  -8   56.79    1.98
   5   3  -8   58.41    2.24
   4   3  -8   42.37    1.54
   4   3  -8   44.61    1.71
   4   3  -8   44.07    1.83
   4   3  -8   42.00    1.67
   4   3  -8   42.87    1.65
   4   3  -8   42.53    1.59
   4   3  -8   42.82    1.87
   4   3  -8   44.82    1.80
   4   3  -8   40.51    1.95
   4   3  -8   39.28    1.78
   3   3  -8   35.04    1.44
   3   3  -8   33.78    1.33
   3   3  -8   34.61    1.36
   3   3  -8   36.79    1.47
   3   3  -8   35.20    1.76
   3   3  -8   38.00    1.45
   3   3  -8   36.50    1.62
   3   3  -8   35.55    1.60
   3   3  -8   35.35    1.53
   2   3  -8  147.74    4.85
   2   3  -8  148.25    5.20
   2   3  -8  153.89    4.67
   2   3  -8  149.46    5.15
   2   3  -8  142.30    4.85
   2   3  -8  151.66    5.35
   2   3  -8  148.49    4.94
   2   3  -8  147.07    5.00
   2   3  -8  156.78    5.01
   2   3  -8  157.78    5.64
  -2  -3   8  130.04    8.46
   1   3  -8   26.64    1.22
   1   3  -8   24.21    1.65
   1   3  -8   25.42    0.99
   1   3  -8   24.56    1.04
   1   3  -8   23.09    1.36
   0   3  -8  165.87    5.31
   0   3  -8  159.98    5.90
   0   3  -8  165.26    5.53
   0   3  -8  153.79    6.82
   0   3  -8  161.90    5.54
   0   3  -8  161.93    5.00
  -1   3  -8   28.84    1.44
  -1   3  -8   27.62    1.28
  -1   3  -8   29.22    1.33
  -1   3  -8   28.22    1.09
  -1   3  -8   26.58    1.20
  -1   3  -8   29.07    1.82
  -1   3  -8   28.45    1.16
  -1   3  -8   28.11    1.17
  -1   3  -8   25.11    1.54
  -1   3  -8   28.59    1.16
  -2   3  -8   35.73    1.57
  -2   3  -8   36.22    1.38
  -2   3  -8   35.33    2.04
  -2   3  -8   33.34    1.29
  -2   3  -8   35.02    1.61
  -2   3  -8   31.75    1.39
  -2   3  -8   32.81    1.40
  -2   3  -8   33.22    1.40
  -2   3  -8   32.55    1.74
  -2   3  -8   34.60    1.48
  -3   3  -8   53.32    1.97
  -3   3  -8   55.52    2.16
  -3   3  -8   58.42    2.09
  -3   3  -8   53.83    2.12
  -3   3  -8   52.87    2.06
  -3   3  -8   58.86    2.16
  -3   3  -8   57.23    2.83
  -3   3  -8   55.73    2.27
  -3   3  -8   56.04    2.43
  -4   3  -8    1.64    0.28
  -4   3  -8    1.45    0.45
  -4   3  -8    2.25    0.35
  -4   3  -8    2.00    0.54
  -4   3  -8    1.74    0.37
  -4   3  -8    1.96    0.39
  -4   3  -8    1.82    0.28
  -4   3  -8    1.90    0.37
   4  -3   8    2.01    0.45
  -5   3  -8   20.69    0.84
  -5   3  -8   23.00    1.06
  -5   3  -8   20.69    1.12
   5  -3   8   20.78    1.12
  -6   3  -8   12.35    0.61
   7   2  -8   11.07    0.53
  -7  -2   8   10.41    0.55
   6   2  -8    1.33    0.20
   6   2  -8    0.74    0.26
   6   2  -8    1.04    0.30
  -6  -2   8    1.06    0.26
   5   2  -8    4.22    0.52
   5   2  -8    3.98    0.53
   5   2  -8    4.62    0.42
   5   2  -8    3.36    0.46
   5   2  -8    5.16    0.57
   5   2  -8    5.08    0.52
   5   2  -8    5.18    0.43
   5   2  -8    5.00    0.54
   4   2  -8   16.80    0.86
   4   2  -8   17.86    0.93
   4   2  -8   16.83    1.04
   4   2  -8   16.63    0.85
   4   2  -8   18.94    1.02
   4   2  -8   16.91    1.02
   4   2  -8   17.47    0.85
   4   2  -8   16.12    1.07
   4   2  -8   15.71    0.97
   4   2  -8   16.69    0.94
   3   2  -8    2.18    0.36
   3   2  -8    2.77    0.37
   3   2  -8    2.32    0.47
   3   2  -8    2.24    0.38
   3   2  -8    1.72    0.40
   3   2  -8    1.40    0.46
   3   2  -8    2.19    0.33
   3   2  -8    2.00    0.37
   3   2  -8    1.22    0.28
   3   2  -8    0.99    0.38
   2   2  -8   80.42    2.91
   2   2  -8   77.27    2.76
   2   2  -8   78.08    2.61
   2   2  -8   76.74    2.98
  -2  -2   8   72.84    4.87
   1   2  -8   52.41    1.95
   1   2  -8   55.51    2.39
   1   2  -8   54.54    2.12
   1   2  -8   54.37    1.85
   1   2  -8   53.58    2.13
   1   2  -8   48.74    3.04
   1   2  -8   52.97    2.70
  -1  -2   8   51.05    3.50
   0   2  -8    8.27    0.94
   0   2  -8    7.91    0.47
   0   2  -8    7.92    0.49
   0   2  -8    7.21    0.80
  -1   2  -8  131.55    4.43
  -1   2  -8  133.70    4.98
  -1   2  -8  134.10    5.77
  -1   2  -8  133.07    4.18
  -1   2  -8  134.37    4.61
  -2   2  -8   12.88    0.70
  -2   2  -8   11.73    0.87
  -2   2  -8   13.03    0.82
  -2   2  -8   13.63    1.00
  -2   2  -8   13.03    1.15
  -2   2  -8   12.85    0.65
  -3   2  -8   45.15    1.93
  -3   2  -8   46.14    2.43
  -3   2  -8   43.95    1.91
  -3   2  -8   45.47    1.73
  -3   2  -8   43.17    1.78
  -3   2  -8   45.52    1.67
  -3   2  -8   46.59    1.92
  -3   2  -8   45.09    1.80
  -3   2  -8   45.16    2.09
  -3   2  -8   45.48    1.81
  -4   2  -8   57.52    2.26
  -4   2  -8   62.81    2.94
  -4   2  -8   60.28    2.52
  -4   2  -8   58.39    2.20
  -4   2  -8   61.78    2.35
   4  -2   8   55.44    2.48
  -5   2  -8    3.37    0.47
  -5   2  -8    3.30    0.52
  -5   2  -8    2.84    0.39
   5  -2   8    3.08    0.51
  -6   2  -8   72.32    2.49
  -6   2  -8   72.08    2.78
   6  -2   8   67.60    2.65
  -7   2  -8   21.67    0.93
  -7   2  -8   20.81    0.73
   7   1  -8   38.36    1.32
   7   1  -8   40.51    1.39
  -7  -1   8   38.71    1.45
   6   1  -8   18.51    0.82
   6   1  -8   17.10    0.88
  -6  -1   8   17.21    0.91
   5   1  -8    4.20    0.55
   5   1  -8    4.40    0.52
   5   1  -8    4.15    0.43
  -5  -1   8    3.66    0.46
   4   1  -8   75.85    2.84
   4   1  -8   87.37    3.14
   4   1  -8   78.32    3.20
   4   1  -8   78.48    2.92
   4   1  -8   75.77    2.89
   3   1  -8    7.55    0.78
   3   1  -8    7.21    0.56
   3   1  -8    5.85    0.65
   3   1  -8    7.00    0.61
   3   1  -8    6.55    0.75
   3   1  -8    7.92    0.75
   3   1  -8    6.21    0.62
  -3  -1   8    5.37    1.04
   2   1  -8   76.56    3.09
   2   1  -8   80.70    2.70
   2   1  -8   80.10    3.30
   2   1  -8   75.75    4.19
   2   1  -8   79.65    2.86
  -2  -1   8   78.43    5.01
   1   1  -8   28.84    2.00
   1   1  -8   30.45    1.36
   1   1  -8   30.15    1.25
   1   1  -8   28.07    1.71
   1   1  -8   29.69    1.39
  -1  -1   8   30.15    2.31
   0   1  -8    4.27    0.37
   0   1  -8    4.03    0.61
   0   1  -8    3.47    0.35
   0   1  -8    3.67    0.65
   0   1  -8    3.59    0.74
   0   1  -8    3.21    0.40
   0  -1   8    4.70    0.71
  -1   1  -8  108.99    3.64
  -1   1  -8  106.27    4.74
  -1   1  -8  108.40    4.51
  -1   1  -8  107.24    4.09
  -2   1  -8   24.59    1.05
  -2   1  -8   23.86    1.36
  -2   1  -8   23.00    1.17
  -2   1  -8   26.04    1.61
  -3   1  -8   40.91    1.76
  -3   1  -8   40.07    1.85
  -3   1  -8   41.84    2.24
  -3   1  -8   40.48    1.93
  -3   1  -8   42.19    1.77
  -3   1  -8   39.56    1.70
  -4   1  -8   36.69    1.97
  -4   1  -8   36.37    1.62
  -4   1  -8   36.40    1.41
  -4   1  -8   32.71    1.65
  -4   1  -8   30.28    1.54
  -4   1  -8   33.20    1.68
   4  -1   8   31.92    1.65
  -5   1  -8   21.28    1.24
  -5   1  -8   24.84    1.35
   5  -1   8   23.00    1.30
  -6   1  -8  130.31    4.47
  -6   1  -8  121.61    4.78
   6  -1   8  132.54    4.59
  -7   1  -8   11.09    0.70
  -7   1  -8   11.07    0.63
   7  -1   8   10.53    0.69
   7   0  -8    0.33    0.14
   7   0  -8    0.56    0.12
   6   0  -8    4.31    0.40
   6   0  -8    3.71    0.39
  -6   0   8    3.10    0.36
   5   0  -8   16.56    0.94
   5   0  -8   17.06    0.94
  -5   0   8   17.49    0.99
   4   0  -8    3.20    0.47
   4   0  -8    3.43    0.46
  -4   0   8    3.67    0.49
   3   0  -8   21.81    1.19
   3   0  -8   21.51    1.20
   3   0  -8   22.64    1.30
  -3   0   8   22.51    1.30
  -3   0   8   23.12    2.08
   2   0  -8    0.09    0.24
   2   0  -8    0.14    0.28
   2   0  -8    0.15    0.39
  -2   0   8    0.08    0.41
   1   0  -8   36.95    2.32
   1   0  -8   38.02    1.75
   1   0  -8   37.02    1.91
   1   0  -8   37.20    1.69
   1   0  -8   38.12    2.01
  -1   0   8   40.92    2.81
   0   0  -8    1.08    0.26
   0   0  -8    0.99    0.38
   0   0  -8    1.35    0.27
   0   0   8    1.29    0.47
  -1   0  -8   25.72    1.37
  -1   0  -8   26.69    1.26
  -1   0  -8   28.39    1.78
  -1   0  -8   26.26    1.60
   1   0   8   27.79    1.88
  -2   0  -8   53.67    2.63
  -2   0  -8   52.58    2.43
  -2   0  -8   52.22    2.27
  -3   0  -8    6.55    0.79
  -3   0  -8    8.08    0.90
  -3   0  -8    7.88    0.62
  -4   0  -8   49.01    2.07
  -4   0  -8   48.73    2.36
  -4   0  -8   50.34    2.20
  -4   0  -8   48.82    2.51
   4   0   8   49.15    2.17
  -5   0  -8   12.74    0.93
  -5   0  -8   14.59    1.04
   5   0   8   12.95    0.96
  -6   0  -8   35.04    1.67
   6   0   8   32.39    1.60
  -7   0  -8   38.81    1.61
  -7   0  -8   36.32    1.67
   7   0   8   37.05    1.62
  -8   0  -8    0.53    0.19
  -8   0  -8    0.41    0.19
   8   0   8    0.67    0.21
   6  -1  -8   64.54    2.35
   6  -1  -8   68.85    2.30
  -6   1   8   64.88    2.38
   5  -1  -8   16.36    0.90
  -5   1   8   16.04    0.92
   4  -1  -8  155.86    5.51
  -4   1   8  174.88    5.92
   3  -1  -8   74.50    2.78
   3  -1  -8   72.39    3.54
  -3   1   8   75.39    3.00
   2  -1  -8    1.56    0.44
   2  -1  -8    2.89    0.54
  -2   1   8    2.92    0.81
   1  -1  -8  212.79    7.51
   1  -1  -8  213.74   10.05
   1  -1  -8  223.25    9.26
   1  -1  -8  213.05    8.76
  -1   1   8  232.45   12.19
   0  -1  -8   55.35    2.63
   0  -1  -8   55.07    3.01
   0  -1  -8   53.28    2.66
   0   1   8   58.61    3.58
  -1  -1  -8  100.82    4.50
  -1  -1  -8  101.89    4.55
  -1  -1  -8  106.87    5.09
   1   1   8  109.78    5.95
  -2  -1  -8  202.59    8.45
  -2  -1  -8  202.55    9.19
  -2  -1  -8  200.79    8.15
  -3  -1  -8    1.89    0.50
  -3  -1  -8    1.74    0.34
  -3  -1  -8    1.88    0.54
  -4  -1  -8   58.38    2.80
  -4  -1  -8   60.90    2.86
  -4  -1  -8   59.60    2.48
   4   1   8   54.52    2.40
  -5  -1  -8   57.22    2.90
  -5  -1  -8   63.39    2.65
   5   1   8   58.88    2.48
  -6  -1  -8   36.68    1.76
   6   1   8   32.92    1.65
  -7  -1  -8   25.93    1.37
   7   1   8   27.80    1.34
  -8  -1  -8    0.30    0.22
   8   1   8    0.13    0.20
   6  -2  -8    0.47    0.17
   5  -2  -8    6.07    0.54
  -5   2   8    6.14    0.53
  -5   2   8    4.44    0.53
   4  -2  -8    7.40    0.66
  -4   2   8    5.63    0.67
  -4   2   8    6.56    0.62
   3  -2  -8   35.93    1.62
   3  -2  -8   33.63    2.09
  -3   2   8   39.33    1.76
  -3   2   8   33.49    1.87
  -3   2   8   34.94    2.11
   2  -2  -8    1.48    0.42
   2  -2  -8    1.71    0.57
   2  -2  -8    1.61    0.42
  -2   2   8    1.34    0.67
  -2   2   8    1.04    0.38
  -2   2   8    1.76    0.50
   1  -2  -8    5.03    0.68
   1  -2  -8    5.01    0.84
   1  -2  -8    5.15    0.59
   1  -2  -8    4.01    0.61
  -1   2   8    3.74    0.87
  -1   2   8    4.34    0.65
   0  -2  -8  121.24    5.81
   0  -2  -8  115.70    5.31
   0  -2  -8  123.77    5.17
   0  -2  -8  120.09    4.43
   0   2   8  126.22    7.00
   0   2   8  120.66    5.37
  -1  -2  -8   18.59    1.13
  -1  -2  -8   18.11    1.32
  -1  -2  -8   17.53    1.11
  -1  -2  -8   17.75    1.20
   1   2   8   17.51    1.48
   1   2   8   18.58    1.15
  -2  -2  -8   27.87    1.58
  -2  -2  -8   28.76    1.52
  -2  -2  -8   28.08    1.75
  -2  -2  -8   27.33    1.50
   2   2   8   25.76    1.51
  -3  -2  -8   32.17    1.97
  -3  -2  -8   32.40    1.74
  -3  -2  -8   30.76    1.76
  -3  -2  -8   34.33    1.59
   3   2   8   31.54    1.76
  -4  -2  -8    0.77    0.33
   4   2   8    1.33    0.39
  -5  -2  -8   26.15    1.53
  -5  -2  -8   23.51    1.55
   5   2   8   25.66    1.37
   5   2   8   25.37    1.36
   5   2   8   21.03    1.55
  -6  -2  -8    2.30    0.54
   6   2   8    3.77    0.56
   6   2   8    3.53    0.58
  -7  -2  -8   47.63    2.10
   7   2   8   45.88    1.98
  -8  -2  -8    9.47    0.66
   8   2   8    8.96    0.65
  -9  -2  -8    1.67    0.23
   5  -3  -8   48.38    1.67
  -5   3   8   44.22    1.68
  -5   3   8   41.05    1.86
   4  -3  -8    1.51    0.36
  -4   3   8    1.74    0.44
  -4   3   8    1.07    0.29
  -3   3   8  104.67    4.03
  -3   3   8  110.88    4.37
   2  -3  -8   24.61    1.26
   2  -3  -8   22.35    1.45
  -2   3   8   23.23    1.54
  -2   3   8   21.18    1.36
  -2   3   8   22.18    1.31
   1  -3  -8   56.24    2.41
   1  -3  -8   58.76    2.84
  -1   3   8   55.34    2.94
  -1   3   8   64.12    4.05
   0  -3  -8  172.92    7.06
   0  -3  -8  168.99    6.03
   0  -3  -8  164.11    7.92
   0   3   8  174.82    9.62
   0   3   8  170.77    7.41
  -1  -3  -8    1.63    0.42
  -1  -3  -8    1.30    0.45
  -1  -3  -8    0.43    0.34
   1   3   8    0.71    0.29
  -2  -3  -8  162.34    7.38
  -2  -3  -8  152.40    6.48
  -2  -3  -8  153.87    5.58
   2   3   8  161.47    6.80
  -3  -3  -8   68.00    3.16
  -3  -3  -8   66.82    2.72
  -3  -3  -8   72.18    3.62
   3   3   8   68.14    3.25
  -4  -3  -8   39.45    2.43
   4   3   8   42.68    2.20
   5   3   8   79.63    3.94
   5   3   8   91.93    3.75
   5   3   8   83.23    3.43
  -6  -3  -8    4.80    0.71
   6   3   8    5.01    0.63
   6   3   8    5.20    0.70
  -7  -3  -8   79.42    3.25
   7   3   8   77.08    3.21
   7   3   8   82.16    3.03
  -8  -3  -8   37.10    1.63
   8   3   8   35.09    1.51
  -9  -3  -8    4.67    0.39
   9   3   8    5.09    0.37
  -5   4   8   -0.01    0.14
  -4   4   8    3.80    0.50
  -4   4   8    4.70    0.46
  -4   4   8    5.84    0.55
  -4   4   8    4.65    0.43
  -3   4   8   19.68    1.24
  -3   4   8   20.21    1.09
  -3   4   8   19.41    1.09
   2  -4  -8    5.98    0.68
   2  -4  -8    6.82    0.84
  -2   4   8    6.86    0.83
  -2   4   8    4.97    0.64
   1  -4  -8    8.33    0.94
   1  -4  -8   10.51    0.83
  -1   4   8    8.69    0.86
  -1   4   8    9.47    0.86
  -1   4   8    9.39    0.87
  -1   4   8    9.44    0.86
   0  -4  -8    0.93    0.38
   0  -4  -8    0.56    0.45
   0   4   8    2.12    0.46
   0   4   8    1.09    0.37
  -1  -4  -8   20.78    1.21
  -1  -4  -8   17.99    1.43
  -1  -4  -8   19.81    1.41
   1   4   8   18.54    1.25
  -2  -4  -8   -0.05    0.36
  -2  -4  -8    0.02    0.36
  -2  -4  -8    1.17    0.41
   2   4   8    1.45    0.38
  -3  -4  -8   66.57    2.68
  -3  -4  -8   65.30    3.09
  -3  -4  -8   68.27    3.58
   3   4   8   64.77    3.12
   4   4   8   25.94    1.50
   5   4   8   36.61    1.99
   5   4   8   38.41    2.09
   5   4   8   37.91    1.88
   6   4   8   63.05    2.57
   6   4   8   66.22    2.99
   6   4   8   61.97    2.77
  -7  -4  -8    0.29    0.38
   7   4   8    0.48    0.31
   7   4   8   -0.06    0.30
   7   4   8    0.37    0.32
  -8  -4  -8   19.25    1.05
   8   4   8   18.67    1.04
   8   4   8   19.86    0.97
   8   4   8   18.27    0.94
  -9  -4  -8   22.07    1.00
   9   4   8   22.91    0.90
  -4   5   8   27.99    1.07
  -4   5   8   30.53    1.11
  -3   5   8   24.51    1.13
  -3   5   8   22.84    1.27
  -3   5   8   23.93    1.09
  -3   5   8   23.12    1.11
   2  -5  -8  108.42    4.49
   2  -5  -8  105.83    3.81
  -2   5   8  101.74    3.82
  -2   5   8   94.95    3.52
  -2   5   8  102.38    4.14
  -2   5   8   97.52    3.70
   1  -5  -8   15.70    1.29
   1  -5  -8   16.11    1.11
  -1   5   8   15.27    1.02
  -1   5   8   16.23    1.15
  -1   5   8   17.04    1.13
  -1   5   8   16.55    1.05
   0  -5  -8   73.70    3.46
   0  -5  -8   70.36    2.92
   0   5   8   71.98    2.90
   0   5   8   69.83    3.00
   0   5   8   64.19    3.05
   0   5   8   69.26    2.68
  -1  -5  -8   38.48    1.88
  -1  -5  -8   41.33    2.27
   1   5   8   37.12    1.76
   1   5   8   33.82    1.81
   1   5   8   35.37    1.64
   1   5   8   38.53    1.61
   1   5   8   37.94    1.82
  -2  -5  -8   23.95    1.40
  -2  -5  -8   25.51    1.64
   2   5   8   24.69    1.19
   2   5   8   24.61    1.25
   2   5   8   24.74    1.33
   2   5   8   23.15    1.32
   2   5   8   24.35    1.30
  -3  -5  -8  105.37    4.18
  -3  -5  -8  111.06    4.88
   3   5   8  118.54    4.07
   3   5   8  115.26    4.17
   3   5   8  106.74    4.81
   3   5   8  116.32    3.95
   4   5   8   13.34    0.85
   4   5   8   13.76    1.11
   4   5   8   13.88    1.00
   4   5   8   14.61    0.90
   4   5   8   14.06    0.85
   4   5   8   14.64    1.20
   5   5   8   68.12    3.07
   5   5   8   61.91    2.51
   5   5   8   70.10    2.87
   5   5   8   63.56    2.57
   5   5   8   61.74    2.86
   6   5   8   86.28    3.61
   6   5   8   83.23    3.41
   6   5   8   75.52    3.29
   6   5   8   78.87    3.03
  -7  -5  -8    0.63    0.44
   7   5   8    2.01    0.43
   7   5   8    0.68    0.36
   7   5   8    0.88    0.50
   7   5   8    1.47    0.33
  -8  -5  -8   76.22    2.86
  -8  -5  -8   78.19    3.07
   8   5   8   79.63    3.08
   8   5   8   79.75    2.76
  -9  -5  -8   21.08    0.95
   9   5   8   21.12    0.78
  -3   6   8    5.07    0.40
  -3   6   8    5.23    0.31
   2  -6  -8    0.88    0.34
   2  -6  -8    0.53    0.41
  -2   6   8    0.59    0.29
  -2   6   8    0.29    0.24
  -2   6   8    0.26    0.30
  -2   6   8    0.58    0.21
   1  -6  -8    2.19    0.48
   1  -6  -8    1.92    0.56
  -1   6   8    2.87    0.50
  -1   6   8    2.55    0.53
  -1   6   8    2.03    0.35
  -1   6   8    2.98    0.49
   0  -6  -8    1.46    0.62
   0  -6  -8    1.39    0.47
   0   6   8    0.87    0.26
   0   6   8    1.08    0.31
   0   6   8    0.90    0.43
   0   6   8    0.84    0.40
   0   6   8    0.81    0.36
   0   6   8    1.18    0.43
  -1  -6  -8   10.31    1.00
  -1  -6  -8   11.49    1.25
   1   6   8   11.23    0.73
   1   6   8   10.58    0.78
   1   6   8   11.29    0.82
   1   6   8    9.87    0.91
   1   6   8   10.82    0.93
   1   6   8   13.53    0.98
  -2  -6  -8   10.72    1.19
  -2  -6  -8    9.97    0.97
   2   6   8    9.97    0.86
   2   6   8    9.73    0.80
   2   6   8   10.10    0.79
   2   6   8    9.17    0.83
   2   6   8   10.57    0.88
   2   6   8    9.38    0.66
   2   6   8   10.85    0.79
   2   6   8   10.05    0.98
   2   6   8    9.89    0.77
   2   6   8   10.32    0.77
  -3  -6  -8    1.80    0.55
  -3  -6  -8    3.14    0.70
   3   6   8    2.19    0.41
   3   6   8    2.02    0.47
   3   6   8    3.44    0.69
   3   6   8    1.33    0.32
   3   6   8    2.87    0.58
   3   6   8    1.43    0.40
   3   6   8    1.78    0.40
   3   6   8    2.07    0.32
   3   6   8    1.74    0.42
   3   6   8    2.04    0.48
   3   6   8    2.18    0.60
   4   6   8   10.32    0.76
   4   6   8   11.16    1.08
   4   6   8    9.30    0.89
   4   6   8   10.68    0.67
   4   6   8   10.58    0.89
   4   6   8    9.56    0.79
   4   6   8   11.28    1.10
   4   6   8    9.76    0.90
   4   6   8   10.38    0.75
   4   6   8   10.03    0.72
   5   6   8   10.10    0.89
   5   6   8   11.61    0.74
   5   6   8   10.42    0.95
   5   6   8   10.34    0.77
   5   6   8   10.29    0.89
   5   6   8   12.41    1.11
   5   6   8   11.25    1.01
   5   6   8   11.71    0.90
   6   6   8    6.34    0.73
   6   6   8    7.43    0.77
   6   6   8    8.80    0.91
   6   6   8    7.49    0.60
   6   6   8    6.32    0.73
   6   6   8    6.42    0.60
   6   6   8    7.13    0.88
   7   6   8   16.32    1.04
   7   6   8   14.98    0.77
   7   6   8   14.23    1.00
   7   6   8   13.92    0.98
   7   6   8   13.89    1.10
  -8  -6  -8    4.09    0.48
   8   6   8    4.73    0.51
   8   6   8    4.05    0.31
  -9  -6  -8   16.73    0.77
  -2   7   8   44.27    1.56
   1  -7  -8   65.29    2.52
  -1   7   8   64.41    2.28
  -1   7   8   63.16    2.44
  -1   7   8   59.72    2.66
  -1   7   8   58.59    2.44
  -1   7   8   67.32    2.09
   0  -7  -8   15.91    1.37
   0  -7  -8   16.67    1.14
   0   7   8   16.01    1.05
   0   7   8   16.86    0.98
   0   7   8   16.05    1.15
   0   7   8   17.73    1.04
   0   7   8   17.23    0.79
   0   7   8   16.65    0.91
   0   7   8   16.56    1.11
  -1  -7  -8  162.14    5.53
  -1  -7  -8  153.07    6.44
   1   7   8  144.72    5.37
   1   7   8  148.34    4.89
   1   7   8  147.69    5.45
   1   7   8  137.48    5.12
   1   7   8  141.02    4.85
   1   7   8  143.11    5.04
   1   7   8  148.69    4.93
   1   7   8  154.82    5.73
   1   7   8  148.50    5.16
   1   7   8  135.38    5.61
  -2  -7  -8   46.71    2.69
  -2  -7  -8   48.47    2.29
   2   7   8   47.89    1.90
   2   7   8   46.77    2.11
   2   7   8   44.80    1.93
   2   7   8   46.58    1.99
   2   7   8   47.98    1.99
   2   7   8   46.76    2.16
   2   7   8   46.30    2.30
   2   7   8   47.31    1.76
   2   7   8   43.60    1.91
   2   7   8   48.72    2.25
  -3  -7  -8   38.88    1.96
   3   7   8   41.38    1.67
   3   7   8   42.26    2.03
   3   7   8   42.86    1.82
   3   7   8   41.04    1.56
   3   7   8   37.66    1.69
   3   7   8   42.82    1.76
   3   7   8   41.23    2.13
   3   7   8   39.83    1.72
   3   7   8   39.72    1.94
   3   7   8   37.31    1.89
   4   7   8   87.67    3.17
   4   7   8   86.01    3.58
   4   7   8   88.99    3.22
   4   7   8   85.48    3.41
   4   7   8   84.37    3.69
   4   7   8   91.24    3.41
   4   7   8   80.69    3.38
   4   7   8   83.81    3.10
   4   7   8   86.18    2.99
   4   7   8   82.96    3.09
   4   7   8   85.30    2.98
   5   7   8    0.36    0.26
   5   7   8    0.21    0.35
   5   7   8    0.24    0.43
   5   7   8    0.07    0.26
   5   7   8    0.27    0.28
   5   7   8    0.40    0.18
   5   7   8    0.95    0.27
   5   7   8    0.11    0.41
   5   7   8    0.29    0.38
   5   7   8    2.00    0.50
   5   7   8    0.52    0.35
   5   7   8    0.36    0.26
   6   7   8   81.10    2.87
   6   7   8   81.99    3.03
   6   7   8   84.20    2.79
   6   7   8   80.98    3.00
   6   7   8   85.53    3.34
   6   7   8   84.37    3.28
   6   7   8   87.47    3.06
   6   7   8   85.18    3.29
   6   7   8   79.41    3.52
   6   7   8   75.50    3.05
   6   7   8   87.80    3.46
   6   7   8   86.34    3.58
   7   7   8   31.08    1.52
   7   7   8   27.93    1.45
   7   7   8   28.32    1.31
   7   7   8   27.74    1.42
   7   7   8   30.96    1.60
   7   7   8   30.95    1.30
  -8  -7  -8   12.76    0.75
   8   7   8   11.32    0.65
   8   7   8   11.38    0.67
   8   7   8   11.95    0.72
  -1   8   8    0.37    0.18
   0  -8  -8    7.31    0.67
   0   8   8    5.89    0.55
   0   8   8    6.46    0.51
   0   8   8    6.73    0.62
   0   8   8    6.77    0.54
  -1  -8  -8    0.77    0.42
   1   8   8    0.47    0.34
   1   8   8    0.64    0.33
   1   8   8    0.52    0.26
   1   8   8    0.12    0.23
   1   8   8    0.10    0.36
   1   8   8    0.37    0.25
   1   8   8    0.50    0.32
   1   8   8   -0.09    0.27
   1   8   8    0.19    0.25
  -2  -8  -8    2.18    0.57
  -2  -8  -8    1.02    0.68
   2   8   8    1.11    0.39
   2   8   8    1.82    0.38
   2   8   8    1.09    0.46
   2   8   8    1.92    0.40
   2   8   8    1.59    0.34
   2   8   8    0.62    0.43
   2   8   8    1.84    0.37
   2   8   8    1.35    0.31
   2   8   8    2.47    0.49
   3   8   8    7.65    0.78
   3   8   8    9.58    0.70
   3   8   8    9.05    0.94
   3   8   8    8.43    0.74
   3   8   8    9.17    0.64
   3   8   8    8.82    0.84
   3   8   8    8.46    0.65
   3   8   8    8.23    0.59
   3   8   8    9.58    0.84
   3   8   8    9.42    0.67
   4   8   8    0.12    0.36
   4   8   8    0.15    0.33
   4   8   8    0.28    0.41
   4   8   8    0.36    0.33
   4   8   8    0.41    0.23
   4   8   8    0.47    0.37
   4   8   8    0.73    0.27
   4   8   8    0.44    0.24
   4   8   8    0.63    0.24
   4   8   8    0.42    0.25
   5   8   8    9.78    0.64
   5   8   8   10.12    0.79
   5   8   8   10.03    0.67
   5   8   8   10.22    0.86
   5   8   8   12.18    1.00
   5   8   8   11.58    0.69
   5   8   8    8.16    0.67
   5   8   8    9.02    0.88
   5   8   8   10.63    0.87
   6   8   8    0.50    0.25
   6   8   8    0.19    0.34
   6   8   8    0.31    0.22
   6   8   8    0.38    0.22
   6   8   8    0.62    0.33
   6   8   8    0.11    0.35
   6   8   8    0.44    0.22
   6   8   8    0.24    0.38
   6   8   8    0.47    0.37
   6   8   8    0.31    0.28
   7   8   8    6.66    0.43
   7   8   8    7.32    0.51
   7   8   8    6.68    0.62
   7   8   8    6.98    0.60
   7   8   8    5.14    0.61
   7   8   8    6.93    0.54
   7   8   8    8.05    0.61
  -8  -8  -8    6.92    0.49
   1   9   8   24.13    0.90
   1   9   8   21.56    0.92
   2   9   8   51.61    2.27
   2   9   8   56.21    2.18
   2   9   8   56.21    1.99
   2   9   8   58.88    1.96
   2   9   8   56.73    2.21
   2   9   8   52.49    2.02
   3   9   8    0.49    0.34
   3   9   8    0.56    0.22
   3   9   8    0.67    0.21
   3   9   8    0.59    0.35
   3   9   8    0.54    0.22
   3   9   8    0.76    0.29
   3   9   8    0.55    0.34
   4   9   8   60.98    2.23
   4   9   8   65.25    2.19
   4   9   8   63.39    2.29
   4   9   8   60.69    2.63
   4   9   8   59.82    2.12
   4   9   8   61.21    2.45
   4   9   8   63.17    2.50
   5   9   8   24.31    0.97
   5   9   8   23.63    1.01
   5   9   8   24.20    1.05
   5   9   8   22.68    1.26
   5   9   8   22.14    1.16
   5   9   8   20.56    0.92
   5   9   8   21.07    1.14
   6   9   8   26.06    1.05
   6   9   8   25.65    1.09
   6   9   8   26.14    1.30
   6   9   8   26.75    1.19
   6   9   8   25.03    1.20
   6   9   8   26.82    1.03
   3   7  -9   42.07    1.41
   3   7  -9   39.82    1.48
   2   7  -9   10.46    0.45
   2   7  -9   10.11    0.56
   1   7  -9   29.87    1.08
   1   7  -9   31.12    1.18
   0   7  -9   35.81    1.29
   0   7  -9   33.91    1.22
   5   6  -9    6.64    0.42
   5   6  -9    7.17    0.35
   5   6  -9    6.77    0.45
   4   6  -9    0.79    0.23
   4   6  -9    1.12    0.25
   4   6  -9    1.33    0.25
   4   6  -9    0.95    0.15
   4   6  -9    0.84    0.15
   3   6  -9    7.48    0.39
   3   6  -9    7.36    0.38
   3   6  -9    7.74    0.55
   3   6  -9    7.68    0.57
   3   6  -9    7.89    0.59
   3   6  -9    7.79    0.42
   2   6  -9    0.09    0.21
   2   6  -9    0.55    0.16
   2   6  -9    0.51    0.15
   2   6  -9    0.73    0.15
   2   6  -9    0.87    0.26
   1   6  -9    2.00    0.24
   1   6  -9    2.09    0.35
   1   6  -9    2.02    0.22
   1   6  -9    2.55    0.36
   1   6  -9    2.22    0.22
   0   6  -9    0.13    0.12
   0   6  -9    0.21    0.10
   0   6  -9    0.48    0.16
   0   6  -9    0.35    0.24
   0   6  -9   -0.27    0.34
   0   6  -9    0.45    0.21
   0   6  -9    0.11    0.12
  -1   6  -9    4.99    0.34
  -1   6  -9    5.47    0.28
  -1   6  -9    3.61    0.44
  -1   6  -9    5.51    0.47
  -1   6  -9    5.32    0.53
  -1   6  -9    5.22    0.35
  -2   6  -9    0.58    0.15
  -2   6  -9    0.60    0.15
  -2   6  -9    0.53    0.09
  -2   6  -9    0.55    0.21
   6   5  -9    1.65    0.15
   6   5  -9    1.55    0.16
   6   5  -9    1.54    0.22
   5   5  -9   38.30    1.34
   5   5  -9   39.29    1.64
   5   5  -9   40.13    1.43
   5   5  -9   40.18    1.49
   5   5  -9   40.08    1.37
   5   5  -9   40.07    1.53
   4   5  -9    5.56    0.36
   4   5  -9    4.79    0.48
   4   5  -9    5.19    0.54
   4   5  -9    5.95    0.49
   4   5  -9    5.11    0.35
   4   5  -9    4.95    0.36
   4   5  -9    4.79    0.38
   3   5  -9   28.61    1.32
   3   5  -9   28.42    1.09
   3   5  -9   28.86    1.41
   3   5  -9   28.74    1.08
   3   5  -9   27.79    1.13
   3   5  -9   30.04    1.34
   3   5  -9   28.62    1.13
   2   5  -9   72.34    2.30
   2   5  -9   68.69    2.83
   2   5  -9   70.20    2.37
   2   5  -9   71.43    2.60
   2   5  -9   68.30    2.46
   2   5  -9   72.18    2.67
   2   5  -9   68.17    2.42
   1   5  -9   16.48    1.04
   1   5  -9   16.74    0.97
   1   5  -9   17.56    0.79
   1   5  -9   17.61    0.97
   1   5  -9   18.07    0.74
   1   5  -9   16.77    0.76
   1   5  -9   17.66    0.80
   0   5  -9   24.17    1.21
   0   5  -9   24.84    1.61
   0   5  -9   24.84    1.01
   0   5  -9   25.65    0.97
   0   5  -9   23.79    1.03
   0   5  -9   26.57    1.41
   0   5  -9   25.47    1.20
   0   5  -9   23.27    1.02
  -1   5  -9   14.75    0.95
  -1   5  -9   11.51    0.65
  -1   5  -9   11.92    0.77
  -1   5  -9   12.90    0.62
  -1   5  -9   13.70    0.82
  -1   5  -9   10.97    1.08
  -1   5  -9   12.70    0.66
  -1   5  -9   12.61    0.64
  -2   5  -9   35.65    1.36
  -2   5  -9   35.98    1.31
  -2   5  -9   34.05    1.51
  -2   5  -9   36.83    1.36
  -2   5  -9   36.59    1.35
  -2   5  -9   33.17    1.90
  -2   5  -9   34.98    1.39
  -2   5  -9   34.15    1.61
  -2   5  -9   37.84    1.49
  -3   5  -9   64.30    2.07
  -3   5  -9   60.72    2.12
  -3   5  -9   61.57    2.32
  -3   5  -9   61.22    2.17
  -3   5  -9   57.06    2.00
   3  -5   9   56.29    2.34
  -4   5  -9    1.77    0.19
  -4   5  -9    1.35    0.24
   6   4  -9    2.02    0.24
   6   4  -9    2.41    0.23
   6   4  -9    1.96    0.19
   6   4  -9    1.83    0.24
   6   4  -9    2.54    0.29
  -6  -4   9    1.89    0.26
   5   4  -9   29.21    1.23
   5   4  -9   29.52    1.12
   5   4  -9   29.59    1.24
   5   4  -9   27.35    1.15
   5   4  -9   30.17    1.13
   5   4  -9   29.15    1.33
   5   4  -9   28.35    1.08
  -5  -4   9   27.42    1.25
   4   4  -9    3.10    0.32
   4   4  -9    2.06    0.34
   4   4  -9    2.67    0.32
   4   4  -9    3.01    0.46
   4   4  -9    2.62    0.34
   4   4  -9    1.64    0.36
   4   4  -9    2.64    0.30
   3   4  -9   11.38    0.62
   3   4  -9   10.77    0.61
   3   4  -9   11.32    0.63
   3   4  -9   11.67    0.76
   3   4  -9    9.40    0.80
   3   4  -9   11.29    0.59
   3   4  -9    9.92    0.75
   2   4  -9   16.71    1.06
   2   4  -9   16.31    0.96
   2   4  -9   17.13    0.81
   2   4  -9   16.54    0.75
   2   4  -9   17.57    0.80
   2   4  -9   16.94    0.80
   2   4  -9   14.96    0.95
   1   4  -9    7.29    0.49
   1   4  -9    7.63    0.50
   1   4  -9    7.73    0.50
   1   4  -9    7.85    0.71
   1   4  -9    6.96    0.68
   1   4  -9    6.70    0.45
   1   4  -9    7.72    0.75
   0   4  -9    8.94    0.69
   0   4  -9    9.07    0.70
   0   4  -9    7.08    0.71
   0   4  -9    7.94    0.53
   0   4  -9    8.75    0.54
   0   4  -9    9.20    0.93
   0   4  -9    8.92    0.50
   0   4  -9    6.59    0.89
   0   4  -9    9.10    0.54
  -1   4  -9   26.71    1.11
  -1   4  -9   27.35    1.14
  -1   4  -9   23.83    1.27
  -1   4  -9   25.87    1.12
  -1   4  -9   26.43    1.36
  -1   4  -9   25.84    1.04
  -1   4  -9   27.42    1.48
  -1   4  -9   23.61    1.65
  -1   4  -9   26.25    1.24
  -2   4  -9   17.30    0.87
  -2   4  -9   17.17    0.82
  -2   4  -9   15.86    0.85
  -2   4  -9   18.02    1.01
  -2   4  -9   16.85    1.32
  -2   4  -9   18.32    0.97
  -2   4  -9   16.69    1.11
  -2   4  -9   18.62    0.82
  -3   4  -9    4.18    0.48
  -3   4  -9    6.51    0.52
  -3   4  -9    5.55    0.45
  -3   4  -9    5.18    0.76
  -3   4  -9    5.97    0.51
  -3   4  -9    5.90    0.42
  -3   4  -9    5.43    0.52
  -3   4  -9    3.86    0.53
   3  -4   9    5.80    0.66
  -4   4  -9    0.55    0.32
  -4   4  -9    0.56    0.26
  -4   4  -9    0.50    0.22
  -4   4  -9    0.92    0.19
  -4   4  -9    0.47    0.21
   4  -4   9    0.68    0.30
  -5   4  -9    1.71    0.25
  -5   4  -9    1.47    0.21
   6   3  -9    9.50    0.55
   6   3  -9    9.03    0.51
  -6  -3   9   10.45    0.59
   5   3  -9   18.65    1.00
   5   3  -9   19.94    0.89
   5   3  -9   17.99    0.81
   5   3  -9   17.51    0.86
   5   3  -9   19.80    0.83
   5   3  -9   17.57    0.87
   5   3  -9   18.00    0.92
  -5  -3   9   19.50    1.00
   4   3  -9   69.22    2.61
   4   3  -9   70.68    2.69
   4   3  -9   68.88    2.64
   4   3  -9   67.87    2.86
   4   3  -9   68.77    2.49
   4   3  -9   72.29    2.55
   4   3  -9   69.85    2.70
   4   3  -9   73.95    2.40
   4   3  -9   70.11    2.52
   3   3  -9    5.85    0.36
   3   3  -9    6.07    0.48
   3   3  -9    6.44    0.51
   3   3  -9    5.63    0.50
   3   3  -9    6.44    0.52
   3   3  -9    6.23    0.64
   3   3  -9    6.43    0.60
   3   3  -9    5.40    0.46
   3   3  -9    7.16    0.70
   2   3  -9  174.63    5.38
   2   3  -9  169.12    5.72
   2   3  -9  166.37    5.57
   2   3  -9  175.37    6.42
   2   3  -9  176.77    5.85
   2   3  -9  178.06    5.77
   2   3  -9  162.70    5.53
   2   3  -9  172.07    5.69
   1   3  -9  132.20    4.13
   1   3  -9  132.13    4.98
   1   3  -9  132.70    4.59
   1   3  -9  132.17    4.42
   1   3  -9  130.09    4.37
   1   3  -9  127.65    4.59
   1   3  -9  126.50    5.61
   1   3  -9  125.31    4.26
   1   3  -9  133.00    4.44
   1   3  -9  129.16    4.29
   0   3  -9   13.76    1.25
   0   3  -9   13.50    1.10
   0   3  -9   13.64    0.84
   0   3  -9   13.64    0.66
   0   3  -9   13.00    0.84
   0   3  -9   12.17    0.90
   0   3  -9   13.20    0.70
   0   3  -9   13.53    0.71
   0   3  -9   13.25    0.99
   0   3  -9   13.65    0.72
   0   3  -9   13.35    0.68
  -1   3  -9  131.27    4.40
  -1   3  -9  133.52    4.15
  -1   3  -9  127.65    4.33
  -1   3  -9  129.57    4.42
  -1   3  -9  130.68    4.93
  -1   3  -9  128.19    4.57
  -1   3  -9  130.41    4.60
  -1   3  -9  128.63    4.35
  -1   3  -9  133.75    4.43
  -1   3  -9  132.79    5.73
  -2   3  -9    3.85    0.37
  -2   3  -9    5.06    0.55
  -2   3  -9    4.57    0.75
  -2   3  -9    3.74    0.56
  -2   3  -9    3.62    0.46
  -2   3  -9    4.01    0.44
  -2   3  -9    5.19    0.44
  -2   3  -9    4.88    0.46
  -2   3  -9    3.51    0.58
  -2   3  -9    3.94    0.39
  -3   3  -9   87.33    3.02
  -3   3  -9   85.42    3.12
  -3   3  -9   85.52    3.14
  -3   3  -9   84.51    3.31
  -3   3  -9   87.98    2.96
  -3   3  -9   96.09    4.10
  -3   3  -9   90.14    3.18
  -3   3  -9   92.94    3.51
  -3   3  -9   92.50    3.14
  -4   3  -9   20.73    0.84
  -4   3  -9   20.81    0.97
  -4   3  -9   22.44    1.08
  -4   3  -9   21.37    0.95
  -4   3  -9   19.83    1.38
  -4   3  -9   21.55    1.06
  -4   3  -9   20.95    1.07
  -4   3  -9   21.16    1.21
   4  -3   9   23.99    1.26
  -5   3  -9   23.23    1.15
  -5   3  -9   25.44    1.08
  -5   3  -9   24.76    1.06
   5  -3   9   23.08    1.15
   6   2  -9    7.14    0.49
  -6  -2   9    7.72    0.52
   5   2  -9   20.88    1.00
   5   2  -9   20.70    1.02
   5   2  -9   20.18    0.87
   5   2  -9   20.66    1.07
   5   2  -9   20.08    1.03
  -5  -2   9   22.19    1.09
   4   2  -9   45.58    1.73
   4   2  -9   44.78    2.06
   4   2  -9   48.92    2.01
   4   2  -9   46.49    1.80
   4   2  -9   47.89    1.92
   4   2  -9   45.67    1.90
   4   2  -9   51.97    2.03
   4   2  -9   46.19    1.77
   4   2  -9   44.43    1.84
  -4  -2   9   47.13    2.03
   3   2  -9    0.34    0.33
   3   2  -9    0.47    0.31
   3   2  -9    0.41    0.25
   3   2  -9    0.21    0.19
   3   2  -9    0.95    0.26
   3   2  -9    1.16    0.30
   3   2  -9   -0.62    0.32
   3   2  -9    0.68    0.29
   3   2  -9    0.48    0.22
   3   2  -9    0.30    0.25
   2   2  -9   30.59    1.31
   2   2  -9   30.41    1.35
   2   2  -9   32.32    1.47
   2   2  -9   30.64    1.44
   2   2  -9   34.15    1.68
   2   2  -9   29.79    1.26
   2   2  -9   29.94    1.34
   2   2  -9   31.51    1.46
   2   2  -9   33.93    1.36
   1   2  -9   31.52    1.36
   1   2  -9   33.16    1.49
   1   2  -9   32.10    1.27
   1   2  -9   32.91    1.36
   1   2  -9   37.29    1.40
   1   2  -9   32.50    1.48
   1   2  -9   31.91    1.71
   1   2  -9   35.29    1.71
   1   2  -9   30.73    1.44
   1   2  -9   29.29    1.91
   1   2  -9   32.40    1.36
   0   2  -9   16.16    0.78
   0   2  -9   13.92    1.26
   0   2  -9   13.69    0.81
   0   2  -9   13.87    0.75
   0   2  -9   15.39    0.90
   0   2  -9   17.18    0.75
   0   2  -9   14.99    1.15
   0   2  -9   15.07    1.02
   0   2  -9   15.02    1.04
  -1   2  -9   90.53    3.18
  -1   2  -9   92.26    3.59
  -1   2  -9   97.86    3.19
  -1   2  -9   88.22    3.11
  -1   2  -9   93.17    3.32
  -1   2  -9   90.63    3.36
  -1   2  -9   87.90    4.18
  -1   2  -9   88.65    3.14
  -1   2  -9   84.23    3.58
  -1   2  -9   89.56    2.95
  -1   2  -9   89.76    3.23
  -2   2  -9    1.01    0.28
  -2   2  -9    0.42    0.37
  -2   2  -9    0.33    0.36
  -2   2  -9    0.92    0.29
  -2   2  -9    1.71    0.39
  -2   2  -9    0.61    0.21
  -2   2  -9    1.23    0.48
  -2   2  -9    1.06    0.24
  -2   2  -9    0.86    0.31
  -2   2  -9    0.78    0.24
  -3   2  -9   14.85    0.73
  -3   2  -9   14.83    1.08
  -3   2  -9   11.85    0.80
  -3   2  -9   11.55    0.81
  -3   2  -9   12.98    0.79
  -3   2  -9   12.73    0.71
  -3   2  -9   12.97    0.90
  -3   2  -9   13.42    0.89
  -3   2  -9   12.59    1.18
  -3   2  -9   12.55    0.89
  -4   2  -9   19.19    1.16
  -4   2  -9   18.11    1.00
  -4   2  -9   18.45    0.98
  -4   2  -9   18.44    0.88
  -4   2  -9   18.21    1.32
   4  -2   9   16.40    1.13
  -5   2  -9    9.29    0.61
  -5   2  -9   10.31    0.80
   5  -2   9    9.93    0.81
  -6   2  -9   19.28    0.77
   6  -2   9   17.82    0.95
   6   1  -9   32.28    1.21
   6   1  -9   33.42    1.28
  -6  -1   9   33.29    1.34
   5   1  -9    2.32    0.31
   5   1  -9    1.83    0.38
   5   1  -9    1.34    0.31
  -5  -1   9    1.29    0.30
   4   1  -9   17.71    0.93
   4   1  -9   19.01    1.05
   4   1  -9   17.71    1.08
  -4  -1   9   19.18    1.10
   3   1  -9   22.31    1.36
   3   1  -9   25.84    1.35
   3   1  -9   26.78    1.30
   3   1  -9   23.65    1.13
   3   1  -9   26.48    1.21
  -3  -1   9   25.17    1.37
   2   1  -9   12.90    0.79
   2   1  -9   12.66    0.76
   2   1  -9   12.59    0.84
   2   1  -9   12.38    0.85
   2   1  -9   12.37    0.79
   2   1  -9   11.52    0.99
   2   1  -9   12.33    0.75
  -2  -1   9   11.37    0.96
  -2  -1   9   11.18    1.56
   1   1  -9   65.16    2.42
   1   1  -9   63.68    2.70
   1   1  -9   66.31    2.64
   1   1  -9   63.08    3.14
   1   1  -9   65.75    2.28
   1   1  -9   66.43    2.51
  -1  -1   9   66.42    4.28
   0   1  -9    4.22    0.41
   0   1  -9    4.56    0.54
   0   1  -9    6.11    0.45
   0   1  -9    2.96    0.72
   0   1  -9    2.93    0.41
   0   1  -9    4.10    0.74
   0   1  -9    3.74    0.61
   0  -1   9    3.24    0.80
  -1   1  -9   89.60    3.18
  -1   1  -9   95.33    3.34
  -1   1  -9   90.93    4.22
  -1   1  -9   91.35    3.65
  -1   1  -9   90.82    2.99
  -2   1  -9  116.85    4.06
  -2   1  -9  108.39    3.87
  -2   1  -9  118.31    4.39
  -2   1  -9  115.08    4.03
  -2   1  -9  112.80    3.65
  -2   1  -9  108.77    5.00
  -3   1  -9   37.85    1.72
  -3   1  -9   40.38    2.23
  -3   1  -9   38.37    1.72
  -3   1  -9   38.11    1.54
  -3   1  -9   40.01    1.93
  -4   1  -9  107.95    4.66
  -4   1  -9  107.31    4.02
  -4   1  -9  103.63    3.87
   4  -1   9  100.28    3.95
  -5   1  -9   29.10    1.40
  -5   1  -9   28.63    1.45
   5  -1   9   26.53    1.44
  -6   1  -9   71.14    2.58
   6  -1   9   69.21    2.70
  -7   1  -9   53.24    2.08
  -7   1  -9   53.96    1.90
   7  -1   9   55.62    2.02
   6   0  -9   73.94    2.51
   6   0  -9   72.65    2.48
  -6   0   9   74.34    2.63
   5   0  -9    5.53    0.50
   5   0  -9    5.28    0.53
  -5   0   9    6.29    0.57
   4   0  -9   37.09    1.66
   4   0  -9   39.72    1.69
  -4   0   9   41.70    1.81
   3   0  -9  115.99    5.06
   3   0  -9  116.89    4.22
   3   0  -9  123.32    4.16
  -3   0   9  118.94    4.46
   2   0  -9   12.30    0.90
   2   0  -9   12.71    0.89
   2   0  -9   12.04    1.01
   2   0  -9   13.54    0.87
   2   0  -9   11.89    0.87
  -2   0   9   12.71    1.57
  -2   0   9   10.93    0.96
   1   0  -9   54.62    2.76
   1   0  -9   54.05    2.66
   1   0  -9   53.65    2.37
   1   0  -9   59.41    2.41
  -1   0   9   60.71    3.91
   0   0  -9    4.70    0.89
   0   0  -9    5.14    0.68
   0   0  -9    4.41    0.70
   0   0  -9    5.02    0.52
   0   0  -9    4.77    0.52
   0   0   9    6.25    1.05
  -1   0  -9   36.84    2.09
  -1   0  -9   35.67    2.33
  -1   0  -9   38.62    1.83
  -1   0  -9   38.56    1.87
   1   0   9   38.75    2.55
  -2   0  -9   21.09    1.11
  -2   0  -9   20.04    1.14
  -2   0  -9   20.24    1.44
  -2   0  -9   20.36    1.27
  -3   0  -9   24.02    1.32
  -3   0  -9   23.97    1.24
  -3   0  -9   23.73    1.39
  -3   0  -9   24.40    1.28
  -3   0  -9   25.45    1.62
  -4   0  -9   62.65    2.42
  -4   0  -9   56.40    2.70
  -4   0  -9   56.04    2.50
  -4   0  -9   60.22    2.90
   4   0   9   57.57    2.64
   4   0   9   56.92    2.47
  -5   0  -9    8.78    0.91
   5   0   9    8.34    0.79
  -6   0  -9   22.26    1.23
  -6   0  -9   22.12    1.23
   6   0   9   22.56    1.23
  -7   0  -9    8.06    0.63
  -7   0  -9    8.50    0.62
   7   0   9    7.49    0.60
  -8   0  -9    7.31    0.40
   6  -1  -9    4.45    0.33
   6  -1  -9    4.13    0.34
  -6   1   9    4.45    0.33
   5  -1  -9   11.83    0.77
   5  -1  -9   14.52    0.77
  -5   1   9   13.67    0.78
   4  -1  -9    1.48    0.37
  -4   1   9    1.37    0.34
   3  -1  -9   19.23    1.12
  -3   1   9   22.00    1.23
   2  -1  -9    3.81    0.64
   2  -1  -9    3.67    0.60
   2  -1  -9    3.36    0.54
  -2   1   9    3.19    0.54
   1  -1  -9   82.06    3.75
   1  -1  -9   79.42    3.14
   1  -1  -9   76.44    3.63
  -1   1   9   82.65    5.15
   0  -1  -9   43.00    2.00
   0  -1  -9   43.08    2.60
   0  -1  -9   43.70    2.31
   0  -1  -9   43.45    2.19
   0   1   9   43.88    3.04
  -1  -1  -9    0.40    0.39
  -1  -1  -9    0.21    0.21
  -1  -1  -9    0.61    0.37
  -1  -1  -9    0.15    0.34
   1   1   9    0.19    0.32
  -2  -1  -9   53.79    2.95
  -2  -1  -9   52.87    2.67
  -2  -1  -9   55.04    2.33
  -2  -1  -9   50.77    2.52
  -3  -1  -9    7.59    0.81
  -3  -1  -9    8.58    0.92
  -3  -1  -9    6.73    0.66
  -3  -1  -9    7.49    0.67
  -4  -1  -9   27.47    1.61
  -4  -1  -9   30.62    1.57
  -4  -1  -9   33.54    1.85
   4   1   9   27.06    1.50
   4   1   9   26.83    1.50
   5   1   9   74.92    2.97
   5   1   9   73.78    3.07
  -6  -1  -9    1.19    0.39
   6   1   9    0.53    0.35
  -7  -1  -9   69.43    2.81
   7   1   9   73.04    2.71
  -8  -1  -9   26.20    1.11
  -8  -1  -9   24.98    1.14
   8   1   9   27.81    1.12
   5  -2  -9   56.65    2.05
  -5   2   9   59.31    2.17
   4  -2  -9   44.76    1.80
  -4   2   9   45.54    1.91
   3  -2  -9  116.59    4.04
   2  -2  -9    0.53    0.42
   2  -2  -9    2.40    0.53
   2  -2  -9    1.30    0.41
  -2   2   9    0.95    0.37
   1  -2  -9   59.68    3.05
   1  -2  -9   58.89    2.91
   1  -2  -9   59.18    2.50
  -1   2   9   65.20    4.18
   0  -2  -9   75.27    3.73
   0  -2  -9   82.38    3.73
   0  -2  -9   82.00    3.20
   0  -2  -9   78.78    4.19
   0   2   9   84.25    5.04
  -1  -2  -9    1.79    0.51
  -1  -2  -9    2.28    0.53
  -1  -2  -9    1.39    0.36
  -1  -2  -9    2.05    0.58
   1   2   9    2.19    0.42
   1   2   9    2.18    0.61
  -2  -2  -9   72.16    2.93
  -2  -2  -9   74.33    3.41
  -2  -2  -9   72.85    3.81
  -2  -2  -9   72.48    3.39
   2   2   9   71.78    3.45
  -3  -2  -9   20.70    1.52
  -3  -2  -9   18.67    1.24
  -3  -2  -9   18.39    1.31
  -3  -2  -9   19.19    1.17
  -4  -2  -9   16.75    1.18
  -4  -2  -9   16.82    1.29
  -4  -2  -9   16.23    1.12
   4   2   9   15.19    1.07
  -5  -2  -9   73.92    3.68
  -5  -2  -9   88.73    3.51
   5   2   9   66.28    3.72
   5   2   9   82.21    3.08
   5   2   9   76.71    3.18
  -6  -2  -9    0.99    0.44
   6   2   9    1.33    0.41
   6   2   9    0.95    0.39
  -7  -2  -9   23.41    1.22
   7   2   9   21.85    1.16
  -8  -2  -9    8.15    0.59
   8   2   9    7.55    0.54
  -5   3   9    9.46    0.49
  -4   3   9    6.44    0.56
  -3   3   9   30.59    1.50
   2  -3  -9   40.15    1.76
   2  -3  -9   37.61    2.04
  -2   3   9   37.08    1.83
   1  -3  -9    1.53    0.45
   1  -3  -9    1.83    0.43
  -1   3   9    1.17    0.43
  -1   3   9    0.51    0.35
   0  -3  -9   25.17    1.61
   0  -3  -9   24.86    1.40
   0   3   9   28.02    2.25
   0   3   9   23.28    1.58
  -1  -3  -9   63.19    3.00
  -1  -3  -9   62.52    2.56
   1   3   9   55.73    2.96
  -2  -3  -9   50.76    2.21
  -2  -3  -9   52.23    2.93
  -2  -3  -9   52.39    2.60
   2   3   9   45.63    2.52
  -3  -3  -9  102.84    3.89
  -3  -3  -9  106.14    4.52
   3   3   9   97.97    4.65
  -4  -3  -9    7.20    0.79
   4   3   9    5.32    0.67
  -5  -3  -9   69.58    2.91
   5   3   9   56.97    3.14
   5   3   9   66.05    2.78
  -6  -3  -9   49.41    2.23
   6   3   9   47.17    2.04
   6   3   9   44.24    2.15
  -7  -3  -9   18.04    1.11
   7   3   9   20.11    1.06
   7   3   9   17.36    1.09
  -8  -3  -9   57.75    2.27
   8   3   9   55.25    2.10
  -4   4   9   19.71    0.91
  -4   4   9   17.82    0.85
  -3   4   9   25.56    1.24
  -3   4   9   25.23    1.37
   2  -4  -9   97.38    3.70
   2  -4  -9  100.55    4.36
  -2   4   9   97.49    4.03
  -2   4   9  102.78    3.83
   1  -4  -9    1.09    0.42
   1  -4  -9    2.67    0.63
  -1   4   9    1.56    0.44
   0  -4  -9  118.59    4.54
   0  -4  -9  123.49    5.33
   0   4   9  117.81    5.45
   0   4   9  124.93    4.57
  -1  -4  -9   67.30    3.16
  -1  -4  -9   62.46    2.69
   1   4   9   59.47    3.08
   1   4   9   61.71    2.55
  -2  -4  -9   80.92    3.18
  -2  -4  -9   78.27    3.68
   2   4   9   75.57    3.69
  -3  -4  -9   58.43    2.85
  -3  -4  -9   57.56    2.47
   3   4   9   54.89    2.60
   3   4   9   57.77    2.85
   4   4   9    2.43    0.50
   5   4   9  127.47    5.00
   5   4   9  130.15    5.22
  -6  -4  -9   24.21    1.48
   6   4   9   22.24    1.35
  -7  -4  -9    5.27    0.66
   7   4   9    4.81    0.58
   7   4   9    4.81    0.54
  -8  -4  -9   31.70    1.47
   8   4   9   33.55    1.48
   8   4   9   33.71    1.37
  -4   5   9    1.93    0.18
  -3   5   9    0.42    0.22
  -3   5   9    0.33    0.27
  -3   5   9    1.04    0.24
   2  -5  -9    4.76    0.55
   2  -5  -9    4.82    0.66
  -2   5   9    4.83    0.62
  -2   5   9    5.68    0.59
  -2   5   9    6.15    0.61
   1  -5  -9   14.85    1.24
   1  -5  -9   14.81    1.04
  -1   5   9   15.97    1.12
  -1   5   9   14.57    0.96
  -1   5   9   15.33    1.07
   0  -5  -9    4.46    0.80
   0  -5  -9    3.82    0.60
   0   5   9    3.68    0.61
   0   5   9    4.02    0.55
   0   5   9    4.57    0.68
  -1  -5  -9   26.11    1.45
  -1  -5  -9   23.84    1.65
   1   5   9   19.45    1.28
   1   5   9   23.77    1.20
   1   5   9   22.63    1.29
  -2  -5  -9    4.22    0.68
  -2  -5  -9    4.05    0.76
   2   5   9    4.79    0.62
   2   5   9    3.15    0.46
   2   5   9    3.41    0.53
  -3  -5  -9   19.52    1.40
  -3  -5  -9   17.70    1.17
   3   5   9   17.02    1.30
   3   5   9   16.29    1.11
   3   5   9   16.73    0.97
   3   5   9   18.56    1.10
   4   5   9   13.10    1.10
   4   5   9   13.53    0.99
   4   5   9   16.00    1.24
   4   5   9   13.64    0.86
   4   5   9   11.83    0.91
   5   5   9    6.49    0.83
   5   5   9    5.21    0.60
   5   5   9    6.59    0.83
   5   5   9    4.63    0.76
   6   5   9   67.52    2.84
   6   5   9   65.85    2.91
   6   5   9   65.23    2.54
   6   5   9   60.48    2.95
  -7  -5  -9    3.01    0.53
   7   5   9    2.78    0.40
   7   5   9    3.52    0.52
  -8  -5  -9   11.90    0.77
   8   5   9   13.67    0.67
   8   5   9   12.50    0.80
   2  -6  -9   60.91    2.33
  -2   6   9   57.01    2.49
  -2   6   9   63.51    2.32
  -2   6   9   63.92    2.18
   1  -6  -9   52.25    2.61
   1  -6  -9   50.42    2.19
  -1   6   9   53.16    2.05
  -1   6   9   49.78    2.34
  -1   6   9   54.25    2.22
  -1   6   9   52.73    2.02
   0  -6  -9   25.08    1.67
   0  -6  -9   24.08    1.40
   0   6   9   23.04    1.17
   0   6   9   22.18    1.41
   0   6   9   23.82    1.39
  -1  -6  -9  156.38    6.56
  -1  -6  -9  160.42    5.62
   1   6   9  146.02    5.16
   1   6   9  142.09    5.51
   1   6   9  148.97    5.79
  -2  -6  -9   10.82    1.19
  -2  -6  -9    8.58    0.92
   2   6   9    9.52    0.67
   2   6   9    9.49    0.85
   2   6   9    8.61    0.88
   2   6   9    7.81    0.72
  -3  -6  -9   73.23    3.42
  -3  -6  -9   69.73    2.90
   3   6   9   69.12    2.58
   3   6   9   69.30    2.72
   3   6   9   66.05    3.10
   3   6   9   67.32    2.83
   4   6   9   64.49    2.59
   4   6   9   69.49    3.05
   4   6   9   67.77    2.50
   4   6   9   62.30    2.72
   4   6   9   68.37    3.07
   5   6   9   22.71    1.31
   5   6   9   21.29    1.25
   5   6   9   21.22    1.07
   5   6   9   20.71    1.35
   5   6   9   18.74    1.43
   6   6   9   96.98    3.45
   6   6   9   97.57    3.94
   6   6   9   97.52    4.06
  -7  -6  -9    6.55    0.71
   7   6   9    7.21    0.51
   7   6   9    7.99    0.73
  -8  -6  -9   20.87    1.06
   8   6   9   22.33    1.08
   8   6   9   21.70    0.82
   1  -7  -9    3.81    0.47
  -1   7   9    2.66    0.34
  -1   7   9    3.53    0.43
   0  -7  -9    5.03    0.78
   0  -7  -9    7.31    0.75
   0   7   9    5.17    0.41
   0   7   9    5.44    0.64
   0   7   9    7.07    0.71
   0   7   9    5.48    0.57
  -1  -7  -9    3.88    0.65
  -1  -7  -9    3.22    0.78
   1   7   9    2.89    0.54
   1   7   9    3.97    0.59
   1   7   9    3.50    0.36
   1   7   9    3.29    0.49
   1   7   9    2.42    0.47
  -2  -7  -9   22.57    1.67
  -2  -7  -9   23.21    1.44
   2   7   9   21.30    1.16
   2   7   9   21.69    0.99
   2   7   9   21.26    1.14
   2   7   9   22.57    1.18
   2   7   9   22.23    1.35
   2   7   9   22.42    1.34
   2   7   9   20.55    1.40
  -3  -7  -9    1.54    0.53
   3   7   9    1.32    0.45
   3   7   9    0.92    0.35
   3   7   9    1.62    0.26
   3   7   9    0.74    0.37
   3   7   9    1.42    0.43
   3   7   9    1.10    0.34
   3   7   9    1.12    0.32
   3   7   9    0.70    0.47
   4   7   9   14.00    0.95
   4   7   9   16.04    1.06
   4   7   9   15.77    0.92
   4   7   9   13.30    1.14
   4   7   9   15.06    0.90
   4   7   9   14.00    1.11
   4   7   9   13.69    0.75
   5   7   9    7.14    0.73
   5   7   9    6.73    0.60
   5   7   9    6.76    0.77
   5   7   9    7.39    0.88
   5   7   9    7.11    0.82
   5   7   9    6.14    0.48
   5   7   9    6.82    0.68
   5   7   9    7.79    0.66
   6   7   9    7.92    0.76
   6   7   9    6.40    0.78
   6   7   9    7.90    0.78
   6   7   9    8.08    0.46
   6   7   9    8.17    0.79
   6   7   9    7.91    0.69
  -7  -7  -9   18.91    1.10
   7   7   9   19.25    0.99
   7   7   9   20.66    1.08
   7   7   9   17.29    1.02
   7   7   9   19.33    1.15
  -8  -7  -9    0.42    0.23
   8   7   9    0.82    0.23
   0   8   9    5.06    0.41
   0   8   9    4.64    0.41
   0   8   9    4.75    0.45
  -1  -8  -9   42.55    1.85
   1   8   9   40.05    1.60
   1   8   9   41.71    1.65
   1   8   9   43.48    1.83
  -2  -8  -9   43.04    2.01
   2   8   9   42.90    2.03
   2   8   9   46.85    2.01
   2   8   9   43.24    1.77
   2   8   9   41.96    2.03
   2   8   9   47.10    1.78
   2   8   9   44.32    1.75
   2   8   9   43.24    1.90
   3   8   9    1.86    0.42
   3   8   9    1.31    0.33
   3   8   9    1.10    0.30
   3   8   9    1.38    0.44
   3   8   9    1.14    0.39
   3   8   9    1.23    0.32
   3   8   9    0.66    0.28
   3   8   9    1.09    0.39
   3   8   9    1.34    0.49
   4   8   9   55.47    2.01
   4   8   9   46.90    2.28
   4   8   9   56.79    2.25
   4   8   9   54.79    2.06
   4   8   9   49.99    1.92
   4   8   9   51.96    2.21
   4   8   9   49.09    1.99
   4   8   9   54.53    2.43
   4   8   9   48.00    2.03
   5   8   9   14.00    0.80
   5   8   9   14.14    0.86
   5   8   9   13.90    1.06
   5   8   9   14.18    0.95
   5   8   9   13.79    0.96
   5   8   9   12.86    0.76
   5   8   9   13.16    0.75
   6   8   9   25.32    1.16
   6   8   9   26.68    1.15
   6   8   9   27.38    1.28
   6   8   9   24.62    1.27
   6   8   9   26.86    1.41
  -7  -8  -9   50.37    2.01
   7   8   9   50.83    1.97
   7   8   9   46.44    1.77
   7   8   9   49.80    2.06
   2   9   9    2.34    0.27
   2   9   9    2.33    0.36
   3   9   9    1.91    0.36
   3   9   9    1.08    0.29
   3   9   9    1.20    0.24
   3   9   9    1.29    0.36
   3   9   9    1.57    0.25
   4   9   9    0.00    0.24
   4   9   9    0.41    0.29
   4   9   9    0.29    0.29
   4   9   9    0.17    0.19
   4   9   9    0.05    0.16
   4   9   9    0.42    0.30
   5   9   9    8.39    0.63
   5   9   9    7.71    0.68
   5   9   9    7.11    0.53
   5   9   9    8.76    0.49
   5   9   9    7.42    0.48
   6   9   9    0.65    0.24
   6   9   9    0.33    0.26
   6   9   9    0.68    0.16
   4   6 -10    0.69    0.19
   4   6 -10    0.39    0.17
   4   6 -10    0.50    0.12
   3   6 -10   36.95    1.43
   3   6 -10   35.34    1.31
   3   6 -10   38.54    1.38
   3   6 -10   36.64    1.21
   3   6 -10   35.93    1.49
   2   6 -10   27.77    0.97
   2   6 -10   30.15    1.16
   2   6 -10   27.73    1.06
   2   6 -10   27.99    1.19
   1   6 -10    9.64    0.46
   1   6 -10    8.66    0.57
   1   6 -10    9.22    0.43
   1   6 -10    8.72    0.58
   0   6 -10   86.45    2.89
   0   6 -10   84.11    2.87
   0   6 -10   86.77    2.67
   0   6 -10   85.84    2.99
  -1   6 -10    4.51    0.28
  -1   6 -10    4.28    0.38
   5   5 -10    0.55    0.12
   5   5 -10    0.71    0.11
   5   5 -10    0.66    0.18
   5   5 -10    0.73    0.18
   4   5 -10    2.50    0.25
   4   5 -10    2.95    0.37
   4   5 -10    2.00    0.30
   4   5 -10    2.76    0.25
   4   5 -10    1.63    0.27
   4   5 -10    2.52    0.23
   3   5 -10    0.59    0.18
   3   5 -10    0.70    0.17
   3   5 -10    1.29    0.28
   3   5 -10    1.10    0.18
   3   5 -10    1.16    0.20
   3   5 -10    0.80    0.24
   3   5 -10    1.03    0.28
   2   5 -10    0.72    0.17
   2   5 -10    0.55    0.18
   2   5 -10    1.21    0.31
   2   5 -10    0.52    0.16
   2   5 -10    0.42    0.25
   2   5 -10    0.54    0.24
   2   5 -10    0.71    0.18
   1   5 -10    1.66    0.23
   1   5 -10    1.78    0.35
   1   5 -10    1.74    0.34
   1   5 -10    1.28    0.22
   1   5 -10    1.87    0.24
   1   5 -10    1.96    0.24
   0   5 -10    2.75    0.27
   0   5 -10    2.77    0.46
   0   5 -10    1.79    0.53
   0   5 -10    2.20    0.26
   0   5 -10    2.59    0.39
   0   5 -10    2.45    0.36
   0   5 -10    2.54    0.27
   0   5 -10    2.22    0.27
  -1   5 -10    0.14    0.22
  -1   5 -10    0.48    0.19
  -1   5 -10    1.01    0.34
  -1   5 -10    0.56    0.26
  -1   5 -10    0.60    0.18
  -1   5 -10    0.56    0.17
  -1   5 -10    0.41    0.15
  -2   5 -10    1.13    0.20
  -2   5 -10    1.42    0.21
  -2   5 -10    0.70    0.32
  -2   5 -10    1.00    0.25
  -2   5 -10    0.86    0.19
  -2   5 -10    1.09    0.27
   2  -5  10    0.74    0.32
  -3   5 -10    0.65    0.15
  -3   5 -10    0.84    0.15
  -3   5 -10    0.76    0.21
   5   4 -10   44.75    1.79
   5   4 -10   47.88    1.63
   5   4 -10   46.01    1.55
   5   4 -10   44.02    1.58
   5   4 -10   42.39    1.64
   5   4 -10   44.03    1.50
   4   4 -10   35.59    1.40
   4   4 -10   34.98    1.27
   4   4 -10   33.57    1.40
   4   4 -10   34.14    1.28
   4   4 -10   34.13    1.52
   4   4 -10   30.72    1.29
   4   4 -10   32.41    1.22
   3   4 -10    0.30    0.19
   3   4 -10    0.12    0.15
   3   4 -10    0.72    0.30
   3   4 -10    0.25    0.24
   3   4 -10    0.86    0.22
   3   4 -10    0.80    0.28
   3   4 -10    0.98    0.22
   2   4 -10  112.25    3.90
   2   4 -10  110.25    3.70
   2   4 -10  107.16    3.77
   2   4 -10  104.64    4.18
   2   4 -10  107.45    3.61
   2   4 -10  112.26    3.49
   2   4 -10  108.14    3.73
   1   4 -10    5.05    0.53
   1   4 -10    6.67    0.67
   1   4 -10    5.99    0.65
   1   4 -10    6.09    0.42
   1   4 -10    5.43    0.43
   1   4 -10    4.83    0.41
   1   4 -10    5.84    0.45
   0   4 -10   47.54    2.55
   0   4 -10   49.97    1.96
   0   4 -10   50.74    2.22
   0   4 -10   52.11    1.87
   0   4 -10   50.25    2.04
   0   4 -10   51.19    2.09
   0   4 -10   52.47    1.75
   0   4 -10   47.82    2.25
   0   4 -10   48.85    1.82
   0   4 -10   46.97    1.84
  -1   4 -10   49.68    1.70
  -1   4 -10   46.38    1.79
  -1   4 -10   44.60    2.46
  -1   4 -10   48.02    1.88
  -1   4 -10   49.15    1.99
  -1   4 -10   49.32    2.02
  -1   4 -10   47.03    2.12
  -1   4 -10   50.28    1.83
  -1   4 -10   47.54    1.78
  -2   4 -10    0.80    0.23
  -2   4 -10    1.05    0.38
  -2   4 -10    0.59    0.23
  -2   4 -10    0.95    0.20
  -2   4 -10    1.00    0.33
  -2   4 -10    0.97    0.29
  -2   4 -10    1.25    0.24
  -2   4 -10    0.74    0.44
  -3   4 -10   63.43    2.19
  -3   4 -10   64.22    2.44
  -3   4 -10   63.01    2.23
  -3   4 -10   61.26    2.18
  -3   4 -10   58.77    2.21
  -3   4 -10   59.40    2.08
   3  -4  10   61.12    2.42
  -4   4 -10    3.33    0.31
  -4   4 -10    3.13    0.26
  -4   4 -10    3.23    0.35
   4  -4  10    3.76    0.41
   6   3 -10    0.37    0.14
   6   3 -10    0.40    0.14
  -6  -3  10    0.12    0.13
   5   3 -10   24.30    1.05
   5   3 -10   26.94    1.03
   5   3 -10   26.82    1.18
   5   3 -10   24.18    0.99
   5   3 -10   26.31    1.08
   5   3 -10   26.26    1.03
  -5  -3  10   25.50    1.11
   4   3 -10   21.80    0.89
   4   3 -10   21.98    0.91
   4   3 -10   18.73    0.93
   4   3 -10   20.64    1.01
   4   3 -10   21.49    1.12
   4   3 -10   20.23    0.92
   4   3 -10   19.16    0.98
  -4  -3  10   18.67    1.02
   3   3 -10   14.96    0.71
   3   3 -10   12.71    0.83
   3   3 -10   12.84    0.73
   3   3 -10   13.93    0.92
   3   3 -10   13.13    0.81
   3   3 -10   13.22    0.74
   3   3 -10   13.11    0.70
   2   3 -10   55.50    1.95
   2   3 -10   56.11    2.07
   2   3 -10   54.78    2.42
   2   3 -10   55.02    2.15
   2   3 -10   54.67    2.21
   2   3 -10   53.04    2.20
   2   3 -10   55.48    2.06
   2   3 -10   53.62    2.01
   1   3 -10    2.59    0.34
   1   3 -10    2.26    0.32
   1   3 -10    2.01    0.47
   1   3 -10    2.35    0.35
   1   3 -10    2.67    0.44
   1   3 -10    2.06    0.39
   1   3 -10    1.61    0.29
   1   3 -10    2.32    0.44
   0   3 -10    1.51    0.38
   0   3 -10    2.43    0.34
   0   3 -10    2.34    0.31
   0   3 -10    1.37    0.57
   0   3 -10    1.63    0.28
   0   3 -10    2.58    0.58
   0   3 -10    1.81    0.38
   0   3 -10    2.17    0.41
   0   3 -10    2.28    0.50
   0   3 -10    1.64    0.26
  -1   3 -10    4.13    0.42
  -1   3 -10    3.71    0.29
  -1   3 -10    5.46    0.58
  -1   3 -10    5.23    0.83
  -1   3 -10    4.86    0.40
  -1   3 -10    4.50    0.72
  -1   3 -10    3.46    0.44
  -1   3 -10    4.50    0.57
  -1   3 -10    5.46    0.66
  -1   3 -10    4.95    0.41
  -1   3 -10    3.72    0.41
  -2   3 -10    1.37    0.49
  -2   3 -10    0.86    0.24
  -2   3 -10    1.31    0.19
  -2   3 -10    1.05    0.33
  -2   3 -10    1.99    0.28
  -2   3 -10    0.98    0.40
  -2   3 -10    1.42    0.54
  -2   3 -10    0.95    0.21
  -2   3 -10    1.29    0.28
  -2   3 -10    0.97    0.30
  -3   3 -10   15.91    0.86
  -3   3 -10   16.02    1.06
  -3   3 -10   15.49    0.87
  -3   3 -10   15.82    0.78
  -3   3 -10   16.36    0.79
  -3   3 -10   17.84    1.00
  -3   3 -10   15.63    0.86
  -3   3 -10   15.42    1.25
  -4   3 -10    0.31    0.18
  -4   3 -10    0.39    0.24
  -4   3 -10    0.27    0.23
  -4   3 -10    0.21    0.26
  -4   3 -10    0.20    0.39
  -4   3 -10    0.54    0.34
  -4   3 -10    0.36    0.27
   4  -3  10    0.32    0.28
  -5   3 -10    1.19    0.24
   5  -3  10    1.34    0.31
   6   2 -10   32.91    1.20
  -6  -2  10   33.68    1.27
   5   2 -10    9.22    0.58
   5   2 -10    8.46    0.36
   5   2 -10    8.55    0.56
  -5  -2  10   10.18    0.63
   4   2 -10   92.53    3.19
   4   2 -10   93.89    3.59
   4   2 -10   92.59    3.12
   4   2 -10   89.36    3.49
   4   2 -10   92.38    3.21
   4   2 -10   92.40    3.25
  -4  -2  10   95.94    3.45
   3   2 -10   21.20    0.94
   3   2 -10   21.45    1.11
   3   2 -10   21.31    1.10
   3   2 -10   20.51    1.20
   3   2 -10   20.33    0.95
   3   2 -10   21.50    1.08
   3   2 -10   20.20    0.95
   3   2 -10   19.77    1.01
  -3  -2  10   18.55    1.14
   2   2 -10   49.92    1.93
   2   2 -10   48.72    1.90
   2   2 -10   48.16    2.02
   2   2 -10   47.27    2.23
   2   2 -10   49.09    1.87
   2   2 -10   49.60    1.90
   2   2 -10   46.31    1.96
   2   2 -10   48.27    1.80
   2   2 -10   51.70    2.10
   1   2 -10   29.45    1.26
   1   2 -10   26.14    1.35
   1   2 -10   27.33    1.17
   1   2 -10   28.79    1.26
   1   2 -10   28.42    1.33
   1   2 -10   28.71    1.79
   1   2 -10   30.58    1.27
   1   2 -10   28.83    1.55
   1   2 -10   28.39    1.24
   0   2 -10    1.13    0.30
   0   2 -10    1.54    0.48
   0   2 -10    1.42    0.43
   0   2 -10    2.55    0.33
   0   2 -10    1.71    0.59
   0   2 -10    1.85    0.39
   0   2 -10    1.66    0.31
   0   2 -10    1.45    0.33
   0   2 -10    2.02    0.32
   0   2 -10    2.01    0.31
   0   2 -10    1.36    0.35
  -1   2 -10  117.30    4.07
  -1   2 -10  114.32    3.77
  -1   2 -10  115.17    5.23
  -1   2 -10  118.42    4.20
  -1   2 -10  116.85    4.02
  -1   2 -10  122.53    4.05
  -1   2 -10  116.10    4.50
  -1   2 -10  113.22    4.49
  -1   2 -10  120.64    4.21
  -1   2 -10  116.64    3.97
  -2   2 -10   35.27    1.54
  -2   2 -10   40.57    1.95
  -2   2 -10   35.92    1.55
  -2   2 -10   39.33    1.52
  -2   2 -10   37.83    1.55
  -2   2 -10   38.32    1.70
  -2   2 -10   40.10    1.62
  -2   2 -10   37.60    1.70
  -2   2 -10   39.22    2.20
  -2   2 -10   35.62    1.43
   2  -2  10   35.62    1.80
  -3   2 -10   30.66    1.28
  -3   2 -10   32.40    1.90
  -3   2 -10   29.86    1.39
  -3   2 -10   28.82    1.35
  -3   2 -10   29.85    1.36
  -3   2 -10   30.14    1.26
  -3   2 -10   30.71    1.46
  -3   2 -10   33.45    1.68
  -3   2 -10   31.77    1.49
  -3   2 -10   32.78    1.40
  -4   2 -10  147.53    4.92
  -4   2 -10  157.55    5.29
  -4   2 -10  133.69    4.92
  -4   2 -10  141.33    4.91
  -4   2 -10  144.42    6.10
   4  -2  10  154.65    5.25
  -5   2 -10    1.81    0.39
  -5   2 -10    1.08    0.22
   5  -2  10    1.28    0.37
   6  -2  10   40.12    1.56
   6   1 -10   34.39    1.22
  -6  -1  10   33.82    1.29
   5   1 -10    0.75    0.23
   5   1 -10    0.47    0.17
  -5  -1  10    0.79    0.23
   4   1 -10   20.23    1.03
   4   1 -10   19.83    0.94
   4   1 -10   18.81    1.08
  -4  -1  10   19.96    1.07
   3   1 -10    5.49    0.51
   3   1 -10    8.64    0.69
   3   1 -10    9.10    0.78
   3   1 -10    6.81    0.66
   3   1 -10    6.54    0.56
  -3  -1  10    4.56    0.57
   2   1 -10   17.39    0.90
   2   1 -10   13.88    0.93
   2   1 -10   15.60    1.11
   2   1 -10   14.95    0.86
   2   1 -10   18.17    1.03
   1   1 -10   15.38    1.15
   1   1 -10   19.14    0.94
   1   1 -10   17.76    0.94
   1   1 -10   19.06    1.02
   1   1 -10   15.85    0.86
   1   1 -10   16.02    1.33
   1   1 -10   17.24    1.02
   1   1 -10   15.79    0.91
   1   1 -10   18.98    1.20
   1   1 -10   16.89    1.01
   0   1 -10    0.86    0.31
   0   1 -10    0.82    0.26
   0   1 -10    0.38    0.24
   0   1 -10    0.55    0.35
   0   1 -10    0.12    0.44
   0   1 -10    0.71    0.53
   0   1 -10    0.58    0.30
   0   1 -10    0.33    0.24
   0   1 -10    0.61    0.23
  -1   1 -10   77.29    3.17
  -1   1 -10   76.66    2.82
  -1   1 -10   71.52    3.64
  -1   1 -10   75.84    2.86
  -1   1 -10   71.50    2.54
  -1   1 -10   78.20    3.13
  -1   1 -10   71.55    2.71
  -1   1 -10   78.64    2.73
  -2   1 -10    6.54    0.68
  -2   1 -10    7.20    0.71
  -2   1 -10    5.30    0.73
  -2   1 -10    5.94    0.69
  -2   1 -10    7.29    0.67
  -2   1 -10    7.66    0.99
  -2   1 -10    6.60    0.51
   2  -1  10    8.05    0.82
  -3   1 -10   30.63    1.45
  -3   1 -10   30.22    1.48
  -3   1 -10   33.29    1.52
  -3   1 -10   31.34    1.66
  -3   1 -10   30.66    1.29
  -3   1 -10   31.63    1.92
   3  -1  10   27.27    1.53
  -4   1 -10    6.09    0.84
  -4   1 -10    5.83    0.68
  -4   1 -10    7.07    0.80
   4  -1  10    6.49    0.77
  -5   1 -10    8.29    0.78
  -5   1 -10    7.78    0.63
   5  -1  10    8.25    0.74
  -6   1 -10    6.20    0.48
   6  -1  10    6.15    0.59
  -7   1 -10    0.29    0.11
   6   0 -10   17.73    0.71
   6   0 -10   17.91    0.65
  -6   0  10   16.97    0.73
   5   0 -10    2.86    0.35
   5   0 -10    2.13    0.30
  -5   0  10    1.96    0.31
   4   0 -10    9.04    0.65
   4   0 -10    8.23    0.66
  -4   0  10    8.79    0.70
   3   0 -10   37.86    1.89
   3   0 -10   37.73    1.67
   3   0 -10   37.73    1.65
  -3   0  10   40.20    1.80
   2   0 -10    5.16    0.58
   2   0 -10    4.20    0.52
   2   0 -10    2.90    0.53
   2   0 -10    4.69    0.68
  -2   0  10    4.71    0.65
   1   0 -10   59.81    2.33
   1   0 -10   58.76    2.28
   1   0 -10   60.43    2.69
   1   0 -10   57.47    2.90
   1   0 -10   55.04    2.69
   1   0 -10   61.10    2.53
   1   0 -10   60.67    2.54
   0   0 -10   36.67    1.93
   0   0 -10   40.25    1.73
   0   0 -10   40.26    1.92
   0   0 -10   39.95    2.25
   0   0 -10   40.33    1.85
   0   0 -10   42.54    2.01
   0   0 -10   38.69    1.65
   0   0  10   39.28    2.88
  -1   0 -10   19.84    1.28
  -1   0 -10   19.77    1.22
  -1   0 -10   18.26    1.05
  -1   0 -10   17.45    1.39
  -1   0 -10   17.99    1.09
  -2   0 -10  159.08    5.54
  -2   0 -10  158.96    5.54
  -2   0 -10  153.82    6.72
  -2   0 -10  166.00    5.90
  -2   0 -10  168.86    6.87
  -2   0 -10  164.05    5.99
   2   0  10  150.87    5.99
  -3   0 -10    0.39    0.25
  -3   0 -10    0.60    0.29
  -3   0 -10    0.54    0.40
  -3   0 -10    1.84    0.56
  -3   0 -10    1.19    0.38
  -3   0 -10    0.79    0.36
   3   0  10    0.55    0.33
  -4   0 -10   90.89    3.91
  -4   0 -10   85.02    3.35
  -4   0 -10   83.25    3.22
   4   0  10   82.23    3.28
   4   0  10   74.90    3.32
  -5   0 -10   65.08    2.65
  -5   0 -10   65.78    2.80
   5   0  10   63.16    2.64
  -6   0 -10    2.40    0.41
   6   0  10    3.31    0.50
  -7   0 -10   81.43    2.81
   7   0  10   80.20    2.87
   5  -1 -10    3.99    0.39
   5  -1 -10    3.85    0.37
  -5   1  10    5.09    0.42
   4  -1 -10    5.72    0.55
   4  -1 -10    6.30    0.59
  -4   1  10    5.43    0.58
   3  -1 -10   59.10    2.29
  -3   1  10   59.36    2.48
  -2   1  10    0.41    0.36
   1  -1 -10   72.18    3.22
   1  -1 -10   77.14    3.55
   1  -1 -10   76.13    3.05
   1  -1 -10   75.53    3.58
  -1   1  10   78.43    3.07
   0  -1 -10   21.22    1.36
   0  -1 -10   17.85    1.21
   0  -1 -10   20.33    1.41
   0  -1 -10   19.19    1.22
   0   1  10   18.40    1.80
  -1  -1 -10   11.68    0.99
  -1  -1 -10   12.62    0.92
  -1  -1 -10   12.94    1.13
   1   1  10   11.85    1.31
  -2  -1 -10   67.93    3.19
  -2  -1 -10   62.62    2.72
  -2  -1 -10   64.26    3.00
   2   1  10   59.79    2.74
  -3  -1 -10    3.20    0.51
  -3  -1 -10    4.74    0.82
  -3  -1 -10    3.44    0.64
  -3  -1 -10    3.59    0.57
   3   1  10    4.09    0.61
  -4  -1 -10   29.67    1.70
  -4  -1 -10   30.08    1.64
  -4  -1 -10   33.64    1.95
   4   1  10   30.56    1.59
   4   1  10   30.21    1.60
   5   1  10   21.80    1.25
   5   1  10   19.93    1.22
   6   1  10    2.82    0.50
  -7  -1 -10   18.86    1.04
  -7  -1 -10   17.42    0.94
   7   1  10   16.21    0.91
   5  -2 -10   20.63    0.90
   5  -2 -10   19.51    0.80
  -5   2  10   21.14    0.88
   4  -2 -10    1.43    0.31
  -4   2  10    0.75    0.27
  -3   2  10   74.45    2.94
   2  -2 -10   59.44    2.86
  -2   2  10   61.01    2.57
   1  -2 -10    9.97    0.99
   1  -2 -10    8.55    0.83
   1  -2 -10    9.66    0.98
  -1   2  10   10.23    0.90
   0  -2 -10   71.61    3.56
   0  -2 -10   74.20    3.04
   0  -2 -10   70.08    3.22
   0  -2 -10   75.93    3.56
   0   2  10   84.30    3.33
   0   2  10   73.24    2.97
  -1  -2 -10    2.03    0.59
  -1  -2 -10    2.01    0.48
  -1  -2 -10    2.60    0.52
   1   2  10    2.56    0.62
  -2  -2 -10   39.66    2.14
  -2  -2 -10   42.08    1.99
  -2  -2 -10   43.13    2.31
   2   2  10   39.66    2.00
  -3  -2 -10   74.04    3.38
  -3  -2 -10   68.08    2.87
  -3  -2 -10   65.85    3.27
   3   2  10   67.13    2.93
  -4  -2 -10    0.93    0.40
  -4  -2 -10    1.39    0.47
  -4  -2 -10    0.53    0.53
   4   2  10    0.35    0.35
   5   2  10   66.68    2.88
   5   2  10   70.13    2.78
  -6  -2 -10   21.20    1.20
   6   2  10   19.66    1.17
   6   2  10   17.72    1.13
  -7  -2 -10   35.17    1.63
   7   2  10   37.98    1.57
  -8  -2 -10   62.41    2.33
   8   2  10   61.76    2.21
  -4   3  10   10.22    0.61
  -3   3  10   50.72    2.10
   2  -3 -10    9.31    0.84
   2  -3 -10   10.85    1.02
  -2   3  10   11.51    0.86
   1  -3 -10    6.53    0.74
   1  -3 -10    4.95    0.75
  -1   3  10    5.77    0.73
   0  -3 -10  101.73    4.40
   0  -3 -10   99.14    3.74
   0   3  10   93.26    3.69
   0   3  10   88.39    4.50
  -1  -3 -10   13.12    1.20
  -1  -3 -10   11.38    0.96
   1   3  10   11.81    0.92
   1   3  10   13.57    1.11
   1   3  10   13.30    1.15
  -2  -3 -10   31.70    1.87
  -2  -3 -10   30.73    1.63
   2   3  10   29.77    1.82
   2   3  10   27.60    1.64
  -3  -3 -10   36.75    2.03
  -3  -3 -10   33.16    1.71
   3   3  10   32.68    1.77
   3   3  10   32.10    1.94
  -4  -3 -10    2.36    0.66
  -4  -3 -10    2.00    0.52
   4   3  10    1.51    0.47
   4   3  10    1.14    0.43
   5   3  10   11.89    0.93
  -6  -3 -10    0.05    0.40
   6   3  10   -0.02    0.27
  -7  -3 -10   24.67    1.27
   7   3  10   26.10    1.31
   7   3  10   24.43    1.19
  -8  -3 -10    0.47    0.23
   8   3  10    0.50    0.23
  -4   4  10   27.72    1.04
  -4   4  10   24.75    1.01
  -3   4  10    4.19    0.45
   2  -4 -10   62.57    3.02
   2  -4 -10   67.18    2.59
  -2   4  10   68.66    2.68
   1  -4 -10   11.40    1.04
   1  -4 -10   10.15    0.85
  -1   4  10   10.06    0.90
   0  -4 -10    4.31    0.62
   0  -4 -10    5.99    0.88
   0   4  10    4.51    0.63
  -1  -4 -10   82.88    3.71
  -1  -4 -10   75.61    3.12
   1   4  10   70.02    3.62
   1   4  10   72.95    2.98
  -2  -4 -10    0.93    0.52
  -2  -4 -10    0.99    0.49
   2   4  10    0.87    0.38
   2   4  10    1.10    0.52
   2   4  10    0.35    0.36
  -3  -4 -10   61.97    2.91
  -3  -4 -10   57.05    2.47
   3   4  10   51.13    2.81
   3   4  10   53.87    2.58
  -4  -4 -10   11.20    0.96
   4   4  10   10.72    0.97
   5   4  10   29.44    1.61
  -6  -4 -10   72.11    2.94
   6   4  10   64.01    2.86
  -7  -4 -10    3.60    0.51
   7   4  10    3.63    0.45
   7   4  10    4.36    0.55
  -8  -4 -10   51.11    2.05
   8   4  10   53.20    1.93
   8   4  10   52.44    2.06
  -3   5  10    3.59    0.32
  -3   5  10    3.35    0.34
   2  -5 -10   56.31    2.22
  -2   5  10   56.40    2.18
  -2   5  10   58.17    2.25
   1  -5 -10    7.23    0.71
   1  -5 -10    7.72    0.91
  -1   5  10    6.76    0.72
  -1   5  10    6.57    0.66
   0  -5 -10   15.06    1.23
   0  -5 -10   13.03    1.02
   0   5  10   12.57    0.99
   0   5  10   13.07    0.91
  -1  -5 -10   40.88    1.97
  -1  -5 -10   41.29    2.32
   1   5  10   39.50    1.88
   1   5  10   35.70    1.73
  -2  -5 -10   11.56    1.19
  -2  -5 -10   12.17    1.01
   2   5  10   10.06    0.81
   2   5  10   11.86    0.90
  -3  -5 -10   97.27    4.18
  -3  -5 -10   87.17    3.54
   3   5  10   83.71    3.27
   3   5  10   86.72    3.43
   3   5  10   90.69    3.78
   4   5  10   38.25    1.68
   4   5  10   37.02    1.96
   5   5  10   16.77    1.03
   5   5  10   16.87    1.19
   5   5  10   17.33    1.33
  -6  -5 -10   43.69    2.06
   6   5  10   40.42    1.98
   6   5  10   41.80    1.79
  -7  -5 -10   -0.08    0.31
   7   5  10    0.39    0.29
   7   5  10   -0.09    0.20
  -8  -5 -10   20.13    0.98
   8   5  10   20.64    0.99
   8   5  10   20.10    0.85
  -2   6  10    2.05    0.30
  -2   6  10    2.36    0.25
   1  -6 -10   23.01    1.21
  -1   6  10   24.70    1.22
  -1   6  10   24.01    1.08
   0  -6 -10    2.12    0.48
   0  -6 -10    1.74    0.57
   0   6  10    2.20    0.37
   0   6  10    2.20    0.48
  -1  -6 -10   58.62    2.52
  -1  -6 -10   55.94    2.92
   1   6  10   57.13    2.46
   1   6  10   54.37    2.21
  -2  -6 -10   44.92    2.46
  -2  -6 -10   45.78    2.09
   2   6  10   38.64    1.90
   2   6  10   37.85    1.71
  -3  -6 -10   21.94    1.63
  -3  -6 -10   21.32    1.39
   3   6  10   21.23    1.07
   3   6  10   20.00    1.23
   4   6  10  123.02    4.32
   4   6  10  124.64    4.60
   4   6  10  132.45    5.00
   4   6  10  116.60    4.95
   5   6  10   12.55    0.78
   5   6  10   11.89    0.97
   5   6  10   11.99    1.02
   5   6  10   14.05    1.14
   5   6  10   11.59    0.94
   6   6  10   60.90    2.66
   6   6  10   62.50    2.66
   6   6  10   64.44    2.33
   6   6  10   58.52    2.74
  -7  -6 -10   28.50    1.40
   7   6  10   29.25    1.17
   7   6  10   28.22    1.41
  -8  -6 -10   12.46    0.69
   8   6  10   12.79    0.48
   8   6  10   12.70    0.71
  -1   7  10   38.89    1.51
   0  -7 -10    4.01    0.53
   0   7  10    3.73    0.29
   0   7  10    4.81    0.56
  -1  -7 -10   56.45    2.83
  -1  -7 -10   54.58    2.39
   1   7  10   56.71    2.41
   1   7  10   57.83    2.04
  -2  -7 -10   28.13    1.55
  -2  -7 -10   25.84    1.78
   2   7  10   26.41    1.13
   2   7  10   25.71    1.43
  -3  -7 -10   11.75    1.10
   3   7  10   13.41    1.00
   3   7  10   14.44    0.73
   4   7  10   73.31    2.83
   4   7  10   64.95    3.03
   4   7  10   71.00    2.48
   4   7  10   67.33    2.83
   5   7  10    5.47    0.71
   5   7  10    5.25    0.73
   5   7  10    5.57    0.44
   5   7  10    5.66    0.64
   5   7  10    5.96    0.66
   6   7  10   27.79    1.42
   6   7  10   27.16    1.52
   6   7  10   28.48    1.05
  -7  -7 -10   18.77    1.01
   7   7  10   18.87    0.99
   1   8  10    0.62    0.28
   1   8  10    0.38    0.21
   2   8  10   16.95    0.88
   2   8  10   17.59    1.03
   3   8  10    1.77    0.33
   3   8  10    1.63    0.40
   4   8  10   12.87    0.98
   4   8  10   13.35    0.77
   4   8  10   13.69    0.90
   5   8  10   11.34    0.89
   5   8  10   11.01    0.77
   5   8  10   10.92    0.69
   6   8  10    1.40    0.31
   6   8  10    0.96    0.35
   6   8  10    1.33    0.27
   4   9  10   37.16    1.32
   4   9  10   34.23    1.46
   2   6 -11    1.77    0.17
   2   6 -11    1.51    0.23
   1   6 -11    2.36    0.19
   1   6 -11    2.55    0.27
   0   6 -11    1.44    0.16
   0   6 -11    1.55    0.23
   4   5 -11   15.05    0.71
   4   5 -11   14.05    0.59
   4   5 -11   14.65    0.63
   3   5 -11    6.14    0.44
   3   5 -11    6.77    0.35
   3   5 -11    5.80    0.44
   3   5 -11    5.93    0.47
   3   5 -11    6.66    0.31
   3   5 -11    5.33    0.34
   2   5 -11   23.37    1.06
   2   5 -11   24.17    1.13
   2   5 -11   22.72    0.93
   2   5 -11   23.37    0.88
   2   5 -11   24.68    1.04
   2   5 -11   24.41    0.87
   1   5 -11    2.16    0.22
   1   5 -11    2.14    0.34
   1   5 -11    2.44    0.33
   1   5 -11    2.19    0.24
   1   5 -11    2.42    0.24
   0   5 -11   42.74    1.46
   0   5 -11   44.12    1.48
   0   5 -11   44.87    1.63
   0   5 -11   41.17    1.55
   0   5 -11   42.42    1.69
  -1   5 -11   30.86    1.09
  -1   5 -11   29.27    1.26
  -1   5 -11   31.33    1.09
  -1   5 -11   31.01    1.22
  -1   5 -11   29.39    1.14
  -2   5 -11    7.23    0.34
  -2   5 -11    6.69    0.37
  -2   5 -11    6.76    0.45
   5   4 -11    3.23    0.21
   5   4 -11    2.48    0.25
   4   4 -11    0.12    0.14
   4   4 -11    0.28    0.13
   4   4 -11    0.26    0.13
   4   4 -11    0.11    0.18
   4   4 -11    0.14    0.18
   4   4 -11    0.22    0.15
   3   4 -11    5.41    0.38
   3   4 -11    5.66    0.38
   3   4 -11    6.13    0.51
   3   4 -11    5.78    0.47
   3   4 -11    5.41    0.53
   3   4 -11    5.95    0.39
   3   4 -11    5.20    0.41
   2   4 -11   10.05    0.58
   2   4 -11   10.56    0.68
   2   4 -11   10.06    0.75
   2   4 -11   10.43    0.57
   2   4 -11   10.77    0.70
   2   4 -11   10.35    0.56
   2   4 -11    9.77    0.54
   1   4 -11    2.37    0.30
   1   4 -11    2.49    0.29
   1   4 -11    2.62    0.31
   1   4 -11    2.20    0.38
   1   4 -11    2.39    0.36
   1   4 -11    2.22    0.27
   1   4 -11    2.28    0.41
   1   4 -11    2.77    0.39
   0   4 -11    0.75    0.41
   0   4 -11    1.50    0.51
   0   4 -11    1.29    0.33
   0   4 -11    1.59    0.26
   0   4 -11    1.73    0.27
   0   4 -11    1.40    0.38
   0   4 -11    2.37    0.40
   0   4 -11    1.82    0.26
   0   4 -11    2.19    0.37
   0   4 -11    1.89    0.26
  -1   4 -11    5.85    0.41
  -1   4 -11    4.63    0.67
  -1   4 -11    6.41    0.54
  -1   4 -11    6.24    0.47
  -1   4 -11    6.37    0.45
  -1   4 -11    6.17    0.55
  -1   4 -11    5.97    0.65
  -1   4 -11    5.41    0.41
  -2   4 -11    8.01    0.54
  -2   4 -11    8.44    0.49
  -2   4 -11    8.68    0.58
  -2   4 -11    7.96    0.72
  -2   4 -11    8.94    0.64
  -2   4 -11    9.73    0.55
  -2   4 -11    8.91    0.49
  -3   4 -11    1.88    0.22
  -3   4 -11    1.60    0.24
  -3   4 -11    1.85    0.25
  -3   4 -11    1.43    0.27
  -3   4 -11    1.83    0.35
  -3   4 -11    1.86    0.25
   3  -4  11    2.26    0.38
  -4   4 -11    8.14    0.41
   5   3 -11    7.44    0.47
   5   3 -11    8.17    0.41
   5   3 -11    8.28    0.45
   4   3 -11   47.48    1.71
   4   3 -11   48.42    1.70
   4   3 -11   49.48    1.95
   4   3 -11   45.22    1.62
   4   3 -11   43.08    1.74
   4   3 -11   51.20    1.77
   3   3 -11    2.51    0.31
   3   3 -11    2.42    0.30
   3   3 -11    3.16    0.36
   3   3 -11    1.69    0.31
   3   3 -11    2.37    0.42
   3   3 -11    1.92    0.31
   3   3 -11    2.15    0.36
   2   3 -11   57.49    2.15
   2   3 -11   60.37    2.04
   2   3 -11   55.70    2.47
   2   3 -11   58.35    2.22
   2   3 -11   57.00    2.23
   2   3 -11   58.72    2.12
   2   3 -11   59.58    2.17
   2   3 -11   60.18    2.29
   1   3 -11   67.61    2.28
   1   3 -11   68.16    2.59
   1   3 -11   63.30    2.76
   1   3 -11   65.03    2.47
   1   3 -11   65.54    2.37
   1   3 -11   65.11    2.42
   1   3 -11   70.62    2.44
   1   3 -11   67.25    2.57
   0   3 -11   25.27    1.12
   0   3 -11   26.31    1.29
   0   3 -11   23.37    1.41
   0   3 -11   23.78    1.18
   0   3 -11   26.70    1.68
   0   3 -11   26.73    1.37
   0   3 -11   25.80    1.14
   0   3 -11   27.39    1.08
   0   3 -11   26.94    1.13
   0   3 -11   25.78    1.33
  -1   3 -11   37.25    1.57
  -1   3 -11   37.40    2.14
  -1   3 -11   37.48    1.52
  -1   3 -11   38.25    1.52
  -1   3 -11   38.70    1.55
  -1   3 -11   40.10    1.71
  -1   3 -11   38.48    1.70
  -1   3 -11   40.97    1.45
  -1   3 -11   38.49    1.76
  -1   3 -11   38.81    1.86
  -2   3 -11   19.86    1.40
  -2   3 -11   19.74    0.94
  -2   3 -11   18.90    0.96
  -2   3 -11   20.71    1.09
  -2   3 -11   19.60    0.99
  -2   3 -11   20.34    0.90
  -2   3 -11   19.43    0.88
  -2   3 -11   19.53    1.21
  -2   3 -11   21.18    1.11
  -3   3 -11   29.29    1.36
  -3   3 -11   29.51    1.19
  -3   3 -11   32.00    1.28
  -3   3 -11   29.00    1.69
  -3   3 -11   31.41    1.27
  -3   3 -11   27.76    1.27
  -3   3 -11   30.35    1.47
  -3   3 -11   30.43    1.18
   3  -3  11   31.34    1.50
  -4   3 -11   42.07    1.71
  -4   3 -11   47.31    1.70
  -4   3 -11   47.27    1.85
  -4   3 -11   47.19    1.69
   4  -3  11   46.86    1.87
   5   2 -11    1.87    0.24
   5   2 -11    2.21    0.28
  -5  -2  11    1.63    0.24
   4   2 -11    4.47    0.48
   4   2 -11    3.78    0.43
   4   2 -11    4.95    0.45
  -4  -2  11    3.27    0.39
   3   2 -11    1.27    0.20
   3   2 -11    1.89    0.34
   3   2 -11    1.54    0.32
   3   2 -11    0.64    0.22
   3   2 -11    1.65    0.32
   3   2 -11    0.84    0.31
   3   2 -11    1.25    0.32
   3   2 -11    0.67    0.32
   2   2 -11    2.49    0.47
   2   2 -11    2.25    0.29
   2   2 -11    2.06    0.32
   2   2 -11    1.52    0.38
   2   2 -11    1.76    0.37
   2   2 -11    2.49    0.37
   2   2 -11    2.94    0.41
   2   2 -11    2.69    0.43
   2   2 -11    2.53    0.39
   1   2 -11    0.59    0.26
   1   2 -11    0.25    0.19
   1   2 -11    0.11    0.22
   1   2 -11    0.17    0.19
   1   2 -11    0.76    0.35
   1   2 -11    0.22    0.23
   1   2 -11   -0.19    0.46
   1   2 -11   -0.02    0.27
   1   2 -11    0.37    0.20
   1   2 -11    0.39    0.30
   0   2 -11    7.88    0.57
   0   2 -11    7.41    0.58
   0   2 -11    7.35    0.99
   0   2 -11    9.19    0.57
   0   2 -11    7.55    0.54
   0   2 -11    8.08    0.90
   0   2 -11    7.96    0.67
   0   2 -11    8.09    0.59
   0   2 -11    6.94    0.71
   0   2 -11    8.03    0.67
   0   2 -11    8.15    0.76
  -1   2 -11    1.41    0.36
  -1   2 -11    0.83    0.30
  -1   2 -11    1.48    0.28
  -1   2 -11    1.46    0.43
  -1   2 -11    0.56    0.32
  -1   2 -11    0.93    0.24
  -1   2 -11    1.49    0.49
  -1   2 -11    0.60    0.32
  -1   2 -11    1.47    0.56
  -1   2 -11    0.94    0.26
  -1   2 -11    1.07    0.27
  -2   2 -11    6.46    0.67
  -2   2 -11    6.66    0.93
  -2   2 -11    7.41    0.64
  -2   2 -11    4.41    0.65
  -2   2 -11    6.21    0.58
  -2   2 -11    6.07    0.48
  -2   2 -11    5.03    0.50
  -2   2 -11    6.19    0.47
  -2   2 -11    5.73    0.55
  -2   2 -11    5.95    0.55
   2  -2  11    6.44    0.70
  -3   2 -11    5.71    0.54
  -3   2 -11    5.98    0.62
  -3   2 -11    6.58    0.87
  -3   2 -11    5.39    0.49
  -3   2 -11    5.60    0.68
  -3   2 -11    6.01    0.44
  -3   2 -11    4.63    0.53
  -4   2 -11   15.66    0.87
  -4   2 -11   16.85    0.74
  -4   2 -11   15.73    1.16
  -4   2 -11   15.78    1.02
   4  -2  11   16.53    1.02
   5  -2  11   20.53    1.04
   5   1 -11   11.98    0.46
   5   1 -11   12.46    0.61
  -5  -1  11   12.69    0.64
   4   1 -11   38.49    1.38
   4   1 -11   34.58    1.44
  -4  -1  11   36.06    1.54
   3   1 -11   91.68    3.18
   3   1 -11   88.22    3.55
   3   1 -11   94.08    3.22
   3   1 -11   89.33    3.52
  -3  -1  11   91.41    3.40
   2   1 -11    4.97    0.51
   2   1 -11    3.87    0.56
   2   1 -11    4.59    0.54
   2   1 -11    5.80    0.51
   2   1 -11    5.15    0.59
   1   1 -11   90.63    3.25
   1   1 -11   92.06    4.18
   1   1 -11   94.65    3.78
   1   1 -11   88.29    3.55
   1   1 -11   91.75    3.31
   1   1 -11   92.83    3.30
   0   1 -11   36.33    2.20
   0   1 -11   37.87    1.60
   0   1 -11   37.74    1.55
   0   1 -11   38.71    1.89
   0   1 -11   35.91    1.58
   0   1 -11   34.87    1.65
   0   1 -11   38.07    1.90
  -1   1 -11   53.76    2.09
  -1   1 -11   54.59    2.44
  -1   1 -11   57.24    2.32
  -1   1 -11   57.22    2.93
  -1   1 -11   53.78    2.50
  -1   1 -11   52.97    2.24
  -1   1 -11   54.21    2.16
  -2   1 -11  111.30    4.85
  -2   1 -11  104.10    3.86
  -2   1 -11  106.52    3.82
  -2   1 -11  107.08    3.70
  -2   1 -11  107.46    4.15
  -2   1 -11  105.99    3.81
   2  -1  11   98.48    4.15
  -3   1 -11    2.49    0.57
  -3   1 -11    3.34    0.71
  -3   1 -11    2.57    0.47
  -3   1 -11    2.67    0.49
  -3   1 -11    1.82    0.38
   3  -1  11    2.26    0.45
  -4   1 -11   85.25    3.96
  -4   1 -11   93.55    3.46
  -4   1 -11   85.48    3.17
  -4   1 -11   87.99    3.23
   4  -1  11   91.47    3.43
  -5   1 -11   12.09    0.87
  -5   1 -11   13.02    0.73
   5  -1  11   12.54    0.86
  -6   1 -11   11.84    0.55
   6  -1  11   11.38    0.70
   5   0 -11    0.31    0.12
   5   0 -11    0.46    0.17
  -5   0  11    0.15    0.16
   4   0 -11   12.06    0.72
   4   0 -11   13.25    0.70
  -4   0  11   13.71    0.79
   3   0 -11   10.34    0.72
   3   0 -11   10.12    0.82
   3   0 -11    9.66    0.68
  -3   0  11    9.80    0.75
   2   0 -11    6.22    0.61
   2   0 -11    4.63    0.66
   2   0 -11    5.89    0.68
   2   0 -11    5.70    0.58
  -2   0  11    4.36    0.57
   1   0 -11   11.56    0.79
   1   0 -11   10.85    0.94
   1   0 -11   13.00    1.06
   1   0 -11   13.32    0.95
   1   0 -11   11.75    1.14
   0   0 -11    2.03    0.55
   0   0 -11    1.53    0.33
   0   0 -11    2.17    0.50
   0   0 -11    1.39    0.60
  -1   0 -11   36.03    1.83
  -1   0 -11   33.06    2.06
  -1   0 -11   30.70    1.58
  -1   0 -11   36.35    1.78
  -1   0 -11   33.97    1.57
  -2   0 -11   13.01    1.27
  -2   0 -11   13.39    0.89
  -2   0 -11   12.57    0.94
  -2   0 -11   12.79    1.05
  -2   0 -11   12.71    0.88
   2   0  11   12.88    1.00
  -3   0 -11   14.27    0.94
  -3   0 -11   12.28    0.92
  -3   0 -11   12.78    1.06
  -3   0 -11   13.50    0.94
  -3   0 -11   16.24    1.32
   3   0  11   14.67    1.02
  -4   0 -11    2.42    0.51
  -4   0 -11    1.78    0.54
  -4   0 -11    2.04    0.61
   4   0  11    2.54    0.48
   4   0  11    1.81    0.45
  -5   0 -11   -0.28    0.36
  -5   0 -11    0.09    0.40
   5   0  11    0.67    0.35
  -6   0 -11    5.74    0.52
   6   0  11    6.10    0.61
  -7   0 -11    0.94    0.18
   5  -1 -11   35.58    1.24
  -5   1  11   32.32    1.28
   4  -1 -11    0.49    0.22
   4  -1 -11    0.27    0.22
  -4   1  11    0.33    0.22
   3  -1 -11   37.83    1.60
   3  -1 -11   39.34    1.69
  -3   1  11   42.40    1.79
   2  -1 -11   23.62    1.26
  -2   1  11   23.55    1.31
   1  -1 -11   49.35    2.49
   1  -1 -11   44.24    2.23
   1  -1 -11   47.90    2.11
  -1   1  11   46.98    2.09
   0  -1 -11  144.49    6.02
   0  -1 -11  138.01    5.41
   0  -1 -11  132.21    5.10
  -1  -1 -11   11.36    0.91
  -1  -1 -11   11.01    0.98
  -1  -1 -11   12.67    1.14
  -1  -1 -11   10.95    1.01
   1   1  11   10.65    1.00
  -2  -1 -11  118.79    4.95
  -2  -1 -11   99.12    4.72
  -2  -1 -11  109.45    4.20
   2   1  11  103.94    4.28
  -3  -1 -11   98.60    3.91
  -3  -1 -11  109.32    4.64
  -3  -1 -11   93.45    3.55
   3   1  11   96.92    3.98
  -4  -1 -11   24.52    1.64
  -4  -1 -11   23.88    1.42
   4   1  11   25.43    1.40
   4   1  11   23.47    1.38
   5   1  11   61.26    2.64
   5   1  11   65.96    2.60
  -6  -1 -11   16.96    1.01
   6   1  11   15.79    0.96
  -7  -1 -11   57.94    2.15
   7   1  11   60.47    2.18
   4  -2 -11    0.19    0.23
  -4   2  11    0.15    0.17
  -3   2  11   11.03    0.76
  -2   2  11   21.58    1.23
   1  -2 -11    6.34    0.71
   1  -2 -11    7.31    0.88
  -1   2  11    6.71    0.72
   0  -2 -11   10.24    1.04
   0  -2 -11    8.10    0.85
   0   2  11    8.39    0.80
   0   2  11    8.78    0.96
  -1  -2 -11    3.32    0.65
  -1  -2 -11    1.50    0.46
  -1  -2 -11    1.21    0.50
   1   2  11    1.92    0.53
  -2  -2 -11    8.05    0.80
  -2  -2 -11    6.81    0.92
  -2  -2 -11    6.85    0.85
   2   2  11    5.89    0.77
  -3  -2 -11    3.82    0.82
  -3  -2 -11    3.34    0.66
   3   2  11    4.17    0.65
  -4  -2 -11    2.69    0.71
  -4  -2 -11    1.70    0.53
   4   2  11    2.12    0.48
   5   2  11    1.90    0.43
   6   2  11   10.12    0.76
   6   2  11    9.22    0.77
   7   2  11   17.04    0.88
  -4   3  11   36.97    1.40
  -3   3  11    0.27    0.21
   2  -3 -11   47.99    2.47
  -2   3  11   46.03    2.03
   1  -3 -11   17.72    1.12
   1  -3 -11   17.41    1.31
  -1   3  11   17.89    1.13
   0  -3 -11   70.00    3.34
   0  -3 -11   69.05    2.86
   0   3  11   65.94    2.80
  -1  -3 -11   51.65    2.36
  -1  -3 -11   54.28    2.79
   1   3  11   47.95    2.17
   1   3  11   53.72    2.53
  -2  -3 -11   13.54    1.13
  -2  -3 -11   16.44    1.34
   2   3  11   15.30    1.19
  -3  -3 -11  140.94    5.30
  -3  -3 -11  150.26    6.20
   3   3  11  139.04    5.54
  -4  -3 -11   17.01    1.38
  -4  -3 -11   17.26    1.19
   4   3  11   15.63    1.12
   5   3  11   76.22    3.17
   6   3  11  111.58    4.30
  -7  -3 -11    1.35    0.33
   7   3  11    1.69    0.36
  -3   4  11   22.10    1.00
  -3   4  11   23.42    1.01
  -2   4  11   32.97    1.50
   1  -4 -11    2.46    0.60
   1  -4 -11    2.63    0.53
  -1   4  11    3.46    0.52
   0  -4 -11    5.24    0.83
   0  -4 -11    4.36    0.67
   0   4  11    5.73    0.70
  -1  -4 -11    7.03    0.85
  -1  -4 -11    6.61    0.90
   1   4  11    6.36    0.68
  -2  -4 -11    0.72    0.54
  -2  -4 -11    1.61    0.55
   2   4  11    1.06    0.38
   2   4  11    1.38    0.53
  -3  -4 -11   12.70    1.07
  -3  -4 -11   13.22    1.23
   3   4  11   13.05    1.09
  -4  -4 -11    6.16    0.74
   4   4  11    4.54    0.64
   5   4  11    4.52    0.66
   6   4  11   20.62    1.21
  -7  -4 -11    1.38    0.35
   7   4  11    0.84    0.28
   7   4  11    1.07    0.34
   8   4  11    3.76    0.33
  -2   5  11   53.80    2.05
  -2   5  11   53.62    1.99
   1  -5 -11   30.00    1.72
   1  -5 -11   30.75    1.45
  -1   5  11   29.09    1.39
  -1   5  11   31.54    1.47
   0  -5 -11   16.62    1.29
   0  -5 -11   16.55    1.10
   0   5  11   15.83    1.02
   0   5  11   16.43    1.07
  -1  -5 -11   96.69    4.44
  -1  -5 -11   99.46    3.81
   1   5  11   95.20    3.59
   1   5  11   95.32    3.73
  -2  -5 -11   41.96    2.01
  -2  -5 -11   41.05    2.32
   2   5  11   36.52    1.80
   2   5  11   37.25    1.73
  -3  -5 -11   64.44    3.14
  -3  -5 -11   63.32    2.71
   3   5  11   62.91    2.85
   3   5  11   60.75    2.45
   3   5  11   59.42    2.55
  -4  -5 -11  105.94    3.98
   4   5  11  100.46    4.13
   4   5  11   99.92    3.70
   5   5  11    1.17    0.42
   5   5  11    0.99    0.31
  -6  -5 -11   72.81    3.02
   6   5  11   75.61    3.06
   6   5  11   75.85    2.80
  -7  -5 -11   30.41    1.40
   7   5  11   31.98    1.46
   7   5  11   30.27    1.30
   8   5  11   23.19    1.06
   8   5  11   24.03    0.90
  -1   6  11   25.45    1.16
  -1   6  11   26.08    1.06
   0  -6 -11    9.10    0.78
   0   6  11    9.57    0.76
   0   6  11    8.27    0.62
  -1  -6 -11   79.02    3.15
  -1  -6 -11   77.00    3.69
   1   6  11   79.84    2.91
   1   6  11   79.37    3.15
  -2  -6 -11   24.03    1.47
  -2  -6 -11   22.70    1.69
   2   6  11   24.43    1.33
   2   6  11   23.55    1.17
  -3  -6 -11   37.21    1.82
  -3  -6 -11   32.61    2.07
   3   6  11   35.22    1.53
   3   6  11   35.93    1.70
   4   6  11   23.54    1.44
   4   6  11   22.54    1.11
   4   6  11   22.31    1.25
   5   6  11    0.50    0.35
   5   6  11    0.87    0.27
   5   6  11    1.22    0.50
  -6  -6 -11   28.37    1.42
   6   6  11   26.56    1.40
   6   6  11   26.85    1.18
  -7  -6 -11    5.09    0.51
   7   6  11    4.69    0.36
   7   6  11    4.85    0.50
   0   7  11   10.51    0.67
  -1  -7 -11   20.49    1.18
   1   7  11   21.79    1.16
   1   7  11   21.59    0.87
  -2  -7 -11   47.10    2.16
   2   7  11   49.71    1.81
   2   7  11   50.73    2.12
  -3  -7 -11    1.09    0.46
   3   7  11    0.41    0.18
   3   7  11    0.13    0.34
   4   7  11   68.82    2.41
   4   7  11   67.26    2.67
   5   7  11   28.77    1.32
   5   7  11   22.35    1.43
   5   7  11   28.31    1.07
  -6  -7 -11   24.44    1.22
   6   7  11   22.29    1.17
   7   7  11   82.20    3.04
   2   8  11   34.93    1.49
   3   8  11    1.14    0.35
   3   8  11    1.11    0.28
   4   8  11   14.04    0.77
   4   8  11   14.57    0.84
   5   8  11    7.66    0.60
   5   8  11    7.81    0.56
   2   5 -12    5.38    0.31
   2   5 -12    5.96    0.38
   1   5 -12   12.02    0.54
   1   5 -12   13.21    0.61
   0   5 -12    0.17    0.10
   0   5 -12    0.31    0.17
  -1   5 -12   12.63    0.53
   3   4 -12    0.93    0.22
   3   4 -12    1.19    0.23
   3   4 -12    1.32    0.18
   3   4 -12    1.29    0.23
   3   4 -12    0.92    0.16
   2   4 -12   74.25    2.88
   2   4 -12   73.90    2.42
   2   4 -12   78.09    2.59
   2   4 -12   73.87    2.58
   2   4 -12   74.22    2.67
   2   4 -12   78.55    2.50
   1   4 -12   49.20    1.87
   1   4 -12   53.26    1.77
   1   4 -12   49.41    2.05
   1   4 -12   51.15    1.82
   1   4 -12   49.62    1.70
   1   4 -12   51.95    1.86
   1   4 -12   48.87    1.93
   0   4 -12   10.88    0.56
   0   4 -12   10.54    0.53
   0   4 -12   11.65    0.64
   0   4 -12   11.02    0.55
   0   4 -12   11.06    0.68
   0  -4  12    9.97    0.70
  -1   4 -12   64.98    2.17
  -1   4 -12   66.73    2.52
  -1   4 -12   66.54    2.31
  -1   4 -12   65.28    2.30
  -1   4 -12   66.04    2.44
  -1   4 -12   70.04    2.26
  -2   4 -12    1.31    0.21
  -2   4 -12    1.07    0.17
  -2   4 -12    0.92    0.23
  -2   4 -12    1.19    0.24
   2  -4  12    1.21    0.31
  -3   4 -12   27.83    0.99
   4   3 -12    0.82    0.20
   4   3 -12    1.17    0.17
   4   3 -12    0.68    0.20
   3   3 -12    0.35    0.19
   3   3 -12    0.68    0.25
   3   3 -12    0.60    0.19
   3   3 -12    0.52    0.22
   3   3 -12    0.48    0.16
   3   3 -12    0.67    0.18
   2   3 -12    0.77    0.28
   2   3 -12    0.01    0.22
   2   3 -12    0.33    0.18
   2   3 -12    0.41    0.17
   2   3 -12    0.48    0.21
   2   3 -12    0.26    0.20
   2   3 -12    0.33    0.24
   2   3 -12    0.49    0.19
   1   3 -12    3.92    0.47
   1   3 -12    3.48    0.45
   1   3 -12    4.78    0.39
   1   3 -12    4.38    0.43
   1   3 -12    4.56    0.42
   1   3 -12    4.65    0.47
   1   3 -12    3.80    0.50
   1   3 -12    4.47    0.38
   0   3 -12    0.33    0.44
   0   3 -12    0.92    0.22
   0   3 -12    0.42    0.26
   0   3 -12    0.60    0.31
   0   3 -12    0.62    0.40
   0   3 -12    1.31    0.33
   0   3 -12    0.94    0.25
   0   3 -12    0.91    0.23
   0   3 -12    0.83    0.20
   0   3 -12    0.60    0.27
  -1   3 -12    0.88    0.21
  -1   3 -12    0.96    0.41
  -1   3 -12    0.86    0.25
  -1   3 -12    1.38    0.37
  -1   3 -12    1.09    0.23
  -1   3 -12    1.14    0.28
  -1   3 -12    1.87    0.52
  -1   3 -12    0.92    0.27
  -1   3 -12    1.05    0.24
   1  -3  12    1.62    0.36
  -2   3 -12    5.40    0.50
  -2   3 -12    6.66    0.46
  -2   3 -12    6.07    0.41
  -2   3 -12    7.28    0.50
  -2   3 -12    7.11    0.67
  -2   3 -12    6.39    0.52
  -2   3 -12    6.56    0.57
  -3   3 -12    0.56    0.20
  -3   3 -12    0.19    0.29
  -3   3 -12    0.40    0.16
  -3   3 -12    0.56    0.24
   3  -3  12    0.71    0.30
  -4   3 -12    9.40    0.49
   4   2 -12   44.28    1.59
   4   2 -12   43.58    1.77
   4   2 -12   47.18    1.61
   3   2 -12   30.13    1.24
   3   2 -12   31.31    1.43
   3   2 -12   31.53    1.27
   2   2 -12    1.79    0.35
   2   2 -12    1.39    0.33
   2   2 -12    1.22    0.31
   2   2 -12    2.14    0.42
   2   2 -12    1.47    0.26
   2   2 -12    1.61    0.32
   2   2 -12    1.31    0.33
   1   2 -12   90.80    3.23
   1   2 -12   94.70    3.36
   1   2 -12   91.89    3.22
   1   2 -12   85.85    3.23
   1   2 -12   91.94    3.05
   1   2 -12   92.97    3.19
   1   2 -12   93.70    3.32
   1   2 -12   93.58    3.67
   1   2 -12   93.63    3.05
   0   2 -12    1.78    0.31
   0   2 -12    1.64    0.38
   0   2 -12    1.01    0.28
   0   2 -12    1.07    0.36
   0   2 -12    1.13    0.39
   0   2 -12    1.48    0.48
   0   2 -12    1.16    0.33
   0   2 -12    1.56    0.31
   0   2 -12    1.53    0.26
   0   2 -12    0.79    0.50
   0   2 -12    1.25    0.27
  -1   2 -12   37.80    1.42
  -1   2 -12   34.54    1.53
  -1   2 -12   38.64    1.69
  -1   2 -12   40.99    1.70
  -1   2 -12   39.22    1.44
  -1   2 -12   35.35    1.50
  -1   2 -12   36.88    2.13
  -1   2 -12   37.17    1.49
  -1   2 -12   37.53    1.82
  -1   2 -12   37.38    1.52
   1  -2  12   36.77    1.81
  -2   2 -12   39.55    2.20
  -2   2 -12   39.73    1.48
  -2   2 -12   40.59    1.56
  -2   2 -12   40.92    1.89
  -2   2 -12   42.16    1.77
  -2   2 -12   42.85    1.73
  -2   2 -12   36.46    1.64
  -2   2 -12   39.97    1.61
   2  -2  12   40.49    1.84
  -3   2 -12    3.83    0.55
  -3   2 -12    4.75    0.52
  -3   2 -12    5.89    0.76
  -3   2 -12    5.16    0.33
  -3   2 -12    4.81    0.51
  -3   2 -12    5.17    0.48
   3  -2  12    5.67    0.66
  -4   2 -12   66.66    2.55
   4  -2  12   68.13    2.57
   4   1 -12    5.29    0.41
  -4  -1  12    5.87    0.43
   3   1 -12    0.61    0.18
   3   1 -12    1.21    0.31
   3   1 -12    0.69    0.26
  -3  -1  12    0.65    0.27
   2   1 -12    1.79    0.28
   2   1 -12    2.12    0.37
   2   1 -12    2.01    0.43
   1   1 -12    0.21    0.32
   1   1 -12    0.15    0.28
   1   1 -12   -0.04    0.18
   0   1 -12   13.33    0.96
   0   1 -12   11.36    0.86
   0   1 -12   11.61    0.97
   0   1 -12   14.26    0.79
   0   1 -12   11.70    0.73
   0   1 -12   14.63    1.09
   0   1 -12   12.42    1.17
   0   1 -12   11.18    0.79
  -1   1 -12    6.20    0.66
  -1   1 -12    4.53    0.78
  -1   1 -12    4.38    0.63
  -1   1 -12    6.15    0.68
  -1   1 -12    5.17    0.68
  -1   1 -12    5.28    0.52
  -1   1 -12    5.02    0.47
   1  -1  12    5.78    0.73
  -2   1 -12    9.80    0.78
  -2   1 -12    9.23    1.07
  -2   1 -12   10.52    0.80
  -2   1 -12   10.71    0.76
  -2   1 -12   10.89    0.96
   2  -1  12    9.61    0.83
  -3   1 -12    4.55    0.62
  -3   1 -12    6.94    0.92
  -3   1 -12    4.56    0.53
  -3   1 -12    6.04    0.57
  -3   1 -12    6.33    0.62
   3  -1  12    6.22    0.67
  -4   1 -12    0.58    0.25
  -4   1 -12    0.58    0.43
  -4   1 -12   -0.02    0.34
   4  -1  12    0.63    0.31
  -5   1 -12   12.27    0.59
   5  -1  12   12.73    0.79
   4   0 -12    3.23    0.32
   4   0 -12    2.76    0.26
  -4   0  12    1.71    0.26
   3   0 -12   71.93    2.54
   3   0 -12   69.72    2.49
  -3   0  12   72.26    2.68
   2   0 -12    9.86    0.71
   2   0 -12    8.41    0.78
   2   0 -12    8.93    0.79
   2   0 -12   10.06    0.66
  -2   0  12    9.08    0.75
   1   0 -12   79.67    3.12
   1   0 -12   76.55    3.30
   1   0 -12   83.05    2.96
   1   0 -12   77.71    3.65
   0   0 -12   93.14    3.68
   0   0 -12   91.71    4.30
   0   0 -12   96.35    3.87
  -1   0 -12    2.17    0.69
  -1   0 -12    1.99    0.49
  -1   0 -12    1.98    0.58
  -1   0 -12    1.02    0.33
   1   0  12    1.97    0.51
  -2   0 -12   78.23    3.04
  -2   0 -12   80.05    3.00
  -2   0 -12   82.45    3.83
  -2   0 -12   80.62    3.00
   2   0  12   74.48    3.28
  -3   0 -12   32.07    1.49
  -3   0 -12   32.16    1.98
  -3   0 -12   32.06    1.55
  -3   0 -12   36.33    1.75
  -3   0 -12   32.52    1.52
  -3   0 -12   32.34    1.53
   3   0  12   31.91    1.65
  -4   0 -12   21.35    1.47
  -4   0 -12   22.48    1.29
  -4   0 -12   23.47    1.19
   4   0  12   22.01    1.23
   4   0  12   23.24    1.27
  -5   0 -12   74.54    2.96
  -5   0 -12   83.51    2.90
   5   0  12   80.79    2.99
  -6   0 -12    0.87    0.21
   6   0  12    1.08    0.27
   4  -1 -12    9.12    0.48
  -4   1  12    9.07    0.53
   3  -1 -12    3.89    0.42
  -3   1  12    3.50    0.42
   2  -1 -12    2.93    0.44
  -2   1  12    4.42    0.53
   1  -1 -12    3.82    0.49
   1  -1 -12    4.36    0.74
   1  -1 -12    4.22    0.62
   1  -1 -12    4.69    0.66
  -1   1  12    3.42    0.51
  -1   1  12    3.89    0.59
   0  -1 -12    0.00    0.34
   0  -1 -12    0.87    0.45
   0  -1 -12    0.50    0.32
   0  -1 -12    0.43    0.50
   0   1  12    0.44    0.38
  -1  -1 -12    0.54    0.51
  -1  -1 -12    0.63    0.44
  -1  -1 -12    0.50    0.34
   1   1  12    1.25    0.45
  -2  -1 -12    7.68    0.77
  -2  -1 -12    7.28    0.99
  -2  -1 -12   10.54    1.04
   2   1  12    9.01    0.86
  -3  -1 -12   17.17    1.24
  -3  -1 -12   16.75    1.08
  -3  -1 -12   17.88    1.43
  -3  -1 -12   17.59    1.07
   3   1  12   17.80    1.16
  -4  -1 -12    3.52    0.58
  -4  -1 -12    4.45    0.64
  -4  -1 -12    2.92    0.69
   4   1  12    4.84    0.66
   4   1  12    3.67    0.58
  -5  -1 -12    0.04    0.38
   5   1  12    0.39    0.33
   5   1  12    0.53    0.28
  -6  -1 -12    5.26    0.52
   6   1  12    5.86    0.53
  -7  -1 -12    0.40    0.17
  -4   2  12    2.61    0.26
   3  -2 -12   27.28    1.22
  -3   2  12   28.48    1.24
  -2   2  12   68.69    2.70
   1  -2 -12    0.65    0.47
   1  -2 -12    0.45    0.37
  -1   2  12    0.91    0.35
   0  -2 -12   93.33    3.64
   0  -2 -12   88.00    4.22
   0   2  12   93.76    3.62
   0   2  12   98.92    3.86
  -1  -2 -12   43.63    2.46
  -1  -2 -12   43.27    2.12
   1   2  12   46.05    2.23
  -2  -2 -12   51.96    2.74
  -2  -2 -12   52.52    2.36
   2   2  12   48.13    2.39
  -3  -2 -12  236.21    7.99
  -3  -2 -12  228.90    9.29
   3   2  12  213.69    8.30
  -4  -2 -12    2.08    0.60
  -4  -2 -12    0.24    0.43
   4   2  12    0.66    0.37
   5   2  12  106.58    4.13
   6   2  12   63.80    2.56
  -7  -2 -12   13.39    0.72
  -3   3  12    0.42    0.18
  -2   3  12   25.85    1.25
   1  -3 -12    0.32    0.36
   1  -3 -12    1.19    0.47
  -1   3  12    0.18    0.30
   0  -3 -12   13.30    1.16
   0  -3 -12   13.85    1.03
   0   3  12   13.72    0.96
  -1  -3 -12    0.38    0.46
  -1  -3 -12    1.05    0.49
   1   3  12    1.19    0.42
   1   3  12    0.52    0.41
  -2  -3 -12    0.60    0.45
  -2  -3 -12    1.09    0.54
   2   3  12    0.96    0.47
  -3  -3 -12    1.77    0.54
  -3  -3 -12    1.84    0.67
   3   3  12    1.12    0.40
  -4  -3 -12   16.03    1.16
  -4  -3 -12   14.90    1.35
   4   3  12   15.02    1.08
   5   3  12    2.79    0.45
   6   3  12    0.28    0.27
   7   3  12    3.09    0.39
  -2   4  12   54.15    2.08
   1  -4 -12   39.68    1.76
  -1   4  12   41.60    1.79
   0  -4 -12   18.72    1.35
   0  -4 -12   18.49    1.14
   0   4  12   19.39    1.15
  -1  -4 -12   88.21    3.38
  -1  -4 -12   82.11    3.90
   1   4  12   81.58    3.26
  -2  -4 -12    7.19    0.99
  -2  -4 -12    8.56    0.94
   2   4  12    8.33    0.93
   2   4  12    7.64    0.76
  -3  -4 -12   23.71    1.41
  -3  -4 -12   23.57    1.64
   3   4  12   21.69    1.42
  -4  -4 -12   34.08    1.72
   4   4  12   32.91    1.73
   5   4  12    3.54    0.51
   6   4  12   84.72    3.33
   7   4  12   12.44    0.71
   7   4  12   13.41    0.77
  -2   5  12   30.62    1.14
  -2   5  12   28.27    1.17
  -1   5  12    0.63    0.26
  -1   5  12    0.70    0.27
   0  -5 -12    9.34    0.81
   0   5  12   10.19    0.77
   0   5  12    9.68    0.77
  -1  -5 -12   33.18    1.67
  -1  -5 -12   32.25    1.95
   1   5  12   33.03    1.62
   1   5  12   34.55    1.57
  -2  -5 -12    1.34    0.60
  -2  -5 -12    1.38    0.51
   2   5  12    0.77    0.34
   2   5  12    0.74    0.32
  -3  -5 -12   11.90    1.03
  -3  -5 -12   12.27    1.25
   3   5  12   13.07    0.93
   3   5  12   12.73    1.05
   3   5  12   14.27    0.88
  -4  -5 -12    5.23    0.69
   4   5  12    5.00    0.68
   4   5  12    6.24    0.59
   5   5  12    3.80    0.56
   5   5  12    4.26    0.50
   6   5  12    9.60    0.64
   6   5  12    8.04    0.71
   7   5  12    0.73    0.25
   7   5  12    0.42    0.19
  -1   6  12   69.14    2.53
  -1   6  12   72.94    2.36
   0   6  12    0.75    0.28
   0   6  12    0.64    0.22
  -1  -6 -12   38.60    1.75
   1   6  12   38.87    1.70
   1   6  12   37.27    1.55
  -2  -6 -12   76.60    3.14
   2   6  12   83.84    3.13
   2   6  12   79.04    2.90
  -3  -6 -12    8.50    0.85
   3   6  12    7.07    0.69
   3   6  12    7.24    0.59
   4   6  12   89.26    3.15
   4   6  12   86.38    3.57
   5   6  12   15.58    0.83
   5   6  12   16.78    1.04
   6   6  12   28.90    1.38
   6   6  12   29.30    1.18
   7   6  12   42.90    1.75
   7   6  12   45.29    1.50
   1   7  12    6.78    0.55
   2   7  12   15.60    0.90
   2   7  12   15.04    0.65
   3   7  12    2.70    0.42
   3   7  12    2.95    0.29
   4   7  12    7.31    0.63
   4   7  12    8.04    0.46
   5   7  12    0.41    0.14
   2   4 -13    0.15    0.09
   2   4 -13   -0.06    0.16
   2   4 -13   -0.01    0.14
   1   4 -13   10.82    0.50
   1   4 -13   12.86    0.49
   1   4 -13   11.73    0.55
  -1  -4  13   10.70    0.61
   0   4 -13    1.14    0.21
   0   4 -13    1.30    0.17
   0   4 -13    1.18    0.16
  -1   4 -13   16.16    0.63
   3   3 -13   10.00    0.46
   3   3 -13    9.94    0.56
   3   3 -13   10.15    0.49
   2   3 -13    4.32    0.42
   2   3 -13    3.99    0.31
   2   3 -13    3.41    0.28
   2   3 -13    4.29    0.36
   1   3 -13   14.06    0.64
   1   3 -13   14.78    0.67
   1   3 -13   14.31    0.82
   1   3 -13   14.23    0.75
   1   3 -13   13.43    0.63
   1   3 -13   14.38    0.71
   1   3 -13   14.34    0.75
   0   3 -13    0.25    0.17
   0   3 -13    0.34    0.21
   0   3 -13    0.15    0.14
   0   3 -13    0.22    0.20
   0   3 -13   -0.02    0.23
   0   3 -13    0.40    0.17
   0  -3  13    0.65    0.25
  -1   3 -13   36.91    1.37
  -1   3 -13   38.35    1.51
  -1   3 -13   38.48    1.38
  -1   3 -13   37.29    1.48
  -1   3 -13   37.35    1.39
  -1   3 -13   35.69    1.31
   1  -3  13   35.34    1.56
  -2   3 -13   14.29    0.64
  -2   3 -13   12.17    0.57
  -2   3 -13   12.44    0.70
   2  -3  13   13.81    0.80
  -3   3 -13   19.59    0.79
  -3   3 -13   20.41    0.80
   3   2 -13    3.17    0.30
   3   2 -13    3.61    0.33
   3   2 -13    2.35    0.31
   2   2 -13    0.54    0.20
   2   2 -13    0.15    0.20
   2   2 -13    0.49    0.25
   2   2 -13    0.19    0.24
   1   2 -13    9.58    0.61
   1   2 -13    9.08    0.58
   1   2 -13   10.26    0.67
   1   2 -13    8.99    0.52
   1   2 -13    7.95    0.61
   1   2 -13    9.48    0.71
   0   2 -13   12.85    0.66
   0   2 -13   12.36    0.70
   0   2 -13   12.79    0.78
   0   2 -13   12.78    0.85
   0   2 -13   12.51    0.89
   0   2 -13   13.60    0.83
   0   2 -13   13.86    0.74
   0  -2  13   13.79    0.90
  -1   2 -13    4.54    0.38
  -1   2 -13    3.94    0.57
  -1   2 -13    4.36    0.49
  -1   2 -13    5.06    0.52
   1  -2  13    3.62    0.47
  -2   2 -13   46.29    1.75
  -2   2 -13   46.56    1.92
  -2   2 -13   39.23    1.76
  -2   2 -13   44.58    1.67
   2  -2  13   45.44    1.89
  -3   2 -13    5.99    0.58
   3  -2  13    6.29    0.61
   3   1 -13   43.41    1.59
  -3  -1  13   46.73    1.80
   2   1 -13   10.60    0.68
   2   1 -13   11.14    0.50
   2   1 -13   10.20    0.74
   2   1 -13   10.85    0.65
   1   1 -13   33.01    1.45
   1   1 -13   32.63    1.27
   1   1 -13   34.71    1.61
   1   1 -13   30.96    1.34
   0   1 -13   45.94    1.70
   0   1 -13   41.40    1.94
   0   1 -13   40.14    2.28
   0   1 -13   48.51    1.91
   0   1 -13   45.89    2.06
   0  -1  13   46.13    2.09
  -1   1 -13   11.09    0.65
  -1   1 -13    9.59    0.76
  -1   1 -13   10.77    0.81
  -1   1 -13    9.33    0.88
  -1   1 -13    7.63    0.93
  -1   1 -13   10.02    0.62
   1  -1  13   11.39    0.88
  -2   1 -13   28.01    1.49
  -2   1 -13   26.04    1.70
  -2   1 -13   29.80    1.38
  -2   1 -13   29.13    1.22
  -2   1 -13   29.33    1.33
   2  -1  13   29.62    1.47
  -3   1 -13   10.20    0.70
  -3   1 -13   10.66    0.62
  -3   1 -13   10.10    0.85
   3  -1  13    9.93    0.75
   3  -1  13   11.31    0.83
  -4   1 -13   23.48    0.92
  -4   1 -13   24.52    1.17
   4  -1  13   25.07    1.17
   3   0 -13    2.88    0.27
  -3   0  13    2.59    0.29
   2   0 -13   21.43    0.94
  -2   0  13   20.44    1.10
   1   0 -13    1.30    0.39
   1   0 -13    1.69    0.32
  -1   0  13    1.72    0.41
   0   0 -13   13.23    0.97
   0   0 -13   13.34    0.80
   0   0 -13   13.21    1.19
   0   0  13   13.54    1.04
  -1   0 -13   11.88    0.88
  -1   0 -13   10.73    0.72
  -1   0 -13   10.10    0.96
  -1   0 -13   10.04    1.13
   1   0  13   10.26    0.91
  -2   0 -13    9.40    0.76
  -2   0 -13    8.08    0.99
  -2   0 -13    8.85    0.67
  -2   0 -13    9.00    0.88
   2   0  13    9.30    0.82
  -3   0 -13    1.95    0.59
  -3   0 -13    1.62    0.35
  -3   0 -13    2.63    0.42
  -3   0 -13    1.24    0.44
   3   0  13    2.39    0.47
   3   0  13    1.91    0.40
  -4   0 -13    6.78    0.59
  -4   0 -13    5.97    0.64
   4   0  13    7.61    0.70
   4   0  13    5.80    0.58
  -5   0 -13   13.74    0.68
   5   0  13   14.70    0.82
   3  -1 -13   68.06    2.25
  -3   1  13   61.49    2.32
   2  -1 -13   64.67    2.37
  -2   1  13   65.20    2.44
   1  -1 -13   14.16    0.85
   1  -1 -13   11.21    1.11
  -1   1  13   15.18    0.96
   0  -1 -13   66.65    2.57
   0  -1 -13   64.79    2.69
   0  -1 -13   64.06    3.18
   0   1  13   69.66    2.89
  -1  -1 -13   16.18    0.98
  -1  -1 -13   16.34    1.18
  -1  -1 -13   15.70    1.37
   1   1  13   17.11    1.18
  -2  -1 -13   44.75    1.93
  -2  -1 -13   46.20    2.14
  -2  -1 -13   42.41    2.48
  -2  -1 -13   48.55    1.96
   2   1  13   46.12    2.17
  -3  -1 -13   67.01    2.63
  -3  -1 -13   65.61    3.23
  -3  -1 -13   67.37    2.52
  -3  -1 -13   69.89    2.82
   3   1  13   67.11    2.86
  -4  -1 -13    2.20    0.48
  -4  -1 -13    0.79    0.48
  -4  -1 -13    1.78    0.43
   4   1  13    2.05    0.41
  -5  -1 -13   66.13    2.46
   5   1  13   65.46    2.59
  -6  -1 -13    8.50    0.51
   3  -2 -13    0.18    0.15
  -3   2  13    0.55    0.17
   2  -2 -13    0.80    0.30
  -2   2  13    1.14    0.28
   1  -2 -13    7.85    0.72
   1  -2 -13    7.62    0.69
  -1   2  13    8.67    0.67
   0  -2 -13    0.24    0.37
   0  -2 -13    0.37    0.48
   0   2  13    0.43    0.34
  -1  -2 -13    3.08    0.72
  -1  -2 -13    2.60    0.55
   1   2  13    3.44    0.57
  -2  -2 -13    8.77    1.05
  -2  -2 -13   10.21    0.94
   2   2  13    9.21    0.91
  -3  -2 -13    9.92    1.15
  -3  -2 -13   11.91    0.99
  -3  -2 -13   10.76    0.82
   3   2  13   11.85    0.94
  -4  -2 -13   15.63    1.05
  -4  -2 -13   13.71    1.20
   4   2  13   14.78    0.99
   5   2  13   15.33    0.93
  -6  -2 -13   27.76    1.25
   6   2  13   30.80    1.31
  -2   3  13   54.22    2.04
   1  -3 -13   34.21    1.55
  -1   3  13   37.89    1.58
   0  -3 -13   23.78    1.53
   0  -3 -13   22.95    1.27
   0   3  13   24.97    1.24
  -1  -3 -13   71.46    3.46
  -1  -3 -13   71.43    2.94
   1   3  13   76.53    3.08
  -2  -3 -13    0.43    0.56
  -2  -3 -13    1.19    0.45
   2   3  13    1.07    0.44
  -3  -3 -13   89.28    3.39
  -3  -3 -13   83.09    3.93
   3   3  13   81.77    3.49
  -4  -3 -13   22.47    1.58
  -4  -3 -13   24.32    1.34
   4   3  13   24.90    1.36
   5   3  13   40.14    1.83
   6   3  13   56.40    2.26
  -2   4  13    1.78    0.24
  -1   4  13    2.86    0.38
   0  -4 -13    0.55    0.33
   0   4  13    0.37    0.29
  -1  -4 -13    3.36    0.67
  -1  -4 -13    3.53    0.58
   1   4  13    5.58    0.60
  -2  -4 -13    6.22    0.75
  -2  -4 -13    6.18    0.87
   2   4  13    5.86    0.68
  -3  -4 -13    2.73    0.71
  -3  -4 -13    3.50    0.63
   3   4  13    2.55    0.48
  -4  -4 -13    2.38    0.56
   4   4  13    1.71    0.42
   5   4  13    5.07    0.61
   6   4  13    4.94    0.50
  -1   5  13   62.92    2.29
   0   5  13    3.21    0.39
   0   5  13    2.46    0.38
  -1  -5 -13   83.00    3.12
   1   5  13   82.09    3.07
   1   5  13   79.74    2.98
  -2  -5 -13   36.54    1.76
   2   5  13   37.67    1.62
   2   5  13   36.50    1.65
  -3  -5 -13   26.26    1.42
   3   5  13   27.11    1.27
   3   5  13   25.25    1.46
  -4  -5 -13   98.77    3.87
   4   5  13  107.06    3.76
   4   5  13  113.31    4.16
   5   5  13    8.78    0.72
   5   5  13    8.56    0.63
   6   5  13   42.09    1.62
   6   5  13   42.45    1.78
   1   6  13    4.78    0.39
   1   6  13    4.12    0.44
   2   6  13    0.39    0.28
   2   6  13   -0.15    0.18
   3   6  13    3.47    0.37
   3   6  13    3.30    0.44
   4   6  13    4.00    0.41
   5   6  13    0.92    0.31
   5   6  13    1.09    0.22
   6   6  13    1.05    0.18
   6   6  13    1.44    0.29
   0   3 -14   17.66    0.70
  -1   3 -14    6.41    0.37
  -2  -2  14    0.27    0.17
   1   2 -14   25.24    0.98
   1   2 -14   25.32    1.01
   1   2 -14   23.79    0.99
  -1  -2  14   25.55    1.15
   0   2 -14   12.92    0.64
   0   2 -14   13.19    0.69
   0  -2  14   12.91    0.76
  -1   2 -14   16.92    0.75
  -1   2 -14   15.64    0.82
  -1   2 -14   16.87    0.82
   1  -2  14   16.93    0.87
  -2   2 -14   34.15    1.23
   2  -2  14   30.47    1.40
  -2  -1  14    4.35    0.39
   1   1 -14    2.25    0.32
  -1  -1  14    2.74    0.39
   0   1 -14   26.57    1.20
   0  -1  14   28.58    1.36
  -1   1 -14    1.86    0.42
  -1   1 -14    2.35    0.21
  -1   1 -14    1.96    0.34
   1  -1  14    2.68    0.42
  -2   1 -14   19.88    1.12
  -2   1 -14   21.91    0.99
   2  -1  14   21.70    1.11
   2  -1  14   22.49    1.11
   3  -1  14   22.25    1.14
   3  -1  14   23.58    1.08
   2   0 -14   12.28    0.63
   2   0 -14   13.82    0.53
   1   0 -14    6.91    0.43
   1   0 -14    6.28    0.54
  -1   0  14    7.39    0.60
   0   0 -14   86.32    2.86
   0   0 -14   79.99    2.91
   0   0 -14   76.89    3.03
   0   0  14   84.58    3.26
  -1   0 -14    2.50    0.41
  -1   0 -14    2.81    0.34
  -1   0 -14    2.97    0.49
   1   0  14    2.52    0.45
  -2   0 -14   17.03    0.85
  -2   0 -14   17.36    1.05
  -2   0 -14   16.67    0.92
   2   0  14   17.92    1.05
  -3   0 -14   34.87    1.54
  -3   0 -14   31.62    1.35
  -3   0 -14   35.23    1.36
   3   0  14   34.96    1.57
  -4   0 -14    0.61    0.18
   4   0  14    0.80    0.24
   2  -1 -14    7.62    0.51
   2  -1 -14    9.58    0.47
   1  -1 -14    0.89    0.22
  -1   1  14    0.93    0.27
   0  -1 -14    6.33    0.57
   0  -1 -14    7.72    0.72
   0   1  14    7.92    0.68
  -1  -1 -14   16.66    1.08
  -1  -1 -14   18.24    1.00
  -1  -1 -14   18.13    0.95
   1   1  14   19.69    1.14
  -2  -1 -14    9.24    0.71
  -2  -1 -14    9.94    0.69
  -2  -1 -14    8.53    0.83
  -2  -1 -14    9.97    1.12
   2   1  14    9.60    0.80
  -3  -1 -14    8.53    0.79
  -3  -1 -14    6.40    0.58
  -3  -1 -14    7.19    0.63
   3   1  14    7.96    0.70
  -4  -1 -14    0.88    0.35
  -4  -1 -14    0.72    0.29
   4   1  14    1.26    0.32
  -5  -1 -14   25.66    0.99
   5   1  14   21.60    1.11
   2  -2 -14   63.03    2.18
   1  -2 -14    6.54    0.54
   0  -2 -14   50.61    2.14
   0  -2 -14   53.20    2.08
   0   2  14   55.91    2.23
  -1  -2 -14   38.06    1.82
  -1  -2 -14   42.10    1.74
   1   2  14   41.06    1.87
  -2  -2 -14   12.74    0.84
  -2  -2 -14   12.95    0.84
  -2  -2 -14   12.29    0.98
  -2  -2 -14   12.50    1.15
   2   2  14   13.22    0.96
  -3  -2 -14   82.15    3.08
  -3  -2 -14   79.76    3.21
   3   2  14   88.50    3.38
  -4  -2 -14   11.91    0.81
  -4  -2 -14   10.72    0.83
   4   2  14   11.67    0.80
  -5  -2 -14   36.60    1.54
   5   2  14   39.97    1.64
   1  -3 -14    2.02    0.35
  -1   3  14    1.78    0.27
   0  -3 -14    5.18    0.55
  -1  -3 -14   15.86    1.04
   1   3  14   18.65    1.02
  -2  -3 -14    1.48    0.46
   2   3  14    1.50    0.38
  -3  -3 -14    3.99    0.60
   3   3  14    3.09    0.52
  -4  -3 -14   28.15    1.38
   4   3  14   28.98    1.42
   5   3  14    0.41    0.25
   0   4  14    3.45    0.37
  -1  -4 -14   75.66    2.86
  -2  -4 -14   23.49    1.26
  -3  -4 -14   34.18    1.65
   3   4  14   38.15    1.69
   4   4  14  110.22    4.17
   5   4  14    1.46    0.33
   1   5  14    6.80    0.50
   1   5  14    6.41    0.52
   2   5  14    3.67    0.41
   3   5  14    3.38    0.38
   4   5  14    4.04    0.47
   4   5  14    3.39    0.38
   5   5  14   12.92    0.68
   5   5  14   13.10    0.77
   3   6  14    0.12    0.16
   4   6  14   36.09    1.33
   0  -1  15   29.65    1.26
   1  -1  15    1.32    0.26
   0   0 -15   18.90    0.84
   0   0  15   20.18    0.96
  -1   0 -15    9.23    0.55
  -1   0 -15    9.00    0.40
   1   0  15    9.25    0.64
  -2   0 -15    7.66    0.36
  -2   0 -15    7.89    0.50
   2   0  15    8.81    0.60
   3   0  15   46.74    1.84
   0  -1 -15   26.21    1.02
   0  -1 -15   25.19    1.07
   0   1  15   26.89    1.18
  -1  -1 -15   11.70    0.61
  -1  -1 -15   11.20    0.65
   1   1  15   12.02    0.75
  -2  -1 -15   17.48    0.83
  -2  -1 -15   18.03    0.85
   2   1  15   19.51    1.00
  -3  -1 -15   21.32    0.93
   3   1  15   23.65    1.11
  -4  -1 -15    0.16    0.15
   0  -2 -15    1.14    0.21
   0  -2 -15    1.33    0.25
  -1  -2 -15   20.89    0.99
  -1  -2 -15   22.15    1.00
   1   2  15   22.98    1.09
  -2  -2 -15    0.72    0.26
  -2  -2 -15    0.46    0.23
   2   2  15    0.59    0.26
  -3  -2 -15   38.38    1.54
   3   2  15   40.33    1.71
  -4  -2 -15   13.22    0.70
   4   2  15   14.66    0.78
  -1  -3 -15   38.25    1.45
  -1  -3 -15   37.28    1.51
  -2  -3 -15   13.80    0.80
   2   3  15   15.09    0.83
  -3  -3 -15    6.96    0.57
   3   3  15    7.31    0.58
   4   3  15   17.25    0.91
   0   0   0    0.00    0.00
;
_shelx_hkl_checksum              80399
#END Tags that were not found in dictionaries
loop_
_space_group_symop_operation_xyz
'x, y, z'
'-x, -y, -z'
loop_
_atom_site_label
_atom_site_type_symbol
_atom_site_fract_x
_atom_site_fract_y
_atom_site_fract_z
_atom_site_U_iso_or_equiv
_atom_site_adp_type
_atom_site_occupancy
_atom_site_site_symmetry_order
_atom_site_calc_flag
_atom_site_refinement_flags_posn
_atom_site_refinement_flags_adp
Cd1 Cd 0.29909(2) 0.82365(2) 0.24349(2) 0.01300(8) Uani 1 1 d . .
Se1 Se 0.68603(4) 0.70334(3) 0.17240(2) 0.01449(9) Uani 1 1 d . .
O1 O 0.3605(3) 0.6298(3) 0.41653(16) 0.0191(4) Uani 1 1 d . .
O2 O 0.0821(3) 0.7929(3) 0.39334(18) 0.0244(5) Uani 1 1 d . .
O3 O 0.1389(3) 0.6333(3) 0.54423(18) 0.0331(5) Uani 1 1 d . .
O4 O 0.2593(3) 0.9811(3) 0.06372(17) 0.0225(4) Uani 1 1 d . .
O5 O 0.0282(3) 1.0290(3) 0.18956(17) 0.0278(5) Uani 1 1 d . .
O6 O -0.0031(3) 1.1760(3) 0.03290(18) 0.0259(5) Uani 1 1 d . .
N1 N 0.3923(3) 0.9884(3) 0.32334(18) 0.0142(4) Uani 1 1 d . .
N2 N 0.3526(3) 0.5756(3) 0.17697(17) 0.0131(4) Uani 1 1 d . .
N3 N 0.1934(3) 0.6841(3) 0.45376(19) 0.0178(5) Uani 1 1 d . .
N4 N 0.0933(3) 1.0640(3) 0.0927(2) 0.0176(5) Uani 1 1 d . .
C1 C 0.2699(4) 1.1401(4) 0.3540(2) 0.0171(5) Uani 1 1 d . .
H1 H 0.1452 1.1709 0.3453 0.021 Uiso 1 1 calc R U
C2 C 0.3173(4) 1.2522(4) 0.3973(2) 0.0191(6) Uani 1 1 d . .
H2 H 0.2270 1.3570 0.4200 0.023 Uiso 1 1 calc R U
C3 C 0.5002(4) 1.2090(4) 0.4073(2) 0.0179(6) Uani 1 1 d . .
H3 H 0.5378 1.2855 0.4349 0.022 Uiso 1 1 calc R U
C4 C 0.6274(4) 1.0525(4) 0.3763(2) 0.0172(6) Uani 1 1 d . .
H4 H 0.7532 1.0205 0.3827 0.021 Uiso 1 1 calc R U
C5 C 0.5692(4) 0.9432(3) 0.3358(2) 0.0143(5) Uani 1 1 d . .
C6 C 0.7015(4) 0.7642(4) 0.3124(2) 0.0162(5) Uani 1 1 d . .
H6A H 0.6753 0.6800 0.3700 0.019 Uiso 1 1 calc R U
H6B H 0.8280 0.7563 0.3136 0.019 Uiso 1 1 calc R U
C7 C 0.6694(4) 0.4750(3) 0.2151(2) 0.0166(5) Uani 1 1 d . .
H7A H 0.7886 0.3857 0.1912 0.020 Uiso 1 1 calc R U
H7B H 0.6461 0.4575 0.2945 0.020 Uiso 1 1 calc R U
C8 C 0.5205(4) 0.4524(3) 0.1688(2) 0.0138(5) Uani 1 1 d . .
C9 C 0.5569(4) 0.3028(4) 0.1226(2) 0.0166(5) Uani 1 1 d . .
H9 H 0.6773 0.2180 0.1154 0.020 Uiso 1 1 calc R U
C10 C 0.4160(4) 0.2792(4) 0.0872(2) 0.0176(6) Uani 1 1 d . .
H10 H 0.4380 0.1770 0.0565 0.021 Uiso 1 1 calc R U
C11 C 0.2419(4) 0.4062(4) 0.0969(2) 0.0194(6) Uani 1 1 d . .
H11 H 0.1427 0.3925 0.0735 0.023 Uiso 1 1 calc R U
C12 C 0.2167(4) 0.5526(4) 0.1413(2) 0.0160(5) Uani 1 1 d . .
H12 H 0.0984 0.6409 0.1469 0.019 Uiso 1 1 calc R U
loop_
_atom_site_aniso_label
_atom_site_aniso_U_11
_atom_site_aniso_U_22
_atom_site_aniso_U_33
_atom_site_aniso_U_23
_atom_site_aniso_U_13
_atom_site_aniso_U_12
Cd1 0.00986(11) 0.01157(11) 0.01741(12) -0.00452(7) -0.00395(7) -0.00163(7)
Se1 0.01170(15) 0.01703(16) 0.01552(16) -0.00439(11) -0.00102(11) -0.00542(11)
O1 0.0123(10) 0.0200(10) 0.0223(10) -0.0045(8) -0.0038(8) -0.0014(8)
O2 0.0141(10) 0.0274(11) 0.0262(11) 0.0023(9) -0.0057(8) -0.0023(8)
O3 0.0309(12) 0.0358(13) 0.0201(11) 0.0050(9) 0.0028(9) -0.0048(10)
O4 0.0117(10) 0.0240(11) 0.0268(11) -0.0040(8) -0.0022(8) -0.0007(8)
O5 0.0185(11) 0.0353(12) 0.0189(11) 0.0020(9) -0.0023(8) -0.0004(9)
O6 0.0188(10) 0.0242(11) 0.0293(12) 0.0071(9) -0.0109(9) -0.0024(9)
N1 0.0155(11) 0.0121(11) 0.0156(11) -0.0028(9) -0.0040(9) -0.0042(9)
N2 0.0137(11) 0.0128(11) 0.0129(11) -0.0042(8) -0.0018(9) -0.0040(9)
N3 0.0183(12) 0.0157(12) 0.0182(12) -0.0047(9) -0.0034(10) -0.0034(10)
N4 0.0158(12) 0.0169(12) 0.0221(12) -0.0032(9) -0.0064(10) -0.0059(9)
C1 0.0164(13) 0.0139(13) 0.0190(14) -0.0035(10) -0.0022(11) -0.0028(11)
C2 0.0227(15) 0.0162(14) 0.0178(14) -0.0029(11) -0.0024(12) -0.0063(11)
C3 0.0266(15) 0.0176(14) 0.0132(13) -0.0021(10) -0.0029(11) -0.0118(12)
C4 0.0212(14) 0.0193(14) 0.0147(13) -0.0002(11) -0.0053(11) -0.0105(11)
C5 0.0156(13) 0.0137(13) 0.0138(13) -0.0001(10) -0.0029(10) -0.0057(10)
C6 0.0131(13) 0.0176(14) 0.0192(14) -0.0068(10) -0.0071(11) -0.0029(10)
C7 0.0139(13) 0.0134(13) 0.0220(14) -0.0055(10) -0.0054(11) -0.0018(10)
C8 0.0131(13) 0.0133(13) 0.0137(13) -0.0032(10) -0.0022(10) -0.0026(10)
C9 0.0157(13) 0.0175(14) 0.0146(13) -0.0035(11) 0.0002(10) -0.0044(11)
C10 0.0238(14) 0.0163(14) 0.0150(13) -0.0057(10) -0.0007(11) -0.0091(11)
C11 0.0183(14) 0.0231(15) 0.0200(14) -0.0029(11) -0.0046(11) -0.0099(12)
C12 0.0120(13) 0.0194(14) 0.0165(13) -0.0027(10) -0.0020(10) -0.0052(11)
loop_
_atom_type_symbol
_atom_type_description
_atom_type_scat_dispersion_real
_atom_type_scat_dispersion_imag
_atom_type_scat_source
C C 0.0181 0.0091 'International Tables Vol C Tables 4.2.6.8 and 6.1.1.4'
H H 0.0000 0.0000 'International Tables Vol C Tables 4.2.6.8 and 6.1.1.4'
N N 0.0311 0.0180 'International Tables Vol C Tables 4.2.6.8 and 6.1.1.4'
O O 0.0492 0.0322 'International Tables Vol C Tables 4.2.6.8 and 6.1.1.4'
Se Se -0.7943 1.1372 'International Tables Vol C Tables 4.2.6.8 and 6.1.1.4'
Cd Cd 0.1185 4.6533 'International Tables Vol C Tables 4.2.6.8 and 6.1.1.4'
loop_
_geom_angle_atom_site_label_1
_geom_angle_atom_site_label_2
_geom_angle_atom_site_label_3
_geom_angle
N2 Cd1 N1 150.78(8)
N2 Cd1 O5 108.55(9)
N1 Cd1 O5 100.08(9)
N2 Cd1 O2 96.61(8)
N1 Cd1 O2 94.39(8)
O5 Cd1 O2 79.06(7)
N2 Cd1 O4 90.67(7)
N1 Cd1 O4 102.02(8)
O5 Cd1 O4 53.42(7)
O2 Cd1 O4 131.53(7)
N2 Cd1 O1 82.87(7)
N1 Cd1 O1 82.73(7)
O5 Cd1 O1 131.11(7)
O2 Cd1 O1 52.15(7)
O4 Cd1 O1 173.11(7)
N2 Cd1 Se1 77.26(6)
N1 Cd1 Se1 77.24(6)
O5 Cd1 Se1 139.39(5)
O2 Cd1 Se1 141.30(5)
O4 Cd1 Se1 87.06(5)
O1 Cd1 Se1 89.17(4)
C6 Se1 C7 100.60(12)
C6 Se1 Cd1 84.47(8)
C7 Se1 Cd1 83.24(8)
N3 O1 Cd1 91.83(15)
N3 O2 Cd1 98.45(16)
N4 O4 Cd1 92.01(16)
N4 O5 Cd1 97.53(16)
C1 N1 C5 119.0(2)
C1 N1 Cd1 119.14(18)
C5 N1 Cd1 121.74(18)
C8 N2 C12 119.2(2)
C8 N2 Cd1 120.86(18)
C12 N2 Cd1 119.84(18)
O3 N3 O1 121.4(2)
O3 N3 O2 121.1(2)
O1 N3 O2 117.5(2)
O6 N4 O4 122.2(2)
O6 N4 O5 120.7(2)
O4 N4 O5 117.0(2)
N1 C1 C2 122.8(3)
N1 C1 H1 118.6
C2 C1 H1 118.6
C1 C2 C3 118.5(3)
C1 C2 H2 120.7
C3 C2 H2 120.7
C4 C3 C2 119.1(3)
C4 C3 H3 120.5
C2 C3 H3 120.5
C5 C4 C3 119.4(3)
C5 C4 H4 120.3
C3 C4 H4 120.3
N1 C5 C4 121.2(2)
N1 C5 C6 118.4(2)
C4 C5 C6 120.3(2)
C5 C6 Se1 112.91(19)
C5 C6 H6A 109.0
Se1 C6 H6A 109.0
C5 C6 H6B 109.0
Se1 C6 H6B 109.0
H6A C6 H6B 107.8
C8 C7 Se1 113.29(19)
C8 C7 H7A 108.9
Se1 C7 H7A 108.9
C8 C7 H7B 108.9
Se1 C7 H7B 108.9
H7A C7 H7B 107.7
N2 C8 C9 121.2(2)
N2 C8 C7 118.8(2)
C9 C8 C7 120.0(2)
C10 C9 C8 119.2(3)
C10 C9 H9 120.4
C8 C9 H9 120.4
C9 C10 C11 119.4(3)
C9 C10 H10 120.3
C11 C10 H10 120.3
C12 C11 C10 118.2(3)
C12 C11 H11 120.9
C10 C11 H11 120.9
N2 C12 C11 122.7(3)
N2 C12 H12 118.7
C11 C12 H12 118.7
loop_
_geom_bond_atom_site_label_1
_geom_bond_atom_site_label_2
_geom_bond_distance
Cd1 N2 2.254(2)
Cd1 N1 2.259(2)
Cd1 O5 2.332(2)
Cd1 O2 2.380(2)
Cd1 O4 2.465(2)
Cd1 O1 2.530(2)
Cd1 Se1 2.8679(3)
Se1 C6 1.973(3)
Se1 C7 1.976(3)
O1 N3 1.255(3)
O2 N3 1.274(3)
O3 N3 1.224(3)
O4 N4 1.252(3)
O5 N4 1.280(3)
O6 N4 1.223(3)
N1 C1 1.345(4)
N1 C5 1.348(4)
N2 C8 1.341(4)
N2 C12 1.343(4)
C1 C2 1.372(4)
C1 H1 0.9500
C2 C3 1.388(4)
C2 H2 0.9500
C3 C4 1.388(4)
C3 H3 0.9500
C4 C5 1.387(4)
C4 H4 0.9500
C5 C6 1.516(4)
C6 H6A 0.9900
C6 H6B 0.9900
C7 C8 1.509(4)
C7 H7A 0.9900
C7 H7B 0.9900
C8 C9 1.391(4)
C9 C10 1.381(4)
C9 H9 0.9500
C10 C11 1.389(4)
C10 H10 0.9500
C11 C12 1.377(4)
C11 H11 0.9500
C12 H12 0.9500
loop_
_geom_torsion_atom_site_label_1
_geom_torsion_atom_site_label_2
_geom_torsion_atom_site_label_3
_geom_torsion_atom_site_label_4
_geom_torsion
Cd1 O1 N3 O3 -178.2(2)
Cd1 O1 N3 O2 2.7(2)
Cd1 O2 N3 O3 178.0(2)
Cd1 O2 N3 O1 -2.9(3)
Cd1 O4 N4 O6 176.8(2)
Cd1 O4 N4 O5 -1.8(2)
Cd1 O5 N4 O6 -176.7(2)
Cd1 O5 N4 O4 1.9(3)
C5 N1 C1 C2 0.3(4)
Cd1 N1 C1 C2 -176.1(2)
N1 C1 C2 C3 1.7(4)
C1 C2 C3 C4 -1.9(4)
C2 C3 C4 C5 0.2(4)
C1 N1 C5 C4 -2.1(4)
Cd1 N1 C5 C4 174.24(19)
C1 N1 C5 C6 173.4(2)
Cd1 N1 C5 C6 -10.3(3)
C3 C4 C5 N1 1.8(4)
C3 C4 C5 C6 -173.5(3)
N1 C5 C6 Se1 49.6(3)
C4 C5 C6 Se1 -134.9(2)
C12 N2 C8 C9 1.1(4)
Cd1 N2 C8 C9 -176.51(19)
C12 N2 C8 C7 -176.4(2)
Cd1 N2 C8 C7 6.0(3)
Se1 C7 C8 N2 -48.3(3)
Se1 C7 C8 C9 134.2(2)
N2 C8 C9 C10 -1.8(4)
C7 C8 C9 C10 175.7(2)
C8 C9 C10 C11 1.1(4)
C9 C10 C11 C12 0.4(4)
C8 N2 C12 C11 0.4(4)
Cd1 N2 C12 C11 178.0(2)
C10 C11 C12 N2 -1.1(4)
