#------------------------------------------------------------------------------
#$Date: 2016-03-24 14:49:32 +0200 (Thu, 24 Mar 2016) $
#$Revision: 179675 $
#$URL: svn://www.crystallography.net/cod/cif/4/51/27/4512738.cif $
#------------------------------------------------------------------------------
#
# This file is available in the Crystallography Open Database (COD),
# http://www.crystallography.net/
#
# All data on this site have been placed in the public domain by the
# contributors.
#
data_4512738
loop_
_publ_author_name
'Koskinen, Laura'
'J\"a\"askel\"ainen, Sirpa'
'Hirva, Pipsa'
'Haukka, Matti'
_publ_section_title
;
 Tunable Interaction Strength and Nature of the
 S&#x00B7;&#x00B7;&#x00B7;Br Halogen Bonds in [(Thione)Br2] Systems
;
_journal_issue                   3
_journal_name_full               'Crystal Growth &amp; Design'
_journal_page_first              1160
_journal_paper_doi               10.1021/cg501482u
_journal_volume                  15
_journal_year                    2015
_chemical_formula_moiety         'C7 H5 Br2 N S2'
_chemical_formula_sum            'C7 H5 Br2 N S2'
_chemical_formula_weight         327.06
_chemical_name_systematic
;
 ?
;
_space_group_crystal_system      orthorhombic
_space_group_IT_number           19
_space_group_name_Hall           'P 2ac 2ab'
_space_group_name_H-M_alt        'P 21 21 21'
_symmetry_space_group_name_Hall  'P 2ac 2ab'
_symmetry_space_group_name_H-M   'P 21 21 21'
_atom_sites_solution_hydrogens   geom
_audit_creation_method           SHELXL-2014
_cell_angle_alpha                90
_cell_angle_beta                 90
_cell_angle_gamma                90
_cell_formula_units_Z            4
_cell_length_a                   3.98635(9)
_cell_length_b                   9.2709(2)
_cell_length_c                   25.0901(6)
_cell_measurement_reflns_used    3525
_cell_measurement_temperature    120(2)
_cell_measurement_theta_max      76.3530
_cell_measurement_theta_min      5.9220
_cell_volume                     927.26(4)
_computing_cell_refinement
;
CrysAlisPro, Agilent Technologies,
Version 1.171.37.31 (release 14-01-2014 CrysAlis171 .NET)
(compiled Jan 14 2014,18:38:05)
;
_computing_data_collection
;
CrysAlisPro, Agilent Technologies,
Version 1.171.37.31 (release 14-01-2014 CrysAlis171 .NET)
(compiled Jan 14 2014,18:38:05)
;
_computing_data_reduction
;
CrysAlisPro, Agilent Technologies,
Version 1.171.37.31 (release 14-01-2014 CrysAlis171 .NET)
(compiled Jan 14 2014,18:38:05)
;
_computing_molecular_graphics
'CrystaMaker (CrystalMaker Software ltd., 2012)'
_computing_publication_material  'SHELXL-2013 (Sheldrick, 2013)'
_computing_structure_refinement  'SHELXL-2013 (Sheldrick, 2013)'
_computing_structure_solution    'SUPERFLIP (Palatinus & Chapuis, 2007)'
_diffrn_ambient_temperature      120(2)
_diffrn_detector_area_resol_mean 10.3953
_diffrn_measured_fraction_theta_full 1.000
_diffrn_measured_fraction_theta_max 0.997
_diffrn_measurement_device       '\k-geometry diffractometer'
_diffrn_measurement_device_type  'SuperNova, Dual, Cu at zero, Atlas'
_diffrn_measurement_method       '\f scans and \w scans with \k offset'
_diffrn_radiation_monochromator  mirror
_diffrn_radiation_type           CuK\a
_diffrn_radiation_wavelength     1.54184
_diffrn_reflns_av_R_equivalents  0.0402
_diffrn_reflns_av_unetI/netI     0.0393
_diffrn_reflns_Laue_measured_fraction_full 1.000
_diffrn_reflns_Laue_measured_fraction_max 0.997
_diffrn_reflns_limit_h_max       3
_diffrn_reflns_limit_h_min       -5
_diffrn_reflns_limit_k_max       11
_diffrn_reflns_limit_k_min       -10
_diffrn_reflns_limit_l_max       31
_diffrn_reflns_limit_l_min       -31
_diffrn_reflns_number            5937
_diffrn_reflns_point_group_measured_fraction_full 1.000
_diffrn_reflns_point_group_measured_fraction_max 0.998
_diffrn_reflns_theta_full        67.684
_diffrn_reflns_theta_max         76.990
_diffrn_reflns_theta_min         3.523
_diffrn_source                   micro-source
_exptl_absorpt_coefficient_mu    14.816
_exptl_absorpt_correction_T_max  0.9212
_exptl_absorpt_correction_T_min  0.4984
_exptl_absorpt_correction_type   numerical
_exptl_absorpt_process_details
;
SADABS-2008/1 (Bruker, 2008)
Additional spherical absorption correction applied with mu*r =  0.0000
Lambda/2 correction factor = 0.0000'
;
_exptl_crystal_colour            yellow
_exptl_crystal_density_diffrn    2.343
_exptl_crystal_description       plate
_exptl_crystal_F_000             624
_exptl_crystal_size_max          0.095
_exptl_crystal_size_mid          0.040
_exptl_crystal_size_min          0.016
_refine_diff_density_max         0.388
_refine_diff_density_min         -0.408
_refine_diff_density_rms         0.106
_refine_ls_abs_structure_details
;
 Refined as an inversion twin.
;
_refine_ls_abs_structure_Flack   0.20(5)
_refine_ls_extinction_method     none
_refine_ls_goodness_of_fit_ref   1.050
_refine_ls_hydrogen_treatment    constr
_refine_ls_matrix_type           full
_refine_ls_number_parameters     110
_refine_ls_number_reflns         1914
_refine_ls_number_restraints     0
_refine_ls_restrained_S_all      1.050
_refine_ls_R_factor_all          0.0246
_refine_ls_R_factor_gt           0.0237
_refine_ls_shift/su_max          0.001
_refine_ls_shift/su_mean         0.000
_refine_ls_structure_factor_coef Fsqd
_refine_ls_weighting_details
'w=1/[\s^2^(Fo^2^)+(0.0284P)^2^+0.2622P] where P=(Fo^2^+2Fc^2^)/3'
_refine_ls_weighting_scheme      calc
_refine_ls_wR_factor_gt          0.0588
_refine_ls_wR_factor_ref         0.0596
_reflns_Friedel_coverage         0.634
_reflns_Friedel_fraction_full    1.000
_reflns_Friedel_fraction_max     0.999
_reflns_number_gt                1863
_reflns_number_total             1914
_reflns_threshold_expression     'I > 2\s(I)'
_cod_data_source_file            cg501482u_si_002.cif
_cod_data_source_block           lk04021413
_cod_depositor_comments
'Adding full bibliography for 4512737--4512739.cif.'
_cod_original_cell_volume        927.25(4)
_cod_database_code               4512738
#BEGIN Tags that were not found in dictionaries:
_shelx_space_group_comment
;
The symmetry employed for this shelxl refinement is uniquely defined
by the following loop, which should always be used as a source of
symmetry information in preference to the above space-group names.
They are only intended as comments.
;
_shelx_estimated_absorpt_t_min   0.332
_shelx_estimated_absorpt_t_max   0.793
_shelxl_version_number           2014-1
_shelx_res_file
;
TITL LK040214_1_3 in P2(1)2(1)2(1)
CELL 1.54184 3.986353 9.270873 25.090074 90 90 90
ZERR 4 0.000091 0.00024 0.000617 0 0 0
LATT -1
SYMM 0.5-X,-Y,0.5+Z
SYMM 0.5+X,0.5-Y,-Z
SYMM -X,0.5+Y,0.5-Z
SFAC C H Br N S
UNIT 28 20 8 4 8
LIST 4
L.S. 6
PLAN  10
TEMP -153.15
BOND $H
HTAB 2.0
HTAB N1 Br2_$1
HTAB C3 Br2_$2
EQIV $1 -x, y+1/2, -z-3/2
EQIV $2 -x-1, y-1/2, -z-3/2
MORE -1
SIZE 0.0164 0.0405 0.0954
CONF
fmap 2 53
acta
TWIN -1 0 0 0 -1 0 0 0 -1 2
WGHT    0.028400    0.262200
BASF   0.19513
FVAR       0.15773
BR1   3   -0.356382   -0.304222   -0.795353    11.00000    0.01945    0.01658 =
         0.02098    0.00053   -0.00071    0.00066
S1    5   -0.254107   -0.159505   -0.723563    11.00000    0.02978    0.01590 =
         0.02034    0.00019   -0.00338    0.00042
S2    5   -0.205416   -0.466186   -0.678903    11.00000    0.02018    0.01474 =
         0.02026   -0.00223   -0.00035   -0.00175
N1    4    0.036566   -0.244159   -0.633402    11.00000    0.01947    0.01468 =
         0.01963   -0.00287    0.00052   -0.00369
AFIX  43
H1    2    0.095049   -0.154235   -0.627096    11.00000   -1.20000
AFIX   0
C1    1   -0.124916   -0.282941   -0.677262    11.00000    0.01751    0.01858 =
         0.02025   -0.00495    0.00137   -0.00147
C2    1   -0.010607   -0.488522   -0.616825    11.00000    0.02011    0.01852 =
         0.01703   -0.00234    0.00433   -0.00088
C3    1    0.039926   -0.614809   -0.588005    11.00000    0.02077    0.01471 =
         0.02411    0.00053    0.00374    0.00129
AFIX  43
H3    2   -0.039579   -0.705224   -0.600572    11.00000   -1.20000
AFIX   0
C4    1    0.210421   -0.603041   -0.540407    11.00000    0.02053    0.02353 =
         0.02190    0.00562    0.00226    0.00466
AFIX  43
H4    2    0.249686   -0.687450   -0.519865    11.00000   -1.20000
AFIX   0
C5    1    0.327690   -0.469760   -0.521435    11.00000    0.02541    0.02989 =
         0.01658    0.00115    0.00081    0.00111
AFIX  43
H5    2    0.440533   -0.465668   -0.488119    11.00000   -1.20000
AFIX   0
C6    1    0.282082   -0.344970   -0.550236    11.00000    0.01942    0.02719 =
         0.02192   -0.00500    0.00490   -0.00055
AFIX  43
H6    2    0.366674   -0.255089   -0.537988    11.00000   -1.20000
AFIX   0
C7    1    0.107341   -0.355846   -0.597933    11.00000    0.01662    0.01760 =
         0.02047    0.00040    0.00333    0.00178
BR2   3   -0.487735   -0.462072   -0.888849    11.00000    0.02042    0.01623 =
         0.02046   -0.00008   -0.00318    0.00119
HKLF 4

REM  LK040214_1_3 in P2(1)2(1)2(1)
REM R1 =  0.0237 for    1863 Fo > 4sig(Fo)  and  0.0246 for all    1914 data
REM    110 parameters refined using      0 restraints

END

WGHT      0.0284      0.2622

REM Instructions for potential hydrogen bonds
HTAB N1 Br2_$1
HTAB C3 Br2_$2

REM Highest difference peak  0.388,  deepest hole -0.408,  1-sigma level  0.106
Q1    1  -0.0313 -0.0807 -0.6997  11.00000  0.05    0.39
Q2    1  -0.6417 -0.3865 -0.8613  11.00000  0.05    0.37
Q3    1  -0.0630 -0.2028 -0.7021  11.00000  0.05    0.36
Q4    1  -0.0164 -0.2399 -0.7366  11.00000  0.05    0.36
Q5    1  -0.2813 -0.2516 -0.6996  11.00000  0.05    0.35
Q6    1  -0.5566 -0.3568 -0.8174  11.00000  0.05    0.35
Q7    1   0.0100 -0.7399 -0.6390  11.00000  0.05    0.35
Q8    1  -0.0008 -0.9200 -0.6014  11.00000  0.05    0.34
Q9    1  -0.0418 -0.4782 -0.7981  11.00000  0.05    0.34
Q10   1   0.6553 -0.4703 -0.4578  11.00000  0.05    0.32
;
_shelx_res_checksum              58939
_shelx_hkl_file
;
  -1   0   0    0.09    0.08
  -2   0   0    3.63    0.61
   2   0   0    3.17    0.55
  -3   0   0    0.76    0.26
  -3   0   0   -0.49    0.22
  -3   0   0    0.18    0.19
  -4   0   0   26.38    2.03
  -4   0   0   25.67    1.67
  -4   0   0   25.57    2.98
   0  -1   0    0.05    0.07
  -1   1   0    4.83    0.41
  -2  -1   0  128.30    4.72
  -2   1   0  128.50    3.98
  -3   1   0   13.03    1.27
  -3  -1   0   12.84    1.70
  -3   1   0   13.27    1.29
  -3   1   0   13.98    1.90
  -3  -1   0   12.93    1.30
  -3  -1   0   13.13    1.28
  -3   1   0   15.80    1.39
  -4  -1   0    0.85    0.67
  -4   1   0    1.30    0.91
  -4   1   0    0.43    0.98
  -4   1   0    0.38    0.33
  -4   1   0    1.24    0.34
  -4   1   0    0.71    0.52
  -4  -1   0    1.76    0.49
  -4  -1   0    1.25    0.54
  -5  -1   0   -0.33    0.29
  -5  -1   0    0.78    0.43
   0  -2   0   21.93    0.97
  -1  -2   0  244.24    6.41
  -2  -2   0  133.58    5.18
  -3  -2   0   -0.94    0.58
  -3  -2   0    0.73    0.44
  -3   2   0    0.01    0.25
  -3   2   0    0.81    0.68
  -3   2   0    0.84    0.38
  -3   2   0   -0.59    0.33
  -4  -2   0  147.99    4.18
  -4   2   0  136.96    8.71
  -4   2   0  151.25    5.41
  -4   2   0  151.14    9.65
  -4  -2   0  144.16    5.29
  -4   2   0  149.54    7.80
  -4   2   0  156.25    4.36
  -4  -2   0  157.90    7.61
   0  -3   0   -0.08    0.19
  -1  -3   0   17.80    1.50
  -2  -3   0   55.84    3.39
  -3  -3   0   61.04    2.97
  -3   3   0   51.29    4.20
  -3   3   0   55.12    5.27
  -3  -3   0   57.69    4.25
  -3   3   0   53.81    5.80
  -3   3   0   54.34    2.59
  -3   3   0   59.43    2.83
  -4   3   0   17.35    2.69
  -4  -3   0   19.00    1.53
  -4  -3   0   20.06    1.66
  -4  -3   0   22.45    2.48
  -4   3   0   21.83    1.66
  -4   3   0   23.06    3.47
  -4   3   0   22.46    1.38
  -4  -3   0   20.28    1.29
  -4   3   0   17.92    2.34
   0  -4   0  186.22    5.02
  -1  -4   0   11.39    1.35
  -2  -4   0   79.54    4.46
  -3   4   0  236.75    7.65
   3  -4   0  265.12   11.61
  -3   4   0  234.99    7.26
  -3  -4   0  242.51    7.05
  -3   4   0  238.86   13.63
  -3   4   0  233.66   12.05
  -3  -4   0  253.12    9.92
  -4  -4   0    3.88    0.73
  -4   4   0    3.20    0.57
  -4  -4   0    4.97    0.81
  -4  -4   0    4.72    1.03
   0  -5   0    0.35    0.32
  -1  -5   0  181.12    6.56
  -2  -5   0   12.10    1.84
  -3   5   0   26.73    2.52
  -3   5   0   25.99    2.10
  -3   5   0   23.86    1.88
  -4  -5   0   21.53    2.00
  -4   5   0   21.14    1.36
  -4  -5   0   21.86    1.58
   0  -6   0  190.46    7.31
  -1  -6   0  263.31    8.89
  -2   6   0   24.71    2.28
  -2   6   0   25.40    1.85
  -2  -6   0   24.71    2.77
  -2   6   0   23.88    2.04
  -2   6   0   22.12    2.06
   2  -6   0   26.78    3.36
  -2  -6   0   20.62    2.60
  -3   6   0    8.67    1.03
  -3   6   0    8.98    1.52
  -3   6   0    7.29    1.08
  -4  -6   0   -0.22    0.11
  -4   6   0   -0.09    0.12
   0  -7   0    0.60    0.53
   0   7   0    0.06    0.19
  -1   7   0  111.92    5.21
  -1   7   0  107.18    4.56
   1  -7   0  108.73    6.44
  -1   7   0  110.42    4.15
  -1   7   0  116.27    5.33
   1   7   0  107.67    5.86
  -1  -7   0  108.85    6.62
  -2  -7   0   25.71    3.01
  -2   7   0   31.60    2.39
  -2   7   0   30.21    2.06
  -2   7   0   31.88    2.70
   2   7   0   29.18    2.75
  -3   7   0    0.61    0.45
  -3   7   0    2.54    0.63
  -3   7   0    1.64    0.48
  -3  -7   0    1.86    0.54
  -4  -7   0    2.84    0.41
   0  -8   0   89.10    6.11
  -1  -8   0   18.87    2.68
  -1   8   0   18.78    2.06
  -1   8   0   21.02    1.65
   1   8   0   19.74    2.28
  -1   8   0   19.44    1.74
  -2   8   0    3.42    0.77
  -2   8   0    3.19    0.65
  -2   8   0    3.38    0.92
   2   8   0    3.07    0.77
  -2  -8   0    3.94    0.76
  -3   8   0   84.45    3.14
  -3   8   0   85.26    3.42
  -3  -8   0   83.01    3.29
   0   9   0    0.24    0.43
   0  -9   0    0.04    0.46
  -1   9   0    7.27    0.89
  -1  -9   0    5.92    1.48
  -1   9   0    6.88    1.15
  -1   9   0    7.19    1.08
  -2   9   0   49.38    2.68
  -2   9   0   52.04    3.18
  -2   9   0   51.27    2.45
  -3   9   0    3.12    0.40
   0  10   0    8.73    1.14
  -1  10   0    9.60    1.21
   1  10   0    8.78    1.02
  -2  10   0    4.03    0.49
  -2  10   0    5.65    0.83
   0  11   0   -0.37    0.20
   1  11   0    0.05    0.17
  -1  11   0    0.71    0.28
  -1   0  -1  136.10    3.59
  -1   0   1  136.53    3.59
   2   0  -1   43.12    2.28
  -2   0   1   40.63    2.27
  -2   0  -1   41.11    2.26
  -3   0   1    0.98    0.21
  -3   0  -1    0.96    0.28
  -3   0  -1    1.11    0.40
  -3   0   1    2.08    0.60
  -3   0   1    1.00    0.46
  -3   0   1    1.49    0.29
  -4   0  -1    4.30    1.10
  -4   0  -1    3.82    0.66
  -4   0  -1    3.62    0.70
  -4   0   1    2.48    1.04
  -4   0   1    3.96    0.84
  -4   0   1    2.92    0.60
   0  -1  -1    0.94    0.14
   0  -1   1    0.97    0.14
  -1   1   1  780.89   14.19
   1   1  -1  725.62   14.88
  -1   1  -1  781.50   14.23
  -2  -1  -1   14.93    1.42
   2  -1  -1   13.49    1.48
  -2   1  -1   15.24    1.16
  -2  -1   1   14.06    1.43
  -3   1   1   45.40    2.54
  -3  -1  -1   48.75    3.44
  -3   1   1   47.72    3.74
  -3  -1  -1   44.57    2.52
  -3  -1  -1   46.17    2.42
  -3   1   1   46.43    2.38
  -3   1   1   47.56    2.64
  -3   1  -1   47.69    2.56
  -3   1  -1   45.39    2.39
  -3   1  -1   50.88    2.58
  -3  -1   1   45.19    2.52
  -3   1  -1   48.63    3.69
  -3  -1   1   46.58    2.55
  -4   1   1   11.43    1.10
  -4   1   1   11.39    2.44
  -4  -1  -1   10.82    1.27
  -4  -1  -1   12.38    1.94
  -4   1   1   10.27    2.21
  -4  -1  -1    9.85    1.02
  -4   1   1   10.95    1.35
  -4   1   1   11.44    2.02
  -4   1  -1   10.87    1.08
  -4   1  -1    9.06    2.46
  -4   1  -1    9.12    1.16
  -4  -1   1   11.83    1.36
  -4   1  -1    9.83    1.79
  -4  -1   1   10.62    1.90
  -4  -1   1   11.17    1.08
  -4   1  -1   10.66    2.24
  -5  -1  -1   25.56    1.84
  -5  -1   1   22.83    1.78
  -5  -1   1   15.26    1.75
   0  -2  -1  201.36    4.42
   0  -2   1  191.12    4.38
  -1  -2  -1   19.77    1.41
  -1  -2   1   19.15    1.38
  -2  -2  -1   18.42    1.78
  -2  -2   1   18.35    1.76
  -3   2   1  201.84   10.35
  -3   2   1  193.50    8.95
  -3   2   1  207.76    5.95
  -3   2   1  215.21    6.54
  -3  -2  -1  206.96    8.19
  -3   2   1  201.35    6.34
  -3   2   1  209.18   11.65
  -3   2  -1  213.13    8.99
  -3  -2   1  211.31    8.29
  -3   2  -1  207.33    6.02
  -3   2  -1  210.49    6.41
  -3  -2   1  209.25    6.37
  -3  -2   1  198.80    6.29
  -3   2  -1  202.64    6.28
  -4   2   1   19.46    2.68
  -4  -2  -1   23.86    2.68
  -4  -2  -1   23.91    1.50
  -4   2   1   25.62    3.83
  -4  -2  -1   22.36    1.81
  -4   2   1   21.38    1.47
  -4   2   1   22.63    1.90
  -4   2   1   21.30    3.13
  -4  -2   1   23.72    1.46
  -4   2  -1   18.17    3.23
  -4  -2   1   24.42    2.63
  -4   2  -1   21.71    3.25
  -4   2  -1   22.91    1.52
  -4  -2   1   24.25    1.94
  -4   2  -1   21.27    2.67
  -4   2  -1   22.97    1.83
   0  -3   1   59.94    2.11
   0  -3  -1   53.62    2.04
  -1  -3  -1   38.54    2.26
  -1  -3   1   37.36    2.23
  -2  -3  -1  206.21    7.36
  -2  -3   1  210.80    7.34
  -3  -3  -1   72.39    4.76
  -3   3   1   71.97    3.20
  -3   3   1   63.76    6.43
  -3   3   1   71.62    5.06
  -3  -3  -1   70.12    3.20
  -3   3   1   68.03    2.92
  -3   3   1   64.31    5.88
  -3   3  -1   61.31    5.60
  -3   3  -1   68.12    2.97
  -3   3  -1   69.36    6.23
  -3   3  -1   66.08    3.14
  -3  -3   1   68.00    4.66
  -3  -3   1   68.22    3.22
  -4   3   1   43.27    5.07
  -4   3   1   44.12    3.85
  -4  -3  -1   46.56    2.59
  -4   3   1   39.17    2.12
  -4   3   1   43.86    2.44
  -4  -3  -1   45.74    1.97
  -4   3   1   42.53    4.37
  -4   3   1   44.04    1.98
  -4  -3  -1   47.13    3.63
  -4   3  -1   43.55    2.00
  -4  -3   1   42.56    2.36
  -4  -3   1   45.83    3.64
  -4  -3   1   42.17    1.88
  -4   3  -1   41.62    4.61
  -4  -3   1   44.79    2.55
  -4   3  -1   42.07    3.58
  -4   3  -1   31.66    3.67
  -4   3  -1   43.57    2.42
   0  -4  -1    1.85    0.39
   0  -4   1    2.35    0.49
  -1  -4  -1   56.33    3.03
  -1  -4   1   50.81    2.87
  -2  -4  -1   30.72    2.67
  -2  -4   1   29.78    2.67
  -3   4   1   10.51    1.27
   3  -4   1   10.91    2.08
  -3   4   1   10.08    1.19
  -3  -4  -1   14.15    1.34
  -3   4   1   10.07    2.74
  -3  -4  -1   10.23    1.79
  -3   4   1   10.66    2.31
  -3   4  -1   10.91    1.28
  -3  -4   1   11.48    1.17
  -3   4  -1   12.24    2.43
  -3   4  -1   11.31    1.25
   3  -4  -1   11.27    2.33
  -3   4  -1    9.75    2.75
  -4  -4  -1  152.78    5.09
  -4  -4  -1  154.72    4.99
  -4   4   1  142.38    4.63
  -4  -4  -1  156.36    6.84
  -4   4  -1  140.58    4.45
  -4  -4   1  151.41    6.76
  -4  -4   1  147.82    5.06
  -4  -4   1  156.49    4.97
   0  -5  -1   43.68    2.26
  -1  -5  -1   28.50    2.30
  -1  -5   1   30.55    2.43
  -2  -5  -1   98.09    5.39
  -2  -5   1   99.86    5.47
   2  -5  -1  104.03    6.35
  -3   5   1    2.90    0.63
  -3   5   1    1.85    0.34
  -3   5   1    3.14    0.80
  -3   5  -1    2.46    0.73
  -3   5  -1    3.53    0.63
  -3   5  -1    3.56    0.79
  -4   5   1   16.91    1.21
  -4  -5  -1   16.56    1.74
  -4  -5  -1   17.70    1.40
  -4  -5   1   18.41    1.46
  -4  -5   1   15.67    1.67
  -4   5  -1   16.94    1.17
   0  -6  -1  648.79   16.94
  -1  -6  -1   23.03    2.31
   1  -6  -1   21.61    2.53
  -1  -6   1   20.93    2.21
  -2   6   1    4.70    0.98
  -2  -6  -1    5.08    1.19
  -2   6   1    5.36    0.80
  -2  -6  -1    5.36    1.18
  -2   6   1    4.26    0.82
  -2   6   1    5.44    1.04
  -2   6  -1    5.84    0.95
  -2  -6   1    4.74    1.24
   2  -6  -1    4.48    1.46
  -2  -6   1    4.97    1.12
  -2   6  -1    5.86    0.84
  -2   6  -1    6.19    1.14
  -3   6   1   11.07    1.41
  -3   6   1   12.72    1.78
  -3   6   1   12.02    1.28
  -3   6  -1   11.73    1.32
  -3   6  -1   11.02    1.18
  -3   6  -1   14.54    1.87
  -4  -6  -1    1.36    0.37
  -4   6   1    0.90    0.15
  -4  -6   1    1.57    0.42
  -4   6  -1    0.62    0.18
   0   7   1   33.22    3.05
   0   7   1   31.37    2.41
   0  -7  -1   31.70    3.11
   0  -7   1   30.68    3.19
  -1   7   1  149.98    6.26
  -1   7   1  153.74    6.31
   1   7  -1  145.65    6.92
  -1  -7  -1  137.83    7.66
  -1   7   1  144.21    4.94
   1  -7   1  145.57    7.56
  -1   7   1  140.24    5.42
   1   7   1  145.41    7.15
  -1   7  -1  148.43    6.12
  -1  -7   1  135.17    7.81
  -1   7  -1  145.91    4.95
  -1   7  -1  150.19    6.31
  -1   7  -1  143.71    5.44
   1  -7  -1  137.46    7.37
  -2  -7  -1   83.63    6.00
  -2   7   1  104.63    4.71
  -2   7   1  109.34    5.33
  -2   7   1  101.93    4.13
  -2   7  -1  103.47    5.26
  -2   7  -1  105.82    4.17
  -2   7  -1  103.31    4.67
   2   7   1  105.42    5.79
  -3   7   1    2.59    0.80
  -3   7   1    2.33    0.57
  -3   7   1    2.70    0.57
  -3  -7   1    2.32    0.54
  -3   7  -1    3.06    0.60
  -3   7  -1    2.49    0.51
  -3   7  -1    2.93    0.73
  -4  -7  -1    5.85    0.60
  -4  -7   1    5.95    0.61
   0   8  -1    7.58    1.19
   0  -8  -1    8.66    1.78
   0  -8   1    8.08    1.69
  -1   8   1   79.30    4.39
  -1   8   1   86.78    3.57
  -1   8   1   77.02    4.30
   1   8  -1   74.06    4.76
  -1   8   1   77.86    3.78
  -1  -8  -1   73.13    5.47
  -1   8  -1   74.80    3.70
  -1  -8   1   64.07    5.25
  -1   8  -1   78.27    3.42
   1   8   1   76.21    4.91
  -1   8  -1   76.33    4.22
  -2   8   1   53.70    2.76
  -2   8   1   48.49    2.93
  -2   8   1   52.81    3.55
  -2   8  -1   57.77    3.66
  -2   8  -1   53.51    2.73
   2   8   1   51.65    3.66
  -2  -8   1   53.38    2.78
  -2   8  -1   54.66    3.09
  -3   8   1    9.39    0.96
  -3   8   1    9.41    0.91
  -3  -8  -1   10.10    1.03
  -3  -8   1    9.21    0.97
  -3   8  -1    9.20    0.91
  -3   8  -1   10.08    1.04
   0  -9   1    2.07    0.96
   0   9   1    1.93    0.61
   0   9  -1    2.28    0.53
   0  -9  -1    1.96    0.83
  -1   9   1   10.85    1.45
  -1  -9  -1    8.95    1.81
  -1   9   1   10.59    1.11
  -1   9   1    8.52    1.11
  -1   9  -1   10.21    1.47
  -1   9  -1    9.23    1.03
  -2   9   1   41.15    2.39
  -2   9   1   40.83    2.77
  -2   9   1   39.25    2.11
  -2   9  -1   39.19    2.10
  -2   9  -1   40.13    2.73
  -2   9  -1   37.39    2.30
  -3   9   1   24.56    1.25
  -3   9  -1   24.72    1.24
   0  10  -1   34.55    2.34
   0  10   1   36.91    2.46
   1  10  -1    2.57    0.58
  -1  10   1    4.38    0.90
   1  10   1    3.53    0.63
  -1  10  -1    3.97    0.77
  -2  10   1    1.53    0.52
  -2  10   1    0.91    0.26
  -2  10  -1    0.69    0.21
  -2  10  -1    0.29    0.16
   0  11  -1   19.70    1.38
   0  11   1   20.97    1.46
  -1  11   1   26.65    1.65
  -1  11  -1   24.87    1.54
   1  11   1   22.11    1.28
   0   0  -2  311.49    6.82
  -1   0  -2   32.94    1.51
   1   0  -2   33.61    1.56
  -1   0   2   33.54    1.50
   2   0  -2  111.20    4.12
  -2   0  -2  112.31    4.14
  -2   0   2  109.18    4.03
  -3   0   2   78.53    4.82
  -3   0  -2   71.06    3.11
  -3   0   2   74.10    3.37
  -3   0   2   74.57    3.41
  -4   0   2   20.35    1.81
  -4   0   2   23.47    1.53
  -4   0   2   24.67    2.98
  -4   0  -2   21.75    2.67
  -4   0  -2   21.37    1.82
  -5   0  -2    0.44    0.25
   0  -1  -2   46.77    1.64
   0  -1  -2   46.72    1.42
   1   1  -2  314.84    7.03
  -1   1  -2  312.39    6.62
  -1  -1   2  322.26    7.37
  -2  -1  -2  305.15    8.48
   2  -1  -2  311.47    8.98
  -2   1  -2  300.35    7.38
  -2  -1   2  290.19    8.31
  -3  -1  -2    6.31    0.85
  -3   1   2    7.81    1.49
  -3  -1  -2    6.67    1.24
  -3   1   2    7.35    0.98
  -3   1   2    6.49    0.86
  -3  -1   2    6.96    0.88
  -3   1  -2    9.08    1.57
  -3   1  -2    8.56    0.96
  -3  -1   2    6.79    1.36
  -3   1  -2    8.43    1.01
  -3  -1   2    9.39    1.14
  -4  -1  -2   27.84    2.13
  -4  -1  -2   27.95    2.96
  -4   1   2   27.69    3.17
  -4   1   2   29.05    4.26
  -4   1   2   28.74    1.75
  -4   1   2   27.64    2.10
  -4   1   2   32.49    3.90
  -4   1  -2   27.31    3.90
  -4   1  -2   28.24    3.12
  -4  -1   2   30.19    2.21
  -4  -1   2   30.00    3.10
  -4   1  -2   31.23    2.23
  -4  -1   2   29.16    1.71
  -4   1  -2   32.27    3.81
  -5  -1  -2    5.81    0.60
  -5  -1   2    3.15    0.85
   0  -2  -2  361.89    7.50
   0  -2  -2  361.91    8.35
  -1  -2  -2   71.39    2.86
  -1  -2   2   70.95    2.82
  -1   2  -2   58.61    1.56
  -2  -2  -2   53.39    3.14
  -2  -2   2   50.11    3.04
   2  -2  -2   53.05    3.41
  -3   2   2   14.55    2.15
  -3   2   2   12.71    2.27
  -3   2   2   12.34    1.30
  -3   2   2   12.28    2.59
  -3   2   2   13.02    1.34
  -3  -2  -2   12.08    1.81
  -3  -2   2   12.01    1.25
  -3  -2   2   13.19    1.32
  -3   2  -2   12.96    1.82
  -3   2  -2   13.65    1.26
  -3   2  -2   12.35    1.18
  -4  -2  -2   16.92    2.21
  -4   2   2   14.59    2.88
  -4   2   2   14.91    1.51
  -4   2   2   15.26    1.21
  -4   2   2   14.18    2.60
  -4  -2  -2   13.23    1.13
  -4   2   2   13.71    2.19
  -4  -2  -2   14.59    1.47
  -4   2  -2   12.58    2.37
  -4   2  -2   12.44    2.82
  -4   2  -2   18.46    1.37
  -4  -2   2   15.17    2.19
  -4  -2   2   12.57    1.40
  -4  -2   2   13.85    1.11
  -4   2  -2   14.95    2.13
  -4   2  -2   15.65    1.52
   0  -3  -2    0.79    0.11
  -1  -3  -2   20.29    1.62
  -1  -3   2   21.16    1.63
  -2  -3  -2  209.21    7.37
  -2  -3   2  203.77    7.34
   2  -3  -2  217.81    8.35
  -3   3   2   98.36    3.25
  -3  -3  -2  112.81    4.08
  -3   3   2  102.56    4.01
  -3  -3  -2   99.41    5.70
  -3   3   2  107.71    8.34
  -3   3   2   93.71    6.10
  -3   3   2   96.62    4.13
  -3   3   2  106.11    7.78
  -3   3  -2   99.73    7.46
  -3  -3   2  103.28    4.13
  -3   3  -2   99.90    3.81
  -3  -3   2  101.45    3.25
  -3   3  -2   92.26    3.83
  -3   3  -2   96.85    6.82
  -4   3   2   28.50    3.65
  -4   3   2   31.06    1.65
  -4  -3  -2   33.00    2.15
  -4  -3  -2   36.03    3.10
  -4   3   2   28.29    1.78
  -4   3   2   31.02    4.19
  -4   3   2   28.03    3.16
  -4  -3  -2   28.89    1.56
  -4   3   2   30.60    2.05
  -4  -3   2   31.63    2.02
  -4   3  -2   31.04    1.65
  -4   3  -2   31.98    4.18
  -4   3  -2   31.04    3.34
  -4   3  -2   30.39    1.97
  -4  -3   2   33.01    2.13
  -4  -3   2   28.00    1.54
  -4  -3   2   28.44    2.85
   0  -4  -2    9.77    1.16
   0  -4  -2   10.39    0.93
  -1  -4  -2  132.47    4.96
  -1  -4   2  119.05    4.80
  -2  -4  -2    9.53    1.50
   2  -4  -2   10.84    1.84
  -2  -4   2   12.09    1.72
  -3   4   2   45.39    2.77
  -3  -4  -2   48.43    2.56
  -3  -4  -2   49.54    4.03
  -3   4   2   42.92    4.96
  -3   4   2   50.64    5.75
  -3   4  -2   49.02    2.68
  -3  -4   2   47.36    2.59
  -3   4  -2   53.98    5.31
  -3   4  -2   46.36    4.47
  -3   4  -2   47.15    2.80
  -4   4   2    9.72    0.97
  -4  -4  -2    8.85    1.48
  -4  -4  -2    8.42    0.96
  -4   4  -2    8.27    0.81
  -4  -4   2    8.45    1.44
  -4  -4   2    9.32    1.11
  -4  -4   2    8.25    0.98
   0  -5  -2  106.49    4.79
   0  -5  -2  109.42    3.89
  -1  -5  -2  294.71    8.91
  -1  -5   2  284.53    8.89
  -2  -5  -2   18.69    2.21
  -2  -5   2   17.39    2.23
   2  -5  -2   16.58    2.39
  -3   5   2   60.56    3.98
  -3   5   2   64.20    3.48
  -3   5   2   63.06    3.20
  -3  -5   2   71.29    4.29
  -3   5  -2   64.13    3.37
  -3   5  -2   63.19    3.12
  -3   5  -2   61.32    3.93
  -4   5   2    1.97    0.38
  -4  -5  -2    3.56    0.84
  -4  -5  -2    2.87    0.56
  -4  -5   2    2.13    0.59
  -4  -5   2    2.50    0.53
  -4   5  -2    2.84    0.49
   0  -6  -2   75.88    4.35
  -1  -6  -2    3.80    0.92
   1  -6  -2    4.39    1.19
  -2  -6  -2   86.46    5.74
  -2  -6  -2  104.55    5.87
  -2   6   2   95.43    4.34
  -2   6   2   98.13    4.75
  -2   6   2   96.26    3.97
  -2   6   2   97.75    4.96
  -2   6  -2   92.16    4.78
  -2   6  -2   96.39    3.92
   2  -6  -2  104.97    6.73
  -2   6  -2   94.81    4.38
  -3   6   2   22.53    1.97
  -3   6   2   22.97    1.79
  -3   6   2   21.65    2.26
  -3   6  -2   23.47    2.33
  -3   6  -2   23.95    1.93
  -3   6  -2   21.83    1.69
  -4   6   2    1.23    0.31
  -4  -6  -2    1.71    0.49
  -4   6  -2    1.40    0.26
  -4  -6   2    2.20    0.50
   0  -7   2   39.37    3.71
   0  -7  -2   41.05    3.54
   0   7   2   39.71    2.71
   0   7   2   38.78    3.42
  -1   7   2  224.72    7.28
  -1   7   2  231.80    8.41
  -1  -7  -2  229.57   10.38
   1   7  -2  219.62    9.04
  -1   7   2  218.75    8.21
  -1   7   2  225.29    6.66
  -1   7  -2  227.74    6.68
   1  -7  -2  216.57    9.65
  -1   7  -2  223.21    7.20
   1   7   2  220.96    9.53
  -1  -7   2  200.36   10.30
  -1   7  -2  219.06    7.94
  -2   7   2   16.49    1.51
  -2   7   2   20.07    2.04
  -2   7   2   17.66    1.74
  -2   7   2   17.92    1.98
  -2  -7  -2   18.55    2.51
  -2   7  -2   19.14    1.84
  -2   7  -2   17.78    1.57
  -2   7  -2   19.41    2.06
   2   7   2   19.77    2.41
  -3   7   2    6.27    1.11
  -3   7   2    7.33    1.02
  -3   7   2    7.71    0.96
  -3   7  -2    6.68    0.91
  -3   7  -2    7.77    1.20
  -3  -7   2    7.49    1.00
  -3   7  -2    7.16    0.89
  -4  -7  -2    1.09    0.26
  -4  -7   2    1.86    0.36
   0   8   2   75.28    4.11
   0  -8   2   65.79    5.30
   0  -8  -2   76.21    5.42
   0   8  -2   73.22    4.02
  -1   8   2   18.42    1.72
  -1   8   2   18.46    1.99
  -1   8   2   19.94    1.60
  -1   8   2   19.14    2.08
  -1  -8  -2   18.71    2.59
  -1   8  -2   19.32    2.00
  -1   8  -2   19.32    1.73
  -1   8  -2   20.92    1.64
  -1  -8   2   15.42    2.46
   1   8   2   17.44    2.37
  -2   8   2    7.52    1.12
  -2   8   2    6.85    1.30
  -2   8   2    6.96    0.90
  -2  -8  -2    5.98    1.37
  -2   8  -2    5.96    1.11
  -2   8  -2    6.30    0.96
   2   8   2    5.71    1.15
  -2  -8   2    6.95    0.94
  -2   8  -2    6.27    0.86
  -3  -8  -2    9.03    0.97
  -3   8   2    9.09    0.89
  -3   8   2    9.87    1.05
  -3  -8   2    8.13    0.93
  -3   8  -2   10.19    0.95
   0   9   2   34.21    2.64
   0  -9  -2   31.09    3.39
   0   9  -2   33.56    2.49
  -1   9   2   51.02    3.35
   1   9  -2   45.73    2.81
  -1  -9  -2   39.27    3.93
  -1   9   2   48.75    2.82
  -1   9  -2   52.37    2.62
  -1   9  -2   47.77    3.13
  -2   9   2   61.48    3.03
  -2   9   2   64.55    2.79
  -2   9   2   62.41    3.54
  -2   9  -2   63.81    3.52
  -2   9  -2   62.00    2.75
  -3   9   2   43.60    1.75
  -3   9  -2   44.31    1.73
   0  10   2   10.76    1.29
   0  10  -2   10.97    1.19
  -1  10   2   22.26    1.93
   1  10  -2   19.03    1.44
  -1  10  -2   19.66    1.32
   1  10   2   20.49    1.70
  -1  10  -2   21.11    1.81
  -2  10   2    5.72    0.83
  -2  10   2    5.91    0.60
  -2  10  -2    6.26    0.62
  -2  10  -2    7.48    0.89
   0  11  -2    3.06    0.53
   0  11   2    2.04    0.46
  -1  11   2   20.32    1.43
   1  11   2   16.54    1.11
  -1  11  -2   17.84    1.26
   0   0  -3    1.61    0.31
  -1   0  -3    0.36    0.23
   1   0  -3    0.46    0.27
   2   0  -3  173.33    5.69
  -2   0  -3  171.89    5.54
  -3   0   3  142.74    5.12
  -3   0   3  144.82    6.97
  -3   0   3  134.93    4.97
  -3   0  -3  135.81    4.64
  -4   0   3   20.48    1.42
  -4   0  -3   20.01    2.51
  -4   0   3   17.32    3.15
  -4   0  -3   17.35    1.65
  -4   0   3   20.58    3.10
  -4   0   3   17.64    2.47
  -4   0   3   17.72    1.73
   0  -1  -3   20.91    1.18
   1   1  -3  583.14   12.69
   1  -1  -3  608.08   13.51
  -1  -1   3  609.11   12.51
  -1   1  -3  580.73   11.78
  -2  -1  -3    1.33    0.41
  -2  -1   3    0.60    0.39
  -2   1  -3    1.55    0.43
   2  -1  -3    1.48    0.62
  -3   1   3    0.03    0.62
  -3  -1  -3    0.94    0.25
  -3   1   3    1.28    0.65
  -3   1   3    1.17    0.36
  -3  -1  -3    1.00    0.38
  -3  -1   3    0.72    0.44
  -3  -1   3    1.32    0.82
  -3  -1   3    0.44    0.22
  -3   1  -3    0.48    0.20
  -4   1   3   27.33    3.10
  -4   1   3   29.73    4.38
  -4  -1  -3   31.04    2.17
  -4   1   3   32.69    1.82
  -4  -1  -3   29.91    3.04
  -4   1   3   27.77    2.12
  -4   1   3   30.50    3.73
  -4   1  -3   31.22    3.53
  -4  -1   3   30.34    3.23
  -4   1  -3   28.74    2.10
  -4  -1   3   30.44    2.21
  -4  -1   3   29.43    1.70
  -4   1  -3   27.89    3.00
  -4   1  -3   29.16    3.85
   0  -2  -3   31.63    1.65
   0  -2  -3   32.99    1.42
  -1  -2  -3  397.35    9.38
  -1  -2   3  395.88    9.37
  -1   2  -3  383.90    7.79
  -2  -2  -3   30.64    2.40
  -2  -2   3   29.54    2.34
   2  -2  -3   32.75    2.67
  -3   2   3    6.01    0.93
  -3  -2  -3    5.37    1.13
  -3   2   3    5.36    0.65
  -3   2   3    8.03    1.50
  -3   2   3    5.37    1.93
  -3  -2  -3    5.81    0.87
  -3   2   3    7.46    1.60
  -3   2   3    5.60    0.84
  -3   2  -3    6.15    0.88
  -3  -2   3    6.40    0.87
  -3  -2   3    6.83    0.76
  -3   2  -3    5.11    1.10
  -3  -2   3    5.36    0.80
  -3  -2   3    7.24    1.43
  -4   2   3   42.73    2.60
  -4   2   3   41.72    2.06
  -4   2   3   39.56    4.95
  -4   2   3   37.41    4.40
  -4  -2  -3   46.52    2.16
  -4  -2  -3   43.33    2.58
  -4   2   3   40.56    3.84
  -4  -2  -3   45.72    3.64
  -4  -2   3   45.93    3.79
  -4   2  -3   39.15    3.99
  -4   2  -3   40.22    4.43
  -4   2  -3   43.57    2.13
  -4   2  -3   46.14    2.61
  -4  -2   3   42.62    2.00
  -4  -2   3   45.20    2.70
  -4   2  -3   41.82    3.63
   0  -3  -3    4.89    0.59
   0  -3  -3    4.92    0.71
  -1  -3  -3   25.99    1.87
  -1  -3   3   25.21    1.89
  -2  -3  -3  132.42    5.71
   2  -3  -3  140.73    6.52
  -2  -3   3  134.16    5.73
  -3   3   3   76.13    3.39
  -3   3   3   68.20    5.19
  -3   3   3   68.86    2.62
  -3   3   3   69.21    3.40
  -3   3   3   71.63    6.80
  -3   3   3   76.17    6.55
  -3   3   3   70.98    3.31
  -3  -3  -3   71.66    4.76
  -3  -3   3   70.70    2.64
  -3   3  -3   70.02    3.13
  -3   3  -3   68.25    5.46
  -3  -3   3   85.69    4.93
  -3  -3   3   70.63    3.33
  -3  -3   3   66.54    3.13
  -3   3  -3   66.07    3.10
  -3   3  -3   66.92    6.01
  -4   3   3   12.19    1.24
  -4   3   3    8.57    2.04
  -4  -3  -3   12.61    1.33
  -4   3   3   11.46    1.12
  -4  -3  -3   13.23    1.90
  -4   3   3   11.28    1.00
  -4  -3  -3   11.29    0.94
  -4   3   3    8.94    1.77
  -4   3   3   14.87    3.28
  -4  -3   3   12.46    1.23
  -4  -3   3   12.32    1.02
  -4   3  -3   11.40    0.98
  -4  -3   3   12.51    1.79
  -4  -3   3   13.44    1.36
  -4   3  -3   11.42    1.17
  -4   3  -3   11.28    1.88
  -4   3  -3    8.80    1.83
   0  -4  -3  206.36    5.56
   0  -4  -3  197.73    6.52
  -1  -4  -3  226.41    7.16
   1  -4  -3  232.01    8.14
  -1  -4   3  225.46    7.16
  -2  -4  -3  137.79    6.20
   2  -4  -3  141.24    7.14
  -2  -4   3  139.35    6.27
  -3   4   3   14.65    3.47
  -3   4   3   12.57    2.73
  -3   4   3   14.80    2.44
  -3   4   3   14.08    1.48
  -3  -4  -3   13.75    1.26
  -3   4  -3   13.72    2.23
  -3   4  -3   13.66    1.43
  -3  -4   3   15.47    1.97
  -3   4  -3   14.99    1.39
  -3  -4   3   13.14    1.33
  -4  -4  -3    5.00    0.76
  -4  -4  -3    4.79    1.07
  -4   4   3    3.82    0.61
  -4  -4   3    4.41    0.69
  -4  -4   3    4.73    0.99
  -4  -4   3    5.19    0.81
   0  -5  -3    1.33    0.42
   0  -5  -3    0.24    0.17
  -1  -5  -3  168.00    6.25
  -1  -5   3  164.54    6.34
   1  -5  -3  164.57    7.19
  -2  -5  -3   82.60    4.88
  -2   5   3   80.36    3.68
  -2   5  -3   76.69    4.08
   2  -5  -3   87.71    5.89
  -2   5  -3   81.26    3.45
  -2   5  -3   83.33    3.85
  -3   5   3   42.29    2.76
  -3   5   3   42.76    2.59
  -3   5   3   40.52    3.01
  -3   5  -3   44.66    3.23
  -3   5  -3   41.02    2.45
  -3   5  -3   43.17    2.64
  -4   5   3   10.09    0.93
  -4  -5  -3   10.26    1.37
  -4  -5  -3   10.56    1.09
  -4  -5   3    8.39    1.14
  -4  -5   3    9.81    1.07
  -4   5  -3    9.41    0.80
   0  -6  -3    2.48    0.89
  -1  -6  -3    1.01    0.58
   1  -6  -3    1.41    0.82
  -2   6   3  144.20    5.55
  -2   6   3  147.40    6.19
  -2  -6  -3  158.66    7.31
  -2   6   3  140.98    6.32
  -2  -6  -3  139.10    7.62
  -2   6   3  140.94    5.09
  -2   6  -3  137.09    6.10
  -2   6  -3  144.70    5.10
  -2   6  -3  144.73    5.66
   2  -6  -3  155.25    8.41
  -3   6   3   30.07    2.08
  -3   6   3   29.77    2.27
  -3   6   3   32.30    2.64
  -3   6  -3   32.36    2.22
  -3   6  -3   30.34    2.00
  -3   6  -3   30.93    2.61
  -3  -6   3   28.87    2.11
  -4  -6  -3   50.68    2.79
  -4   6   3   58.98    2.25
  -4  -6  -3   63.71    2.60
  -4   6  -3   55.04    1.99
  -4  -6   3   60.84    2.60
   0  -7  -3   71.28    4.80
   0  -7   3   57.42    4.65
   0   7   3   66.22    3.68
   0   7   3   62.36    4.52
  -1   7   3   68.32    3.93
  -1  -7  -3   71.15    4.95
  -1   7   3   69.67    4.08
  -1   7   3   65.22    3.42
  -1   7   3   69.35    3.13
   1   7  -3   65.60    4.18
   1   7   3   69.49    4.75
  -1   7  -3   67.66    3.43
  -1   7  -3   67.23    3.75
  -1  -7   3   57.49    4.83
  -1   7  -3   67.10    3.06
   1  -7  -3   63.39    5.00
  -2   7   3   65.48    3.58
  -2  -7  -3   60.76    4.78
  -2   7   3   63.28    3.14
  -2   7   3   66.64    3.89
  -2   7   3   61.78    3.96
  -2   7  -3   62.04    3.43
  -2  -7   3   65.30    3.28
  -2   7  -3   62.80    3.87
  -2   7  -3   62.51    3.09
   2   7   3   61.33    4.41
  -3   7   3   15.20    1.64
  -3   7   3   17.06    1.58
  -3   7   3   17.34    1.42
  -3  -7   3   14.88    1.37
  -3   7  -3   16.76    1.52
  -3   7  -3   16.69    1.35
  -4  -7  -3    2.98    0.40
   0   8  -3  247.82    8.58
   0   8   3  260.78    9.04
   0  -8  -3  272.40   11.81
   0  -8   3  216.91   11.36
  -1   8   3   20.44    1.65
  -1  -8  -3   22.82    2.82
  -1   8   3   23.65    2.00
  -1   8   3   20.44    2.15
  -1   8   3   20.36    2.06
   1   8   3   22.06    2.61
  -1  -8   3   18.17    2.67
  -1   8  -3   23.67    1.96
  -1   8  -3   23.94    1.83
  -1   8  -3   21.71    2.12
  -2  -8  -3   42.02    3.99
  -2   8   3   50.22    3.45
  -2   8   3   48.27    2.95
  -2   8   3   54.20    2.76
   2   8   3   49.43    3.75
  -2   8  -3   47.47    2.88
  -2   8  -3   49.72    3.31
  -2   8  -3   49.33    2.58
  -2  -8   3   51.85    2.75
  -3  -8  -3   38.08    2.03
  -3   8   3   39.22    1.98
  -3   8   3   36.61    2.11
  -3   8  -3   39.32    1.94
  -3  -8   3   39.61    2.14
   0  -9  -3   44.32    4.14
   0   9   3   44.08    3.12
   0   9  -3   41.05    2.76
  -1   9   3    6.02    1.15
   1   9  -3    4.87    0.71
  -1   9   3    5.67    0.90
  -1  -9  -3    3.52    1.04
  -1   9  -3    5.35    0.99
  -1   9  -3    6.14    0.87
  -2   9   3   31.24    2.07
  -2   9   3   31.92    2.47
  -2   9   3   32.42    1.89
  -2   9  -3   35.47    2.49
  -2   9  -3   32.43    1.86
   2   9   3   29.63    2.51
  -3   9   3   11.66    0.82
  -3   9  -3   12.79    0.83
   0  10  -3    9.51    1.12
   0  10   3    9.05    1.24
   0 -10  -3    6.91    1.39
  -1  10   3   75.72    3.82
   1  10  -3   69.93    2.96
  -1  10  -3   79.35    2.94
   1  10   3   75.27    3.56
  -1  10  -3   74.24    3.60
  -2  10   3   38.01    1.62
  -2  10   3   45.86    2.41
  -2  10  -3   46.42    1.84
  -2  10  -3   48.05    2.39
   2  10   3   38.12    1.85
   0  11   3   20.24    1.47
   0  11  -3   18.03    1.23
  -1  11   3    3.04    0.51
  -1  11  -3    1.74    0.35
   1  11   3    2.93    0.48
   0   0  -4  147.21    4.36
  -1   0  -4   93.63    3.11
   1   0  -4   88.60    3.26
  -2   0  -4  597.87   13.64
   2   0  -4  583.65   14.26
  -3   0   4   57.80    2.42
  -3   0   4   58.08    3.02
  -3   0  -4   60.55    2.84
  -3   0   4   56.28    2.95
  -3   0   4   60.08    4.27
  -4   0   4   66.50    5.67
  -4   0  -4   72.77    3.51
  -4   0   4   72.63    5.27
  -4   0   4   71.96    2.82
  -4   0   4   65.81    3.47
  -4   0   4   75.64    6.78
  -4   0  -4   68.75    4.80
   0  -1  -4    6.57    0.74
  -1  -1  -4  200.42    5.52
   1   1  -4  196.53    5.47
  -1   1  -4  193.29    4.94
   1  -1  -4  203.68    5.98
  -2  -1  -4   20.20    1.82
  -2   1  -4   22.41    1.59
   2  -1  -4   19.50    1.95
  -3   1   4  100.87    3.36
  -3  -1  -4   99.13    3.84
  -3   1   4  101.17    4.23
  -3   1   4   98.40    5.86
  -3   1   4   97.29    4.08
  -3  -1  -4   99.84    5.14
  -3  -1   4   95.94    3.28
  -3  -1   4   93.48    4.05
  -3  -1   4  105.07    5.71
  -3   1  -4   98.33    3.81
  -3  -1   4   94.98    4.08
  -4   1   4   22.93    3.15
  -4  -1  -4   26.07    1.99
  -4   1   4   23.06    3.28
  -4  -1  -4   25.68    2.73
  -4   1   4   22.85    3.66
  -4   1   4   21.96    1.91
  -4   1   4   23.24    1.53
  -4   1  -4   21.12    3.12
  -4   1  -4   20.07    1.74
  -4  -1   4   24.16    1.99
  -4  -1   4   24.69    1.55
  -4   1  -4   16.20    2.42
  -4   1  -4   17.96    2.33
  -4  -1   4   19.82    2.56
   0  -2  -4  480.30   11.03
   0  -2  -4  464.44    9.77
  -1  -2  -4  183.96    4.53
  -1  -2  -4  177.95    5.41
  -1  -2   4  175.74    5.35
  -1   2  -4  173.65    4.36
   1  -2  -4  178.74    5.99
  -2  -2  -4  122.92    5.21
   2  -2  -4  128.18    5.77
  -2  -2   4  119.36    5.12
  -3  -2  -4   63.61    4.29
  -3  -2  -4   65.90    3.02
  -3   2   4   66.86    6.37
  -3   2   4   63.19    2.55
  -3   2   4   69.49    3.34
  -3   2   4   62.35    4.72
  -3   2   4   63.25    3.24
  -3   2   4   68.65    5.75
  -3   2  -4   62.55    4.20
  -3  -2   4   63.14    3.15
  -3  -2   4   76.13    4.64
  -3  -2   4   69.11    3.30
  -3  -2   4   68.34    2.63
  -3   2  -4   65.21    3.02
  -4   2   4   36.36    4.36
  -4  -2  -4   39.70    2.46
  -4  -2  -4   41.93    3.43
  -4   2   4   40.38    2.01
  -4   2   4   34.70    2.37
  -4   2   4   31.89    1.95
  -4   2   4   37.95    4.75
  -4   2   4   36.51    3.74
  -4   2  -4   34.89    3.65
  -4   2  -4   37.10    2.33
  -4   2  -4   30.14    3.02
  -4  -2   4   36.01    1.84
  -4  -2   4   39.90    3.61
  -4  -2   4   37.72    2.45
  -4   2  -4   32.40    3.79
   0  -3  -4  954.12   20.89
   0  -3  -4  973.47   18.93
  -1  -3  -4   56.30    2.88
  -1  -3  -4   57.83    2.34
   1  -3  -4   60.88    3.47
  -1  -3   4   59.66    2.99
  -2  -3  -4   52.23    3.40
  -2  -3   4   49.72    3.36
   2  -3  -4   51.67    3.86
  -3   3   4   40.13    4.75
  -3   3   4   37.23    2.32
  -3   3   4   36.22    3.82
  -3  -3  -4   38.16    3.39
  -3   3   4   38.54    2.46
  -3   3   4   40.01    2.45
  -3   3   4   35.60    1.87
  -3   3   4   39.36    5.04
  -3  -3   4   40.64    1.90
  -3   3  -4   38.11    2.23
  -3  -3   4   43.61    3.33
  -3  -3   4   38.57    2.41
  -3   3  -4   39.98    4.33
  -3   3  -4   37.95    2.18
  -3  -3   4   36.96    2.25
  -4   3   4    0.31    0.17
  -4  -3  -4    0.49    0.26
  -4   3   4   -0.06    0.34
  -4   3   4    1.19    0.80
  -4   3   4    0.54    0.22
  -4   3   4    0.43    0.93
  -4   3   4   -0.55    1.91
  -4  -3  -4    1.73    0.82
  -4  -3  -4    0.25    0.40
  -4  -3   4    0.94    0.86
  -4   3  -4   -0.51    0.29
  -4  -3   4   -0.61    0.38
  -4   3  -4    0.37    0.20
  -4  -3   4   -0.03    0.17
  -4  -3   4   -0.07    0.22
  -4   3  -4   -0.15    1.19
   0  -4  -4  175.51    6.15
   0  -4  -4  178.73    5.15
  -1  -4  -4  185.44    6.38
   1  -4  -4  194.19    7.43
  -2  -4  -4  140.79    6.30
   2  -4  -4  140.78    7.23
  -3   4   4   10.88    2.10
  -3   4   4    8.57    1.95
  -3  -4  -4   17.04    1.42
  -3   4   4   13.75    1.49
  -3   4   4    9.90    2.20
  -3   4  -4   14.94    1.41
  -3  -4   4   17.02    1.55
  -3  -4   4   14.62    1.93
  -3   4  -4   14.28    1.32
  -4  -4  -4   50.99    3.55
  -4   4   4   46.81    2.35
  -4  -4  -4   48.48    2.46
  -4  -4   4   46.84    2.54
  -4  -4   4   47.17    2.44
  -4  -4   4   43.46    3.19
   0  -5  -4   41.35    2.28
   0  -5  -4   39.00    2.85
  -1  -5  -4    8.91    1.31
   1  -5  -4   10.27    1.72
  -2   5   4    9.73    1.15
  -2  -5  -4   10.51    1.67
  -2   5  -4   12.12    1.45
   2  -5  -4   11.51    2.12
  -2   5  -4   10.25    1.36
  -2   5  -4   11.00    1.17
  -3   5   4   20.02    1.75
  -3   5   4   20.14    1.88
  -3   5  -4   21.43    1.69
  -3   5  -4   22.52    1.84
  -4  -5  -4   35.72    2.64
  -4   5   4   34.20    1.85
  -4   5  -4   32.96    1.55
  -4  -5   4   34.01    2.03
   0  -6  -4   21.23    2.29
  -1  -6  -4   47.53    3.30
   1  -6  -4   47.79    4.00
  -2   6   4  111.83    4.76
  -2  -6  -4  109.26    6.05
  -2   6   4  119.05    5.39
  -2   6   4  108.16    5.48
  -2  -6  -4  111.83    6.53
  -2   6   4  111.91    4.44
  -2   6  -4  111.22    4.35
   2  -6  -4  120.59    7.43
  -2   6  -4  109.78    5.21
  -2   6  -4  116.53    4.89
  -3   6   4  114.71    4.51
  -3   6   4  115.80    4.91
  -3  -6   4  112.95    4.64
  -3   6  -4  117.14    4.63
  -3   6  -4  110.88    4.26
  -4  -6  -4   18.72    1.55
  -4   6   4   23.98    1.31
  -4  -6  -4   25.58    1.53
  -4   6  -4   19.37    1.02
  -4  -6   4   23.18    1.49
   0  -7   4    3.86    1.19
   0   7   4    3.69    0.99
   0   7   4    3.70    0.79
   0  -7  -4    4.41    1.10
   0   7  -4    2.86    0.74
  -1   7   4   18.95    1.99
  -1   7   4   19.97    2.14
  -1   7   4   18.53    1.76
  -1   7   4   18.77    1.54
  -1  -7  -4   19.36    2.44
  -1   7  -4   19.04    1.69
  -1   7  -4   18.37    1.50
   1  -7  -4   18.10    2.58
  -1  -7   4   13.13    2.15
  -1   7  -4   17.47    1.81
   1   7   4   16.68    2.34
  -2   7   4    2.68    0.66
  -2   7   4    1.84    0.42
  -2  -7  -4    2.61    0.94
  -2   7   4    2.34    0.62
  -2   7   4    3.90    1.02
  -2   7  -4    2.20    0.77
  -2   7  -4    1.70    0.57
   2   7   4    3.75    0.83
  -2  -7   4    3.32    0.71
  -2   7  -4    2.83    0.79
  -3   7   4   81.04    3.91
  -3   7   4   89.76    3.60
  -3   7   4   83.68    3.84
  -3   7  -4   85.44    3.68
   3   7   4   80.52    4.57
  -3   7  -4   85.56    3.39
  -3  -7   4   83.37    3.66
   0  -8  -4   12.31    2.03
   0   8  -4   14.82    1.63
   0   8   4   12.65    1.57
  -1  -8  -4   82.88    5.76
  -1   8   4   84.97    4.05
  -1   8   4   84.82    4.67
  -1   8   4   86.72    4.58
  -1   8  -4   77.94    4.27
  -1   8  -4   79.89    3.90
  -1   8  -4   84.12    3.62
   1   8   4   81.00    5.43
  -2   8   4    7.15    0.98
  -2   8   4    5.44    1.18
  -2  -8  -4    5.34    1.35
  -2   8   4    6.50    1.07
  -2   8  -4    4.76    0.75
  -2   8  -4    6.27    0.97
   2   8   4    5.90    1.36
  -2  -8   4    5.09    0.84
  -2   8  -4    5.19    1.01
  -3   8   4   27.77    1.80
  -3  -8  -4   29.87    1.77
  -3   8   4   28.94    1.68
  -3  -8   4   26.04    1.71
  -3   8  -4   28.61    1.61
   0   9  -4    2.25    0.76
   0  -9  -4    1.57    0.70
  -1   9   4   46.02    2.73
  -1  -9  -4   39.87    3.82
   1   9  -4   41.93    2.46
  -1   9   4   44.05    3.11
  -1   9  -4   45.26    2.42
   1   9   4   45.95    3.73
  -1   9  -4   44.81    2.99
  -2   9   4   24.22    1.81
  -2   9   4   25.48    2.14
  -2   9   4   23.83    1.60
  -2   9  -4   25.79    2.04
   2   9   4   24.27    2.28
  -2   9  -4   24.40    1.58
  -3   9   4    2.99    0.39
  -3   9  -4    2.61    0.35
   0  10  -4   40.95    2.38
   0 -10  -4   35.52    3.36
   0  10   4   46.13    2.84
  -1 -10  -4   65.72    4.79
  -1  10   4   85.96    4.06
   1  10   4   82.60    3.80
  -1  10  -4   83.95    3.74
  -2  10   4   21.66    1.57
   2  10   4   21.42    1.36
  -2  10  -4   25.09    1.65
  -2  10  -4   24.00    1.24
   0  11  -4   47.63    2.05
   0  11   4   51.54    2.51
  -1  11   4   12.27    1.10
   1  11  -4   11.01    0.87
   1  11   4   10.19    0.89
  -1  11  -4   11.38    0.89
   0   0  -5   -0.11    0.18
   1   0  -5    4.25    0.66
  -1   0  -5    5.10    0.69
   2   0  -5  319.11    9.31
  -2   0  -5  323.02    8.78
  -3   0  -5   45.48    2.53
  -3   0   5   44.36    2.64
  -3   0  -5   45.49    2.42
  -3   0   5   44.13    2.62
  -3   0   5   42.66    2.06
  -3   0   5   42.21    3.63
  -4   0   5   57.69    5.14
  -4   0   5   41.79    3.90
  -4   0  -5   44.31    2.67
  -4   0   5   47.37    2.70
  -4   0   5   52.45    5.44
  -4   0   5   46.85    2.28
  -4   0   5   45.53    2.85
  -4   0  -5   43.88    3.75
   0  -1  -5   48.67    2.38
   0   1  -5   50.05    2.24
   1   1  -5  288.39    7.52
  -1  -1  -5  287.21    7.39
   1  -1  -5  280.28    7.92
  -1   1  -5  280.57    6.85
  -2  -1  -5    6.67    1.07
  -2   1  -5    7.18    0.94
   2  -1  -5    5.48    1.03
  -3  -1  -5  230.15    8.46
  -3  -1  -5  221.97    6.52
  -3  -1  -5  226.05    6.52
  -3   1   5  219.52    5.46
  -3   1   5  221.38    7.07
  -3   1   5  212.25    9.61
  -3   1   5  215.01    6.89
  -3   1  -5  215.29    6.55
  -3  -1   5  233.90    9.48
  -3  -1   5  228.05    5.51
  -3   1  -5  219.12    6.41
  -3  -1   5  226.56    7.05
  -3  -1   5  221.55    6.95
  -4  -1  -5   94.29    5.53
  -4  -1  -5   95.20    4.05
  -4   1   5   93.03    4.19
  -4   1   5   95.34    3.28
  -4   1   5   92.70    7.55
  -4   1   5   98.14    7.18
  -4   1   5   93.83    3.96
  -4   1   5   92.13    6.12
  -4  -1   5   90.01    5.81
  -4   1  -5   88.59    3.91
  -4   1  -5   77.59    5.58
  -4   1  -5   85.46    5.44
  -4  -1   5   89.33    3.16
  -4  -1   5   88.14    4.07
  -4   1  -5   87.93    6.68
   0  -2  -5   79.71    2.80
   0  -2  -5   81.54    3.36
  -1  -2  -5  123.07    4.42
  -1  -2  -5  131.28    3.95
   1  -2  -5  128.99    5.03
  -2  -2  -5   99.80    4.73
   2  -2  -5  111.84    5.49
  -3   2   5   13.05    1.12
  -3   2   5   12.97    2.39
  -3   2   5   11.24    2.51
  -3  -2  -5   13.30    1.27
  -3   2   5   11.18    2.01
  -3  -2  -5   13.80    1.89
  -3   2   5   11.60    1.28
  -3   2   5   10.86    1.23
  -3  -2   5   13.03    1.35
  -3  -2   5   15.60    1.53
  -3  -2   5   11.93    1.09
  -3  -2   5   13.43    1.87
  -3   2  -5   11.29    1.20
  -4   2   5   17.72    1.71
  -4  -2  -5   18.20    2.19
  -4   2   5   16.63    2.81
  -4   2   5   16.48    1.28
  -4   2   5   18.24    2.61
  -4   2   5   17.81    3.20
  -4  -2  -5   16.24    1.54
  -4  -2   5   16.42    1.25
  -4   2  -5   15.23    1.47
  -4  -2   5   19.31    2.48
  -4  -2   5   19.70    1.78
  -4   2  -5   12.88    1.83
  -4   2  -5   13.50    2.41
   0  -3  -5  550.17   11.79
   0  -3  -5  551.68   13.41
  -1  -3  -5  370.77    9.05
  -1  -3  -5  354.04    9.48
   1  -3  -5  360.42   10.73
  -2  -3  -5   26.05    2.43
   2  -3  -5   24.97    2.66
  -3   3   5    0.47    0.36
  -3   3   5    1.53    0.60
  -3   3   5    0.53    0.34
  -3   3   5    1.24    1.00
  -3   3   5   -0.43    1.15
  -3   3   5   -0.52    1.03
  -3  -3  -5    1.33    0.60
  -3   3   5    1.64    0.48
  -3   3  -5    1.96    0.43
  -3  -3   5    1.08    0.42
  -3   3  -5    1.41    0.39
  -3  -3   5    0.58    0.33
  -3  -3   5   -0.48    0.29
  -3  -3   5    2.43    0.55
  -4  -3  -5    7.87    0.78
  -4   3   5    5.61    2.04
  -4   3   5    7.30    0.89
  -4  -3  -5    8.42    1.04
  -4  -3  -5    9.98    1.60
  -4   3   5    8.86    1.88
  -4  -3   5    8.89    1.04
  -4  -3   5    7.95    1.55
  -4   3  -5    8.26    0.98
  -4  -3   5    8.41    1.07
  -4   3  -5    8.94    0.81
   0  -4  -5   57.64    2.62
   0  -4  -5   54.84    3.23
  -1  -4  -5  245.06    7.75
   1  -4  -5  275.86    9.38
  -2  -4  -5   15.71    2.02
   2  -4  -5   16.23    2.33
  -3   4   5    9.45    2.58
  -3   4   5    8.53    1.19
  -3   4   5    9.46    3.22
  -3  -4   5    6.86    0.99
  -3   4  -5    8.19    0.98
  -3   4  -5    8.35    1.03
  -3  -4   5    8.33    1.12
  -3  -4   5    7.59    1.33
  -4  -4  -5   20.25    1.51
  -4  -4  -5   20.22    2.15
  -4   4   5   18.37    1.42
  -4  -4   5   17.81    1.47
  -4  -4   5   16.50    1.86
   0  -5  -5  227.83    8.21
   0  -5  -5  234.17    6.75
  -1  -5  -5   49.69    3.22
   1  -5  -5   51.08    3.91
  -2  -5  -5   63.21    4.32
  -2   5   5   59.55    3.15
   2  -5  -5   64.66    5.15
  -2   5  -5   60.78    3.21
  -2   5  -5   61.66    2.95
  -2   5  -5   57.55    3.42
  -3   5   5  135.59    5.42
  -3   5  -5  136.30    5.11
  -3   5  -5  130.88    4.79
  -3  -5   5  137.56    5.29
  -4  -5  -5    4.92    1.00
  -4   5   5    5.12    0.66
  -4  -5   5    3.99    0.66
   0  -6  -5   18.03    2.22
  -1  -6  -5   10.16    1.54
   1  -6  -5   11.38    2.04
  -2   6   5   26.76    2.37
  -2   6   5   25.68    1.91
  -2  -6  -5   28.26    2.96
  -2   6   5   24.62    2.46
  -2   6   5   27.21    2.13
  -2  -6  -5   28.77    2.92
  -2   6  -5   25.92    1.87
   2  -6  -5   25.90    3.40
  -2   6  -5   27.19    2.37
  -2  -6   5   29.11    2.13
  -2   6  -5   28.98    2.20
  -3   6   5   12.83    1.33
  -3   6   5   12.57    1.43
  -3  -6   5   15.68    1.52
  -3   6  -5   13.63    1.40
  -3   6  -5   13.55    1.28
  -4  -6  -5    8.86    1.08
  -4   6   5    9.95    0.82
  -4  -6  -5   11.26    1.00
  -4  -6   5   10.32    0.95
   0   7  -5   59.97    2.94
   0  -7   5   49.46    4.42
   0   7   5   62.30    3.62
   0   7  -5   58.74    3.30
   0   7   5   68.02    4.76
   0  -7  -5   67.67    4.63
  -1   7   5   31.46    2.06
  -1   7   5   32.73    2.30
  -1   7   5   32.06    2.66
  -1   7   5   32.21    2.73
  -1  -7  -5   33.36    3.24
   1  -7  -5   33.29    3.67
   1   7   5   32.33    3.27
  -1   7  -5   29.58    2.38
  -1   7  -5   31.80    2.06
  -1   7  -5   31.96    2.30
  -2   7   5   19.64    1.71
  -2  -7  -5   21.76    2.70
  -2   7   5   20.07    2.08
  -2   7   5   19.76    1.87
  -2   7   5   19.60    2.15
  -2   7  -5   21.91    1.94
  -2   7  -5   21.66    2.15
  -2  -7   5   22.50    1.92
  -2   7  -5   20.52    1.68
  -3   7   5   22.64    1.65
  -3   7   5   19.89    1.75
   3   7   5   19.86    2.15
  -3   7  -5   22.04    1.55
  -3  -7   5   20.83    1.70
   0   8  -5   43.58    2.50
   0  -8  -5   42.81    3.89
   0   8  -5   38.46    2.69
   0   8   5   42.57    3.86
   0   8   5   42.95    3.02
  -1   8   5   10.27    1.55
  -1   8   5    9.01    1.20
  -1  -8  -5    9.42    1.78
  -1   8   5   10.11    1.43
  -1   8  -5   10.06    1.41
   1  -8  -5    8.72    1.57
  -1   8  -5   10.50    1.14
   1   8   5   11.44    1.97
  -2   8   5   31.22    2.51
  -2   8   5   31.72    2.69
  -2   8   5   32.39    2.38
  -2  -8  -5   27.64    3.15
  -2   8   5   31.06    2.06
  -2   8  -5   33.14    2.07
  -2   8  -5   36.36    2.72
  -2  -8   5   35.02    2.29
   2   8   5   34.73    3.20
  -3   8   5   14.38    1.26
  -3   8   5   14.28    1.13
  -3  -8  -5   14.12    1.15
  -3   8  -5   14.74    1.10
  -3  -8   5   12.70    1.16
   3   8   5   11.91    1.32
   0   9  -5  288.12    9.12
   0  -9  -5  302.82   12.99
  -1   9   5   19.82    2.01
  -1  -9  -5   18.73    2.56
  -1   9   5   22.60    2.20
  -1   9   5   21.32    1.77
   1   9   5   21.89    2.60
  -1   9  -5   23.42    2.03
  -1   9  -5   22.70    1.66
  -2   9   5    1.87    0.55
  -2   9   5    1.85    0.35
  -2   9   5    1.79    0.46
  -2   9  -5    1.03    0.31
   2   9   5    0.52    0.43
  -2   9  -5    1.18    0.44
  -3   9   5    2.87    0.38
  -3   9  -5    2.66    0.35
   0 -10  -5    7.96    1.52
   0  10  -5    8.30    0.99
   0  10   5   10.21    1.25
  -1  10   5   24.14    1.97
  -1 -10  -5   20.29    2.43
  -1  10  -5   25.06    1.83
   1  10   5   24.68    1.96
  -2  10   5   28.11    1.69
  -2  10  -5   29.03    1.75
   2  10   5   25.30    1.53
  -2  10  -5   29.07    1.37
   0  11   5    0.91    0.26
   0  11  -5    0.90    0.24
   0  11  -5    1.10    0.23
  -1  11   5   42.32    2.11
   1  11  -5   39.72    1.77
  -1  11  -5   39.41    1.78
   1  11   5   44.26    2.03
   0   0  -6   22.34    1.65
   1   0  -6   49.12    2.64
  -1   0  -6   49.13    2.41
  -2   0  -6  106.97    4.47
   2   0  -6   97.72    4.59
  -3   0  -6   11.93    1.26
  -3   0  -6   11.44    1.18
  -3   0   6   13.23    1.13
  -3   0   6   10.86    1.31
  -3   0   6   11.22    1.32
  -3   0   6   11.45    1.85
  -4   0   6   28.70    4.14
  -4   0   6   29.45    3.72
  -4   0   6   30.52    3.35
  -4   0  -6   29.12    2.10
  -4   0   6   29.26    2.27
  -4   0  -6   27.76    2.87
  -4   0   6   29.67    2.12
  -4   0   6   28.20    1.73
   0  -1  -6  125.61    4.61
   0   1  -6  142.24    4.52
   1   1  -6   73.56    3.21
  -1  -1  -6   75.80    3.22
   1  -1  -6   69.77    3.41
  -1   1  -6   69.02    2.87
  -2  -1  -6   61.16    3.49
  -2   1  -6   69.93    3.24
   2  -1  -6   62.81    3.82
  -3   1   6  111.08    4.58
  -3   1   6  118.15    4.67
  -3  -1  -6  111.31    4.28
  -3   1   6  113.84    3.59
  -3  -1  -6  112.34    4.22
  -3   1   6  110.43    6.58
  -3  -1   6  114.02    4.58
  -3  -1   6  112.58    6.29
  -3  -1   6  110.49    4.53
  -3  -1   6  109.68    3.53
  -3   1  -6  112.88    4.36
  -3   1  -6  111.60    4.19
  -4   1   6   50.64    3.00
  -4   1   6   52.42    5.46
  -4   1   6   52.71    5.09
  -4   1   6   54.88    4.61
  -4   1   6   53.28    2.83
  -4  -1  -6   57.71    4.15
  -4  -1  -6   55.14    2.94
  -4   1   6   51.65    2.34
  -4  -1   6   59.86    5.63
  -4   1  -6   43.62    3.84
  -4  -1   6   51.10    2.95
  -4   1  -6   46.27    3.76
  -4   1  -6   47.01    2.70
  -4   1  -6   45.86    4.51
  -4  -1   6   58.11    4.44
  -4  -1   6   53.55    2.34
  -4  -1   6   54.74    4.80
   0  -2  -6    8.50    1.09
   0  -2  -6    9.19    0.94
  -1  -2  -6   96.75    3.97
  -1  -2  -6   96.05    3.63
   1  -2  -6   98.86    4.45
  -2  -2  -6  222.31    7.69
   2  -2  -6  226.97    8.61
  -3  -2  -6   21.54    2.49
  -3   2   6   24.47    3.80
  -3   2   6   24.33    3.44
  -3   2   6   20.63    1.80
  -3   2   6   18.18    1.67
  -3   2   6   19.86    1.38
  -3   2   6   20.17    2.76
  -3   2   6   19.78    1.73
  -3  -2  -6   21.67    1.66
  -3  -2   6   22.58    2.57
  -3  -2   6   19.34    1.70
  -3  -2   6   19.99    1.66
  -3  -2   6   19.68    1.36
  -3   2  -6   18.18    1.55
  -3  -2   6   21.42    1.85
  -4  -2  -6   25.42    2.63
  -4   2   6   24.59    3.66
  -4   2   6   25.97    1.61
  -4   2   6   20.61    3.00
  -4   2   6   23.91    3.08
  -4   2   6   22.64    1.84
  -4   2   6   25.16    1.82
  -4  -2  -6   23.07    1.82
  -4  -2   6   21.88    1.41
  -4   2  -6   21.80    1.72
  -4  -2   6   22.74    1.85
  -4  -2   6   24.61    2.75
  -4   2  -6   18.84    2.24
  -4   2  -6   22.45    1.66
   0  -3  -6  829.45   19.21
   0  -3  -6  836.11   17.09
  -1  -3  -6  167.85    5.88
  -1  -3  -6  176.51    5.56
   1  -3  -6  177.69    6.89
  -2  -3  -6    6.10    1.22
   2  -3  -6    5.34    1.38
  -3   3   6    6.31    0.72
  -3   3   6    7.34    1.06
  -3  -3  -6    6.88    1.49
  -3   3   6    6.89    2.03
  -3   3   6    7.00    1.08
  -3   3   6    8.11    1.85
  -3   3   6    6.83    1.04
  -3   3   6   12.19    3.17
  -3  -3   6    5.04    0.83
  -3  -3   6    5.65    0.88
  -3  -3   6    4.39    0.95
  -3  -3   6    5.48    0.70
  -3  -3   6    5.95    0.98
  -3   3  -6    6.56    0.89
  -4   3   6    0.86    0.32
  -4  -3  -6    0.89    0.34
  -4  -3  -6    1.27    0.40
  -4  -3   6    2.34    0.57
  -4  -3   6    0.72    0.58
  -4  -3   6    1.21    0.66
  -4   3  -6    0.92    0.34
   0  -4  -6   61.37    2.87
   0  -4  -6   62.84    3.62
  -1  -4  -6   49.88    3.08
   1  -4  -6   55.77    3.85
  -2  -4  -6  173.83    7.39
   2  -4  -6  173.25    8.41
  -3   4   6    1.85    0.52
  -3   4   6    3.78    2.05
  -3   4   6    0.39    0.18
  -3  -4   6    1.88    0.65
  -3  -4   6    1.14    0.40
  -3  -4   6    1.21    0.54
  -3   4  -6    1.96    0.53
  -3   4  -6    2.02    0.49
  -4  -4  -6    1.77    0.60
  -4   4   6    1.15    0.26
  -4  -4  -6    1.32    0.40
  -4  -4   6    0.99    0.34
  -4  -4   6    0.71    0.53
   0  -5  -6   95.37    5.06
   0  -5  -6  101.64    4.04
  -1  -5  -6  153.92    6.21
   1  -5  -6  152.51    7.34
  -2   5   6   38.73    2.52
  -2   5   6   39.60    2.89
  -2  -5  -6   42.91    3.57
   2  -5  -6   48.32    4.47
  -2   5  -6   36.57    2.72
  -2   5  -6   40.02    2.30
  -2   5  -6   43.06    2.65
  -3   5   6   68.87    3.61
  -3  -5   6   67.90    3.51
  -3   5  -6   66.79    3.29
  -3   5  -6   67.14    3.12
  -4   5   6   38.59    1.97
  -4  -5  -6   38.06    2.74
  -4  -5   6   33.54    2.00
   0  -6  -6    6.42    1.39
  -1  -6  -6   28.31    2.62
   1  -6  -6   32.59    3.45
  -2  -6  -6   55.84    4.24
  -2   6   6   58.38    3.67
  -2   6   6   57.32    3.24
  -2  -6  -6   60.77    4.48
  -2   6   6   53.18    3.66
  -2  -6   6   60.86    3.24
   2  -6  -6   59.60    5.32
  -2   6  -6   59.00    2.97
  -2   6  -6   57.84    3.27
  -2   6  -6   54.59    3.49
  -3   6   6   19.53    1.83
  -3   6   6   21.04    1.73
  -3   6  -6   18.81    1.50
  -3  -6   6   21.25    1.86
  -4   6   6   23.10    1.29
  -4  -6  -6   20.93    1.63
  -4  -6  -6   22.39    1.39
   0   7   6    6.87    1.13
   0   7  -6    5.59    0.82
   0   7   6    6.11    1.42
   0  -7  -6    6.50    1.32
   0   7  -6    4.81    0.83
  -1   7   6   12.16    1.64
  -1   7   6   10.85    1.57
  -1   7   6   11.87    1.35
  -1  -7  -6   12.30    1.93
   1  -7  -6   13.73    1.92
  -1   7  -6   12.73    1.28
   1   7   6   14.25    2.16
  -1   7  -6   13.62    1.53
  -1   7  -6   12.61    1.54
  -1   7  -6   12.92    1.37
   1  -7  -6   13.50    2.30
  -2   7   6    8.26    1.27
  -2   7   6    7.69    1.23
  -2   7   6    8.69    1.09
  -2  -7  -6    8.85    1.66
  -2   7   6    7.05    1.13
  -2   7  -6    9.52    1.27
  -2   7  -6    8.58    1.06
  -2   7  -6    7.83    1.28
  -2  -7   6    8.47    1.17
  -3   7   6  114.66    4.67
  -3   7   6  120.62    4.34
  -3  -7   6  117.74    4.58
  -3   7  -6  116.69    4.07
   3   7   6  115.68    5.96
   0   8  -6   -1.16    0.56
   0   8  -6    0.25    0.23
   0   8   6    1.27    0.99
   0  -8  -6    0.75    0.65
   0   8   6    1.03    0.55
  -1   8   6   37.47    2.63
  -1   8   6   40.09    3.06
  -1  -8  -6   38.74    3.77
  -1   8   6   45.72    3.32
   1   8   6   42.23    3.84
  -1   8  -6   38.67    2.83
  -1   8  -6   41.43    2.63
  -1   8  -6   40.00    2.36
   1  -8  -6   41.41    3.69
  -2   8   6    8.18    1.01
  -2   8   6    8.55    1.18
  -2   8   6    7.65    1.19
  -2   8   6    5.78    1.01
  -2  -8  -6    7.16    1.58
  -2   8  -6    8.51    1.02
  -2   8  -6    8.19    1.28
  -2  -8   6    8.62    1.13
   2   8   6    6.89    1.58
  -3   8   6   10.08    1.04
  -3   8   6   11.11    0.97
  -3  -8   6    9.86    1.01
  -3   8  -6   11.37    0.92
   3   8   6   10.26    1.27
   0  -9  -6    5.10    1.30
   0   9   6    5.09    1.03
   0   9  -6    4.97    0.86
  -1   9   6  150.01    5.40
  -1   9   6  145.67    6.19
  -1   9   6  138.58    6.12
  -1  -9  -6  140.37    7.88
  -1   9  -6  145.96    4.86
   1  -9  -6  133.64    7.31
   1   9   6  146.48    7.45
  -1   9  -6  146.19    5.79
  -2   9   6   35.51    2.41
  -2   9   6   35.26    1.91
  -2   9   6   35.44    2.20
  -2   9  -6   36.20    1.92
  -2   9  -6   35.53    2.36
   2   9   6   34.98    2.89
  -3   9   6    7.74    0.69
  -3   9  -6    6.86    0.54
  -3  -9   6    5.19    1.01
   0  10   6   13.97    1.52
   0 -10  -6   10.09    1.68
   0  10  -6   11.40    1.13
   0  10  -6   11.72    1.15
  -1 -10  -6   68.49    4.74
  -1  10   6   81.68    3.88
  -1  10  -6   83.86    3.51
  -2  10   6    2.68    0.47
  -2  10  -6    1.93    0.41
   2  10   6    2.15    0.43
   0  11   6   90.26    3.44
   0  11  -6   77.29    2.51
   1  11  -6    3.37    0.46
  -1  11   6    2.93    0.50
  -1  11  -6    2.05    0.32
   1  11   6    2.64    0.42
   0   0  -7   -0.12    0.20
  -1   0  -7   61.79    2.95
   1   0  -7   56.33    3.09
  -2   0  -7  107.84    4.66
   2   0  -7   94.92    4.73
  -3   0   7   69.33    3.50
  -3   0   7   68.92    2.75
  -3   0  -7   70.22    3.22
  -3   0  -7   69.65    3.25
  -3   0   7   68.30    3.48
  -3   0   7   71.50    5.05
  -4   0  -7    8.12    1.12
  -4   0  -7    7.07    1.42
  -4   0   7   10.36    2.60
  -4   0   7    7.03    1.19
  -4   0   7    6.40    1.54
  -4   0   7    8.43    1.79
  -4   0   7    8.94    1.16
  -4   0   7    8.60    0.96
   0   1  -7  133.47    4.67
   0  -1  -7  128.03    4.93
   1   1  -7   40.82    2.42
  -1  -1  -7   42.57    2.49
   1  -1  -7   40.25    2.69
  -2  -1  -7   38.70    2.81
  -2   1  -7   38.30    2.47
   2  -1  -7   34.75    2.91
  -3   1   7   33.80    3.51
  -3  -1  -7   38.54    2.30
  -3   1   7   35.34    4.02
  -3   1   7   35.88    4.40
  -3   1   7   33.78    1.87
  -3  -1  -7   35.44    2.25
  -3   1   7   31.45    2.27
  -3   1   7   35.80    2.44
  -3  -1   7   33.26    1.86
  -3   1  -7   34.08    2.25
  -3  -1   7   36.09    2.44
  -3   1  -7   32.91    2.14
  -3  -1   7   37.19    3.45
  -3  -1   7   34.53    2.40
  -4  -1  -7   55.72    2.92
  -4   1   7   52.78    3.04
  -4   1   7   52.96    2.87
  -4   1   7   57.45    4.70
  -4   1   7   56.03    5.59
  -4  -1  -7   54.88    4.03
  -4   1   7   52.14    2.40
  -4   1   7   54.69    5.13
  -4   1  -7   46.36    3.74
  -4  -1   7   53.92    5.21
  -4  -1   7   52.14    2.33
  -4   1  -7   48.62    4.36
  -4   1  -7   54.44    2.87
  -4  -1   7   52.76    3.06
  -4  -1   7   53.28    2.91
  -4  -1   7   56.37    4.93
  -4   1  -7   51.78    2.73
  -4  -1   7   54.02    4.36
   0  -2  -7    7.45    0.89
   0  -2  -7    8.17    1.12
   1   2  -7  462.61   11.28
  -1  -2  -7  454.82   11.45
  -1  -2  -7  469.82   11.49
   1  -2  -7  445.30   12.56
  -2  -2  -7  194.92    7.30
   2  -2  -7  198.11    8.23
  -3   2   7   11.64    2.48
  -3   2   7   10.04    1.31
  -3  -2  -7   10.04    1.15
  -3   2   7   11.15    2.43
  -3   2   7    9.57    1.21
  -3   2   7   10.38    1.24
  -3  -2  -7   10.95    1.82
  -3   2   7    9.16    0.95
  -3   2   7   10.06    2.02
  -3  -2  -7    9.49    1.14
  -3  -2   7    9.39    0.98
  -3   2  -7   10.02    1.22
  -3  -2   7   11.43    1.38
  -3   2  -7   10.98    1.19
  -3  -2   7    9.02    1.18
  -3  -2   7   10.64    1.74
  -3  -2   7    8.72    1.12
  -4   2   7   10.96    1.22
  -4  -2  -7   11.32    1.26
  -4   2   7   10.21    2.16
  -4   2   7   12.29    2.48
  -4   2   7    5.86    1.58
  -4  -2   7   11.53    1.85
  -4   2  -7    9.47    1.12
  -4   2  -7    9.49    1.05
  -4  -2   7   10.90    1.33
   0  -3  -7  106.32    3.87
   0  -3  -7  106.28    4.79
  -1  -3  -7  123.54    4.64
  -1  -3  -7  114.36    4.81
   1  -3  -7  126.53    5.79
   1  -3  -7  113.88    3.58
  -2  -3  -7   36.36    3.02
   2  -3  -7   40.13    3.66
  -3  -3  -7   39.71    3.69
  -3   3   7   39.72    4.80
  -3   3   7   40.24    2.57
  -3   3   7   50.79    5.88
  -3   3   7   40.80    2.06
  -3   3   7   37.74    4.08
  -3   3   7   42.33    2.72
  -3   3   7   42.68    2.73
  -3  -3   7   40.39    2.00
  -3   3  -7   40.68    2.37
  -3  -3   7   37.04    2.49
  -3  -3   7   39.81    3.41
  -3  -3   7   40.76    2.60
  -3  -3   7   39.24    2.45
  -4  -3  -7    9.19    1.10
  -4   3   7    8.56    0.99
  -4  -3   7    6.64    0.93
  -4  -3   7    9.18    1.06
  -4  -3   7    9.50    1.58
  -4   3  -7    8.58    0.97
   0  -4  -7  264.50    8.96
   0  -4  -7  269.15    7.45
  -1  -4  -7  290.05    8.93
   1  -4  -7  297.34   10.60
  -2  -4  -7   86.30    5.09
   2  -4  -7   90.68    6.00
  -3   4   7   10.93    1.29
  -3   4   7   10.80    1.34
  -3  -4   7   10.95    1.36
  -3  -4   7    8.00    1.10
  -3   4  -7   10.49    1.15
  -3   4  -7   10.45    1.12
  -4   4   7    7.89    0.92
  -4  -4  -7   11.74    1.15
  -4  -4   7    6.76    0.90
  -4  -4   7    6.73    1.23
   0  -5  -7   18.58    2.25
   0  -5  -7   13.56    1.37
  -1  -5  -7   47.84    3.26
   1  -5  -7   47.40    4.02
  -2   5   7   23.02    1.92
  -2   5   7   22.65    2.17
  -2  -5  -7   23.48    2.69
  -2  -5   7   23.16    1.89
  -2   5  -7   21.16    2.02
  -2   5  -7   22.62    1.86
   2  -5  -7   25.57    3.29
  -2   5  -7   22.33    1.69
  -3   5   7   92.53    4.30
  -3  -5   7   95.40    4.27
  -3   5  -7   89.58    3.67
  -4   5   7    4.09    0.55
  -4  -5  -7    4.87    0.94
  -4   5   7    3.71    0.59
  -4  -5   7    3.23    0.58
   0  -6  -7    1.37    0.69
  -1  -6  -7   28.73    2.71
  -1  -6  -7   25.67    2.56
  -1   6   7   25.14    2.30
  -1   6  -7   31.06    2.19
  -1   6  -7   26.50    1.80
   1  -6  -7   30.88    3.44
  -2   6   7  193.32    6.73
  -2   6   7  182.53    7.37
  -2  -6  -7  201.26    9.37
  -2   6   7  187.73    7.62
  -2  -6  -7  184.81    8.36
   2  -6  -7  190.65   10.14
  -2   6  -7  185.79    7.30
  -2   6  -7  197.82    6.80
  -2  -6   7  202.24    6.77
  -2   6  -7  187.67    6.13
  -3   6   7   18.67    1.79
  -3   6   7   18.97    1.64
  -3   6  -7   18.44    1.47
  -3  -6   7   17.55    1.70
  -4   6   7   53.50    2.08
  -4  -6  -7   55.30    2.26
  -4  -6  -7   46.25    2.59
   0   7  -7    1.06    0.48
   0   7   7    1.58    1.11
   0  -7  -7    0.23    0.50
   0   7   7    0.88    0.30
   0   7  -7    0.40    0.27
  -1   7   7   19.48    1.80
  -1  -7  -7   20.89    2.53
  -1   7   7   18.94    2.06
  -1   7   7   19.74    2.08
   1  -7  -7   20.01    2.40
  -1   7  -7   20.39    1.76
  -1   7  -7   21.19    1.69
  -1   7  -7   20.21    1.98
   1  -7  -7   19.83    2.89
   1   7   7   22.07    2.82
  -2   7   7    8.31    1.22
  -2  -7  -7    8.70    1.64
  -2   7   7    8.43    1.14
  -2   7   7    7.82    1.27
  -2   7   7    7.84    1.33
  -2  -7   7    7.95    1.17
  -2   7  -7    7.65    1.11
  -2   7  -7    8.96    1.08
  -2   7  -7   10.18    1.42
  -3   7   7   12.81    1.25
  -3   7   7   13.72    1.43
  -3   7  -7   15.05    1.22
  -3  -7   7   12.52    1.26
   3   7   7    9.63    1.57
   0   8   7   22.04    2.80
   0   8   7   26.89    2.36
   0   8  -7   23.16    1.97
   0  -8  -7   27.71    3.10
   0   8  -7   27.86    1.96
  -1   8   7    7.51    1.11
  -1   8   7    7.99    1.30
  -1  -8  -7    8.70    1.74
  -1   8   7    8.23    1.35
  -1   8  -7    8.50    1.36
   1   8   7    9.75    1.84
  -1   8  -7    7.54    0.98
  -1   8  -7    9.07    1.17
   1  -8  -7    7.72    1.47
  -2   8   7  202.12    6.96
  -2   8   7  202.68    6.33
  -2   8   7  199.57    7.59
  -2  -8  -7  189.67    9.64
  -2   8   7  199.05    7.41
  -2   8  -7  208.86    7.43
   2   8   7  207.66    9.46
  -2  -8   7  205.04    6.72
  -2   8  -7  199.70    6.15
  -3   8   7   30.00    1.86
  -3   8   7   32.28    1.72
  -3   8  -7   32.73    1.62
  -3  -8   7   27.41    3.42
   3   8   7   30.33    2.34
   0   9   7   77.49    4.23
   0  -9  -7   78.10    5.48
   0   9  -7   78.11    3.71
  -1   9   7    4.47    0.95
  -1   9   7    3.10    0.68
  -1  -9  -7    2.83    0.95
  -1   9   7    3.34    0.69
   1  -9  -7    1.78    0.68
  -1   9  -7    3.47    0.82
   1   9   7    3.46    1.11
  -1   9  -7    3.23    0.65
  -1   9  -7    3.71    0.65
  -2   9   7    5.59    0.71
  -2  -9  -7    4.68    1.14
  -2   9   7    5.62    0.79
  -2   9   7    6.61    1.01
  -2   9  -7    7.16    0.80
   2   9   7    6.41    1.15
  -2   9  -7    5.61    0.87
  -3   9   7    4.06    0.47
  -3   9  -7    4.30    0.40
   0  10  -7    8.45    0.97
   0  10   7    8.79    1.27
   0 -10  -7    8.46    1.53
   0  10  -7    8.16    0.89
  -1 -10  -7   40.43    3.43
  -1  10   7   47.07    2.73
  -1  10  -7   47.57    2.43
  -2  10   7   38.10    1.76
   2  10   7   41.87    2.09
   0  11  -7   41.83    1.61
   0  11   7   52.20    2.42
  -1  11   7   22.13    1.32
   1  11  -7   21.33    1.13
   1  11   7   22.82    1.38
   0   0  -8    1.49    0.39
  -1   0  -8   11.55    1.32
   1   0  -8   11.85    1.46
  -2   0  -8  353.68    9.96
   2   0  -8  316.22   10.44
  -3   0  -8   90.48    3.87
  -3   0   8   92.49    4.18
  -3   0  -8   96.28    3.89
  -3   0   8   93.06    3.30
  -3   0   8   90.39    5.88
  -3   0   8   91.05    4.16
  -4   0   8   98.52    4.14
  -4   0  -8   89.27    5.94
  -4   0   8   98.25    4.35
  -4   0   8   99.68    6.31
  -4   0   8   97.72    7.26
  -4   0  -8   90.86    5.36
  -4   0  -8   96.57    3.93
  -4   0   8  102.28    7.03
  -4   0  -8   95.64    3.97
   0   1  -8  508.91   12.40
   0  -1  -8  480.07   12.81
  -1  -1  -8  129.43    4.92
  -1  -1  -8  122.48    4.71
   1   1  -8  122.93    4.81
   1  -1  -8  117.54    5.25
  -2  -1  -8   13.53    1.74
  -2   1  -8   15.57    1.59
   2  -1  -8   15.89    2.00
  -3   1   8   49.41    4.65
  -3   1   8   40.17    3.83
  -3   1   8   41.66    2.71
  -3   1   8   46.25    4.90
  -3   1   8   43.35    2.16
  -3  -1  -8   40.71    2.44
  -3  -1  -8   44.05    2.54
  -3  -1   8   42.31    3.76
  -3  -1   8   40.46    2.10
  -3   1  -8   44.68    2.58
  -3  -1   8   40.53    2.64
  -3   1  -8   45.51    2.58
  -3  -1   8   42.76    2.75
  -4  -1  -8   22.68    1.81
  -4   1   8   25.31    3.20
  -4  -1  -8   23.28    2.54
  -4   1   8   26.13    3.59
  -4   1   8   25.25    3.40
  -4   1   8   24.96    1.90
  -4  -1   8   20.94    2.98
  -4  -1   8   19.58    3.20
  -4   1  -8   20.93    2.36
  -4  -1   8   20.91    2.62
  -4   1  -8   22.86    1.74
  -4   1  -8   24.90    1.84
  -4  -1   8   19.69    1.75
  -4  -1   8   22.57    1.82
   0  -2  -8  227.10    7.69
  -1  -2  -8   12.24    1.31
  -1  -2  -8   11.91    1.46
   1   2  -8   11.33    1.28
   1  -2  -8   11.45    1.53
  -2  -2  -8  115.39    5.54
   2  -2  -8  116.49    6.23
  -3  -2  -8   45.29    3.82
  -3   2   8   46.07    4.93
  -3   2   8   45.43    5.00
  -3   2   8   42.22    2.17
  -3   2   8   43.83    4.15
  -3   2   8   39.13    2.68
  -3   2   8   39.67    2.66
  -3  -2  -8   44.88    2.52
  -3  -2  -8   44.00    2.52
  -3  -2   8   45.53    2.83
  -3   2  -8   43.44    2.51
  -3   2  -8   39.63    2.44
  -3  -2   8   47.65    5.38
  -3  -2   8   42.20    2.71
  -3  -2   8   43.40    2.13
  -3  -2   8   41.14    2.55
  -3  -2   8   41.56    3.66
  -4  -2  -8    0.85    0.35
  -4   2   8    1.30    0.91
  -4   2   8    0.85    1.13
  -4   2   8    0.66    0.33
  -4   2  -8    1.09    0.33
  -4  -2   8    0.78    0.97
  -4  -2   8    1.00    0.70
  -4   2  -8    0.14    0.33
  -4  -2   8    0.93    0.45
  -4  -2   8    1.15    0.56
   0  -3  -8   27.46    2.44
   0  -3  -8   27.13    1.89
  -1  -3  -8   18.02    1.85
  -1  -3  -8   18.85    1.74
   1  -3  -8   20.28    2.29
   1  -3  -8   17.09    1.31
  -2  -3  -8  147.48    6.66
   2  -3  -8  154.83    7.78
  -3   3   8   70.89    6.87
  -3   3   8   55.28    5.06
  -3   3   8   61.86    3.43
  -3   3   8   63.00    2.63
  -3  -3  -8   64.14    3.02
  -3   3   8   60.58    3.34
  -3   3   8   69.32    6.25
  -3   3   8   65.34    3.39
  -3  -3   8   63.54    3.40
  -3  -3   8   65.19    2.66
  -3   3  -8   64.32    3.11
  -3  -3   8   60.23    4.35
  -3  -3   8   59.91    3.16
  -3  -3   8   62.71    3.36
  -4  -3  -8   21.06    1.64
  -4   3   8   20.29    1.49
  -4  -3   8   19.11    2.15
  -4   3  -8   18.30    1.40
  -4  -3   8   19.53    1.59
   0  -4  -8   22.83    1.80
   0  -4  -8   21.70    2.30
  -1  -4  -8  212.91    7.57
   1  -4  -8  221.88    8.99
  -2  -4  -8  144.64    6.92
   2  -4  -8  144.88    8.07
  -3   4   8   13.57    1.58
  -3   4   8   14.88    1.47
  -3  -4   8   12.77    1.42
  -3   4  -8   13.77    1.32
  -3   4  -8   14.28    1.27
  -3  -4   8   16.01    1.60
  -4  -4  -8   39.77    2.13
  -4   4   8   44.20    2.25
  -4  -4   8   35.90    2.14
  -4  -4   8   33.70    2.59
   0  -5  -8  252.88    9.63
   0  -5  -8  254.12    7.60
  -1  -5  -8  117.21    5.45
   1  -5  -8  112.60    6.65
  -2   5   8   13.54    1.74
  -2   5   8   11.51    1.36
  -2  -5  -8   13.48    2.00
  -2   5  -8   14.18    1.62
  -2  -5   8   11.03    1.33
   2  -5  -8   16.45    2.70
  -2   5  -8   13.58    1.32
  -2   5  -8   13.00    1.39
  -3   5   8   39.58    2.69
  -3  -5   8   38.43    2.61
  -3   5  -8   36.99    2.16
  -3   5  -8   38.13    2.11
  -4   5   8    6.69    0.75
  -4   5   8    5.07    0.59
  -4  -5  -8    6.09    1.05
  -4  -5   8    5.19    1.00
  -4  -5   8    4.07    0.88
   0  -6  -8    5.24    1.31
  -1  -6  -8   44.85    3.52
  -1   6   8   42.93    2.54
  -1   6   8   38.47    2.97
  -1  -6  -8   31.61    2.87
  -1   6  -8   42.68    2.36
   1  -6  -8   45.10    4.32
  -1   6  -8   41.51    2.71
  -1   6  -8   38.63    2.46
  -2   6   8   38.51    2.65
  -2   6   8   35.87    2.90
  -2  -6  -8   38.85    3.54
  -2  -6   8   37.54    2.55
  -2   6  -8   35.78    2.53
  -2   6  -8   39.13    2.85
  -2   6  -8   37.21    2.30
  -3   6   8   58.12    3.24
  -3   6   8   56.92    2.99
  -3   6  -8   55.50    2.66
  -3  -6   8   55.84    3.12
  -4   6   8    4.57    0.54
  -4  -6  -8    3.23    0.47
  -4  -6  -8    2.92    0.58
   0   7   8   16.80    2.44
   0   7   8   16.36    1.86
   0   7  -8   16.23    1.47
   0  -7  -8   18.07    2.28
  -1   7   8  119.02    4.96
  -1   7   8  114.11    5.67
  -1  -7  -8  122.06    6.90
  -1   7   8  112.10    5.73
  -1   7  -8  109.17    4.74
   1  -7  -8  124.62    6.70
  -1   7  -8  119.02    4.50
   1   7   8  123.78    7.21
  -1   7  -8  116.17    5.18
   1  -7  -8  109.77    7.30
  -2   7   8   14.24    1.43
  -2  -7  -8   12.96    2.06
  -2   7   8   12.90    1.62
  -2   7   8   13.73    1.58
  -2   7   8   12.26    1.49
  -2  -7   8   14.83    1.62
  -2   7  -8   11.42    1.50
  -2   7  -8   12.99    1.33
  -3   7   8    8.35    1.08
  -3   7   8    8.00    0.95
  -3   7  -8    7.59    0.86
   3   7   8    7.80    1.48
  -3  -7   8    7.97    0.98
   0   8  -8   19.26    1.75
   0   8   8   22.64    2.80
   0   8   8   22.84    2.21
   0  -8  -8   22.29    2.68
  -1   8   8   77.99    3.94
  -1  -8  -8   76.52    5.50
  -1   8   8   79.82    4.56
  -1   8   8   77.29    4.47
  -1   8  -8   76.31    3.44
   1  -8  -8   80.93    5.35
   1   8   8   77.00    5.58
  -1   8  -8   78.02    3.69
  -1   8  -8   74.56    4.04
  -2   8   8    9.93    1.36
  -2   8   8   10.56    1.11
  -2   8   8    8.87    1.28
  -2   8   8   10.49    1.32
  -2  -8  -8    9.23    1.69
  -2   8  -8   12.58    1.24
  -2  -8   8   10.56    1.21
   2   8   8   13.87    2.18
  -2   8  -8   11.55    1.38
  -3   8   8    4.41    0.56
  -3   8   8    4.28    0.66
   3   8   8    3.54    0.75
  -3  -8   8    4.18    1.23
  -3   8  -8    4.99    0.58
   0   9   8   38.07    2.79
   0  -9  -8   35.28    3.47
   0   9  -8   34.17    2.26
  -1  -9  -8    1.34    0.73
  -1   9   8    0.82    0.41
  -1   9   8    0.64    0.29
  -1   9   8    0.78    0.37
   1   9   8    1.28    0.75
  -1   9  -8    1.58    0.42
  -1   9  -8    0.82    0.34
  -1   9  -8    1.04    0.37
   1  -9  -8    0.72    0.60
  -2  -9  -8   28.56    2.82
  -2   9   8   35.54    2.19
  -2   9   8   34.88    2.14
  -2   9   8   33.86    1.74
  -2   9  -8   37.69    2.32
  -2   9  -8   36.10    1.86
   2   9   8   38.12    3.05
   0  10  -8   55.28    2.63
   0  10   8   59.01    3.28
   0 -10  -8   53.49    4.05
  -1 -10  -8   42.68    3.47
  -1  10   8   48.77    2.69
  -1  10  -8   47.91    2.35
   2  10  -8   14.29    0.96
   2  10   8   12.82    1.09
   0  11  -8    0.63    0.16
   0  11   8    0.18    0.21
   1  11  -8    9.54    0.67
   1  11   8   10.25    0.85
   0   0  -9   -0.18    0.27
   1   0  -9   27.68    2.36
  -1   0  -9   30.85    2.33
  -2   0  -9   16.01    1.79
   2   0  -9   16.49    2.01
  -3   0   9   13.48    2.22
  -3   0   9   16.45    1.34
  -3   0  -9   13.74    1.41
  -3   0  -9   15.58    1.50
  -3   0   9   15.40    1.68
  -4   0   9    6.85    1.81
  -4   0  -9    5.07    0.84
  -4   0   9    3.68    1.47
  -4   0   9    6.25    0.96
  -4   0  -9    4.00    0.69
  -4   0   9    5.49    1.59
  -4   0  -9    3.35    0.97
   0   1  -9   73.54    3.60
   0  -1  -9   69.97    3.78
  -1  -1  -9  425.93   11.47
   1   1  -9  418.71   11.36
  -1  -1  -9  446.27   11.44
   1  -1  -9  395.64   12.02
  -2  -1  -9   28.30    2.55
   2  -1  -9   22.20    2.50
  -2   1  -9   24.43    2.13
  -3  -1  -9  133.61    4.81
  -3   1   9  121.62    5.12
  -3  -1  -9  126.34    4.69
  -3   1   9  131.03    8.07
  -3  -1  -9  138.31    4.93
  -3   1   9  125.93    7.42
  -3   1   9  127.43    5.26
  -3   1   9  131.18    4.13
  -3   1   9  136.77    9.02
  -3   1  -9  129.83    4.83
  -3   1  -9  131.70    4.81
  -3  -1   9  129.66    7.24
  -3  -1   9  125.92    4.03
  -3  -1   9  127.96    5.25
  -3  -1   9  126.67    5.17
  -4  -1  -9   14.65    1.41
  -4   1   9   10.22    2.21
  -4   1   9   11.80    2.16
  -4   1   9   16.57    2.62
  -4   1   9   14.75    1.39
  -4  -1  -9   13.81    1.92
  -4   1  -9   13.33    1.31
  -4  -1   9   12.48    2.32
  -4  -1   9   14.65    1.46
  -4  -1   9   16.55    2.35
  -4   1  -9   15.27    1.41
  -4   1  -9   13.63    1.81
  -4  -1   9   14.30    2.66
   0  -2  -9  115.41    5.36
   1   2  -9  238.58    7.53
  -1  -2  -9  235.77    7.80
  -1  -2  -9  239.00    7.57
   1  -2  -9  230.66    8.57
  -2  -2  -9   26.31    2.64
   2  -2  -9   23.58    2.76
  -3  -2  -9   44.01    2.56
  -3   2   9   42.91    2.80
  -3   2   9   42.83    2.21
  -3   2   9   47.44    5.07
  -3   2   9   48.61    5.31
  -3  -2  -9   43.25    2.56
  -3  -2  -9   44.45    3.82
  -3   2   9   48.82    4.55
  -3   2   9   42.14    2.80
  -3   2  -9   39.82    2.47
  -3  -2   9   41.06    2.64
  -3  -2   9   39.76    3.63
  -3  -2   9   41.07    2.75
  -3  -2   9   44.02    2.23
  -3  -2   9   40.97    2.68
  -3   2  -9   43.52    2.55
  -3  -2   9   46.44    5.33
  -4   2   9   32.81    2.10
  -4   2   9   28.77    3.91
  -4   2   9   36.47    3.85
  -4  -2  -9   35.38    2.21
  -4   2  -9   32.58    2.02
  -4   2  -9   34.40    2.08
  -4  -2   9   34.49    3.13
  -4  -2   9   32.15    3.64
  -4  -2   9   35.91    3.50
   0  -3  -9   20.80    1.80
   0  -3  -9   23.33    2.38
  -1  -3  -9   51.65    3.04
  -1  -3  -9   47.66    3.22
   1  -3  -9   49.38    3.78
  -2  -3  -9  138.79    6.61
   2  -3  -9  143.43    7.69
  -3   3   9  195.28   11.04
  -3  -3  -9  181.59    5.83
  -3   3   9  198.02   11.97
  -3  -3  -9  184.72    5.76
  -3   3   9  180.98    6.67
  -3   3  -9  181.35    5.87
  -3  -3   9  174.12    6.42
  -3  -3   9  177.76    8.34
  -3  -3   9  186.42    6.53
  -3  -3   9  213.19   12.54
  -3   3  -9  178.13    5.85
  -3  -3   9  185.10    6.28
  -4   3   9   52.44    2.53
  -4  -3  -9   52.59    2.65
  -4  -3   9   52.83    4.35
  -4   3  -9   50.94    2.43
  -4  -3   9   52.29    3.57
  -4  -3   9   47.96    3.78
   0  -4  -9  115.03    4.60
   0  -4  -9  106.74    5.67
  -1  -4  -9   35.88    2.87
   1  -4  -9   36.28    3.44
  -2  -4  -9    1.69    0.65
  -2   4   9    2.14    0.51
  -2  -4   9    1.65    0.38
   2  -4  -9    2.95    1.11
  -2   4  -9    2.80    0.70
  -3   4   9    4.11    0.88
  -3   4   9    5.33    0.89
  -3  -4   9    5.11    0.93
  -3   4  -9    3.74    0.59
  -3   4  -9    4.97    0.69
  -4  -4  -9   34.24    1.92
  -4   4   9   33.37    1.93
  -4  -4   9   28.53    2.78
  -4  -4   9   33.19    2.74
   0  -5  -9  312.22    9.06
   0  -5  -9  320.15   11.53
  -1  -5  -9   72.88    4.26
   1  -5  -9   69.33    5.23
  -2  -5  -9   66.23    4.78
  -2   5   9   57.31    3.77
  -2   5   9   67.34    3.57
  -2   5  -9   60.24    3.56
  -2   5  -9   65.26    3.37
  -2   5  -9   64.45    3.05
  -2  -5   9   67.37    3.52
  -2   5  -9   60.18    2.78
   2  -5  -9   72.01    5.92
  -3   5   9   -0.37    0.39
  -3   5  -9    0.95    0.32
  -3  -5   9   -0.34    0.68
  -3  -5   9    0.99    0.32
  -3   5  -9    0.74    0.18
  -4   5   9   39.38    1.91
  -4   5   9   50.54    2.23
  -4  -5  -9   50.69    3.11
   0  -6  -9  108.95    6.49
  -1   6   9   50.58    2.87
  -1  -6  -9   53.97    3.98
  -1  -6  -9   48.09    3.67
  -1   6   9   46.63    3.33
  -1   6  -9   51.23    2.65
   1  -6  -9   51.46    4.76
  -1  -6   9   47.54    2.82
  -1   6  -9   49.79    2.91
   1  -6  -9   52.37    3.79
  -1   6  -9   49.03    3.02
  -2   6   9    7.59    1.32
  -2  -6  -9    7.53    1.50
  -2   6   9    6.69    1.08
  -2  -6   9    7.31    1.17
  -2   6  -9    6.52    1.08
  -2   6  -9    7.62    1.04
  -3   6   9    6.65    1.01
  -3   6   9   10.27    1.20
  -3   6  -9    9.30    0.97
  -3  -6   9    8.94    1.14
  -3  -6   9    5.69    1.83
  -4   6   9    6.90    0.62
  -4  -6  -9    6.12    0.62
   0   7   9  208.69   10.16
   0  -7  -9  224.22    9.95
   0   7   9  209.85    8.27
   0   7  -9  202.70    6.52
  -1   7   9   56.19    3.21
  -1  -7  -9   59.40    4.54
  -1   7   9   55.15    3.79
  -1   7   9   57.49    3.77
  -1   7  -9   54.25    3.35
   1  -7  -9   57.76    4.30
  -1   7  -9   54.04    2.87
   1  -7  -9   56.88    5.18
  -1   7  -9   52.74    3.07
   1   7   9   57.13    4.71
  -2  -7  -9   81.99    5.47
  -2   7   9   54.99    3.64
  -2   7   9   54.57    3.26
  -2   7   9   51.19    2.93
  -2   7  -9   54.38    2.84
  -2  -7   9   50.93    3.17
  -2   7  -9   53.15    3.34
  -3   7   9    3.09    0.58
  -3   7   9    2.88    0.61
  -3  -7   9    1.83    0.47
  -3  -7   9    2.16    1.14
  -3   7  -9    2.11    0.41
   3   7   9    3.66    1.51
   0   8   9    2.35    0.95
   0   8   9    2.99    0.79
   0  -8  -9    2.52    0.90
  -1   8   9   30.24    2.33
  -1   8   9   30.76    2.69
  -1  -8  -9   31.63    3.31
  -1   8   9   32.12    2.66
  -1   8  -9   29.36    2.00
   1   8   9   30.81    3.46
  -1   8  -9   28.75    2.31
  -1   8  -9   30.26    2.15
   1  -8  -9   30.33    3.06
  -2  -8  -9   16.01    2.24
  -2   8   9   14.84    1.38
  -2   8   9   17.26    1.62
  -2   8   9   16.98    1.77
  -2   8   9   16.20    1.67
  -2   8  -9   18.82    1.76
  -2   8  -9   18.96    1.48
   2   8   9   18.26    2.43
  -3   8   9   22.42    1.31
  -3   8   9   23.81    1.57
  -3  -8   9   24.54    2.75
  -3  -8   9   17.78    2.56
  -3   8  -9   23.35    1.24
   3   8   9   21.43    1.94
   0   9   9    6.95    1.12
   0  -9  -9    5.39    1.28
  -1   9   9   19.43    1.87
  -1  -9  -9   21.58    2.60
  -1   9   9   21.19    2.03
  -1   9  -9   18.80    1.66
   1   9   9   20.49    2.56
   1  -9  -9   17.16    2.17
  -1   9  -9   20.39    1.51
  -1   9  -9   18.17    1.43
  -2  -9  -9   14.00    1.91
  -2   9   9   18.97    1.51
  -2   9   9   17.21    1.36
  -2   9  -9   20.49    1.33
   2   9   9   21.17    2.23
  -2   9  -9   21.69    1.67
   0  10  -9    0.46    0.27
   0  10   9    0.74    0.39
   0 -10  -9    0.20    0.41
   1  10  -9    9.53    0.96
  -1 -10  -9    8.32    1.40
  -1  10   9    9.69    1.09
  -1  10  -9    8.80    0.86
   2  10  -9    9.69    0.72
   2  10   9    8.17    0.82
   0  11   9   78.55    2.97
   0   0 -10 1000.00   22.79
   1   0 -10   56.26    3.56
  -1   0 -10   64.04    3.68
  -2   0 -10   67.10    4.03
   2   0 -10   64.03    4.22
  -3   0 -10   11.71    1.33
  -3   0  10   12.38    2.28
  -3   0 -10   10.82    1.16
  -3   0  10   10.79    1.17
  -3   0  10   14.24    2.86
  -3   0  10   10.11    1.80
  -3   0  10   10.61    1.40
  -3   0 -10   10.24    1.25
  -4   0 -10    2.75    0.96
  -4   0 -10    2.77    0.66
  -4   0  10    2.38    0.58
  -4   0  10    2.38    1.00
  -4   0  10    2.03    1.01
  -4   0  10    3.31    1.29
  -4   0 -10    3.01    0.69
   0  -1 -10  339.34   10.45
   0   1 -10  356.35   10.05
   1   1 -10   74.54    3.86
  -1  -1 -10   67.43    3.87
  -1  -1 -10   73.38    3.91
   1  -1 -10   70.82    4.27
  -2  -1 -10  148.58    6.60
  -2   1 -10  142.41    5.87
   2  -1 -10  135.73    6.94
  -3   1  10    3.95    1.07
  -3   1  10    4.89    1.60
  -3  -1 -10    4.02    0.75
  -3   1  10    6.02    1.16
  -3   1  10    5.07    1.56
  -3   1  10    5.16    0.97
  -3   1  10    5.29    0.79
  -3  -1 -10    5.12    0.87
  -3   1  10    4.28    1.31
  -3  -1 -10    5.32    0.82
  -3  -1  10    6.35    2.25
  -3   1 -10    5.03    0.83
  -3  -1  10    5.17    1.01
  -3  -1  10    5.51    1.27
  -3   1 -10    4.41    0.85
  -3   1 -10    6.74    1.02
  -3  -1  10    5.13    0.73
  -3  -1  10    5.02    0.94
  -4   1  10   37.86    3.95
  -4  -1 -10   41.27    2.41
  -4  -1 -10   40.96    3.30
  -4   1  10   41.99    4.64
  -4   1  10   41.52    2.49
  -4  -1  10   38.26    3.79
  -4   1 -10   40.33    2.33
  -4  -1  10   38.87    3.54
  -4  -1  10   41.06    4.25
  -4   1 -10   36.83    2.88
  -4  -1  10   38.43    2.41
  -4   1 -10   40.07    2.34
   0  -2 -10    6.76    1.25
   1   2 -10  110.78    4.83
  -1  -2 -10  116.65    5.00
  -1  -2 -10  116.94    5.34
   1  -2 -10  109.92    5.77
  -2  -2 -10  114.58    5.97
   2  -2 -10  104.98    6.37
  -3   2  10   25.10    3.54
  -3  -2 -10   26.33    1.95
  -3  -2 -10   24.53    2.91
  -3   2  10   23.05    2.10
  -3  -2 -10   26.31    1.95
  -3   2  10   24.26    3.28
  -3   2  10   26.25    2.81
  -3   2  10   30.14    4.19
  -3  -2  10   24.98    2.07
  -3  -2  10   28.01    2.26
  -3   2 -10   23.20    1.83
  -3   2 -10   23.90    1.85
  -3   2 -10   27.40    2.03
  -3  -2  10   26.23    2.13
  -3  -2  10   26.76    4.13
  -3  -2  10   26.02    2.84
  -4   2  10   97.13    3.90
  -4  -2 -10   92.34    3.77
  -4   2  10  108.54    6.80
  -4  -2  10   89.68    6.05
  -4   2 -10   97.83    3.73
  -4  -2  10   98.18    5.94
  -4  -2  10   97.03    5.60
  -4   2 -10   90.94    3.61
   0  -3 -10    7.29    1.41
   0  -3 -10    7.30    1.13
  -1  -3 -10   69.60    3.75
  -1  -3 -10   68.65    4.09
   1  -3 -10   66.52    4.62
  -2  -3 -10   58.27    4.30
   2  -3 -10   53.46    4.67
  -3  -3 -10   37.54    2.32
  -3   3  10   49.13    5.23
  -3   3  10   34.85    4.89
  -3   3  10   43.26    2.89
  -3  -3 -10   37.83    2.28
  -3  -3  10   36.40    2.61
  -3   3 -10   40.20    2.38
  -3  -3  10   38.43    2.51
  -3  -3  10   39.93    5.10
  -3   3 -10   38.71    2.41
  -3   3 -10   39.46    2.39
  -3  -3  10   38.06    3.33
  -3  -3  10   39.74    2.78
  -4  -3 -10   16.63    1.38
  -4   3  10   16.53    1.32
  -4  -3  10   13.93    1.81
  -4   3 -10   17.32    1.31
  -4  -3  10   20.07    2.62
  -4  -3  10   17.38    2.25
   0  -4 -10   76.01    3.82
   0  -4 -10   67.81    4.61
  -1  -4 -10   74.26    4.41
   1  -4 -10   80.77    5.50
  -2   4  10    9.58    1.31
  -2  -4 -10    8.96    1.76
   2  -4 -10   10.09    2.13
  -2   4 -10    9.89    1.35
  -2  -4  10   10.11    1.28
  -2   4 -10    9.26    1.02
  -3   4  10  144.14    5.78
  -3   4  10  145.42    5.37
  -3  -4  10  140.98    5.71
  -3   4 -10  139.45    4.94
  -3   4 -10  141.05    5.02
  -4  -4 -10   12.16    1.08
  -4   4  10   10.19    0.93
  -4   4  10   12.17    1.12
  -4  -4  10   13.22    1.69
   0  -5 -10   83.29    5.48
   0  -5 -10   81.05    4.16
  -1  -5 -10  100.74    5.38
   1  -5 -10  114.66    7.04
  -2  -5 -10    9.10    1.64
  -2   5  10    6.51    1.29
  -2   5  10    6.64    1.08
  -2   5 -10    9.61    1.39
  -2  -5  10    9.24    1.26
   2  -5 -10    8.76    2.03
  -2   5 -10    8.44    1.04
  -3   5  10   80.62    4.02
  -3  -5  10   82.09    4.06
  -3  -5  10   76.91    8.05
  -3   5 -10   78.17    3.23
  -3   5 -10   79.90    3.29
  -4  -5 -10    5.42    0.89
  -4   5  10    3.68    0.51
  -4   5  10    5.48    0.69
   0   6 -10   59.86    2.92
   0  -6 -10   65.32    4.38
   0   6  10   61.79    4.72
   0  -6 -10   57.96    4.80
  -1   6  10  161.91    7.15
  -1   6  10  169.31    6.05
  -1  -6 -10  179.22    8.41
  -1  -6 -10  167.11    7.41
  -1   6 -10  158.73    5.91
  -1   6 -10  165.96    6.30
  -1  -6  10  162.38    6.08
  -1   6 -10  173.18    5.64
   1  -6 -10  171.47    8.07
   1  -6 -10  168.52    9.26
  -2   6  10    1.51    0.52
  -2   6  10    0.68    0.34
  -2  -6 -10    1.76    0.61
  -2  -6  10    1.26    0.45
  -2   6 -10    0.93    0.35
  -2   6 -10    0.76    0.50
  -3   6  10    4.99    0.87
  -3   6  10    5.63    0.98
  -3   6 -10    5.54    0.75
  -3  -6  10    5.41    0.92
  -3  -6  10    5.25    1.90
  -4  -6 -10    6.41    0.60
  -4   6  10    5.48    0.53
   0   7  10    0.50    0.54
   0  -7 -10    1.71    0.74
   0   7  10   -0.27    0.43
  -1   7  10   46.61    3.36
  -1  -7 -10   51.09    4.19
  -1   7  10   45.70    3.48
  -1   7  10   52.71    3.10
  -1   7 -10   49.26    2.71
   1  -7 -10   50.47    4.01
  -1   7 -10   51.98    3.01
   1   7  10   53.27    4.58
  -1   7 -10   49.11    3.08
  -2   7  10   52.80    3.53
  -2   7  10   53.47    2.93
  -2  -7 -10   52.63    4.32
  -2   7  10   49.07    3.06
  -2  -7  10   51.46    3.18
  -2   7 -10   52.01    3.23
  -2   7 -10   52.32    2.76
  -3   7  10   31.09    2.13
  -3   7  10   29.13    1.85
  -3   7 -10   30.26    1.67
  -3  -7  10   28.03    3.87
   3   7  10   28.82    2.85
  -3  -7  10   33.44    3.75
   0   8  10   90.18    6.05
   0  -8 -10   99.51    6.25
   0   8  10  101.03    5.18
  -1  -8 -10   12.87    2.02
  -1   8  10   14.48    1.77
  -1   8  10   12.59    1.69
  -1   8  10   12.37    1.43
  -1   8 -10   11.48    1.19
  -1   8 -10   13.11    1.50
  -1   8 -10   11.86    1.34
   1  -8 -10   10.92    1.76
   1   8  10   14.20    2.32
  -2  -8 -10    0.83    0.51
  -2   8  10    0.95    0.46
  -2   8  10    1.45    0.54
  -2   8  10    0.69    0.22
   2   8  10   -0.52    0.70
  -2   8 -10    0.27    0.16
  -2   8 -10    0.50    0.20
  -3   8  10   42.06    2.09
  -3   8  10   41.71    1.76
  -3  -8  10   47.36    3.78
   3   8  10   39.72    2.65
  -3   8 -10   43.30    1.69
  -3  -8  10   31.45    3.39
   0   9  10   35.61    2.69
   0  -9 -10   32.63    3.26
   0   9 -10   32.67    2.24
  -1   9  10    7.81    1.11
  -1  -9 -10    6.31    1.35
  -1   9  10    7.07    1.17
  -1   9 -10    7.80    0.87
   1   9  10    6.66    1.31
   1  -9 -10    5.87    1.18
  -1   9 -10    6.72    0.96
  -2  -9 -10   20.41    2.21
  -2   9  10   26.30    1.74
  -2   9 -10   28.35    1.53
   2   9  10   29.72    2.62
   0 -10 -10    3.35    0.88
   0  10  10    4.69    0.81
   0  10 -10    4.56    0.70
   1  10 -10    9.56    0.94
  -1 -10 -10    7.95    1.38
  -1  10  10    8.81    0.97
  -1  10 -10    8.09    0.79
   2  10  10    8.03    0.77
  -2 -10  10    8.04    1.52
   0  11  10   24.44    1.35
   0   0 -11    1.46    0.64
   1   0 -11  420.97   12.53
  -1   0 -11  446.31   12.44
   2   0 -11   10.27    1.66
  -2   0 -11   11.53    1.64
  -3   0 -11    2.45    0.43
  -3   0  11    3.99    1.00
  -3   0 -11    4.08    0.79
  -3   0 -11    3.99    0.75
  -3   0  11    4.00    1.49
  -3   0  11    4.05    0.97
  -3   0  11    3.71    1.47
  -3   0  11    5.45    1.49
  -4   0  11    5.76    0.89
  -4   0 -11    5.74    1.10
  -4   0 -11    4.52    0.73
  -4   0  11    5.54    1.45
  -4   0  11    6.44    1.68
   0   1 -11   35.95    2.65
   0  -1 -11   35.17    2.81
  -1  -1 -11  168.37    6.71
   1   1 -11  155.11    6.13
  -1  -1 -11  156.72    6.29
   1  -1 -11  144.08    6.80
  -2  -1 -11   29.48    2.85
   2  -1 -11   23.74    2.71
  -2   1 -11   25.27    2.36
  -3  -1 -11    6.33    1.01
  -3   1  11    5.68    1.06
  -3   1  11    5.98    1.91
  -3  -1 -11    7.25    1.04
  -3   1  11    6.11    1.48
  -3   1  11    9.03    2.12
  -3   1  11    5.10    1.49
  -3  -1 -11    5.53    0.85
  -3   1 -11    4.28    0.74
  -3  -1  11    6.05    1.07
  -3  -1  11    6.48    1.88
  -3  -1  11    6.59    1.64
  -3  -1  11    5.90    1.00
  -3   1 -11    6.08    0.97
  -3   1 -11    4.83    0.74
  -4   1  11   16.87    2.41
  -4  -1 -11   15.84    1.89
  -4   1  11   14.46    1.46
  -4   1  11   14.71    2.88
  -4  -1  11   14.15    1.41
  -4  -1  11   16.81    2.50
  -4  -1  11   15.71    2.62
  -4   1 -11   15.06    1.37
  -4   1 -11   13.95    1.29
  -4  -1  11    9.73    1.78
   0  -2 -11  194.50    7.82
   1   2 -11   64.31    3.75
  -1  -2 -11   71.83    4.27
  -1  -2 -11   71.90    3.92
   1  -2 -11   66.11    4.61
  -2  -2 -11   37.49    3.44
   2  -2 -11   34.11    3.69
  -3   2  11  158.82    6.37
  -3   2  11  163.80   10.40
  -3  -2 -11  157.93    5.53
  -3   2  11  176.81   10.18
  -3   2  11  177.96    8.18
  -3  -2 -11  169.41    5.66
  -3  -2  11  163.46    6.33
  -3  -2  11  161.79    8.14
  -3  -2  11  154.43    6.02
  -3  -2  11  147.81    5.98
  -3   2 -11  161.93    5.62
  -3  -2  11  155.91   10.96
  -3   2 -11  164.42    5.61
  -3   2 -11  171.03    5.77
  -4  -2 -11    9.89    1.10
  -4   2  11    8.53    1.02
  -4  -2  11    9.51    1.70
  -4   2 -11    9.39    1.01
  -4  -2  11    9.94    1.85
  -4  -2  11    5.00    1.19
  -4   2 -11    9.79    1.04
   0  -3 -11    5.66    1.33
   0  -3 -11    4.21    0.93
  -1  -3 -11   25.47    2.25
  -1  -3 -11   22.62    2.34
   1  -3 -11   28.15    3.10
  -2  -3 -11  100.71    5.93
   2  -3 -11   88.54    6.37
  -3  -3 -11    1.54    0.43
  -3   3  11    0.70    0.81
  -3   3  11    1.61    0.26
  -3  -3 -11    2.34    0.57
  -3   3  11    1.77    0.68
  -3  -3  11    0.59    0.23
  -3  -3  11   -1.20    0.71
  -3   3 -11    0.71    0.41
  -3  -3  11    0.90    1.27
  -3   3 -11    1.73    0.60
  -3  -3  11    1.37    0.50
  -3   3 -11    0.94    0.44
  -4   3  11   11.43    1.09
  -4  -3 -11   10.59    1.07
  -4  -3  11   12.40    1.87
  -4   3 -11   12.24    1.08
  -4  -3  11    9.62    1.44
   0  -4 -11    0.66    0.65
   0  -4 -11   -0.07    0.41
  -1  -4 -11   63.17    4.22
   1  -4 -11   70.99    5.30
  -2   4  11  109.85    6.00
  -2  -4 -11  124.25    6.82
  -2   4  11  112.15    5.00
   2  -4 -11  119.31    7.79
  -2  -4  11  111.38    4.83
  -2   4 -11  106.12    4.26
  -2   4 -11  104.74    4.02
  -2   4 -11  109.34    4.90
  -3   4  11    1.26    0.46
  -3   4  11    0.73    0.31
  -3  -4  11    2.69    1.16
  -3   4 -11    1.45    0.47
  -3   4 -11    1.78    0.60
  -3  -4  11    0.56    0.32
  -4  -4 -11   92.40    3.26
  -4   4  11   97.45    3.53
  -4   4  11   82.75    3.16
   0  -5 -11   30.74    2.59
   0  -5 -11   36.07    3.70
  -1  -5 -11   11.07    1.82
   1  -5 -11   13.11    2.38
  -2   5  11  170.70    6.49
  -2   5  11  161.80    7.27
  -2  -5 -11  180.80    8.70
  -2   5 -11  170.45    5.71
  -2  -5  11  170.72    6.52
  -2   5 -11  171.79    6.71
   2  -5 -11  171.98    9.93
  -2   5 -11  171.92    5.65
  -3   5  11   12.46    1.48
  -3   5 -11   10.55    1.05
  -3   5 -11   10.18    0.99
  -3   5 -11   10.35    1.11
  -3  -5  11    9.69    2.37
  -3  -5  11    9.95    1.39
  -3  -5  11   10.11    2.74
  -4  -5 -11    8.11    1.07
  -4   5  11    9.23    0.83
   0   6  11  381.55   14.35
   0   6 -11  367.44    9.85
   0  -6 -11  389.73   14.60
   0  -6 -11  354.05   13.89
  -1  -6 -11   24.29    2.70
  -1   6  11   22.94    1.98
  -1  -6 -11   20.88    2.43
   1  -6 -11   23.90    2.53
   1  -6 -11   24.84    3.53
  -1   6 -11   22.97    1.78
  -1   6 -11   23.39    2.00
  -1   6 -11   21.23    1.89
  -1  -6  11   23.85    2.07
  -2  -6 -11   44.20    3.87
  -2   6  11   40.56    3.24
  -2   6  11   40.76    2.84
  -2  -6  11   43.31    3.00
  -2   6 -11   40.39    2.93
  -2   6 -11   41.22    2.48
  -3   6  11    8.91    1.09
  -3   6  11    9.23    1.22
  -3  -6  11   13.07    2.95
  -3  -6  11   12.28    2.44
  -3  -6  11    9.09    1.19
  -3   6 -11    7.92    0.82
  -3   6 -11    9.78    0.94
   0   7  11    0.96    0.47
   0   7  11    0.98    0.66
   0  -7 -11    0.82    0.65
  -1   7  11   25.50    2.57
  -1  -7 -11   28.30    3.08
  -1   7  11   27.55    2.21
  -1   7  11   27.04    2.43
  -1   7 -11   29.92    2.16
   1   7  11   26.59    3.20
   1  -7 -11   25.64    2.80
  -1   7 -11   26.88    1.98
  -1   7 -11   26.57    2.17
  -2   7  11   33.04    2.27
  -2   7  11   34.36    2.51
  -2   7  11   32.44    2.71
  -2  -7 -11   32.55    3.31
  -2   7 -11   32.11    2.48
  -2  -7  11   31.33    2.47
  -2   7 -11   34.20    2.15
  -3   7  11   13.63    1.36
  -3   7  11   11.47    1.08
  -3  -7  11   13.28    2.27
  -3   7 -11   12.64    0.97
   3   7  11   13.99    1.89
  -3  -7  11   12.59    2.42
   0   8  11   20.96    2.69
   0   8  11   19.92    2.16
   0  -8 -11   18.61    2.47
  -1  -8 -11  108.88    6.58
  -1   8  11  104.83    4.98
  -1   8  11  102.94    4.63
  -1   8  11  106.51    5.45
   1   8  11   98.36    6.44
   1  -8 -11  100.02    6.05
  -1   8 -11  103.62    4.51
  -1   8 -11  101.11    4.22
  -1   8 -11  100.51    3.98
  -2   8  11   74.40    3.97
  -2  -8 -11   67.21    4.81
  -2   8  11   71.99    3.03
  -2   8  11   70.07    3.57
  -2   8 -11   76.48    3.11
  -2   8 -11   75.03    3.64
   2   8  11   75.86    5.25
  -3   8  11   35.76    1.82
  -3   8  11   32.24    1.43
   3   8  11   31.77    2.27
  -3  -8  11   39.15    3.25
   0  -9 -11    0.73    0.47
   0   9 -11    0.96    0.37
   0   9  11   -0.32    0.47
  -1   9  11   38.82    2.76
  -1  -9 -11   38.62    3.42
  -1   9  11   34.57    2.36
   1  -9 -11   30.21    2.83
   1   9  11   36.43    3.33
  -1   9 -11   35.11    1.93
  -1   9 -11   33.56    2.08
   2   9 -11    5.50    0.67
  -2  -9 -11    4.55    0.96
  -2   9  11    4.94    0.72
   2   9  11    6.07    1.13
   0 -10 -11   10.79    1.59
   0  10 -11   12.79    1.06
   0  10  11   13.13    1.29
   1  10 -11    1.02    0.28
  -1  10  11    1.31    0.36
  -1 -10 -11    0.79    0.43
   1  10  11    1.82    0.50
   0   0 -12  586.38   15.48
   1   0 -12   27.11    2.55
  -1   0 -12   29.97    2.79
  -2   0 -12    6.66    1.35
   2   0 -12    7.50    1.47
  -3   0  12    2.91    0.96
  -3   0 -12    3.33    0.79
  -3   0  12    4.25    1.18
  -3   0 -12    4.15    0.80
  -3   0  12    4.32    0.98
  -3   0 -12    4.64    0.89
  -3   0  12    2.82    0.60
  -4   0 -12    1.36    0.57
  -4   0  12    0.77    0.70
  -4   0 -12   -0.10    0.39
  -4   0  12    0.96    0.65
  -4   0  12    0.04    0.36
   0  -1 -12    2.72    0.88
   0   1 -12    2.10    0.68
   1   1 -12   32.52    2.63
  -1  -1 -12   29.81    2.82
   1  -1 -12   29.67    2.98
  -2  -1 -12  322.47   11.18
  -2   1 -12  311.24   10.32
   2  -1 -12  279.37   11.38
  -3   1  12   37.72    4.49
  -3   1  12   36.05    2.70
  -3   1  12   37.06    3.52
  -3   1  12   37.34    4.08
  -3  -1 -12   33.07    2.29
  -3  -1 -12   33.13    2.31
  -3   1  12   33.65    3.98
  -3  -1 -12   35.03    2.35
  -3   1 -12   38.81    2.42
  -3   1 -12   34.07    2.33
  -3  -1  12   41.14    4.33
  -3  -1  12   42.86    4.26
  -3  -1  12   37.51    3.87
  -3  -1  12   30.51    4.47
  -3   1 -12   36.12    2.42
  -4   1  12   14.22    2.47
  -4   1  12   10.45    1.24
  -4  -1 -12   11.86    1.57
  -4   1 -12   10.00    1.07
  -4   1 -12    9.93    1.12
  -4  -1  12   10.05    1.74
  -4  -1  12    9.49    1.90
  -4  -1  12   11.12    1.27
   0  -2 -12   61.77    4.21
   1   2 -12   90.40    4.60
  -1  -2 -12   97.80    4.79
  -1  -2 -12   97.06    5.31
   1  -2 -12   82.15    5.42
  -2  -2 -12   96.72    5.86
   2  -2 -12   90.21    6.27
  -3   2  12   44.30    5.20
  -3   2  12   38.97    2.90
  -3   2  12   42.16    3.76
  -3  -2 -12   42.52    2.57
  -3  -2 -12   49.39    2.81
  -3   2  12   45.52    4.72
  -3  -2  12   37.74    2.73
  -3   2 -12   38.50    2.47
  -3  -2  12   40.64    5.29
  -3  -2  12   39.40    2.80
  -3   2 -12   43.48    2.61
  -3  -2  12   41.78    3.77
  -3   2 -12   42.36    2.49
  -4  -2 -12   29.38    1.90
  -4   2  12   33.13    2.08
  -4  -2  12   30.41    2.94
  -4   2 -12   30.56    1.81
  -4  -2  12   30.16    2.96
  -4   2 -12   31.59    1.96
   0  -3 -12   46.79    3.89
   0  -3 -12   43.58    3.17
  -1  -3 -12  101.89    5.60
  -1  -3 -12  101.32    4.95
   1  -3 -12   93.96    6.12
  -2   3  12   68.22    4.82
  -2  -3 -12   78.39    5.43
   2  -3 -12   73.31    5.90
  -2  -3  12   74.79    3.78
  -2   3 -12   72.94    3.37
  -3   3  12   43.88    3.63
  -3  -3 -12   40.87    2.49
  -3   3  12   40.11    2.91
  -3   3 -12   38.60    2.38
  -3   3 -12   38.51    2.32
  -3  -3  12   35.20    2.64
  -3   3 -12   39.64    2.47
  -3  -3  12   39.67    5.22
  -3  -3  12   37.68    2.57
  -4  -3 -12   25.07    1.65
  -4   3  12   29.88    1.77
  -4  -3  12   23.94    2.29
  -4   3 -12   29.92    1.72
   0  -4 -12   18.93    2.52
   0  -4 -12   15.26    1.84
  -1  -4 -12   24.54    2.67
   1  -4 -12   27.60    3.42
  -2   4  12   64.42    4.60
  -2   4  12   65.00    3.76
  -2  -4 -12   73.38    5.32
  -2   4 -12   65.95    3.16
  -2  -4  12   70.06    3.75
   2  -4 -12   70.85    6.10
  -2   4 -12   65.33    3.02
  -3   4  12   79.10    4.10
  -3  -4  12   80.61    8.29
  -3  -4  12   89.25    7.70
  -3  -4  12   73.53    3.95
  -3   4 -12   76.27    3.32
  -3   4 -12   76.21    3.44
  -4   4  12    0.78    0.27
  -4   4  12   -0.20    0.11
  -4  -4 -12    0.03    0.12
   0  -5 -12    5.57    1.49
  -1   5  12   93.88    4.37
  -1  -5 -12  103.73    5.75
  -1  -5 -12  101.13    5.78
  -1  -5  12   88.81    4.30
  -1   5 -12   97.83    3.86
  -1   5 -12   93.74    4.09
   1  -5 -12  110.74    7.34
  -2   5  12   21.16    2.01
  -2   5 -12   17.96    1.53
  -2  -5  12   17.98    1.89
  -2   5 -12   20.25    1.98
  -2   5 -12   17.87    1.53
  -3   5  12   36.69    2.57
  -3  -5  12   33.86    2.51
  -3  -5  12   38.80    4.80
  -3   5 -12   32.00    1.81
  -3   5 -12   32.60    1.91
  -3  -5  12   34.45    5.04
  -3   5 -12   33.06    2.02
  -4   5  12    0.17    0.12
  -4  -5 -12    0.19    0.26
   0  -6 -12   37.70    3.36
   0  -6 -12   30.06    3.58
   0   6  12   35.44    3.48
  -1   6  12  144.17    5.65
  -1  -6 -12  126.75    6.74
  -1  -6 -12  148.27    7.68
  -1   6 -12  131.22    5.43
  -1   6 -12  137.71    5.07
  -1   6 -12  134.17    5.30
   1  -6 -12  144.27    8.87
   1  -6 -12  155.72    7.62
  -2   6  12   37.04    3.10
  -2   6  12   40.10    2.80
  -2  -6 -12   39.63    3.63
  -2  -6  12   38.71    2.85
  -2   6 -12   40.77    2.20
  -2   6 -12   38.54    2.27
  -2   6 -12   37.84    2.33
  -2   6 -12   38.68    2.81
  -3   6  12    8.08    1.09
  -3   6  12    6.32    0.87
  -3   6 -12    6.86    0.76
  -3  -6  12    6.25    1.98
  -3   6 -12    6.32    0.75
  -3  -6  12    9.21    2.16
   0  -7 -12   29.94    3.11
   0   7  12   28.11    3.16
   0   7  12   28.46    2.71
  -1  -7 -12  139.71    7.68
  -1   7  12  129.96    6.53
  -1   7  12  135.74    5.55
  -1   7  12  131.34    5.82
  -1   7 -12  136.28    5.41
  -1   7 -12  133.33    4.92
   1   7  12  137.65    8.02
  -1   7 -12  139.67    5.30
   1  -7 -12  137.49    7.33
  -2   7  12   39.72    2.46
  -2  -7 -12   40.79    3.71
  -2   7  12   41.54    3.11
  -2   7  12   43.35    2.83
  -2   7 -12   40.62    2.77
  -2   7 -12   42.52    2.40
  -3   7  12    9.51    1.08
  -3   7  12   10.09    0.94
  -3  -7  12    8.19    1.85
  -3  -7  12   11.31    1.98
   3   7  12    8.41    1.47
  -3   7 -12   10.02    0.81
   0   8  12   66.07    4.14
   0   8 -12   57.34    3.27
   0   8  12   59.68    4.64
   0  -8 -12   60.85    4.69
  -1   8  12    7.21    1.27
  -1   8  12    5.71    1.01
  -1   8  12    6.56    0.98
  -1  -8 -12    6.89    1.52
   1  -8 -12    6.59    1.36
  -1   8 -12    6.41    1.02
   1   8  12    8.32    1.69
  -1   8 -12    6.72    0.91
  -1   8 -12    5.74    0.84
  -2  -8 -12    1.21    0.43
  -2   8  12    0.42    0.32
  -2   8  12    1.24    0.52
   2   8  12    1.33    0.54
  -2   8 -12    0.95    0.34
  -3   8  12   12.12    0.93
  -3  -8  12   12.09    1.65
   3   8  12    9.95    1.13
   0   9  12    1.15    0.42
   0   9 -12    0.58    0.19
   0  -9 -12    1.85    0.82
  -1   9  12   21.81    2.01
  -1   9  12   20.60    1.69
  -1  -9 -12   20.05    2.40
   1   9 -12   20.58    1.60
   1  -9 -12   18.95    2.14
  -1   9 -12   20.55    1.40
   1   9  12   21.92    2.46
  -1   9 -12   20.12    1.48
  -2   9  12   55.16    2.39
   2   9 -12   57.16    2.23
  -2  -9 -12   39.92    2.95
  -2  -9  12   60.17    4.46
   2   9  12   59.45    3.63
   0  10  12    9.41    1.05
   0 -10 -12    7.84    1.29
   0  10 -12    9.79    0.86
   1  10 -12    2.18    0.40
  -1  10  12    0.91    0.22
  -1 -10 -12    1.20    0.44
   1  10  12    1.37    0.29
   0   0 -13    0.42    0.18
  -1   0 -13   24.02    2.49
   1   0 -13   22.31    2.39
  -2   0 -13   79.45    5.10
   2   0 -13   74.99    4.83
  -3   0 -13  157.69    5.72
  -3   0 -13  150.67    5.63
  -3   0 -13  157.81    5.62
  -3   0  13  162.83    9.47
  -3   0  13  165.43    8.26
  -3   0  13  160.54    9.03
  -3   0  13  153.54    8.87
  -4   0 -13    0.59    0.33
  -4   0  13    0.47    0.30
  -4   0 -13    0.26    0.16
  -4   0  13    0.35    0.52
   0  -1 -13  138.38    6.35
   0   1 -13  134.20    5.93
   1   1 -13  287.44    9.46
  -1  -1 -13  276.24   10.20
   1  -1 -13  271.76   10.47
  -2  -1 -13   22.42    2.73
  -2   1 -13   17.64    2.28
   2  -1 -13   17.61    2.53
  -3   1  13   34.70    3.45
  -3  -1 -13   29.21    2.11
  -3   1  13   35.46    4.38
  -3  -1 -13   30.58    2.21
  -3   1  13   31.81    3.95
  -3   1  13   31.95    2.62
  -3  -1 -13   30.08    2.23
  -3  -1  13   24.18    4.11
  -3  -1  13   31.50    3.45
  -3  -1  13   36.16    3.97
  -3  -1  13   30.04    3.35
  -3   1 -13   33.93    2.18
  -3   1 -13   28.59    2.20
  -3   1 -13   30.67    2.20
  -4  -1 -13   20.27    1.90
  -4   1  13   22.01    1.77
  -4  -1  13   20.95    2.49
  -4  -1  13   18.57    1.57
  -4   1 -13   21.17    1.55
  -4   1 -13   18.40    1.43
  -4  -1  13   19.53    2.59
   0  -2 -13   -0.24    0.45
  -1  -2 -13   62.29    4.39
  -1  -2 -13   64.43    3.98
   1  -2 -13   58.42    4.69
  -2   2  13    4.02    1.13
  -2  -2 -13    5.69    1.46
  -2  -2 -13    5.40    0.78
  -2  -2  13    8.02    2.24
  -2  -2  13    6.05    1.31
  -2   2 -13    6.16    0.92
  -2  -2  13    6.46    2.34
   2  -2 -13    4.88    1.45
  -3   2  13   35.76    4.10
  -3   2  13   41.23    3.75
  -3  -2 -13   33.47    2.28
  -3   2  13   27.63    3.78
  -3   2  13   35.22    2.78
  -3  -2 -13   34.09    2.34
  -3  -2  13   38.67    3.67
  -3   2 -13   34.40    2.37
  -3  -2  13   29.78    2.46
  -3   2 -13   34.74    2.33
  -3  -2  13   30.65    4.67
  -3  -2  13   36.69    3.59
  -3   2 -13   35.96    2.24
  -4  -2 -13   17.09    1.41
  -4   2  13   19.15    1.54
  -4   2 -13   17.02    1.24
  -4  -2  13   15.61    1.85
  -4   2 -13   19.09    1.42
   0  -3 -13   15.50    1.91
   0  -3 -13   14.99    2.18
  -1  -3 -13   72.81    4.89
  -1  -3 -13   76.98    4.38
   1  -3 -13   66.39    5.27
  -2   3  13   54.14    4.32
  -2  -3 -13   66.99    5.13
  -2  -3  13   56.81    3.40
  -2   3 -13   56.59    2.92
   2  -3 -13   54.48    5.20
  -3   3  13   88.72    5.45
  -3   3  13   80.20    4.27
  -3  -3 -13   81.54    3.69
  -3  -3  13   76.91    7.32
  -3   3 -13   80.02    3.57
  -3  -3  13   77.12    3.86
  -3   3 -13   79.45    3.49
  -3   3 -13   79.80    3.71
  -4   3  13   21.76    1.46
  -4  -3 -13   20.60    1.45
  -4   3 -13   22.91    1.41
   0  -4 -13  185.33    7.49
   0  -4 -13  189.51    9.10
  -1  -4 -13   21.74    2.59
   1  -4 -13   21.71    3.10
  -2   4  13    8.22    1.32
  -2   4  13   10.99    1.84
  -2  -4 -13    8.82    1.92
  -2   4 -13    8.55    1.03
  -2  -4  13    8.20    1.26
  -2   4 -13    8.73    1.07
   2  -4 -13    7.65    2.49
  -3   4  13   20.38    2.00
  -3  -4  13   19.62    3.48
  -3   4 -13   19.59    1.52
  -3  -4  13   20.95    3.95
  -3   4 -13   19.70    1.66
  -4  -4 -13    5.26    0.57
  -4   4  13    3.10    0.44
  -4   4  13    4.71    0.59
   0  -5 -13   10.54    2.06
   0  -5 -13   11.28    1.71
  -1  -5 -13  110.72    6.24
  -1  -5 -13  118.97    6.46
  -1   5  13  110.76    4.93
  -1   5 -13  107.97    4.21
  -1   5 -13  115.43    4.55
   1  -5 -13  104.27    7.48
   1  -5 -13  105.99    6.07
  -2   5  13  208.30    7.64
  -2   5 -13  211.10    6.55
  -2  -5  13  215.09    7.80
  -2   5 -13  217.90    6.78
  -3   5  13    0.38    0.21
  -3   5 -13    0.79    0.44
  -3  -5  13   -0.31    0.54
  -3  -5  13    1.24    0.96
  -3   5 -13   -0.17    0.15
  -4   5  13   14.50    0.92
  -4  -5 -13   14.31    1.24
   0  -6 -13    0.34    0.30
   0   6  13   -0.59    0.75
  -1  -6 -13   21.24    2.59
  -1  -6 -13   18.35    2.42
  -1   6  13   23.11    2.05
  -1   6 -13   20.16    1.68
  -1   6 -13   22.93    1.92
   1  -6 -13   22.86    3.38
   1  -6 -13   20.42    2.41
  -1   6 -13   21.97    1.82
  -2   6  13    8.82    1.50
  -2   6  13   10.51    1.37
  -2  -6 -13   11.16    1.87
  -2   6 -13   11.17    1.15
  -2   6 -13   10.89    1.21
  -2   6 -13   10.09    1.13
  -3   6  13   13.87    1.43
  -3   6  13   13.21    1.29
  -3   6 -13   13.19    1.02
  -3   6 -13   13.74    1.02
  -3  -6  13   13.22    2.68
  -3  -6  13   13.96    2.47
   0   7  13  122.91    6.39
   0   7 -13  125.32    5.29
   0  -7 -13  137.62    7.51
   0   7  13  136.49    7.44
  -1   7  13   10.29    1.64
  -1   7  13   10.46    1.34
  -1  -7 -13   11.58    1.93
  -1   7 -13   11.97    1.39
  -1   7 -13   12.27    1.35
   1  -7 -13   11.99    1.88
   1   7  13   10.58    1.99
  -1   7 -13   11.01    1.22
  -2   7  13   74.76    3.85
  -2   7  13   73.17    3.34
  -2  -7 -13   71.84    5.05
  -2   7  13   76.78    4.35
  -2   7 -13   74.03    3.25
  -2   7 -13   70.58    2.98
  -3   7  13   12.32    1.00
  -3   7  13   11.05    1.14
   3   7  13   10.77    1.49
  -3  -7  13   11.13    2.14
  -3  -7  13   10.56    1.88
   0   8  13  106.63    5.49
   0  -8 -13  100.13    6.27
   0   8 -13   96.79    4.38
  -1   8  13   22.02    1.87
  -1  -8 -13   23.50    2.73
  -1   8  13   24.72    2.43
  -1   8 -13   18.95    1.65
  -1   8 -13   24.19    1.74
   1   8  13   22.29    2.77
   1  -8 -13   22.43    2.47
  -2   8  13   16.69    1.68
  -2  -8 -13   14.81    1.93
  -2   8  13   16.10    1.51
   2   8 -13   21.27    1.49
   2   8  13   18.41    2.35
  -2   8 -13   16.33    1.27
  -3   8  13   19.25    1.09
  -3  -8  13   15.65    1.76
   0   9  13    0.21    0.31
   0   9 -13    0.47    0.35
   0  -9 -13    0.80    0.43
   0   9  13    0.47    0.27
   1   9 -13   42.32    2.31
  -1  -9 -13   39.71    3.38
  -1   9  13   46.31    2.98
  -1   9  13   40.41    2.28
   1   9  13   44.26    3.39
   1  -9 -13   35.35    2.94
  -1   9 -13   40.95    1.99
  -2   9  13   25.41    1.40
  -2  -9 -13   19.10    1.72
   2   9 -13   28.10    1.34
  -2  -9  13   29.79    2.81
  -2  -9  13   30.24    3.63
   2   9  13   30.55    2.38
   0 -10 -13   23.74    2.20
   0  10  13   26.28    1.65
   0  10 -13   26.53    1.39
   1  10 -13   21.67    1.18
  -1 -10 -13   17.38    1.76
   1  10  13   20.60    1.47
  -1 -10  13   17.15    2.43
   0   0 -14  107.78    5.42
  -1   0 -14  124.34    6.22
   1   0 -14  117.94    6.08
   2   0 -14   82.78    5.16
  -2   0 -14   78.49    5.30
  -2   0 -14   84.60    3.48
  -2   0  14   72.54    5.30
  -2   0  14   72.93    6.92
  -3   0 -14   -0.50    0.31
  -3   0  14    3.19    1.35
  -3   0  14    1.13    0.68
  -3   0  14    1.70    0.99
  -3   0 -14    1.14    0.59
  -3   0 -14    0.49    0.23
  -4   0 -14   67.31    2.74
  -4   0  14   63.12    3.04
   0   1 -14   41.93    3.20
   0  -1 -14   42.42    3.38
   1   1 -14   75.50    4.41
  -1  -1 -14   72.56    4.86
   1  -1 -14   76.55    5.16
  -2  -1 -14   84.57    5.73
  -2  -1 -14   81.96    3.51
  -2   1  14   74.30    5.47
  -2   1 -14   84.13    5.31
  -2  -1  14   76.39    7.11
  -2  -1  14   75.27    5.27
   2  -1 -14   80.09    5.64
  -2  -1  14   84.02    8.73
  -2   1 -14   77.30    3.42
  -3  -1 -14   11.94    1.35
  -3   1  14   14.00    1.68
  -3   1  14   12.12    2.32
  -3  -1 -14   13.71    1.36
  -3   1  14   18.22    3.16
  -3   1  14   13.21    2.13
  -3  -1 -14   13.89    1.47
  -3   1 -14   11.72    1.43
  -3   1 -14   12.29    1.40
  -3  -1  14   13.43    2.19
  -3   1 -14   12.74    1.31
  -3  -1  14   10.40    2.75
  -4   1  14   10.48    1.13
  -4  -1 -14   10.99    1.27
  -4   1 -14    9.70    0.98
  -4  -1  14   10.36    1.08
  -4  -1  14    8.88    1.44
  -4   1 -14   11.49    1.05
   0  -2 -14  629.58   18.04
  -1  -2 -14   66.91    4.80
  -1  -2 -14   79.51    4.59
   1  -2 -14   68.98    5.30
  -2   2  14   42.50    4.07
  -2   2  14   31.87    5.55
  -2  -2 -14   41.95    2.42
  -2  -2 -14   41.63    4.08
  -2  -2  14   37.92    3.53
  -2  -2  14   42.44    6.13
   2  -2 -14   40.64    4.27
  -2   2 -14   43.30    2.51
  -2  -2  14   44.20    5.27
  -3  -2 -14   43.68    2.54
  -3   2  14   44.80    3.21
  -3  -2 -14   47.95    2.81
  -3   2  14   50.01    4.25
  -3  -2  14   42.38    5.34
  -3   2 -14   44.02    2.66
  -3   2 -14   42.48    2.71
  -3   2 -14   48.17    2.60
  -3  -2  14   42.01    2.96
  -4   2  14   25.05    1.69
  -4  -2 -14   23.22    1.54
  -4   2 -14   24.77    1.42
  -4   2 -14   24.72    1.52
   0  -3 -14    3.03    0.94
   0  -3 -14    2.98    0.92
  -1  -3 -14   41.86    3.24
  -1  -3 -14   39.16    3.69
   1  -3 -14   41.18    4.29
  -2   3  14   16.48    2.43
  -2  -3 -14   19.65    2.93
  -2  -3  14   19.45    3.53
  -2  -3  14   17.38    4.04
   2  -3 -14   20.05    3.14
  -2   3 -14   18.68    1.62
  -3   3  14   31.30    2.59
  -3   3  14   33.97    3.29
  -3  -3 -14   30.44    2.09
  -3  -3  14   32.31    5.00
  -3   3 -14   28.53    2.17
  -3  -3  14   27.11    2.14
  -3   3 -14   30.59    1.94
  -3   3 -14   31.63    2.11
  -3  -3  14   29.95    4.36
  -4  -3 -14   42.82    2.04
  -4   3  14   45.58    2.06
  -4   3 -14   45.55    1.95
   0  -4 -14   78.13    5.63
   0  -4 -14   72.12    4.55
  -1  -4 -14  156.08    7.70
   1  -4 -14  149.24    8.89
  -1   4 -14  146.46    5.20
  -2   4  14   58.05    3.62
  -2   4  14   55.07    4.51
  -2  -4 -14   55.59    4.83
  -2   4 -14   53.33    2.70
   2  -4 -14   50.63    5.33
  -2   4 -14   56.02    2.88
  -3   4  14   17.14    1.80
  -3  -4  14   16.81    3.59
  -3  -4  14   19.01    3.44
  -3   4 -14   19.65    1.64
  -3   4 -14   17.86    1.42
  -4   4  14   26.75    1.42
  -4  -4 -14   17.80    1.00
   0   5 -14   55.39    3.14
   0  -5 -14   56.37    4.95
   0  -5 -14   61.90    4.39
  -1   5  14   19.88    1.95
  -1  -5 -14   18.96    2.37
  -1  -5 -14   17.46    2.47
  -1   5 -14   15.97    1.42
   1  -5 -14   14.49    2.01
  -1   5 -14   16.16    1.48
   1  -5 -14   21.42    3.37
  -2   5  14    2.82    1.15
  -2   5  14    1.01    0.23
  -2   5 -14    2.03    0.45
  -2   5 -14    1.21    0.38
  -3   5  14   11.66    1.41
  -3   5  14   13.35    1.24
  -3  -5  14   13.05    2.88
  -3   5 -14   12.16    1.18
  -3   5 -14   12.80    1.09
  -3  -5  14   15.55    2.81
   0   6  14    4.57    1.29
   0   6 -14    3.43    0.65
   0  -6 -14    3.77    1.11
  -1   6  14   35.41    2.65
  -1  -6 -14   38.68    3.56
   1  -6 -14   34.17    3.25
  -1   6 -14   35.92    2.41
  -1   6 -14   35.23    2.29
  -2   6  14   35.46    2.67
  -2  -6 -14   37.43    3.50
  -2   6  14   35.17    3.00
  -2   6 -14   38.88    2.23
  -2   6 -14   37.58    2.25
  -2   6 -14   35.66    2.09
  -3   6  14  130.18    4.88
  -3   6  14  133.67    4.50
  -3   6 -14  123.63    3.84
  -3  -6  14  127.46    9.28
  -3   6 -14  120.70    3.62
  -3  -6  14  128.74    8.10
   0  -7 -14   47.78    4.10
   0   7 -14   47.39    3.00
   0   7  14   49.60    4.15
   0   7  14   48.21    3.77
  -1  -7 -14   40.01    3.74
  -1   7  14   39.54    3.38
  -1   7  14   36.72    2.61
  -1   7 -14   40.71    2.42
   1   7  14   43.13    4.08
  -1   7 -14   39.12    2.43
   1  -7 -14   41.25    3.59
  -2   7  14   15.03    1.37
  -2   7  14   16.34    1.67
  -2   7  14   16.68    1.91
  -2  -7 -14   16.48    2.18
   2   7 -14   17.97    1.45
  -2   7 -14   16.47    1.25
  -2   7 -14   18.18    1.43
  -3   7  14    4.45    0.64
  -3   7  14    4.22    0.53
  -3  -7  14    4.25    1.23
   3   7  14    3.72    0.81
  -3  -7  14    4.28    1.17
   0  -8 -14    6.08    1.38
   0   8  14    6.71    1.31
   0   8 -14    5.81    0.86
  -1   8  14   76.15    4.46
   1   8 -14   71.35    3.48
  -1  -8 -14   71.08    5.00
  -1   8 -14   69.42    3.13
   1  -8 -14   65.54    4.55
   1   8  14   72.08    5.01
   2   8 -14   10.17    0.94
  -2   8  14   10.32    1.26
  -2  -8 -14    9.48    1.43
  -2   8  14    9.40    1.09
  -2  -8  14   11.65    2.60
   2   8  14   12.93    1.83
  -2  -8  14   11.14    2.06
   0   9 -14    2.77    0.54
   0  -9 -14    2.50    0.78
   0   9  14    1.61    0.42
   0   9  14    2.39    0.64
   1   9 -14    9.76    0.97
  -1  -9 -14    8.73    1.42
  -1   9  14   11.20    1.34
   1  -9 -14    8.56    1.22
  -1  -9  14    7.90    1.52
  -1   9 -14    8.58    0.82
   2   9 -14   14.79    0.83
  -2  -9  14   16.02    1.88
   2   9  14   19.61    1.74
  -2  -9  14   17.03    2.50
   0  10 -14   45.97    1.81
   0  10  14   46.69    2.09
   0 -10 -14   40.54    2.81
  -1 -10 -14    8.15    1.07
   1  10 -14    9.71    0.68
  -1 -10  14    4.91    1.11
   1  10  14    8.76    0.89
   0   0 -15    0.23    0.49
   1   0 -15   22.25    2.53
  -1   0 -15   18.97    2.33
  -2   0  15   43.20    5.35
  -2   0 -15   44.69    2.47
   2   0 -15   41.51    3.65
  -2   0  15   41.25    4.04
  -2   0  15   49.59    6.66
  -2   0 -15   38.72    3.84
  -3   0  15  178.34    9.27
  -3   0 -15  179.72    5.90
  -3   0  15  171.03    8.77
  -3   0 -15  160.47    5.83
  -3   0 -15  174.01    6.17
  -4   0 -15    9.09    0.83
  -4   0  15    8.04    0.93
   0  -1 -15  135.35    6.63
   0   1 -15  130.50    6.18
  -1  -1 -15   58.36    4.41
   1   1 -15   56.21    3.86
   1  -1 -15   54.08    4.38
  -2   1  15   36.73    6.01
  -2  -1 -15   40.81    2.35
  -2   1  15   38.32    3.98
  -2  -1 -15   37.85    3.97
  -2  -1 -15   42.27    2.38
  -2   1 -15   41.20    3.79
  -2  -1  15   44.56    6.28
  -2  -1  15   38.35    5.00
  -2  -1  15   35.55    3.75
  -2   1 -15   41.59    2.34
   2  -1 -15   41.35    4.05
  -3  -1 -15   26.74    1.91
  -3   1  15   26.55    3.17
  -3   1  15   25.70    2.40
  -3  -1 -15   23.73    1.99
  -3   1  15   30.27    3.60
  -3  -1 -15   27.25    2.03
  -3   1 -15   24.18    1.99
  -3   1 -15   23.75    1.75
  -3   1 -15   24.28    2.07
  -4   1  15   34.23    2.01
  -4  -1 -15   34.42    2.18
  -4  -1  15   35.23    1.95
  -4   1 -15   35.45    1.79
  -4   1 -15   36.04    1.78
   0  -2 -15   80.96    5.27
  -1  -2 -15   89.55    5.74
  -1  -2 -15  101.21    5.45
   1  -2 -15   92.82    6.33
  -2  -2 -15   53.91    2.87
  -2  -2 -15   58.22    5.06
  -2   2  15   43.95    6.87
  -2   2  15   58.74    5.05
  -2   2 -15   61.29    3.02
  -2  -2  15   60.59    6.23
  -2  -2  15   52.52    4.35
   2  -2 -15   53.20    4.98
  -2  -2  15   59.37    7.36
  -2   2 -15   57.08    2.87
  -3  -2 -15   27.41    2.13
  -3   2  15   31.42    3.40
  -3  -2 -15   29.60    1.97
  -3   2  15   28.06    2.54
  -3  -2  15   25.59    4.19
  -3  -2  15   25.65    2.27
  -3  -2  15   30.54    4.92
  -3   2 -15   29.26    1.93
  -3   2 -15   28.78    2.11
  -3   2 -15   27.16    2.12
  -4   2  15   42.62    2.11
  -4  -2 -15   42.99    2.01
  -4  -2 -15   41.89    2.49
  -4   2 -15   41.77    1.90
  -4   2 -15   38.72    1.70
   0  -3 -15   52.63    4.41
   0  -3 -15   45.53    3.58
  -1  -3 -15   90.74    5.05
  -1  -3 -15   77.28    5.55
   1  -3 -15   77.62    6.12
  -2  -3 -15   17.74    2.79
  -2   3  15   16.68    2.50
  -2   3 -15   20.58    1.69
  -2  -3  15   17.16    3.94
   2  -3 -15   20.14    3.33
  -2  -3  15   17.27    3.33
  -3  -3 -15    8.37    1.14
  -3   3  15    8.91    1.71
  -3   3  15    7.08    1.25
  -3  -3  15    8.20    2.43
  -3  -3  15    7.78    1.07
  -3  -3  15    7.03    2.08
  -3   3 -15    7.27    0.85
  -3   3 -15    8.58    1.09
  -3   3 -15    7.92    1.08
  -4   3  15    2.87    0.46
  -4  -3 -15    3.14    0.47
  -4  -3 -15    3.50    0.65
  -4   3 -15    3.83    0.49
   0  -4 -15  109.21    5.99
   0  -4 -15  122.53    7.23
  -1   4  15   19.30    2.68
  -1  -4 -15   21.30    2.83
  -1  -4 -15   18.93    2.34
   1   4 -15   17.75    1.61
  -1   4 -15   21.31    1.70
   1  -4 -15   19.58    2.34
   1  -4 -15   20.13    3.17
  -1   4 -15   21.08    1.59
  -2   4  15   50.36    4.44
  -2   4  15   46.43    3.36
  -2   4 -15   46.25    2.45
  -2  -4  15   51.32    7.20
  -2  -4  15   54.32    6.06
  -2   4 -15   49.05    2.69
  -3   4  15   55.61    3.35
  -3  -4  15   56.97    6.61
  -3   4 -15   57.82    2.84
  -3  -4  15   54.20    5.75
  -3   4 -15   55.04    2.58
  -4  -4 -15    2.13    0.46
  -4   4  15    2.33    0.37
   0   5 -15   69.03    3.54
   0  -5 -15   64.20    5.34
   0  -5 -15   66.17    4.76
  -1  -5 -15   73.90    5.33
  -1   5  15   83.24    4.35
  -1  -5 -15   82.80    5.43
  -1   5  15   76.19    5.34
   1  -5 -15   80.81    5.27
  -1   5 -15   80.56    3.54
  -1   5 -15   84.22    3.74
   1  -5 -15   82.84    6.88
  -2   5  15   31.30    2.61
  -2   5  15   35.94    3.34
  -2   5 -15   31.76    2.06
  -2   5 -15   29.39    1.97
  -3   5  15   45.22    2.80
  -3   5  15   49.07    2.43
  -3   5 -15   46.37    2.18
  -3   5 -15   43.39    2.22
  -3  -5  15   46.34    4.88
  -3  -5  15   46.89    5.49
   0   6  15   48.69    4.02
   0   6 -15   47.45    2.98
   0  -6 -15   50.40    4.16
  -1  -6 -15   51.71    4.28
  -1   6  15   48.32    3.14
  -1   6 -15   47.30    2.69
   1  -6 -15   49.14    3.99
  -1   6 -15   53.28    2.89
  -2  -6 -15   39.94    3.57
  -2   6  15   42.49    2.89
  -2   6  15   38.48    3.18
  -2   6 -15   39.06    2.27
  -2   6 -15   41.49    2.28
  -2   6 -15   39.02    2.19
  -3   6  15    2.88    0.57
  -3   6  15    2.35    0.41
  -3   6 -15    1.61    0.29
  -3  -6  15    2.45    1.16
  -3  -6  15    0.64    0.38
  -3   6 -15    1.55    0.32
   0   7  15   37.54    3.40
   0   7  15   34.86    3.17
   0   7 -15   37.95    2.56
   0  -7 -15   35.39    3.47
  -1   7  15    7.21    1.40
  -1   7  15    7.16    1.06
  -1  -7 -15    6.81    1.54
   1   7 -15    8.01    1.14
   1  -7 -15    6.56    1.30
   1   7  15    8.45    1.66
  -1   7 -15    8.33    1.03
  -2  -7 -15   40.35    3.37
   2   7 -15   42.37    2.21
  -2   7  15   41.00    2.64
  -2   7  15   41.50    3.06
  -2  -7  15   44.68    5.86
   2   7  15   46.25    3.93
  -2  -7  15   47.32    4.92
  -2   7 -15   41.67    2.11
  -3   7  15   12.62    1.05
  -3   7  15    9.87    0.73
  -3  -7  15   10.94    1.67
   3   7  15   12.67    1.41
  -3  -7  15    8.61    1.57
   0   8 -15  168.09    5.79
   0   8  15  160.98    7.13
   0  -8 -15  162.94    8.31
   1   8 -15   16.57    1.45
  -1   8  15   16.68    1.90
  -1  -8 -15   15.44    2.11
   1   8  15   18.46    2.29
  -1  -8  15   16.03    2.61
   1  -8 -15   16.34    2.03
  -1   8 -15   16.89    1.38
  -2  -8 -15   18.87    1.90
  -2   8  15   19.06    1.69
  -2   8  15   20.88    1.55
   2   8 -15   20.32    1.23
  -2  -8  15   21.85    3.45
  -2  -8  15   22.50    2.83
   2   8  15   25.02    2.43
   0   9 -15   46.37    2.26
   0   9  15   43.59    2.52
   0  -9 -15   44.53    3.45
   0   9  15   42.58    2.71
   1   9 -15   15.02    1.16
  -1   9  15   16.27    1.58
  -1  -9 -15   14.48    1.77
  -1   9 -15   15.94    1.07
  -1  -9  15   15.42    2.83
   1  -9 -15   12.13    1.41
  -2  -9  15    8.31    1.53
  -2   9 -15    3.98    0.38
   0 -10 -15   23.21    1.87
   0  10 -15   27.12    1.22
   1  10 -15   21.75    0.96
  -1 -10 -15   18.00    1.46
   0   0 -16    1.83    0.67
  -1   0 -16  190.29    8.23
   1   0 -16  175.46    7.92
  -2   0 -16   15.51    2.55
  -2   0 -16   16.52    1.45
  -2   0  16   17.51    3.99
  -2   0  16   13.00    3.07
  -2   0  16   13.60    2.23
  -3   0 -16   -0.04    0.25
  -3   0 -16    0.34    0.27
  -3   0 -16    0.82    0.47
  -3   0  16   -2.72    1.37
  -3   0  16   -0.01    0.39
  -4   0 -16    1.62    0.30
  -4   0  16    2.22    0.48
   0  -1 -16   12.53    1.92
   1   1 -16   47.34    3.66
  -1  -1 -16   52.60    4.25
   1  -1 -16   57.54    4.58
  -2  -1 -16  129.65    4.53
  -2  -1 -16  120.87    7.44
  -2   1  16  115.66    7.39
  -2  -1 -16  126.24    4.65
  -2   1  16  117.24   11.66
  -2   1 -16  124.10    4.61
  -2  -1  16  114.80    9.36
   2  -1 -16  127.76    7.36
  -2  -1  16  152.25   12.39
  -2   1 -16  126.32    7.05
  -2  -1  16  111.45    7.11
  -3   1  16   61.09    4.91
  -3   1  16   60.86    3.77
  -3  -1 -16   60.99    2.97
  -3  -1 -16   56.59    3.19
  -3  -1 -16   60.65    2.99
  -3   1 -16   60.66    3.12
  -3   1 -16   59.89    3.25
  -3   1 -16   63.33    2.99
  -4   1  16   35.36    1.89
  -4  -1  16   38.20    1.88
  -4   1 -16   35.06    1.66
  -4   1 -16   34.96    1.65
   0  -2 -16   40.04    3.71
  -1  -2 -16   29.46    3.22
   1  -2 -16   23.47    3.11
  -2  -2 -16   20.74    3.09
  -2  -2 -16   19.79    1.64
  -2   2  16   19.67    2.80
  -2   2  16   14.91    3.99
  -2  -2  16   22.75    4.51
   2  -2 -16   18.97    2.97
  -2  -2  16   20.74    3.75
  -2   2 -16   19.19    1.65
  -2  -2  16   18.62    2.55
  -2   2 -16   19.23    1.60
  -3   2  16   35.09    3.50
  -3   2  16   30.37    2.61
  -3  -2 -16   29.86    2.21
  -3  -2 -16   35.05    2.03
  -3  -2  16   26.93    4.29
  -3   2 -16   32.49    2.21
  -3  -2  16   34.80    5.24
  -3  -2  16   30.82    2.39
  -3   2 -16   34.07    2.27
  -3   2 -16   33.49    2.06
  -4  -2 -16    4.31    0.66
  -4  -2 -16    5.01    0.62
  -4   2  16    4.55    0.62
  -4   2 -16    2.97    0.40
  -4   2 -16    3.32    0.46
   0  -3 -16  221.48    8.86
   0  -3 -16  228.38   10.09
  -1  -3 -16  136.30    7.55
  -1   3  16  129.33    7.44
  -1  -3 -16  135.93    6.95
  -1   3  16   91.05   11.11
  -1  -3 -16  145.91    6.79
   1  -3 -16  139.47    8.45
  -1  -3  16  139.61   11.94
  -1   3 -16  128.74    4.67
  -1  -3  16  157.90   10.11
  -2   3  16   42.77    4.04
  -2  -3  16   44.10    5.46
  -2  -3  16   39.95    6.17
  -2   3 -16   43.10    2.53
  -3   3  16    1.12    0.41
  -3   3  16    2.14    0.78
  -3  -3 -16    2.34    0.59
  -3  -3  16    1.38    1.25
  -3   3 -16    2.90    0.60
  -3   3 -16    2.00    0.51
  -3  -3  16    2.51    1.32
  -3  -3  16    0.97    0.36
  -3   3 -16    1.85    0.49
  -4   3  16    4.73    0.51
  -4  -3 -16    5.88    0.57
  -4  -3 -16    5.35    0.67
  -4   3 -16    6.45    0.61
   0  -4  16   66.78    7.61
   0  -4 -16   61.64    4.54
   0  -4 -16   63.84    4.51
   0  -4 -16   64.34    5.22
   0   4 -16   65.68    3.24
  -1  -4 -16   17.12    2.29
  -1   4  16   21.14    2.90
  -1  -4 -16   19.89    2.73
   1   4 -16   19.92    1.68
   1  -4 -16   18.61    2.28
  -1  -4  16   24.20    3.73
  -1   4 -16   19.68    1.64
   1  -4 -16   18.79    3.22
  -2   4  16   91.69    4.86
  -2   4  16   94.60    6.23
  -2   4 -16   91.57    3.87
  -2   4 -16   90.63    3.58
  -2  -4  16   86.98    9.66
  -2  -4  16   98.12    8.36
  -3   4  16    2.43    0.69
  -3  -4  16    0.87    0.44
  -3   4 -16    2.61    0.49
  -3   4 -16    3.03    0.61
  -3  -4  16    2.33    1.10
   0  -5 -16   56.56    4.37
   0   5 -16   57.26    3.18
   0  -5 -16   53.76    4.88
  -1  -5 -16   86.70    5.70
   1   5 -16   87.92    4.03
  -1  -5 -16   78.49    5.63
  -1   5  16   81.46    5.61
  -1   5  16   87.82    4.53
   1  -5 -16   85.67    5.51
  -1   5 -16   86.09    3.81
  -2   5  16   17.21    2.28
  -2   5  16   14.54    1.74
  -2   5 -16   12.76    1.27
  -2  -5  16   13.68    3.43
  -2  -5  16   17.19    3.17
  -2   5 -16   14.19    1.34
  -3   5  16    7.98    1.09
  -3   5  16    7.87    0.85
  -3   5 -16    8.02    0.84
  -3  -5  16    8.16    1.86
  -3  -5  16    7.30    1.94
  -3   5 -16    7.22    0.76
   0   6 -16    7.94    1.13
   0  -6 -16    8.32    1.68
   0   6  16    9.29    1.54
  -1   6  16   23.36    2.13
  -1  -6 -16   24.22    2.85
   1   6 -16   24.67    1.98
  -1   6 -16   23.91    1.84
   1  -6 -16   22.25    2.60
  -2   6  16   14.64    1.92
  -2   6  16   18.59    1.80
  -2  -6 -16   17.25    2.18
  -2   6 -16   16.75    1.36
  -2   6 -16   16.71    1.39
  -2  -6  16   18.80    3.88
  -2  -6  16   19.61    3.38
  -3   6  16   15.72    1.18
  -3   6  16   15.55    1.32
  -3  -6  16   14.70    2.31
  -3   6 -16   13.67    0.87
  -3  -6  16   13.26    2.37
  -3   6 -16   13.43    0.91
   0   7  16   27.35    2.78
   0  -7 -16   30.56    3.17
   0   7 -16   28.87    2.14
   0   7  16   28.88    2.83
  -1  -7 -16   38.49    3.59
  -1   7  16   36.41    3.26
   1   7 -16   39.53    2.50
  -1  -7  16   43.57    4.79
   1  -7 -16   39.73    3.46
   1   7  16   39.47    3.62
  -1   7 -16   38.80    2.32
   2   7 -16   12.13    1.03
  -2   7  16   11.96    1.31
  -2  -7 -16   11.52    1.59
  -2   7  16   10.84    1.42
  -2   7 -16   10.19    0.93
  -2  -7  16   13.16    2.47
   2   7  16   10.80    1.70
  -2  -7  16   12.85    3.14
  -3   7  16   48.34    2.06
  -3  -7  16   44.16    3.33
   3   7  16   45.53    2.66
   0   8 -16    0.55    0.35
   0  -8 -16    0.06    0.29
   0   8  16   -0.64    0.51
   0  -8  16    0.56    0.70
   1   8 -16   33.28    2.04
  -1   8  16   29.52    2.56
  -1  -8 -16   29.85    2.89
  -1  -8  16   31.83    4.79
   1   8  16   31.54    2.90
  -1   8 -16   29.32    1.79
  -1  -8  16   30.93    3.38
   1  -8 -16   28.30    2.61
  -2   8  16   10.12    0.97
  -2   8  16   11.54    1.20
  -2  -8 -16    8.45    1.10
   2   8 -16    8.50    0.67
  -2  -8  16    8.13    1.54
   2   8  16   11.16    1.49
  -2  -8  16   10.85    2.27
   0   9 -16   26.77    1.54
   0  -9 -16   27.19    2.47
   0   9  16   26.25    1.93
   0   9  16   25.37    1.65
  -1  -9 -16   92.18    4.80
  -1   9  16   94.80    4.09
   1   9 -16   94.19    3.14
  -1   9 -16   90.99    2.93
  -1  -9  16   94.62    7.25
   1  -9 -16   73.75    3.96
   0 -10 -16    0.42    0.19
   0  10 -16    0.70    0.16
   0   0 -17    0.18    0.28
   1   0 -17   42.01    3.69
  -1   0 -17   46.26    3.89
  -2   0  17   20.74    4.41
  -2   0 -17   21.23    1.68
  -2   0 -17   18.35    2.58
  -2   0  17   16.67    2.59
  -3   0  17   34.67    3.44
  -3   0 -17   34.63    2.18
  -3   0 -17   33.90    2.11
  -3   0 -17   35.34    2.45
  -4   0 -17    3.79    0.48
  -4   0  17    3.88    0.54
   0  -1 -17  174.83    8.11
  -1  -1 -17   58.53    4.54
   1   1 -17   55.78    4.08
   1  -1 -17   60.34    4.77
  -1   1 -17   56.65    4.16
  -2   1  17   28.63    5.36
  -2  -1 -17   30.66    3.61
  -2  -1 -17   33.61    2.09
  -2   1  17   33.18    3.69
  -2  -1 -17   34.12    2.09
  -2  -1  17   29.16    3.46
  -2  -1  17   34.86    5.67
  -2   1 -17   32.96    2.06
  -2  -1  17   31.56    4.64
   2  -1 -17   27.18    3.26
  -3  -1 -17   37.49    2.18
  -3  -1 -17   35.19    2.10
  -3  -1 -17   33.46    2.36
  -3   1  17   36.62    3.58
  -3   1  17   32.24    2.60
  -3   1 -17   34.28    2.06
  -3   1 -17   33.73    2.32
  -3   1 -17   35.19    2.19
  -3  -1  17   30.80    5.00
  -4   1  17   22.10    1.34
  -4  -1 -17   22.95    1.25
  -4   1 -17   21.44    1.14
  -4   1 -17   20.50    1.11
  -4  -1  17   20.86    1.24
   0  -2 -17    2.05    0.67
   0  -2 -17    0.37    0.29
  -1  -2 -17   52.99    4.44
  -1  -2 -17   48.99    2.47
  -1   2  17   46.93    4.21
  -1   2  17   40.03    6.79
  -1  -2  17   48.64    5.42
   1  -2 -17   53.85    4.80
  -1  -2  17   51.75    6.69
  -1   2 -17   51.00    2.57
  -2   2  17  100.80    6.75
  -2  -2 -17  102.55    6.97
  -2  -2 -17  103.89    4.16
  -2   2  17   79.65    9.92
  -2  -2  17   96.52    6.19
  -2   2 -17  106.10    4.18
  -2  -2  17  108.57   10.61
  -2   2 -17  108.78    4.31
   2  -2 -17  100.80    6.99
  -2  -2  17  101.39    8.74
  -3   2  17   10.61    1.42
  -3   2  17   14.42    2.18
  -3  -2 -17   12.48    1.32
  -3  -2 -17   13.59    1.16
  -3  -2  17   12.01    3.14
  -3  -2  17   11.22    2.71
  -3  -2  17   11.53    1.42
  -3   2 -17   11.63    1.20
  -3   2 -17   11.14    1.21
  -3   2 -17   10.98    1.10
  -4  -2 -17    5.68    0.58
  -4   2  17    5.39    0.58
  -4   2 -17    5.29    0.53
   0  -3 -17   60.30    4.36
   0  -3 -17   60.82    4.94
  -1   3  17  176.78    9.20
  -1  -3 -17  190.71    8.94
  -1  -3 -17  201.66    9.47
  -1  -3  17  204.87   12.16
  -1   3 -17  191.01    6.21
   1  -3 -17  198.29   10.39
  -1  -3  17  203.31   15.30
  -2   3  17   23.78    2.99
  -2   3 -17   24.85    1.85
  -2  -3  17   29.71    5.21
  -2  -3  17   25.37    4.20
  -3   3  17    6.16    1.21
  -3  -3 -17    6.33    0.92
  -3   3  17    6.81    1.11
  -3   3 -17    6.58    0.89
  -3  -3  17    7.83    2.40
  -3   3 -17    8.42    1.01
  -3  -3  17    5.33    1.68
  -3   3 -17    7.90    0.94
  -3  -3  17    7.04    0.91
  -4   3  17    2.13    0.33
   0   4 -17   41.25    2.52
   0  -4  17   44.93    6.16
   0  -4 -17   41.83    3.72
   0  -4 -17   45.51    3.75
   0  -4 -17   47.12    4.46
  -1  -4 -17   37.26    3.80
  -1   4  17   34.21    3.66
  -1  -4 -17   40.95    3.61
   1   4 -17   36.61    2.28
   1  -4 -17   41.58    3.56
   1  -4 -17   41.09    4.57
  -1   4 -17   39.53    2.39
  -1  -4  17   40.75    5.03
  -1  -4  17   45.68    6.69
  -2   4  17    7.77    1.65
  -2   4  17    8.86    1.44
  -2  -4  17    7.38    2.24
  -2   4 -17    7.79    1.03
  -2  -4  17    8.60    2.84
  -3   4  17   46.28    2.84
  -3  -4  17   43.18    5.33
  -3   4 -17   44.98    2.17
  -3   4 -17   48.47    2.36
  -3  -4  17   39.84    4.61
   0  -5  17   35.12    5.53
   0  -5 -17   37.33    3.42
   0   5 -17   37.60    2.49
   0  -5 -17   34.89    3.86
  -1  -5 -17    2.43    0.86
  -1   5  17    3.40    0.84
   1   5 -17    3.67    0.81
  -1   5  17    5.16    1.10
  -1   5 -17    4.35    0.84
   1  -5 -17    2.99    1.00
  -1  -5  17    4.62    1.65
  -2   5  17   39.10    2.87
  -2   5  17   37.20    3.36
  -2  -5  17   39.16    5.96
  -2  -5  17   44.11    5.32
  -2   5 -17   39.14    2.28
  -3   5  17   65.17    3.13
  -3   5  17   64.37    2.58
  -3  -5  17   61.26    5.95
  -3  -5  17   56.68    5.17
  -3   5 -17   61.68    2.45
  -3   5 -17   60.84    2.39
   0   6 -17   15.77    1.58
   0  -6 -17   15.71    2.22
   0  -6  17   14.04    3.37
  -1   6  17   94.50    4.47
   1   6 -17   93.82    4.16
  -1  -6 -17   94.38    6.00
   1   6  17   98.36    6.01
   1  -6 -17   96.18    5.89
  -1   6 -17   98.53    4.11
  -1  -6  17  108.10    8.14
  -2  -6 -17   30.37    2.75
  -2   6  17   29.41    2.24
  -2   6  17   23.99    2.39
  -2  -6  17   30.01    4.90
  -2   6 -17   26.95    1.73
  -2  -6  17   33.69    4.28
  -2   6 -17   30.39    1.77
  -3   6  17    0.39    0.19
  -3   6  17   -0.94    0.40
  -3   6 -17    0.39    0.14
  -3   6 -17    0.09    0.13
  -3  -6  17   -0.17    0.36
  -3  -6  17    0.27    0.45
   0   7 -17    8.51    1.07
   0  -7  17    8.09    2.40
   0   7  17    8.12    1.47
   0   7  17    9.49    1.45
   0  -7 -17    9.59    1.66
  -1   7  17    4.86    1.11
  -1  -7 -17    3.85    0.98
   1   7 -17    4.94    0.83
   1  -7 -17    4.56    1.13
  -1  -7  17    5.45    2.13
   1   7  17    4.86    1.10
  -1   7 -17    5.55    0.84
  -1  -7  17    5.25    1.49
  -2  -7 -17   77.95    4.35
  -2   7  17   76.79    3.48
  -2   7  17   74.38    3.98
   2   7  17   81.48    4.91
  -2  -7  17   82.93    7.64
  -2   7 -17   75.49    2.85
  -2  -7  17   93.83    6.97
   0  -8 -17    3.20    0.86
   0   8 -17    3.29    0.61
   0   8  17    1.67    0.57
  -1   8  17    0.17    0.22
   1   8 -17    0.86    0.34
  -1  -8 -17    0.12    0.27
   1  -8 -17    1.14    0.45
  -1  -8  17   -0.67    0.83
  -1   8 -17    1.36    0.39
   1   8  17    0.83    0.34
  -2   8  17   58.52    2.81
  -2   8  17   50.26    2.21
   2   8  17   61.44    3.40
  -2  -8  17   52.55    4.04
  -2  -8  17   64.51    5.51
   0  -9 -17   57.10    3.56
   0   9  17   54.67    2.74
   0   9 -17   59.37    2.32
  -1   9  17    6.05    0.85
  -1  -9 -17    6.57    1.02
   1   9 -17    6.88    0.63
  -1  -9  17    6.94    1.55
  -1   9 -17    6.00    0.56
   0   0 -18  119.10    6.49
  -1   0 -18  200.58    6.20
  -1   0  18  178.53    9.19
  -1   0  18  233.22   16.32
  -1   0 -18  233.70    9.41
  -1   0 -18  193.46    5.98
   1   0 -18  219.14    9.25
  -2   0 -18   23.47    3.05
  -2   0  18   26.25    3.17
  -2   0 -18   27.33    1.87
  -2   0  18   23.57    4.83
  -2   0 -18   26.82    1.89
  -3   0 -18    2.30    0.52
  -3   0 -18    1.09    0.39
  -3   0 -18    1.80    0.54
  -3   0  18    1.34    0.75
  -4   0  18   80.09    2.65
  -4   0 -18   80.21    2.46
   0  -1 -18   40.59    3.69
  -1   1  18   15.11    3.91
  -1  -1 -18   17.39    2.60
  -1  -1 -18   12.81    1.14
   1   1 -18   12.83    1.97
  -1   1  18   12.98    2.10
  -1  -1  18   13.07    2.85
  -1  -1  18   17.04    3.92
  -1  -1  18   12.82    2.02
  -1   1 -18   15.38    1.35
  -1   1 -18   15.05    2.22
  -1   1 -18   13.67    1.21
   1  -1 -18   15.50    2.49
  -2  -1 -18   18.92    1.51
  -2  -1 -18   18.50    1.48
  -2   1  18   17.80    2.63
  -2   1  18   19.01    4.43
  -2   1 -18   18.04    1.51
  -2  -1  18   19.78    4.21
  -2  -1  18   17.21    3.56
  -2  -1  18   20.41    2.76
  -3   1  18   33.68    3.24
  -3   1  18   28.20    2.38
  -3  -1 -18   33.38    1.93
  -3  -1 -18   29.14    2.03
  -3   1 -18   32.46    2.12
  -3  -1  18   23.86    4.27
  -3   1 -18   32.22    2.02
  -3   1 -18   30.66    1.89
  -4   1  18    2.29    0.39
  -4  -1 -18    2.22    0.34
  -4   1 -18    1.87    0.28
   0   2  18   94.41   10.81
   0  -2 -18  158.94    7.84
   0  -2 -18  148.77    7.01
  -1   2  18    9.19    3.20
  -1  -2 -18   12.94    2.17
  -1  -2 -18   10.55    1.06
  -1   2  18    9.11    1.78
   1  -2 -18   12.07    2.29
  -1  -2  18   13.82    2.91
  -1   2 -18   12.08    1.24
  -1  -2  18   13.64    3.52
  -2  -2 -18  108.44    4.15
  -2   2  18   75.50    9.76
  -2   2  18  100.73    6.68
  -2  -2  18  100.55    8.71
  -2  -2  18  105.95    6.32
  -2  -2  18  121.65   11.09
  -2   2 -18  105.48    4.12
  -3  -2 -18   31.42    2.03
  -3   2  18   33.34    3.12
  -3   2  18   32.25    2.49
  -3  -2  18   31.43    2.20
  -3   2 -18   30.13    2.01
  -3  -2  18   28.01    4.51
  -3   2 -18   31.23    1.86
  -3   2 -18   33.05    2.03
  -4   2  18   10.13    0.70
  -4  -2 -18    9.25    0.65
   0  -3 -18    0.64    0.33
   0   3 -18    2.77    0.57
   0  -3  18    1.87    1.04
   0  -3 -18    0.90    0.39
  -1  -3 -18   85.80    5.30
  -1  -3 -18   85.50    6.01
  -1   3  18   82.25    5.86
  -1   3 -18   79.45    3.56
   1  -3 -18   79.33    6.29
  -1  -3  18   85.86    9.42
  -1  -3  18   79.53    7.35
  -2   3  18   13.60    2.22
  -2   3 -18   12.07    1.30
  -2  -3  18   13.03    2.99
  -2  -3  18   14.07    3.47
  -2   3 -18   13.43    1.36
  -3   3  18   16.83    1.72
  -3   3  18   15.92    2.04
  -3  -3 -18   17.08    1.37
  -3  -3  18   15.22    2.83
  -3  -3  18   13.89    2.99
  -3   3 -18   15.80    1.34
  -3   3 -18   16.36    1.30
  -3   3 -18   14.90    1.20
   0  -4 -18    5.13    1.32
   0  -4 -18    7.85    1.42
   0  -4  18    6.22    2.25
   0   4 -18    6.74    0.98
   0  -4 -18    4.09    1.20
   1   4 -18   84.06    3.67
  -1   4  18   85.43    6.02
  -1  -4 -18   89.74    5.63
  -1  -4  18   93.27    7.94
  -1   4 -18   92.71    3.90
  -1  -4  18   93.34    9.97
   1  -4 -18   92.37    5.64
  -2  -4 -18  106.69    3.97
  -2   4  18  111.74    6.61
  -2   4  18  105.49    5.23
  -2  -4  18  117.98   11.02
  -2   4 -18  106.22    4.26
  -2  -4  18  116.56    9.11
  -3   4  18    9.46    1.19
  -3  -4  18    7.47    1.95
  -3  -4  18    7.50    1.81
  -3   4 -18    8.06    0.81
  -3   4 -18    9.39    0.95
   0  -5 -18  156.59    8.07
   0  -5  18  147.83   12.31
   0   5 -18  157.49    5.64
  -1   5  18   12.70    2.08
   1   5 -18   18.12    1.57
  -1  -5 -18   15.13    2.15
  -1   5  18   17.41    1.90
   1  -5 -18   15.81    2.14
  -1   5 -18   16.21    1.53
  -1  -5  18   18.92    4.20
  -1  -5  18   16.34    3.12
  -2   5  18    8.82    1.58
  -2   5  18    9.54    1.35
  -2  -5  18    8.25    2.59
  -2  -5  18    8.61    2.29
  -2   5 -18    9.28    1.09
  -3   5  18    2.98    0.54
  -3   5  18    1.93    0.37
  -3   5 -18    2.34    0.37
  -3   5 -18    1.85    0.35
  -3  -5  18    2.20    0.79
  -3  -5  18    2.01    0.89
   0  -6 -18   26.63    2.86
   0   6 -18   28.64    2.08
   0  -6  18   23.23    4.17
   1   6 -18   47.57    2.65
  -1  -6 -18   48.97    3.97
  -1   6  18   45.77    2.88
   1  -6 -18   47.35    3.79
  -1  -6  18   51.03    6.83
  -1  -6  18   46.96    5.07
  -1   6 -18   46.98    2.62
   1   6  18   44.91    3.78
  -2   6  18   11.91    1.34
  -2   6  18   11.34    1.58
  -2  -6  18    9.80    2.27
  -2  -6  18   12.20    3.01
  -2   6 -18   11.86    1.03
  -2   6 -18   11.41    1.06
  -3   6  18   52.99    1.89
  -3   6  18   60.72    2.45
  -3  -6  18   55.76    4.02
  -3  -6  18   49.33    4.24
   3   6  18   60.22    3.19
  -3   6 -18   48.25    1.75
   0   7  18   34.62    3.04
   0  -7  18   27.98    4.35
   0   7 -18   37.80    2.31
   0  -7 -18   39.63    3.44
   1   7 -18    8.87    1.02
  -1   7  18    8.87    1.47
  -1  -7 -18    9.65    1.56
  -1   7 -18   10.30    1.04
  -1  -7  18    7.92    2.41
   1  -7 -18    8.90    1.38
   1   7  18   10.76    1.64
  -1  -7  18    8.48    1.90
  -2   7  18    3.05    0.68
  -2   7  18    2.88    0.59
  -2   7 -18    2.55    0.41
  -2  -7  18    2.91    1.05
  -2  -7  18    3.01    1.16
   2   7  18    2.32    0.75
   0   8 -18    1.51    0.43
   0   8  18    0.34    0.19
   0  -8 -18    0.99    0.50
  -1   8  18   67.03    3.68
   1   8 -18   62.71    2.59
  -1  -8 -18   63.66    3.95
  -1   8 -18   63.20    2.57
   1   8  18   57.57    3.51
   1  -8 -18   61.65    3.67
  -1  -8  18   64.17    6.32
  -2   8  18   15.33    1.20
   2   8  18   17.82    1.52
  -2   8 -18   15.31    0.91
  -2  -8  18   15.67    2.35
  -2  -8  18   11.64    1.56
   0  -9 -18    0.54    0.33
   0   9  18    0.16    0.25
   0   9 -18   -0.28    0.15
  -1  -9 -18   19.23    1.60
  -1   9  18   21.47    1.48
   1   9 -18   19.56    1.00
  -1   9 -18   17.89    0.93
  -1  -9  18   13.01    1.95
   0   0 -19    0.15    0.39
   0   0  19   -0.08    0.64
   1   0 -19    5.21    1.22
  -1   0 -19    5.80    0.78
  -1   0  19    5.01    1.32
  -1   0  19    7.22    2.74
  -1   0 -19    4.67    1.14
  -2   0 -19   26.83    1.80
  -2   0  19   27.48    3.25
  -2   0 -19   25.68    1.82
  -2   0  19   25.56    4.99
  -3   0 -19   81.34    3.50
  -3   0  19   83.19    5.08
  -3   0 -19   80.33    3.18
  -3   0 -19   82.86    3.29
  -4   0  19    3.56    0.39
  -4   0 -19    3.50    0.35
   0  -1 -19  115.49    6.58
   0   1  19   87.29    9.95
   0  -1  19  111.28   10.18
  -1   1  19   64.00    5.08
  -1   1  19   64.62    8.48
  -1  -1 -19   72.43    5.19
  -1  -1 -19   67.96    2.94
   1   1 -19   68.33    4.77
  -1  -1  19   76.87    8.68
  -1  -1  19   71.29    5.24
  -1   1 -19   65.25    3.05
  -1   1 -19   65.49    2.94
  -1   1 -19   69.25    4.86
  -1  -1  19   65.07    6.67
   1  -1 -19   72.73    5.37
  -2  -1 -19   14.13    1.31
  -2  -1 -19   13.43    1.21
  -2   1  19   13.47    2.32
  -2   1  19   14.50    3.93
  -2  -1  19   16.28    3.85
  -2   1 -19   14.50    1.35
  -2  -1  19   14.26    2.29
  -3   1  19   34.01    3.14
  -3  -1 -19   28.12    1.65
  -3   1  19   31.67    2.42
  -3  -1 -19   29.07    1.91
  -3   1 -19   28.19    1.71
  -3   1 -19   29.25    1.83
  -3  -1  19   22.87    4.07
  -3   1 -19   29.44    1.91
  -4  -1 -19    9.30    0.61
  -4   1  19    9.62    0.65
   0   2 -19    5.72    0.72
   0   2  19    5.01    2.16
   0  -2 -19    5.90    1.52
   0  -2  19    7.10    2.34
   0  -2 -19    6.50    1.46
  -1   2  19   77.31   10.04
  -1  -2 -19   88.47    3.56
  -1  -2 -19  107.22    6.53
  -1   2  19   86.20    6.08
  -1   2 -19   93.87    3.84
  -1   2 -19   91.29    3.67
  -1  -2  19  108.62   10.44
  -1  -2  19   86.90    7.94
  -1   2 -19   92.08    5.64
   1  -2 -19  105.33    7.02
  -2  -2 -19   60.52    2.88
  -2   2  19   44.57    7.14
  -2   2  19   59.27    4.84
  -2  -2  19   56.06    6.31
  -2  -2  19   59.75    4.51
  -2  -2  19   61.57    7.73
  -2   2 -19   62.65    3.01
  -3   2  19    3.20    0.77
  -3   2  19    4.05    1.13
  -3  -2 -19    3.75    0.66
  -3   2 -19    3.54    0.57
  -3  -2  19    4.28    0.72
  -3   2 -19    3.44    0.60
  -3  -2  19    2.02    1.11
  -3   2 -19    3.71    0.68
   0  -3  19    0.81    0.62
   0   3 -19    0.99    0.37
   0  -3 -19    1.39    0.40
   0  -3 -19    1.69    1.09
  -1  -3 -19   11.19    2.09
  -1  -3 -19   11.13    1.71
  -1   3  19   11.58    2.23
  -1   3 -19   10.67    1.26
   1  -3 -19   15.57    2.82
  -1  -3  19    9.17    3.17
  -1  -3  19   11.30    3.14
  -2   3  19   22.43    2.90
  -2  -3  19   25.23    4.08
  -2  -3  19   30.11    5.18
  -2   3 -19   27.93    1.95
  -2   3 -19   27.91    1.91
  -3   3  19   69.30    3.50
  -3   3  19   73.87    4.38
  -3  -3 -19   68.32    2.73
  -3   3 -19   67.08    2.68
  -3   3 -19   71.50    2.83
  -3   3 -19   67.55    2.72
  -3  -3  19   63.63    6.64
   0   4 -19  260.99    7.88
   0  -4  19  278.33   18.06
   0  -4 -19  271.64   11.49
   0  -4 -19  262.61   11.42
   1   4 -19   14.73    1.31
  -1   4  19   12.64    2.23
  -1  -4 -19   15.32    2.10
  -1   4 -19   13.91    1.43
   1  -4 -19   14.13    1.96
  -1  -4  19   13.90    2.88
  -1  -4  19   14.98    3.85
  -2   4  19    2.01    0.90
  -2  -4 -19    2.52    0.58
  -2   4  19    1.23    0.54
  -2  -4  19    1.42    1.07
  -2   4 -19    1.60    0.37
  -2   4 -19    1.46    0.43
  -2  -4  19    0.96    1.11
  -3   4  19   16.19    1.30
  -3   4  19   15.92    1.44
  -3   4 -19   16.04    1.10
  -3   4 -19   16.04    1.15
  -3  -4  19   14.53    2.74
   0  -5 -19  121.11    6.83
   0   5 -19  123.24    4.75
   0  -5  19  116.13   10.49
  -1  -5 -19   40.45    3.53
  -1   5  19   39.45    2.82
   1   5 -19   40.93    2.33
  -1   5  19   40.95    3.72
  -1  -5  19   43.21    6.35
   1  -5 -19   42.37    3.55
  -1  -5  19   38.13    4.70
  -1   5 -19   41.17    2.47
  -2   5  19   33.28    2.95
  -2   5  19   34.68    2.51
  -2   5 -19   35.28    2.10
  -2   5 -19   34.84    2.06
  -2  -5  19   39.72    5.63
  -2  -5  19   33.93    4.38
  -3   5  19    6.51    0.82
  -3   5 -19    6.13    0.59
  -3   5 -19    6.34    0.60
  -3  -5  19    5.32    1.41
   0   6 -19   18.30    1.62
   0   6  19   15.49    2.17
   0  -6 -19   19.23    2.34
   0  -6  19   16.84    3.47
  -1  -6 -19   47.55    3.75
  -1   6  19   41.97    2.66
   1   6 -19   45.27    2.47
  -1  -6  19   42.34    4.71
   1  -6 -19   47.97    3.66
   1   6  19   42.07    3.52
  -1   6 -19   47.21    2.59
  -1  -6  19   45.69    6.34
  -2   6  19    9.76    1.36
  -2   6  19   10.13    1.18
  -2  -6  19   12.28    2.84
  -2  -6  19    9.73    2.03
  -2   6 -19   11.93    1.07
  -2   6 -19   10.99    0.94
  -2   6 -19   10.88    0.98
  -3   6  19    4.35    0.54
   3   6  19    3.47    0.63
   0   7 -19  133.92    4.72
   0   7  19  121.40    6.12
   0  -7 -19  142.73    7.01
  -1   7  19    8.15    1.35
   1   7 -19    7.84    0.91
  -1  -7 -19    8.97    1.42
  -1   7 -19   10.07    1.02
   1  -7 -19    9.31    1.40
   1   7  19    9.16    1.44
  -1  -7  19    8.45    2.39
  -1  -7  19    6.29    1.48
  -2   7  19    7.28    0.97
  -2   7  19    7.26    0.81
  -2  -7  19    5.47    1.26
  -2   7 -19    7.81    0.74
  -2  -7  19    7.35    1.91
   2   7  19    6.43    1.10
   0   8  19   10.42    1.26
   0  -8 -19   10.67    1.47
   0   8 -19   10.57    0.92
  -1  -8 -19    2.07    0.61
   1   8 -19    2.89    0.46
  -1   8  19    3.24    0.75
  -1   8 -19    3.05    0.48
  -1  -8  19    2.69    1.02
   1  -8 -19    2.39    0.57
  -2   8  19   25.43    1.38
  -2   8 -19   22.99    1.03
  -2  -8  19   24.40    2.66
   0  -9 -19    2.19    0.50
   0   9 -19    2.40    0.36
  -1  -9 -19   24.01    1.61
  -1   9  19   29.13    1.53
   0   0  20    1.75    0.93
  -1   0  20   19.90    2.70
  -1   0 -20   21.80    1.50
   1   0 -20   22.00    2.77
  -1   0 -20   22.32    2.78
  -1   0  20   25.85    5.10
  -2   0  20   18.85    4.26
  -2   0  20   17.60    2.51
  -2   0 -20   19.03    1.51
  -2   0 -20   19.00    1.51
  -3   0 -20    5.05    0.77
  -3   0 -20    3.92    0.57
  -3   0  20    5.25    1.06
  -3   0  20    3.59    1.53
  -3   0 -20    4.09    0.63
   0  -1  20  192.69   14.38
   0   1  20  148.26   13.91
   0  -1 -20  201.22    9.08
   0   1 -20  178.50    5.42
  -1  -1 -20   20.18    1.45
  -1   1  20   21.32    4.81
  -1  -1 -20   21.51    2.88
  -1   1  20   16.60    2.70
  -1  -1  20   19.77    2.52
  -1   1 -20   20.47    1.54
  -1   1 -20   19.75    1.46
   1  -1 -20   18.56    2.65
  -1  -1  20   21.64    4.48
  -1   1 -20   17.56    2.46
  -2   1  20   65.35    8.65
  -2  -1 -20   77.69    3.12
  -2   1  20   78.70    5.66
  -2  -1 -20   77.74    3.32
  -2   1 -20   82.37    3.43
  -2  -1  20   84.53    9.38
  -2  -1  20   79.84    5.44
  -3   1  20    3.71    0.98
  -3  -1 -20    3.41    0.50
  -3   1  20    3.58    0.74
  -3  -1 -20    4.84    0.73
  -3   1 -20    4.16    0.64
  -3  -1  20    2.15    1.30
  -3   1 -20    4.11    0.62
  -3   1 -20    2.53    0.56
   0  -2  20   46.76    6.29
   0   2 -20   44.01    2.33
   0  -2 -20   45.09    3.79
   0  -2 -20   47.21    4.31
  -1   2  20   13.24    3.76
  -1  -2 -20   16.24    2.45
  -1   2  20   15.80    2.45
  -1  -2 -20   14.55    1.27
  -1  -2  20   18.47    3.99
  -1   2 -20   14.00    1.32
  -1  -2  20   16.17    2.23
  -1  -2  20   13.31    2.98
  -1   2 -20   14.26    1.33
   1  -2 -20   14.97    2.52
  -1   2 -20   12.06    1.98
  -2   2  20   20.59    2.70
  -2   2  20   13.08    3.60
  -2  -2 -20   20.36    1.53
  -2  -2  20   22.20    2.57
  -2   2 -20   19.46    1.55
  -2  -2  20   21.44    4.48
  -2  -2  20   22.74    3.93
  -3  -2 -20   13.71    1.15
  -3   2  20   14.02    1.85
  -3   2  20   12.74    1.41
  -3  -2  20   12.12    2.83
  -3   2 -20   13.63    1.16
  -3  -2  20   12.92    1.18
  -3   2 -20   12.78    1.09
  -3   2 -20   12.56    1.02
   0  -3  20    2.42    1.21
   0  -3 -20    1.13    0.37
   0  -3 -20    2.17    0.99
   0   3 -20    1.24    0.56
  -1   3  20   92.23    6.41
  -1  -3 -20  111.61    6.01
  -1   3 -20   96.83    4.06
  -1  -3  20  107.47   10.61
  -1  -3  20   90.53    8.09
  -2   3  20   31.78    3.42
  -2  -3  20   36.21    5.66
  -2   3 -20   34.86    2.05
  -2   3 -20   33.99    2.12
  -2  -3  20   31.65    4.64
  -3  -3 -20   51.45    2.15
  -3   3  20   53.84    2.83
  -3  -3  20   44.14    5.20
  -3   3 -20   50.50    2.20
  -3   3 -20   48.21    2.06
  -3   3 -20   51.75    2.17
   0  -4  20    0.83    0.85
   0   4 -20    2.57    0.62
   0  -4 -20    1.18    0.45
  -1  -4 -20   20.85    2.41
  -1   4  20   24.71    3.12
  -1   4  20   21.75    2.14
  -1  -4  20   20.38    3.61
  -1  -4  20   21.42    4.50
   1  -4 -20   20.67    2.38
  -1   4 -20   20.12    1.66
  -2   4  20   13.38    2.10
  -2   4  20   13.58    1.62
  -2  -4 -20   15.82    1.26
  -2   4 -20   11.42    1.17
  -2   4 -20   12.54    1.21
  -2  -4  20   12.56    2.60
  -2  -4  20   15.41    3.60
  -2   4 -20   11.62    1.04
  -3   4  20   24.97    1.51
  -3   4  20   24.84    1.69
  -3   4 -20   22.25    1.25
  -3   4 -20   21.52    1.27
  -3  -4  20   21.05    3.16
   0  -5  20   39.39    5.50
   0   5 -20   38.80    2.39
   0  -5 -20   40.33    3.47
  -1   5  20   52.71    4.32
  -1  -5 -20   60.34    4.24
   1   5 -20   55.79    2.69
  -1   5  20   54.29    3.32
  -1   5 -20   58.48    2.97
  -1  -5  20   51.89    5.52
   1  -5 -20   60.50    4.24
  -1  -5  20   62.23    7.65
  -2   5  20    1.76    0.53
  -2   5  20    0.86    0.45
  -2   5 -20    1.59    0.43
  -2   5 -20    2.06    0.41
  -2  -5  20    0.58    0.56
  -2   5 -20    2.10    0.47
  -2  -5  20    1.50    0.80
  -3   5  20   30.68    1.40
  -3   5  20   33.94    1.75
  -3   5 -20   29.57    1.28
  -3   5 -20   31.75    1.30
  -3  -5  20   24.85    2.96
   0   6  20    0.18    0.37
   0  -6  20   -0.75    0.90
   0   6 -20   -1.17    0.45
   0  -6 -20    0.43    0.19
  -1  -6 -20   39.30    3.25
   1   6 -20   35.77    2.01
  -1  -6  20   29.32    3.79
   1   6  20   33.31    2.88
   1  -6 -20   44.09    3.31
  -1   6 -20   38.13    2.23
  -1  -6  20   36.68    5.49
  -2   6  20   18.02    1.78
  -2   6  20   18.35    1.47
  -2  -6  20   18.30    3.27
  -2   6 -20   18.45    1.17
  -2  -6  20   15.00    2.51
   2   6  20   17.36    1.94
  -2   6 -20   19.92    1.33
   0  -7 -20   10.60    1.57
   0   7  20   10.29    1.45
   0   7 -20   10.77    1.08
   1   7 -20   65.53    2.63
  -1  -7 -20   65.29    4.01
  -1   7  20   63.45    3.87
   1   7  20   58.76    3.52
  -1  -7  20   72.15    6.94
   1  -7 -20   66.23    3.91
  -1   7 -20   64.48    2.75
  -2   7  20   25.41    1.43
  -2   7  20   28.73    1.87
  -2   7 -20   30.54    1.43
  -2  -7  20   31.73    3.69
   2   7  20   28.86    2.07
  -2  -7  20   23.06    2.52
   0   8  20   19.70    1.62
   0  -8 -20   18.72    1.83
   0   8 -20   19.23    1.23
  -1   8  20   10.11    1.13
   1   8 -20   10.73    0.76
  -1  -8 -20   10.62    1.25
  -1  -8  20   11.25    2.04
   1  -8 -20    9.69    1.06
  -1   8 -20    9.63    0.77
   0  -9 -20    6.98    0.79
   0   9 -20    7.95    0.55
   0   0  21    0.11    0.74
  -1   0  21  222.40   10.49
  -1   0 -21  237.36    6.88
  -1   0  21  255.96   18.59
  -1   0 -21  260.77   10.45
  -2   0  21   14.83    2.21
  -2   0 -21   15.89    1.28
  -2   0 -21   14.04    1.23
  -2   0  21   13.66    3.67
  -3   0 -21    6.23    0.76
  -3   0  21    6.15    0.88
  -3   0 -21    5.57    0.64
   0  -1 -21    8.33    1.71
   0  -1 -21    9.54    1.86
   0   1  21    9.62    3.26
   0   1 -21    8.36    0.88
   0  -1  21    9.49    2.84
  -1   1  21   23.89    3.00
  -1  -1 -21   23.10    1.57
  -1   1  21   23.19    5.03
  -1  -1  21   20.80    2.62
  -1  -1  21   25.66    4.99
  -1   1 -21   22.95    1.63
  -1   1 -21   24.20    1.73
  -2   1  21   27.16    3.14
  -2  -1 -21   27.90    1.79
  -2  -1 -21   26.41    1.62
  -2   1  21   20.83    4.58
  -2  -1  21   29.48    3.03
  -2   1 -21   27.90    1.85
  -2  -1  21   28.55    5.20
  -2   1 -21   27.13    1.79
  -3  -1 -21   35.77    1.58
  -3   1  21   42.52    3.10
  -3   1  21   37.95    2.38
  -3  -1 -21   37.71    1.92
  -3   1 -21   35.55    1.88
  -3  -1  21   37.29    2.11
  -3   1 -21   36.87    1.81
  -3   1 -21   37.50    1.84
  -3  -1  21   23.97    3.89
   0   2 -21  143.93    4.95
   0  -2 -21  156.22    8.22
   0  -2  21  164.22   13.03
   0  -2 -21  137.70    7.22
  -1  -2 -21    8.59    1.41
  -1  -2 -21    8.38    0.91
  -1   2  21    8.20    1.76
  -1   2  21    5.74    2.66
  -1  -2  21    7.17    1.47
  -1   2 -21    8.10    1.00
  -1   2 -21    7.70    0.90
  -1  -2  21    8.98    2.89
  -2   2  21    0.45    0.63
  -2  -2  21    1.11    0.66
  -2  -2  21    1.68    0.58
  -2   2 -21    1.29    0.37
  -3  -2 -21   39.78    1.88
  -3   2  21   45.28    3.11
  -3   2  21   42.22    2.48
  -3  -2  21   32.68    4.47
  -3   2 -21   38.87    1.84
  -3   2 -21   41.09    1.90
  -3  -2  21   38.82    1.93
  -3   2 -21   40.50    1.93
   0  -3  21   -0.30    0.64
   0   3 -21    0.09    0.14
  -1   3  21   40.67    4.06
  -1  -3 -21   43.30    3.45
  -1  -3  21   38.62    5.01
  -1  -3  21   54.34    7.26
  -1   3 -21   44.21    2.52
  -1   3 -21   40.69    2.34
  -2  -3 -21   24.63    1.65
  -2   3  21   25.00    2.88
  -2   3  21   27.37    2.35
  -2   3 -21   25.42    1.70
  -2  -3  21   26.26    4.67
  -2   3 -21   25.83    1.75
  -2  -3  21   23.34    3.82
  -3   3  21   27.29    1.84
  -3  -3 -21   24.60    1.29
  -3   3 -21   24.91    1.33
  -3  -3  21   20.32    3.17
  -3   3 -21   24.08    1.27
  -3   3 -21   26.58    1.43
   0  -4  21   38.62    5.53
   0   4 -21   38.83    2.30
   0  -4 -21   37.30    3.28
  -1   4  21   34.39    3.69
  -1  -4 -21   41.45    3.37
  -1   4  21   39.01    2.83
  -1  -4  21   33.66    4.49
   1  -4 -21   39.76    3.31
  -1   4 -21   35.18    2.24
  -1  -4  21   38.98    6.01
  -2   4  21  104.64    4.73
  -2  -4 -21  103.36    3.41
  -2   4  21  102.10    5.80
  -2   4 -21  105.42    3.92
  -2  -4  21  114.86   10.08
  -2  -4  21   90.78    7.59
  -3   4  21   -0.02    0.10
  -3   4  21    0.40    0.13
  -3   4 -21   -0.16    0.16
  -3  -4  21   -0.11    0.30
  -3   4 -21    0.16    0.14
   0  -5 -21    9.55    1.61
   0  -5  21   10.40    2.75
   0   5 -21   11.29    1.14
   1   5 -21   16.56    1.30
  -1   5  21   17.06    2.25
  -1   5  21   17.03    1.63
  -1  -5 -21   15.88    1.94
  -1  -5  21   20.25    4.05
   1  -5 -21   16.24    2.01
  -1  -5  21   12.30    2.58
  -1   5 -21   18.13    1.48
  -2   5  21   79.01    3.59
  -2   5  21   76.21    4.27
  -2   5  21   70.21    4.02
  -2  -5  21   85.73    7.92
  -2   5 -21   77.60    3.03
  -2  -5  21   63.79    5.77
  -2   5 -21   70.29    2.75
  -3   5  21    0.55    0.19
  -3   5 -21    0.69    0.13
  -3   5 -21    0.28    0.09
   3   5  21    0.51    0.25
   0   6  21   44.08    3.51
   0   6 -21   54.58    2.65
   0  -6 -21   59.25    4.02
  -1   6  21    8.51    1.42
   1   6 -21    6.63    0.78
  -1  -6 -21    6.89    1.16
   1  -6 -21    5.57    1.07
  -1  -6  21    5.02    1.33
  -1   6 -21    6.35    0.83
  -1  -6  21    5.68    1.98
  -2   6  21   40.74    2.60
  -2   6  21   43.82    2.20
  -2   6 -21   46.43    2.00
  -2  -6  21   38.85    3.79
  -2  -6  21   47.53    5.11
  -2   6 -21   41.41    1.73
   2   6  21   39.78    2.76
   0   7  21   15.46    1.71
   0   7 -21   16.28    1.25
   0  -7 -21   17.79    1.87
  -1   7  21    1.56    0.52
  -1  -7 -21    2.24    0.61
   1   7 -21    1.57    0.34
   1  -7 -21    2.14    0.63
  -1  -7  21    1.01    0.69
  -1   7 -21    1.80    0.34
  -2   7  21   19.83    1.34
  -2  -7  21   21.33    2.73
   2   7  21   15.75    1.26
  -2   7 -21   22.97    1.08
   0   8  21    7.48    0.83
   0   8 -21    8.79    0.74
   0  -8 -21    7.33    1.02
  -1   8  21   16.25    1.28
  -1  -8 -21   14.76    1.31
   1   8 -21   14.07    0.78
  -1   8 -21   14.80    0.88
  -1  -8  21   12.70    1.92
  -1   8 -21   13.42    0.79
   0   0  22   59.47    7.82
  -1   0  22   15.88    2.42
  -1   0 -22   14.51    1.22
  -1   0  22   15.70    4.15
  -2   0 -22   99.13    3.74
  -2   0 -22  103.38    3.55
  -2   0  22  102.85    6.10
  -2   0  22   96.57   10.17
  -3   0 -22    1.22    0.34
  -3   0 -22    0.66    0.09
  -3   0  22    0.92    0.23
   0   1  22    8.81    3.12
   0   1 -22   11.89    1.02
   0  -1  22   11.17    3.20
  -1  -1 -22    2.87    0.55
  -1   1  22    2.38    0.90
  -1   1  22    1.55    1.44
  -1   1 -22    2.25    0.48
  -1  -1  22    3.96    1.85
  -1  -1  22    2.23    0.98
  -2  -1 -22   58.36    2.68
  -2   1  22   46.11    6.99
  -2   1  22   66.37    4.74
  -2  -1 -22   58.56    2.40
  -2  -1  22   60.54    4.34
  -2   1 -22   64.34    2.81
  -2  -1  22   62.82    7.96
  -2   1 -22   61.88    2.73
  -3  -1 -22    7.28    0.78
  -3   1  22    5.24    0.80
  -3   1 -22    6.04    0.63
  -3   1 -22    6.57    0.68
  -3   1 -22    5.91    0.69
  -3  -1  22    4.05    1.39
  -3  -1  22    5.41    0.70
   0  -2  22    2.90    1.79
   0   2 -22    3.86    0.65
  -1  -2 -22   44.83    3.40
  -1   2  22   32.42    6.15
  -1   2  22   42.19    4.19
  -1   2 -22   42.87    2.38
  -1  -2  22   39.03    3.47
  -1  -2  22   50.12    7.09
  -1   2 -22   41.62    2.24
  -2   2  22   90.71    5.74
  -2  -2  22   84.18    4.85
   2  -2 -22   89.70    4.89
  -2   2 -22   89.13    3.52
  -2  -2  22   95.98    9.53
  -3   2  22    7.50    0.93
  -3  -2 -22    4.48    0.52
  -3   2 -22    4.71    0.57
  -3  -2  22    3.77    0.48
  -3  -2  22    3.27    1.21
  -3   2 -22    5.57    0.62
  -3   2 -22    4.48    0.55
   0   3 -22   35.73    2.16
   0  -3 -22   34.16    3.05
   0  -3  22   36.40    5.49
  -1   3  22  142.68    8.07
  -1  -3 -22  143.14    7.04
  -1  -3  22  161.87   13.25
  -1   3 -22  140.11    4.89
  -1   3 -22  142.08    5.06
  -2   3  22    5.16    0.97
  -2   3  22    4.77    1.09
  -2  -3 -22    4.36    0.62
  -2   3 -22    3.99    0.66
  -2   3 -22    3.88    0.68
  -2  -3  22    5.63    1.95
  -3   3  22    6.53    0.79
  -3   3  22    6.25    0.73
  -3  -3  22    3.56    1.19
  -3   3 -22    6.09    0.60
  -3   3 -22    6.01    0.58
   0  -4 -22   63.74    4.30
   0   4 -22   61.02    2.95
   0  -4  22   62.75    7.18
  -1  -4 -22    2.74    0.77
  -1   4  22    0.91    0.70
  -1   4  22    2.26    0.70
  -1   4 -22    3.10    0.56
  -1  -4  22    2.34    1.67
  -1  -4  22    2.75    1.36
   1  -4 -22    3.21    0.91
  -1   4 -22    2.41    0.55
  -2   4  22    7.70    1.40
  -2   4  22    7.09    1.06
  -2   4 -22    7.81    0.83
  -2   4 -22    8.56    0.85
  -2  -4  22   10.07    2.60
  -3   4  22   43.61    1.78
  -3   4  22   54.22    2.19
  -3   4 -22   53.26    1.76
  -3   4 -22   48.76    1.70
   0   5 -22    1.10    0.40
   0  -5 -22    0.80    0.46
   0  -5  22   -0.38    0.76
  -1   5  22   13.82    2.06
  -1  -5 -22   16.51    1.91
  -1   5  22   13.91    1.41
   1   5 -22   14.65    1.14
   1  -5 -22   17.30    1.93
  -1   5 -22   16.66    1.39
  -1  -5  22   17.71    3.65
  -1  -5  22   10.66    2.08
  -2   5  22    1.60    0.40
  -2   5  22    2.22    0.70
  -2   5  22    1.32    0.50
  -2   5 -22    1.68    0.36
  -2  -5  22    2.19    1.20
  -2   5 -22    1.00    0.21
   0   6 -22    5.38    0.74
   0   6  22    5.91    1.06
   0  -6 -22    5.25    1.08
  -1  -6 -22  137.64    6.29
  -1   6  22  131.00    6.07
   1   6 -22  134.61    4.15
  -1   6  22  128.50    5.70
   1  -6 -22  141.43    6.28
  -1   6 -22  137.86    4.53
  -1  -6  22  152.54   10.90
  -2   6  22   13.05    1.02
  -2   6  22   12.16    1.20
  -2   6 -22   13.57    0.84
   2   6  22   10.91    1.15
  -2   6 -22   15.00    0.96
  -2  -6  22   16.06    2.63
   0   7 -22    3.13    0.54
   0  -7 -22    3.77    0.80
   0   7  22    2.71    0.62
   1   7 -22    2.60    0.40
  -1  -7 -22    3.39    0.70
  -1   7  22    2.38    0.57
  -1   7 -22    2.81    0.41
  -1   7 -22    3.54    0.55
   1  -7 -22    2.97    0.57
  -1  -7  22    2.78    1.10
  -2  -7  22   16.75    2.08
  -2   7 -22   16.57    0.79
   0   8 -22   51.57    1.86
   0  -8 -22   48.69    2.68
  -1   8  22   16.52    1.12
  -1   8 -22   15.87    0.82
   0   0  23    0.07    1.15
  -1   0 -23   70.64    2.90
  -1   0  23   68.29    5.10
  -1   0  23   72.83    9.03
  -2   0  23    6.32    1.34
  -2   0 -23    6.69    0.75
  -2   0 -23    7.18    0.83
  -2   0  23    6.05    2.27
  -3   0 -23   18.24    0.96
  -3   0 -23   20.51    1.21
  -3   0  23   17.75    1.34
  -3   0  23   21.11    1.37
   0  -1  23   46.70    6.65
   0   1  23   34.57    6.01
  -1   1  23   46.70    7.20
  -1  -1 -23   52.88    2.40
  -1   1  23   54.82    4.62
  -1  -1  23   57.45    7.81
  -1  -1  23   48.14    4.05
  -1   1 -23   54.74    2.52
  -2  -1 -23    9.47    0.93
  -2   1  23    9.90    1.69
  -2   1  23    6.97    2.63
  -2   1 -23   10.39    0.96
  -2   1 -23    9.45    0.94
  -2  -1  23    8.91    1.51
  -2  -1  23    8.49    2.70
  -3   1  23   61.22    2.68
  -3  -1 -23   56.67    2.12
  -3  -1  23   53.80    2.42
  -3   1 -23   58.83    2.17
  -3   1 -23   56.26    1.97
  -3  -1  23   58.41    2.29
   0  -2  23   34.26    5.52
   0   2 -23   35.82    2.04
  -1  -2 -23    5.95    1.12
  -1   2  23    7.03    1.55
  -1  -2  23    5.60    1.24
  -1   2 -23    5.56    0.75
  -1  -2  23    6.50    2.65
  -1   2 -23    5.88    0.85
  -2   2  23    1.91    0.83
   2  -2 -23    0.44    0.19
  -2  -2  23    0.67    0.30
  -2   2 -23    0.43    0.33
  -2  -2  23    0.20    0.76
  -2   2 -23    0.77    0.40
  -3   2  23   21.99    1.45
  -3  -2 -23   19.22    1.05
  -3   2 -23   20.62    1.08
  -3   2 -23   18.93    1.06
  -3   2 -23   20.94    1.09
  -3  -2  23   13.39    0.98
   0  -3 -23    6.92    1.30
   0   3 -23    7.58    0.93
   0  -3  23    6.49    2.19
  -1  -3 -23   34.58    2.87
  -1   3  23   34.77    3.58
   1  -3 -23   33.38    2.88
  -1  -3  23   39.35    5.98
  -1   3 -23   31.77    1.91
  -1   3 -23   34.68    2.10
  -2  -3 -23   26.46    1.51
  -2   3  23   22.95    1.96
  -2   3  23   27.35    2.76
  -2   3 -23   24.20    1.47
  -2  -3  23   28.83    4.68
  -2   3 -23   23.70    1.52
  -2   3 -23   25.23    1.58
  -3   3  23   39.67    1.76
  -3   3  23   41.17    1.87
  -3   3 -23   36.81    1.46
  -3   3 -23   37.78    1.46
   0  -4 -23   61.06    4.07
   0   4 -23   59.39    2.82
   0  -4  23   58.01    6.72
  -1   4  23   11.34    1.97
  -1   4  23   12.47    1.43
  -1  -4 -23   10.24    1.47
  -1   4 -23   11.46    1.14
  -1  -4  23   14.33    3.40
  -1   4 -23   12.35    1.12
   1  -4 -23   12.68    1.64
  -2   4  23   34.41    2.24
  -2   4  23   36.10    2.88
  -2  -4  23   36.32    4.89
  -2   4 -23   34.48    1.76
  -2   4 -23   33.93    1.78
  -3   4  23    3.95    0.45
  -3   4 -23    3.63    0.34
   0   5  23   37.86    3.37
   0  -5 -23   43.59    3.25
   0   5 -23   40.65    2.22
  -1   5  23   13.06    1.87
  -1  -5 -23   13.80    1.63
  -1   5 -23   14.70    1.24
  -1   5 -23   14.20    1.16
  -1  -5  23   12.56    2.90
   1  -5 -23   13.86    1.62
  -2   5  23   75.60    3.69
  -2   5  23   84.55    3.89
  -2   5  23   80.25    3.16
  -2  -5  23   88.79    7.32
  -2   5 -23   83.94    2.82
   2   5  23   65.72    3.45
  -2   5 -23   80.95    2.62
   0   6  23   37.20    2.83
   0  -6 -23   41.07    2.92
   0   6  23   36.52    2.73
   0   6 -23   40.59    2.02
   1   6 -23   21.41    1.19
  -1   6  23   22.69    1.89
  -1   6  23   21.98    2.04
  -1  -6 -23   21.98    1.93
  -1  -6  23   23.79    3.60
  -1   6 -23   22.55    1.43
   1  -6 -23   24.23    1.98
  -1   6 -23   22.88    1.34
  -2   6  23    4.73    0.50
  -2   6  23    6.92    0.78
  -2  -6  23    7.90    1.65
  -2   6 -23    7.61    0.60
  -2   6 -23    5.34    0.46
   0  -7 -23   97.96    4.57
   0   7 -23  100.05    3.20
   0   7  23   94.03    3.92
  -1   7  23    1.00    0.38
  -1  -7 -23    1.01    0.31
  -1   7 -23    1.09    0.24
   1  -7 -23    1.16    0.33
  -1   7 -23    0.75    0.16
  -1  -7  23    1.06    0.53
  -1   7 -23    1.32    0.30
   0  -8 -23    0.07    0.08
   0   0  24    0.31    0.59
  -1   0  24   58.92    8.09
  -1   0  24   64.13    4.81
  -1   0 -24   64.66    2.69
  -2   0  24    3.10    0.97
  -2   0  24    3.22    1.59
  -2   0 -24    2.98    0.49
  -2   0 -24    2.83    0.53
  -3   0 -24    2.43    0.40
  -3   0  24    2.14    0.36
  -3   0  24    1.52    0.36
   0  -1  24   84.99    9.30
  -1   1  24    8.54    1.80
  -1   1  24    6.35    2.62
  -1  -1 -24    8.71    0.84
  -1   1 -24    8.54    0.86
  -1  -1  24    8.13    2.79
  -1  -1  24    8.40    1.53
  -2   1  24   32.83    3.01
  -2   1  24   24.12    4.37
  -2  -1  24   31.24    2.70
  -2  -1  24   29.05    4.88
  -2   1 -24   33.70    1.78
  -2   1 -24   32.48    1.67
  -3   1  24    0.79    0.25
  -3  -1 -24    1.38    0.26
  -3   1  24    1.25    0.34
  -3  -1  24    1.57    0.28
  -3  -1  24    1.59    0.37
  -3   1 -24    1.09    0.22
  -3   1 -24    1.15    0.25
   0   2 -24   76.38    3.05
   0  -2  24   70.52    8.09
  -1  -2 -24    2.93    0.79
  -1   2  24    2.17    1.11
  -1   2 -24    2.75    0.42
  -1  -2  24    2.56    1.68
  -2  -2 -24    5.73    0.75
  -2   2  24    5.71    1.23
   2  -2 -24    3.71    0.75
  -2  -2  24    4.87    1.88
  -2   2 -24    5.66    0.70
  -2  -2  24    4.62    0.84
  -2   2 -24    4.99    0.64
  -2   2 -24    5.95    0.74
  -3   2  24   15.77    1.04
  -3   2  24   17.42    1.14
  -3   2 -24   15.07    0.81
   0  -3 -24   13.68    1.72
   0  -3  24   11.42    2.96
   0   3 -24   14.80    1.25
  -1   3  24   52.31    4.33
  -1  -3 -24   55.12    3.60
  -1   3 -24   54.65    2.65
  -1  -3  24   61.18    7.39
  -1   3 -24   54.41    2.49
   1  -3 -24   55.12    3.67
  -2   3  24   13.06    1.76
  -2   3  24   13.23    1.37
  -2  -3 -24   12.63    1.06
  -2  -3  24   12.79    2.93
  -2   3 -24   14.41    1.07
  -2   3 -24   13.16    0.99
  -2   3 -24   13.39    1.05
  -3   3  24   28.26    1.33
  -3   3 -24   28.63    1.08
   0   4 -24    0.65    0.28
   0  -4  24    1.07    0.92
   0  -4 -24    0.40    0.34
  -1   4  24   44.58    2.59
  -1   4  24   41.66    3.57
  -1  -4 -24   44.24    3.09
  -1   4 -24   44.49    2.29
  -1  -4  24   45.58    5.95
   1  -4 -24   45.59    3.15
  -1   4 -24   46.13    2.18
  -2   4  24   10.92    1.44
  -2   4  24   10.51    1.08
  -2   4 -24   11.81    0.92
  -2  -4  24    9.84    2.37
  -2   4 -24   10.34    0.84
   0   5  24   31.51    2.99
   0   5 -24   36.47    1.94
   0  -5 -24   37.17    2.79
  -1   5  24   40.71    3.09
  -1  -5 -24   40.69    2.79
   1  -5 -24   43.85    2.91
  -1   5 -24   43.41    2.11
  -1  -5  24   46.37    5.48
  -1   5 -24   42.44    1.96
  -2   5  24   -0.17    0.26
  -2   5  24    0.50    0.31
  -2   5  24    0.45    0.21
  -2   5 -24    0.50    0.16
  -2  -5  24    1.53    0.93
  -2   5 -24    0.33    0.09
   0   6  24    0.31    0.22
   0  -6 -24    0.25    0.19
   0   6  24    0.29    0.19
   0   6 -24    0.73    0.21
  -1  -6 -24    9.42    1.10
  -1   6  24    8.67    1.13
  -1  -6  24    8.67    1.96
  -1   6 -24    9.27    0.72
   1   6  24    7.80    1.05
  -1   6 -24    8.58    0.79
   1  -6 -24    8.23    0.99
  -2   6 -24    1.17    0.19
  -2  -6  24    0.49    0.18
   0   7 -24   10.87    0.75
   0  -7 -24   10.93    1.11
   0   7  24    7.74    0.77
  -1   7  24   36.26    1.87
  -1  -7 -24   29.99    1.76
   0   0  25   -0.11    0.76
  -1   0  25   26.17    2.78
  -1   0  25   24.43    4.83
  -1   0 -25   25.12    1.47
  -2   0  25    4.70    1.81
  -2   0 -25    5.60    0.57
  -2   0 -25    5.99    0.67
  -2   0  25    6.68    1.17
  -3   0 -25   62.62    1.87
  -3   0  25   56.13    1.89
  -3   0  25   56.23    2.03
   0  -1  25   82.88    8.93
   0  -1  25   91.81    5.47
  -1  -1 -25    7.28    1.17
  -1   1  25    6.13    1.36
  -1   1  25    3.39    1.66
  -1  -1  25    5.68    2.41
  -1   1 -25    6.13    0.68
  -1  -1  25    9.04    1.66
  -2   1  25    9.31    1.47
  -2  -1 -25    9.41    0.91
  -2  -1  25    8.91    2.62
  -2   1 -25    8.85    0.86
  -2   1 -25    8.96    0.82
  -2  -1  25    7.63    1.16
  -2   1 -25    8.50    0.78
  -3   1  25    5.33    0.51
  -3   1  25    5.78    0.55
   0  -2  25    1.57    1.04
  -1  -2 -25   53.89    3.47
  -1   2  25   61.08    4.57
  -1  -2  25   60.11    7.44
  -1   2 -25   56.76    2.43
  -2   2  25   63.51    3.13
  -2   2  25   60.30    3.85
  -2  -2 -25   60.23    2.33
  -2  -2  25   55.21    6.41
  -2   2 -25   60.94    2.37
   2  -2 -25   61.70    3.21
  -2   2 -25   61.39    2.41
  -2   2 -25   58.12    2.26
   0  -3 -25    0.30    0.38
   0  -3  25    1.00    0.86
   0   3 -25    0.95    0.32
  -1   3  25    5.24    1.22
  -1   3  25    5.62    0.90
  -1  -3 -25    5.25    0.93
  -1   3 -25    4.92    0.62
   1  -3 -25    4.56    0.95
  -1  -3  25    3.87    1.75
  -2  -3 -25   15.75    0.98
  -2   3  25   16.19    1.38
  -2   3  25   18.44    1.88
  -2  -3  25   14.23    2.88
  -2   3 -25   15.22    0.98
  -2   3 -25   16.42    1.07
  -2   3 -25   16.39    1.06
   0   4 -25  136.69    4.35
   0  -4 -25  137.86    6.31
   0   4  25  129.29    6.83
  -1   4  25   10.44    1.10
  -1   4  25   10.32    1.69
  -1  -4 -25    9.60    1.23
   1  -4 -25   10.32    1.29
  -1   4 -25   10.60    0.89
  -1  -4  25   10.90    2.64
  -2   4  25    7.91    0.98
  -2   4  25    8.42    1.09
  -2   4  25    7.53    0.81
  -2  -4  25    7.45    1.88
  -2   4 -25    8.53    0.70
  -2   4 -25    7.71    0.68
   0   5 -25    0.44    0.22
   0  -5 -25    0.24    0.12
   0   5  25    1.00    0.53
  -1   5  25    9.98    1.33
  -1  -5 -25   11.30    1.23
  -1   5 -25   10.25    0.80
   1  -5 -25   10.64    1.21
  -1   5 -25   10.32    0.88
  -1  -5  25   11.33    2.42
  -2   5  25    5.36    0.64
  -2   5 -25    6.13    0.50
  -2   5 -25    6.69    0.52
  -2  -5  25    6.57    1.46
   0  -6 -25    3.72    0.66
   0   6  25    4.17    0.70
   0   6 -25    4.64    0.53
   0   6  25    4.26    0.78
  -1   6  25   39.08    2.26
  -1  -6 -25   38.38    2.14
   1  -6 -25   37.50    2.08
  -1   6 -25   29.17    1.25
  -1  -6  25   33.66    3.61
   0  -7 -25   40.05    2.09
   0   0  26    0.09    0.34
  -1   0  26   79.87    9.06
  -1   0 -26   88.09    2.98
  -1   0  26   93.07    5.29
  -2   0  26   26.52    2.18
  -2   0 -26   27.87    1.51
  -2   0 -26   25.29    1.17
   0  -1  26    0.68    0.79
   0   1  26    2.46    0.83
   0  -1  26    2.62    0.85
  -1   1  26    7.51    1.35
  -1  -1 -26    6.82    1.05
  -1  -1  26    7.68    2.57
  -1  -1  26    8.34    1.28
  -1   1 -26    6.43    0.67
  -2  -1 -26   26.92    1.45
  -2   1  26   26.92    2.29
  -2   1 -26   26.47    1.29
  -2   1 -26   26.48    1.39
   2  -1 -26   27.76    1.90
  -2  -1  26   27.60    2.03
  -2  -1  26   20.25    3.62
  -2   1 -26   28.42    1.50
   0   2  26   47.48    3.93
   0  -2  26   30.88    4.90
   0  -2 -26   47.02    3.18
  -1  -2 -26   17.71    1.72
  -1   2  26   18.28    2.38
  -1  -2  26   16.49    3.67
  -1   2 -26   16.90    1.13
   1  -2 -26   17.72    1.80
  -2  -2 -26   49.00    1.88
  -2   2  26   49.85    3.15
  -2   2  26   47.95    2.49
  -2   2 -26   47.56    1.92
  -2   2 -26   47.42    1.83
   2  -2 -26   44.66    2.41
  -2   2 -26   48.06    1.91
  -2  -2  26   40.34    5.08
   0   3  26    9.84    1.65
   0  -3  26    6.48    1.97
   0  -3 -26   11.32    1.40
  -1   3  26   32.60    2.98
  -1  -3 -26   31.84    2.32
  -1   3  26   31.46    2.01
  -1   3 -26   32.39    1.58
   1  -3 -26   32.17    2.41
  -1  -3  26   28.51    4.60
  -2   3  26   36.17    2.47
  -2  -3 -26   32.83    1.31
  -2   3  26   34.08    1.85
  -2   3 -26   34.89    1.48
  -2  -3  26   31.00    4.07
  -2   3 -26   31.59    1.32
  -2   3 -26   35.15    1.51
   0  -4 -26    0.66    0.36
   0   4 -26    0.31    0.20
   0   4  26   -0.28    0.56
  -1  -4 -26   25.90    1.94
  -1   4  26   25.96    2.42
  -1  -4  26   25.50    3.94
   1  -4 -26   25.40    1.97
  -1   4 -26   25.35    1.30
  -2   4  26   50.08    1.97
  -2   4  26   57.75    2.72
  -2   4  26   45.90    2.27
  -2   4 -26   55.22    1.78
  -2  -4  26   45.74    4.55
  -2   4 -26   52.08    1.77
   0   5 -26   24.06    1.28
   0  -5 -26   24.80    1.91
   0   5  26   23.33    2.11
  -1   5  26   20.01    1.70
  -1  -5 -26   19.68    1.50
  -1   5 -26   15.82    0.89
   1   5  26   18.19    1.75
   1  -5 -26   19.39    1.50
  -1  -5  26   18.05    2.88
   0   6  26    0.52    0.25
   0  -6 -26    0.01    0.12
  -1   6  26   22.15    1.41
  -1   6 -26   21.31    0.90
   0   0  27    0.08    0.34
  -1   0  27    0.20    0.59
  -1   0  27   -0.81    0.84
  -1   0 -27    0.30    0.19
  -2   0  27   15.26    1.47
   2   0 -27   13.59    1.18
  -2   0 -27   14.72    1.00
   0   1  27   33.15    3.13
   0  -1  27   34.43    2.82
  -1  -1 -27   30.97    2.21
  -1   1  27   31.93    2.86
  -1  -1  27   23.50    4.29
  -1   1 -27   28.99    1.39
  -1  -1  27   29.30    2.39
  -2  -1 -27   18.47    1.07
  -2   1  27   20.45    1.78
  -2   1  27   19.77    1.41
  -2   1 -27   19.66    1.11
   2  -1 -27   16.36    1.26
  -2  -1  27   16.89    1.36
  -2  -1  27   13.18    2.69
  -2   1 -27   17.68    0.91
   0   2  27    9.49    1.61
   0  -2 -27    8.77    1.22
   0  -2  27    4.55    1.61
  -1  -2 -27    4.28    0.76
  -1   2  27    4.71    1.09
   1  -2 -27    4.14    0.80
  -1   2 -27    3.93    0.46
  -1  -2  27    3.12    1.41
  -2   2  27   22.91    1.45
  -2  -2 -27   21.03    1.06
  -2   2  27   24.79    1.91
  -2   2 -27   21.85    1.08
  -2   2 -27   21.51    1.04
  -2   2 -27   22.03    1.11
  -2  -2  27   14.87    2.70
   0   3  27   36.11    3.16
   0  -3 -27   40.11    2.71
  -1   3  27   77.53    4.39
  -1   3  27   76.54    3.00
  -1  -3 -27   75.56    3.66
   1  -3 -27   75.36    3.78
  -1  -3  27   69.05    6.91
  -1   3 -27   71.87    2.38
  -2   3  27    6.04    0.62
  -2   3  27    5.40    0.69
  -2   3  27    7.55    0.95
  -2   3 -27    6.36    0.51
  -2  -3  27    4.77    1.31
  -2   3 -27    6.28    0.50
   0   4  27   -0.22    0.25
   0  -4 -27    0.40    0.24
  -1   4  27    2.42    0.57
  -1  -4 -27    2.54    0.49
  -1   4 -27    1.94    0.27
  -1  -4  27    1.81    0.90
   1  -4 -27    3.33    0.59
  -2  -4  27    0.74    0.48
  -2   4 -27    1.08    0.18
   0   5  27   50.47    2.89
   0  -5 -27   53.48    2.77
   0   5  27   49.11    2.54
  -1  -5 -27    3.68    0.52
  -1   5  27    4.70    0.71
  -1   5  27    4.58    0.64
   1  -5 -27    4.65    0.62
  -1  -5  27    3.40    0.98
   1   5  27    4.63    0.80
   0  -6 -27    3.97    0.53
   0   0  28   32.61    2.75
  -1   0  28   49.15    3.18
  -1   0 -28   48.91    2.67
  -2   0 -28    4.94    0.48
  -2   0  28    3.50    0.58
   0  -1  28    5.84    1.02
   0   1  28    6.06    1.14
   0  -1 -28    7.26    1.04
  -1  -1 -28   23.30    1.72
  -1   1  28   26.11    2.32
  -1  -1  28   23.48    1.89
  -1  -1  28   17.36    3.41
  -2  -1 -28    6.24    0.52
  -2   1  28    5.84    0.79
  -2   1  28    5.23    0.63
  -2   1 -28    5.93    0.52
   0  -2 -28   41.74    2.70
   0   2  28   37.94    3.11
  -1  -2 -28   18.95    1.49
  -1   2  28   19.15    1.98
  -1   2  28   18.48    1.33
  -1  -2  28   13.80    2.79
   1  -2 -28   18.75    1.62
  -2  -2 -28    5.19    0.42
  -2   2  28    5.82    0.77
  -2   2  28    5.42    0.58
  -2   2 -28    5.56    0.44
   0  -3 -28   24.62    1.91
   0   3  28   24.71    2.35
  -1  -3 -28   26.12    1.72
  -1   3  28   30.36    2.35
   1  -3 -28   27.34    1.86
  -1  -3  28   21.59    3.30
   0  -4 -28   19.89    1.56
   0   4  28   21.59    1.92
  -1   4  28   12.11    1.24
  -1  -4 -28    9.40    0.86
   1  -4 -28   10.69    0.97
  -1  -4  28    7.91    1.67
   1   4  28   10.84    1.27
   0   5  28    8.57    0.92
   0  -5 -28    9.19    0.88
   0   0  29    0.84    0.53
   1   0  29   12.47    1.41
  -1   0  29   13.30    1.38
  -2   0 -29   20.98    0.89
  -2   0  29   19.87    1.09
   0  -1 -29   43.43    2.64
   0   1  29   38.05    2.84
  -1   1  29    3.26    0.78
  -1  -1 -29    2.56    0.47
   1  -1 -29    3.12    0.61
  -1   1 -29    2.62    0.30
   1   1  29    2.69    0.76
   0  -2 -29    2.13    0.53
   0   2  29    2.66    0.72
  -1   2  29   19.68    1.74
  -1  -2 -29   15.79    1.18
  -1   2  29   13.26    0.95
  -1   2 -29   17.48    0.89
   1  -2 -29   17.86    1.42
   1   2  29   17.52    1.80
   0   3  29    1.38    0.48
   0  -3 -29    1.65    0.42
  -1   3  29   11.06    1.22
  -1   3 -29   10.71    0.67
   1  -3 -29   10.85    0.98
   1   3  29    9.83    1.23
   0   4  29   55.14    2.87
   0  -4 -29   57.12    2.67
  -1   4  29    4.85    0.60
  -1   4 -29    6.61    0.44
   1   4  29    5.51    0.72
   0   0  30    4.88    0.78
   0   0 -30    4.14    0.66
  -1   0  30   10.74    0.99
   1   0  30    7.94    0.88
   1   0 -30   12.51    1.12
   0   1  30    9.86    1.18
   0  -1 -30   11.52    1.13
  -1   1  30   15.85    1.35
   1  -1 -30   14.30    1.19
   1   1  30   16.55    1.44
   0   2  30   53.15    3.02
   0  -2 -30   54.27    2.72
  -1   2  30   17.69    1.40
  -1  -2 -30   15.76    0.76
   1   2  30   18.70    1.52
  -1   2 -30   14.55    0.74
   1  -2 -30   16.27    1.17
   0  -3 -30    1.43    0.34
   0   3  30    1.37    0.41
   1   3  30   13.51    1.16
   0   0 -31    0.41    0.22
   1   0 -31   12.73    0.96
  -1   0 -31   15.31    0.73
   0   1  31   18.79    1.39
   0   1 -31   18.18    1.28
   0  -1 -31   22.35    1.41
   0   2  31   11.56    1.05
   0  -2 -31   10.96    0.90
   0   0   0    0.00    0.00
;
_shelx_hkl_checksum              3872
#END Tags that were not found in dictionaries
loop_
_space_group_symop_operation_xyz
'x, y, z'
'-x+1/2, -y, z+1/2'
'x+1/2, -y+1/2, -z'
'-x, y+1/2, -z+1/2'
loop_
_atom_site_label
_atom_site_type_symbol
_atom_site_fract_x
_atom_site_fract_y
_atom_site_fract_z
_atom_site_U_iso_or_equiv
_atom_site_adp_type
_atom_site_occupancy
_atom_site_site_symmetry_order
_atom_site_calc_flag
_atom_site_refinement_flags_posn
_atom_site_refinement_flags_adp
Br1 Br -0.35638(12) -0.30422(5) -0.79535(2) 0.01900(13) Uani 1 1 d . .
S1 S -0.2541(3) -0.15950(13) -0.72356(5) 0.0220(3) Uani 1 1 d . .
S2 S -0.2054(3) -0.46619(12) -0.67890(5) 0.0184(2) Uani 1 1 d . .
N1 N 0.0366(10) -0.2442(4) -0.63340(16) 0.0179(8) Uani 1 1 d . .
H1 H 0.0950 -0.1542 -0.6271 0.022 Uiso 1 1 calc R U
C1 C -0.1249(12) -0.2829(5) -0.67726(19) 0.0188(9) Uani 1 1 d . .
C2 C -0.0106(12) -0.4885(5) -0.61682(18) 0.0186(9) Uani 1 1 d . .
C3 C 0.0399(12) -0.6148(5) -0.5880(2) 0.0199(9) Uani 1 1 d . .
H3 H -0.0396 -0.7052 -0.6006 0.024 Uiso 1 1 calc R U
C4 C 0.2104(12) -0.6030(6) -0.5404(2) 0.0220(10) Uani 1 1 d . .
H4 H 0.2497 -0.6874 -0.5199 0.026 Uiso 1 1 calc R U
C5 C 0.3277(13) -0.4698(6) -0.52143(19) 0.0240(10) Uani 1 1 d . .
H5 H 0.4405 -0.4657 -0.4881 0.029 Uiso 1 1 calc R U
C6 C 0.2821(12) -0.3450(6) -0.5502(2) 0.0228(10) Uani 1 1 d . .
H6 H 0.3667 -0.2551 -0.5380 0.027 Uiso 1 1 calc R U
C7 C 0.1073(12) -0.3558(5) -0.59793(19) 0.0182(9) Uani 1 1 d . .
Br2 Br -0.48773(12) -0.46207(5) -0.88885(2) 0.01904(13) Uani 1 1 d . .
loop_
_atom_site_aniso_label
_atom_site_aniso_U_11
_atom_site_aniso_U_22
_atom_site_aniso_U_33
_atom_site_aniso_U_23
_atom_site_aniso_U_13
_atom_site_aniso_U_12
Br1 0.0194(2) 0.0166(2) 0.0210(2) 0.00053(19) -0.00071(18) 0.00066(18)
S1 0.0298(6) 0.0159(5) 0.0203(5) 0.0002(4) -0.0034(4) 0.0004(4)
S2 0.0202(5) 0.0147(5) 0.0203(5) -0.0022(4) -0.0003(4) -0.0018(4)
N1 0.0195(18) 0.0147(17) 0.0196(19) -0.0029(14) 0.0005(15) -0.0037(16)
C1 0.018(2) 0.019(2) 0.020(2) -0.0049(18) 0.0014(18) -0.0015(18)
C2 0.020(2) 0.019(2) 0.017(2) -0.0023(17) 0.0043(19) -0.0009(18)
C3 0.021(2) 0.015(2) 0.024(2) 0.0005(18) 0.0037(19) 0.0013(18)
C4 0.021(2) 0.024(2) 0.022(2) 0.0056(19) 0.0023(18) 0.0047(19)
C5 0.025(2) 0.030(2) 0.017(2) 0.0012(19) 0.0008(19) 0.001(2)
C6 0.019(2) 0.027(3) 0.022(2) -0.005(2) 0.0049(18) -0.001(2)
C7 0.017(2) 0.018(2) 0.020(2) 0.0004(17) 0.0033(16) 0.0018(17)
Br2 0.0204(2) 0.0162(2) 0.0205(2) -0.00008(17) -0.00318(18) 0.00119(18)
loop_
_atom_type_symbol
_atom_type_description
_atom_type_scat_dispersion_real
_atom_type_scat_dispersion_imag
_atom_type_scat_source
C C 0.0181 0.0091 'International Tables Vol C Tables 4.2.6.8 and 6.1.1.4'
H H 0.0000 0.0000 'International Tables Vol C Tables 4.2.6.8 and 6.1.1.4'
Br Br -0.6763 1.2805 'International Tables Vol C Tables 4.2.6.8 and 6.1.1.4'
N N 0.0311 0.0180 'International Tables Vol C Tables 4.2.6.8 and 6.1.1.4'
S S 0.3331 0.5567 'International Tables Vol C Tables 4.2.6.8 and 6.1.1.4'
loop_
_geom_angle_atom_site_label_1
_geom_angle_atom_site_label_2
_geom_angle_atom_site_label_3
_geom_angle
C1 S1 Br1 101.33(17)
C1 S2 C2 90.7(2)
C1 N1 C7 115.3(4)
C1 N1 H1 122.4
C7 N1 H1 122.4
N1 C1 S1 121.9(4)
N1 C1 S2 112.1(4)
S1 C1 S2 125.8(3)
C3 C2 C7 121.0(4)
C3 C2 S2 128.7(4)
C7 C2 S2 110.2(3)
C4 C3 C2 117.1(5)
C4 C3 H3 121.5
C2 C3 H3 121.5
C3 C4 C5 121.8(5)
C3 C4 H4 119.1
C5 C4 H4 119.1
C6 C5 C4 121.2(5)
C6 C5 H5 119.4
C4 C5 H5 119.4
C5 C6 C7 117.2(5)
C5 C6 H6 121.4
C7 C6 H6 121.4
C6 C7 N1 126.7(5)
C6 C7 C2 121.6(5)
N1 C7 C2 111.6(4)
loop_
_geom_bond_atom_site_label_1
_geom_bond_atom_site_label_2
_geom_bond_distance
_geom_bond_publ_flag
Br1 S1 2.2827(13) yes
S1 C1 1.710(5) yes
S2 C1 1.729(5) yes
S2 C2 1.753(5) yes
N1 C1 1.325(6) yes
N1 C7 1.394(6) yes
N1 H1 0.8800 ?
C2 C3 1.391(7) ?
C2 C7 1.400(7) ?
C3 C4 1.378(7) ?
C3 H3 0.9500 ?
C4 C5 1.404(8) ?
C4 H4 0.9500 ?
C5 C6 1.376(8) ?
C5 H5 0.9500 ?
C6 C7 1.388(7) ?
C6 H6 0.9500 ?
loop_
_geom_hbond_atom_site_label_D
_geom_hbond_atom_site_label_H
_geom_hbond_atom_site_label_A
_geom_hbond_distance_DH
_geom_hbond_distance_HA
_geom_hbond_distance_DA
_geom_hbond_angle_DHA
_geom_hbond_site_symmetry_A
_geom_hbond_publ_flag
N1 H1 Br2 0.88 2.41 3.223(4) 154.7 4_553 yes
C3 H3 Br2 0.95 3.05 3.943(5) 157.6 4_443 yes
loop_
_geom_torsion_atom_site_label_1
_geom_torsion_atom_site_label_2
_geom_torsion_atom_site_label_3
_geom_torsion_atom_site_label_4
_geom_torsion
C7 N1 C1 S1 176.2(3)
C7 N1 C1 S2 -0.2(6)
Br1 S1 C1 N1 163.5(4)
Br1 S1 C1 S2 -20.6(3)
C2 S2 C1 N1 0.2(4)
C2 S2 C1 S1 -176.0(3)
C1 S2 C2 C3 -178.6(5)
C1 S2 C2 C7 -0.2(4)
C7 C2 C3 C4 0.0(7)
S2 C2 C3 C4 178.2(4)
C2 C3 C4 C5 0.2(7)
C3 C4 C5 C6 -1.2(8)
C4 C5 C6 C7 1.8(8)
C5 C6 C7 N1 -179.2(5)
C5 C6 C7 C2 -1.6(7)
C1 N1 C7 C6 177.8(5)
C1 N1 C7 C2 0.0(6)
C3 C2 C7 C6 0.8(7)
S2 C2 C7 C6 -177.8(4)
C3 C2 C7 N1 178.7(4)
S2 C2 C7 N1 0.2(5)
