#------------------------------------------------------------------------------
#$Date: 2016-03-24 14:52:29 +0200 (Thu, 24 Mar 2016) $
#$Revision: 179676 $
#$URL: svn://www.crystallography.net/cod/cif/4/51/28/4512856.cif $
#------------------------------------------------------------------------------
#
# This file is available in the Crystallography Open Database (COD),
# http://www.crystallography.net/
#
# All data on this site have been placed in the public domain by the
# contributors.
#
data_4512856
loop_
_publ_author_name
'Das, Amit'
'Han, Zhiji'
'Brennessel, William W.'
'Holland, Patrick L.'
'Eisenberg, Richard'
_publ_section_title
;
 Nickel Complexes for Robust Light-Driven and Electrocatalytic Hydrogen
 Production from Water
;
_journal_issue                   3
_journal_name_full               'ACS Catalysis'
_journal_page_first              1397
_journal_paper_doi               10.1021/acscatal.5b00045
_journal_volume                  5
_journal_year                    2015
_chemical_formula_moiety         'C12 H10 N2 Ni S2'
_chemical_formula_sum            'C12 H10 N2 Ni S2'
_chemical_formula_weight         305.05
_chemical_name_common            eisad02
_chemical_name_systematic
; 
 ? 
;
_space_group_crystal_system      monoclinic
_space_group_IT_number           14
_space_group_name_Hall           '-P 2ybc'
_space_group_name_H-M_alt        'P 1 21/c 1'
_symmetry_space_group_name_Hall  '-P 2ybc'
_symmetry_space_group_name_H-M   'P 1 21/c 1'
_atom_sites_solution_hydrogens   geom
_atom_sites_solution_primary     direct
_atom_sites_solution_secondary   difmap
_audit_creation_method           SHELXL-2013
_cell_angle_alpha                90
_cell_angle_beta                 95.547(8)
_cell_angle_gamma                90
_cell_formula_units_Z            2
_cell_length_a                   12.301(5)
_cell_length_b                   5.883(2)
_cell_length_c                   8.098(3)
_cell_measurement_reflns_used    1560
_cell_measurement_temperature    100.0(5)
_cell_measurement_theta_max      28.92
_cell_measurement_theta_min      3.85
_cell_volume                     583.3(4)
_computing_cell_refinement       'SAINT (Bruker, 2013)'
_computing_data_collection       'APEX2 (Bruker, 2013)'
_computing_data_reduction        'SAINT (Bruker, 2013)'
_computing_molecular_graphics    'SHELXTL (Sheldrick, 2008)'
_computing_publication_material  'SHELXTL (Sheldrick, 2008)'
_computing_structure_refinement  'SHELXL-2013 (Sheldrick, 2013)'
_computing_structure_solution    'SIR2011 (Burla et al., 2012)'
_diffrn_ambient_temperature      100.0(5)
_diffrn_measured_fraction_theta_full 0.996
_diffrn_measured_fraction_theta_max 0.996
_diffrn_measurement_device_type  'Bruker SMART APEX II CCD platform'
_diffrn_measurement_method       '\w scans'
_diffrn_radiation_type           MoK\a
_diffrn_radiation_wavelength     0.71073
_diffrn_reflns_av_R_equivalents  0.1401
_diffrn_reflns_av_unetI/netI     0.0975
_diffrn_reflns_Laue_measured_fraction_full 0.996
_diffrn_reflns_Laue_measured_fraction_max 0.996
_diffrn_reflns_limit_h_max       16
_diffrn_reflns_limit_h_min       -17
_diffrn_reflns_limit_k_max       8
_diffrn_reflns_limit_k_min       0
_diffrn_reflns_limit_l_max       11
_diffrn_reflns_limit_l_min       0
_diffrn_reflns_number            13830
_diffrn_reflns_point_group_measured_fraction_full 0.996
_diffrn_reflns_point_group_measured_fraction_max 0.996
_diffrn_reflns_theta_full        29.575
_diffrn_reflns_theta_max         29.561
_diffrn_reflns_theta_min         3.328
_diffrn_source                   'fine-focus sealed tube'
_exptl_absorpt_coefficient_mu    1.995
_exptl_absorpt_correction_T_max  0.7459
_exptl_absorpt_correction_T_min  0.3370
_exptl_absorpt_correction_type   multi-scan
_exptl_absorpt_process_details   'SADABS (Sheldrick, 2012)'
_exptl_crystal_colour            blue
_exptl_crystal_density_diffrn    1.737
_exptl_crystal_description       plate
_exptl_crystal_F_000             312
_exptl_crystal_size_max          0.22
_exptl_crystal_size_mid          0.16
_exptl_crystal_size_min          0.06
_refine_diff_density_max         1.147
_refine_diff_density_min         -0.735
_refine_diff_density_rms         0.161
_refine_ls_extinction_method     none
_refine_ls_goodness_of_fit_ref   1.036
_refine_ls_hydrogen_treatment    constr
_refine_ls_matrix_type           full
_refine_ls_number_parameters     80
_refine_ls_number_reflns         1626
_refine_ls_number_restraints     0
_refine_ls_restrained_S_all      1.036
_refine_ls_R_factor_all          0.1129
_refine_ls_R_factor_gt           0.0655
_refine_ls_shift/su_max          0.000
_refine_ls_shift/su_mean         0.000
_refine_ls_structure_factor_coef Fsqd
_refine_ls_weighting_details
'w=1/[\s^2^(Fo^2^)+(0.0718P)^2^+0.6363P] where P=(Fo^2^+2Fc^2^)/3'
_refine_ls_weighting_scheme      calc
_refine_ls_wR_factor_gt          0.1376
_refine_ls_wR_factor_ref         0.1596
_reflns_Friedel_coverage         0.000
_reflns_number_gt                1099
_reflns_number_total             1626
_reflns_threshold_expression     'I > 2\s(I)'
_cod_data_source_file            cs5b00045_si_002.cif
_cod_data_source_block           2
_cod_database_code               4512856
#BEGIN Tags that were not found in dictionaries:
_shelx_space_group_comment
; 
The symmetry employed for this shelxl refinement is uniquely defined 
by the following loop, which should always be used as a source of 
symmetry information in preference to the above space-group names. 
They are only intended as comments. 
;
_shelx_estimated_absorpt_t_min   0.668
_shelx_estimated_absorpt_t_max   0.890
_shelxl_version_number           2013-4
_shelx_res_file
; 
TITL eisad02 in P2(1)/c 
CELL 0.71073  12.30120   5.88250   8.09820  90.0000  95.5473  90.0000 
ZERR    2.00   0.00450   0.00210   0.00290   0.0000   0.0077   0.0000 
LATT  1 
SYMM -X, 0.5+Y, 0.5-Z 
SFAC C H N S NI 
UNIT 24 20 4 4 2 
TEMP -173 
SIZE 0.22 0.16 0.06 
  
OMIT  1  0  0 
  
L.S. 8 
BOND $H 
FMAP 2 
PLAN 18 
  
ACTA 59.15 
CONF 
LIST 4 
HTAB 
  
WGHT    0.071800    0.636300 
BASF   0.30576 
FVAR       0.84166 
NI1   5    0.000000    0.000000    0.000000    10.50000    0.02897    0.01166 = 
         0.01915   -0.00098    0.00248   -0.00122 
S1    4    0.130749   -0.249099    0.020423    11.00000    0.03389    0.01326 = 
         0.02145   -0.00141    0.00202   -0.00018 
N1    3    0.086874    0.184166    0.137149    11.00000    0.02854    0.01736 = 
         0.02270   -0.00143    0.00534   -0.00099 
AFIX  43 
H1    2    0.061786    0.317149    0.165690    11.00000   -1.20000 
AFIX   0 
C1    1    0.224432   -0.097119    0.144315    11.00000    0.03129    0.01220 = 
         0.02475    0.00355    0.01003   -0.00227 
C2    1    0.188343    0.121529    0.195668    11.00000    0.03012    0.01105 = 
         0.02152   -0.00035    0.01381   -0.00196 
C3    1    0.261132    0.257693    0.300246    11.00000    0.03821    0.01728 = 
         0.02210   -0.00373    0.01040   -0.00379 
AFIX  43 
H3    2    0.238151    0.402607    0.335259    11.00000   -1.20000 
AFIX   0 
C4    1    0.363185    0.182716    0.350603    11.00000    0.03726    0.02659 = 
         0.02696   -0.00003    0.00587   -0.00401 
AFIX  43 
H4    2    0.411357    0.275766    0.420036    11.00000   -1.20000 
AFIX   0 
C5    1    0.398316   -0.032996    0.300427    11.00000    0.02860    0.02850 = 
         0.02956    0.00443    0.00058   -0.00077 
AFIX  43 
H5    2    0.469739   -0.084326    0.337579    11.00000   -1.20000 
AFIX   0 
C6    1    0.330737   -0.169013    0.198936    11.00000    0.03545    0.01933 = 
         0.02965    0.00360    0.00969    0.00542 
AFIX  43 
H6    2    0.355898   -0.312860    0.165264    11.00000   -1.20000 
  
AFIX   0 
HKLF 5 
  
REM  eisad02 in P2(1)/c 
REM R1 =  0.0655 for    1099 Fo > 4sig(Fo)  and  0.1129 for all    1626 data 
REM     80 parameters refined using      0 restraints 
  
END 
  
WGHT      0.0709      0.6660 
  
REM Instructions for potential hydrogen bonds 
EQIV $1 x, y+1, z 
HTAB N1 S1_$1 
EQIV $2 x, -y+1/2, z+1/2 
HTAB C3 S1_$2 
  
REM Highest difference peak  1.147,  deepest hole -0.735,  1-sigma level  0.161 
Q1    1   0.0581  0.0023 -0.0415  11.00000  0.05    1.15 
Q2    1   0.0792 -0.0092  0.0058  11.00000  0.05    1.09 
Q3    1   0.0582 -0.1783 -0.0369  11.00000  0.05    0.67 
Q4    1   0.2189  0.0598  0.1420  11.00000  0.05    0.61 
Q5    1   0.1994 -0.2475 -0.0127  11.00000  0.05    0.58 
Q6    1   0.0729 -0.2806  0.1046  11.00000  0.05    0.56 
Q7    1   0.2021 -0.2504  0.0545  11.00000  0.05    0.55 
Q8    1   0.1415  0.1858  0.1339  11.00000  0.05    0.53 
Q9    1   0.3213  0.2854  0.2889  11.00000  0.05    0.51 
Q10   1   0.2787 -0.1572  0.2379  11.00000  0.05    0.50 
Q11   1   0.0019  0.0654  0.0088  11.00000  0.05    0.49 
Q12   1   0.0847  0.2753  0.1061  11.00000  0.05    0.49 
Q13   1   0.2998  0.1660  0.3530  11.00000  0.05    0.49 
Q14   1   0.0133  0.5084  0.1578  11.00000  0.05    0.48 
Q15   1   0.0056  0.2141  0.0919  11.00000  0.05    0.46 
Q16   1   0.1835 -0.0854  0.1806  11.00000  0.05    0.46 
Q17   1   0.2977 -0.1116  0.1277  11.00000  0.05    0.46 
Q18   1   0.2617  0.1523  0.2415  11.00000  0.05    0.45 
;
_shelx_res_checksum              3212
_shelx_hkl_file
; 
   2   0   0 -2.7688 3.63493  -2 
   2   0   0 -2.7688 3.63493   1 
   3   0   0 446.788 22.3970  -2 
   3   0   0 446.788 22.3970   1 
   4   0   0 211.706 13.2662  -2 
   4   0   0 211.706 13.2662   1 
   5   0   0 687.824 33.8157  -2 
   5   0   0 687.824 33.8157   1 
   6   0   0 409.377 22.7082  -2 
   6   0   0 409.377 22.7082   1 
   7   0   0 504.689 27.3411  -2 
   7   0   0 504.689 27.3411   1 
   8   0   0 1979.77 92.3422  -2 
   8   0   0 1979.77 92.3422   1 
   9   0   0 879.177 39.1404  -2 
   9   0   0 879.177 39.1404   1 
  10   0   0 230.307 16.8954  -2 
  10   0   0 230.307 16.8954   1 
  11   0   0 31.1630 10.5558  -2 
  11   0   0 31.1630 10.5558   1 
  12   0   0 55.2116 15.7526  -2 
  12   0   0 55.2116 15.7526   1 
  13   0   0 89.5229 18.2313  -2 
  13   0   0 89.5229 18.2313   1 
  14   0   0 192.404 22.9015  -2 
  14   0   0 192.404 22.9015   1 
  15   0   0 390.347 41.1500  -2 
  15   0   0 390.347 41.1500   1 
  16   0   0 115.772 32.2749  -2 
  16   0   0 115.772 32.2749   1 
   0   1   0 3.70536 3.73222   1 
   1   1   0 80.2901 3.87736  -2 
   1   1   0 80.2901 3.87736   1 
   2   1   0 502.362 15.9406  -2 
   2   1   0 502.362 15.9406   1 
   3   1   0 162.030 6.24100  -2 
   3   1   0 162.030 6.24100   1 
   4   1   0 100.417 5.14953  -2 
   4   1   0 100.417 5.14953   1 
   5   1   0 1189.67 35.9780  -2 
   5   1   0 1189.67 35.9780   1 
   6   1   0 788.133 25.2155  -2 
   6   1   0 788.133 25.2155   1 
   7   1   0 -6.1279 4.43534  -2 
   7   1   0 -6.1279 4.43534   1 
   8   1   0 27.3777 5.87544  -2 
   8   1   0 27.3777 5.87544   1 
   9   1   0 307.631 13.6571  -2 
   9   1   0 307.631 13.6571   1 
  10   1   0 887.977 33.1285  -2 
  10   1   0 887.977 33.1285   1 
  11   1   0 54.1486 9.62775  -2 
  11   1   0 54.1486 9.62775   1 
  12   1   0 196.935 16.4936  -2 
  12   1   0 196.935 16.4936   1 
  13   1   0 117.664 15.7705  -2 
  13   1   0 117.664 15.7705   1 
  14   1   0 99.1850 16.0778  -2 
  14   1   0 99.1850 16.0778   1 
  15   1   0 -15.608 14.2241  -2 
  15   1   0 -15.608 14.2241   1 
  16   1   0 18.4963 16.6920  -2 
  16   1   0 18.4963 16.6920   1 
   0   2   0 964.418 38.6718  -2 
   0   2   0 964.418 38.6718   1 
   1   2   0 12.2291 4.98186  -2 
   1   2   0 12.2291 4.98186   1 
   2   2   0 2625.37 75.9143  -2 
   2   2   0 2625.37 75.9143   1 
   3   2   0 2203.67 60.3481  -2 
   3   2   0 2203.67 60.3481   1 
   4   2   0 3997.03 115.392  -2 
   4   2   0 3997.03 115.392   1 
   5   2   0 3977.76 115.019  -2 
   5   2   0 3977.76 115.019   1 
   6   2   0 512.811 18.2851  -2 
   6   2   0 512.811 18.2851   1 
   7   2   0 87.8852 6.36160  -2 
   7   2   0 87.8852 6.36160   1 
   8   2   0 3.11043 6.42412  -2 
   8   2   0 3.11043 6.42412   1 
   9   2   0 93.1209 12.9438  -2 
   9   2   0 93.1209 12.9438   1 
  10   2   0 790.163 34.0150  -2 
  10   2   0 790.163 34.0150   1 
  11   2   0 344.586 21.1910  -2 
  11   2   0 344.586 21.1910   1 
  12   2   0 313.061 21.1678  -2 
  12   2   0 313.061 21.1678   1 
  13   2   0 281.564 20.7828  -2 
  13   2   0 281.564 20.7828   1 
  14   2   0 -28.356 13.4739  -2 
  14   2   0 -28.356 13.4739   1 
  15   2   0 11.7838 15.9810  -2 
  15   2   0 11.7838 15.9810   1 
  16   2   0 -12.200 16.8998  -2 
  16   2   0 -12.200 16.8998   1 
   0   3   0 -4.5957 8.13567   1 
   1   3   0 31.5138 5.79589  -2 
   1   3   0 31.5138 5.79589   1 
   2   3   0 1384.49 42.2505  -2 
   2   3   0 1384.49 42.2505   1 
   3   3   0 325.142 13.3279  -2 
   3   3   0 325.142 13.3279   1 
   4   3   0 65.0818 6.17601  -2 
   4   3   0 65.0818 6.17601   1 
   5   3   0 1025.51 36.3313  -2 
   5   3   0 1025.51 36.3313   1 
   6   3   0 480.202 20.0385  -2 
   6   3   0 480.202 20.0385   1 
   7   3   0 7.83504 8.86284  -2 
   7   3   0 7.83504 8.86284   1 
   8   3   0 43.7975 10.2950  -2 
   8   3   0 43.7975 10.2950   1 
   9   3   0 86.7342 11.2673  -2 
   9   3   0 86.7342 11.2673   1 
  10   3   0 155.279 13.6774  -2 
  10   3   0 155.279 13.6774   1 
  11   3   0 36.8870 12.8474  -2 
  11   3   0 36.8870 12.8474   1 
  12   3   0 18.0613 13.0698  -2 
  12   3   0 18.0613 13.0698   1 
  13   3   0 88.7129 15.9794  -2 
  13   3   0 88.7129 15.9794   1 
  14   3   0 99.8172 17.2552  -2 
  14   3   0 99.8172 17.2552   1 
  15   3   0 -10.733 19.2827  -2 
  15   3   0 -10.733 19.2827   1 
   0   4   0 2463.07 97.6575  -2 
   0   4   0 2463.07 97.6575   1 
   1   4   0 1615.73 47.1576  -2 
   1   4   0 1615.73 47.1576   1 
   2   4   0 956.036 29.9612  -2 
   2   4   0 956.036 29.9612   1 
   3   4   0 199.281 11.8323  -2 
   3   4   0 199.281 11.8323   1 
   4   4   0 0.54373 6.98089  -2 
   4   4   0 0.54373 6.98089   1 
   5   4   0 30.6729 9.95083  -2 
   5   4   0 30.6729 9.95083   1 
   6   4   0 219.169 14.5558  -2 
   6   4   0 219.169 14.5558   1 
   7   4   0 1703.11 64.3049  -2 
   7   4   0 1703.11 64.3049   1 
   8   4   0 1561.14 59.9247  -2 
   8   4   0 1561.14 59.9247   1 
   9   4   0 201.875 17.0874  -2 
   9   4   0 201.875 17.0874   1 
  10   4   0 44.9070 12.7659  -2 
  10   4   0 44.9070 12.7659   1 
  11   4   0 4.90763 12.0114  -2 
  11   4   0 4.90763 12.0114   1 
  12   4   0 31.5285 16.8062  -2 
  12   4   0 31.5285 16.8062   1 
  13   4   0 48.2862 18.5161  -2 
  13   4   0 48.2862 18.5161   1 
  14   4   0 126.025 21.1720  -2 
  14   4   0 126.025 21.1720   1 
   0   5   0 -10.917 13.1038   1 
   1   5   0 257.376 14.0534  -2 
   1   5   0 257.376 14.0534   1 
   2   5   0 702.167 24.9336  -2 
   2   5   0 702.167 24.9336   1 
   3   5   0 533.568 20.6642  -2 
   3   5   0 533.568 20.6642   1 
   4   5   0 117.184 11.8638  -2 
   4   5   0 117.184 11.8638   1 
   5   5   0 291.208 17.3185  -2 
   5   5   0 291.208 17.3185   1 
   6   5   0 98.7226 12.7650  -2 
   6   5   0 98.7226 12.7650   1 
   7   5   0 79.5953 13.7152  -2 
   7   5   0 79.5953 13.7152   1 
   8   5   0 18.0899 12.2980  -2 
   8   5   0 18.0899 12.2980   1 
   9   5   0 18.6296 12.9458  -2 
   9   5   0 18.6296 12.9458   1 
  10   5   0 59.7367 14.5727  -2 
  10   5   0 59.7367 14.5727   1 
  11   5   0 66.1495 15.5645  -2 
  11   5   0 66.1495 15.5645   1 
  12   5   0 12.2455 15.0098  -2 
  12   5   0 12.2455 15.0098   1 
  13   5   0 61.5210 19.7780  -2 
  13   5   0 61.5210 19.7780   1 
   0   6   0 -0.5666 13.8424  -2 
   0   6   0 -0.5666 13.8424   1 
   1   6   0 12.8390 10.0020  -2 
   1   6   0 12.8390 10.0020   1 
   2   6   0 674.883 25.3368  -2 
   2   6   0 674.883 25.3368   1 
   3   6   0 1391.72 47.0948  -2 
   3   6   0 1391.72 47.0948   1 
   4   6   0 349.222 18.6613  -2 
   4   6   0 349.222 18.6613   1 
   5   6   0 347.081 19.1720  -2 
   5   6   0 347.081 19.1720   1 
   6   6   0 189.075 15.5557  -2 
   6   6   0 189.075 15.5557   1 
   7   6   0 -12.585 10.3062  -2 
   7   6   0 -12.585 10.3062   1 
   8   6   0 -11.331 12.8650  -2 
   8   6   0 -11.331 12.8650   1 
   9   6   0 33.6656 15.5098  -2 
   9   6   0 33.6656 15.5098   1 
  10   6   0 182.882 19.8362  -2 
  10   6   0 182.882 19.8362   1 
  11   6   0 332.410 30.2956  -2 
  11   6   0 332.410 30.2956   1 
   0   7   0 16.0345 16.1523   1 
   1   7   0 64.2552 12.8254  -2 
   1   7   0 64.2552 12.8254   1 
   2   7   0 406.010 21.5552  -2 
   2   7   0 406.010 21.5552   1 
   3   7   0 151.663 15.4170  -2 
   3   7   0 151.663 15.4170   1 
   4   7   0 30.7865 11.9361  -2 
   4   7   0 30.7865 11.9361   1 
   5   7   0 78.8258 14.0816  -2 
   5   7   0 78.8258 14.0816   1 
   6   7   0 101.413 17.8291  -2 
   6   7   0 101.413 17.8291   1 
   7   7   0 51.5531 16.7854  -2 
   7   7   0 51.5531 16.7854   1 
   8   7   0 13.3394 15.5751  -2 
   8   7   0 13.3394 15.5751   1 
   0   8   0 509.272 55.1783  -2 
   0   8   0 509.272 55.1783   1 
   1   8   0 396.310 28.2737  -2 
   1   8   0 396.310 28.2737   1 
   2   8   0 23.8429 18.3006  -2 
   2   8   0 23.8429 18.3006   1 
   3   8   0 58.2125 16.7474  -2 
   3   8   0 58.2125 16.7474   1 
 -17   0   1 21.0624 20.2973   1 
 -16   0   1 -11.768 17.6748   1 
 -15   0   1 -15.215 17.0163   1 
 -14   0   1 9.42791 13.2306   1 
 -13   0   1 19.5059 12.8194   1 
 -12   0   1 20.2335 12.7807   1 
 -11   0   1 6.28748 9.32723   1 
 -10   0   1 1.54691 9.06187   1 
  -9   0   1 13.8598 8.81581   1 
  -8   0   1 0.34886 7.36520   1 
  -7   0   1 -1.8484 6.70887   1 
  -6   0   1 -2.9535 5.79417   1 
  -5   0   1 6.30119 5.66114   1 
  -4   0   1 -2.3930 4.20004   1 
  -3   0   1 -2.4622 4.76541   1 
  -2   0   1 0.07432 3.95536   1 
  -1   0   1 17.9841 2.97119   1 
   0   0   1 0.17103 2.04809   1 
   1   0   1 -0.9404 2.32230   1 
   2   0   1 4.79509 4.40122   1 
   3   0   1 3.61681 4.93855   1 
   4   0   1 0.74484 4.91353   1 
   5   0   1 1.60801 5.45462   1 
   6   0   1 6.77030 6.52239   1 
   7   0   1 3.12457 6.60334   1 
   8   0   1 6.52246 7.27489   1 
   9   0   1 4.07759 8.10618   1 
  10   0   1 -11.073 8.21594   1 
  11   0   1 6.53368 8.41875   1 
  12   0   1 8.87206 11.4271   1 
  13   0   1 -8.0330 11.2281   1 
  14   0   1 10.5772 13.7208   1 
  15   0   1 -41.064 14.9292   1 
  16   0   1 7.38996 20.2362   1 
 -16   1   1 35.1470 13.1341   1 
 -15   1   1 48.5739 13.1201   1 
 -14   1   1 53.0711 15.1626   1 
 -13   1   1 178.615 20.9484   1 
 -12   1   1 120.000 14.8007   1 
 -11   1   1 221.106 13.8675   1 
 -10   1   1 249.325 14.7205   1 
  -9   1   1 246.086 14.2063   1 
  -8   1   1 155.484 9.93167   1 
  -7   1   1 246.411 11.2579   1 
  -6   1   1 1036.15 32.4296   1 
  -5   1   1 482.735 16.6843   1 
  -4   1   1 694.684 21.9640   1 
  -3   1   1 1074.59 34.6086   1 
  -2   1   1 281.795 9.56370   1 
  -1   1   1 7667.37 233.846   1 
   0   1   1 2456.04 65.8745   1 
   1   1   1 230.406 8.57072   1 
   2   1   1 1145.57 32.0828   1 
   3   1   1 302.193 11.0632   1 
   4   1   1 1913.87 61.4976   1 
   5   1   1 805.124 25.9394   1 
   6   1   1 110.319 7.82507   1 
   7   1   1 336.588 13.8170   1 
   8   1   1 336.266 14.4978   1 
   9   1   1 567.869 21.3211   1 
  10   1   1 220.463 11.9958   1 
  11   1   1 76.8595 9.60313   1 
  12   1   1 179.668 13.8407   1 
  13   1   1 41.5848 10.6497   1 
  14   1   1 56.4655 12.8324   1 
  15   1   1 33.6238 12.6871   1 
  16   1   1 7.71302 12.6654   1 
 -16   2   1 -0.2869 12.7839   1 
 -15   2   1 12.5900 13.7032   1 
 -14   2   1 23.2199 11.8776   1 
 -13   2   1 8.62471 10.9834   1 
 -12   2   1 15.2656 10.8934   1 
 -11   2   1 101.708 14.4607   1 
 -10   2   1 57.2317 10.0021   1 
  -9   2   1 -0.8620 7.74835   1 
  -8   2   1 18.1984 8.26224   1 
  -7   2   1 13.2518 6.95211   1 
  -6   2   1 24.6569 7.09921   1 
  -5   2   1 7.11242 3.72552   1 
  -4   2   1 107.354 7.06669   1 
  -3   2   1 212.993 8.52222   1 
  -2   2   1 20.5435 4.08340   1 
  -1   2   1 269.379 10.6013   1 
   0   2   1 -2.5073 3.74874   1 
   1   2   1 96.5137 7.11331   1 
   2   2   1 227.524 9.73461   1 
   3   2   1 1.04791 3.40368   1 
   4   2   1 122.222 6.40509   1 
   5   2   1 10.0619 4.51455   1 
   6   2   1 -0.6596 4.56325   1 
   7   2   1 4.76791 5.49993   1 
   8   2   1 4.34739 5.74825   1 
   9   2   1 75.8805 9.88797   1 
  10   2   1 6.33619 8.92582   1 
  11   2   1 101.542 14.4217   1 
  12   2   1 10.2907 10.2362   1 
  13   2   1 2.07346 9.43486   1 
  14   2   1 6.74158 10.2931   1 
  15   2   1 10.8022 12.2141   1 
  16   2   1 9.24229 12.8361   1 
  15   3   1 54.0367 69.7242  -2 
 -15   3   1 54.0367 69.7242   1 
 -14   3   1 46.4434 14.1116   1 
 -13   3   1 47.6094 14.1849   1 
 -12   3   1 4.57801 10.8619   1 
 -11   3   1 183.466 15.4735   1 
 -10   3   1 112.024 13.2741   1 
  -9   3   1 221.580 15.3642   1 
  -8   3   1 786.166 31.2761   1 
  -7   3   1 163.155 13.3613   1 
  -6   3   1 425.428 17.0906   1 
  -5   3   1 956.180 31.8094   1 
  -4   3   1 258.164 11.2714   1 
  -3   3   1 747.700 25.0237   1 
  -2   3   1 515.805 18.4782   1 
  -1   3   1 66.2539 6.77718   1 
   0   3   1 331.678 12.5770   1 
   1   3   1 1398.12 40.2299   1 
   2   3   1 927.626 30.1701   1 
   3   3   1 847.820 28.1271   1 
   4   3   1 961.353 29.3836   1 
   5   3   1 298.018 13.3521   1 
   6   3   1 647.401 23.6041   1 
   7   3   1 538.471 23.2935   1 
   8   3   1 73.1795 10.1276   1 
   9   3   1 118.959 14.2691   1 
  10   3   1 51.0073 12.3761   1 
  11   3   1 73.1807 13.2665   1 
 -12   3   1 112.573 41.9544  -2 
  12   3   1 112.573 41.9544   1 
  13   3   1 50.2641 13.7135   1 
  14   3   1 55.8387 13.4612   1 
  15   3   1 20.0003 12.4157   1 
  14   4   1 21.1409 42.1610  -2 
 -14   4   1 21.1409 42.1610   1 
 -13   4   1 -3.3898 12.7975   1 
 -12   4   1 -3.7438 12.2037   1 
 -11   4   1 -5.6547 8.76967   1 
 -10   4   1 -0.5884 9.65229   1 
  -9   4   1 -3.8538 8.97207   1 
  -8   4   1 45.8446 10.6823   1 
  -7   4   1 5.64409 8.51326   1 
  -6   4   1 59.6741 10.3886   1 
  -5   4   1 -5.4623 7.60346   1 
  -4   4   1 46.3051 7.66196   1 
  -3   4   1 9.04173 6.34971   1 
  -2   4   1 27.5829 6.98502   1 
  -1   4   1 7.39340 6.51216   1 
   0   4   1 123.597 9.79707   1 
   1   4   1 -1.0248 6.40674   1 
  -2   4   1 110.178 30.2342  -2 
   2   4   1 110.178 30.2342   1 
   3   4   1 -4.0505 6.87777   1 
   4   4   1 9.49563 7.19545   1 
   5   4   1 95.0125 9.66901   1 
   6   4   1 50.5145 9.37175   1 
  -7   4   1 50.5117 34.5956  -2 
   7   4   1 50.5117 34.5956   1 
   8   4   1 12.5198 8.93169   1 
  -9   4   1 52.2442 36.6246  -2 
   9   4   1 52.2442 36.6246   1 
 -10   4   1 -29.729 32.2100  -2 
  10   4   1 -29.729 32.2100   1 
 -11   4   1 43.6252 35.2192  -2 
  11   4   1 43.6252 35.2192   1 
 -12   4   1 15.7790 36.1507  -2 
  12   4   1 15.7790 36.1507   1 
  13   4   1 23.4170 14.3594   1 
  14   4   1 47.6199 16.1736   1 
  13   5   1 62.8589 43.4684  -2 
 -13   5   1 62.8589 43.4684   1 
  12   5   1 40.9151 40.1544  -2 
 -12   5   1 40.9151 40.1544   1 
  11   5   1 119.183 42.7295  -2 
 -11   5   1 119.183 42.7295   1 
  10   5   1 158.067 28.5205  -2 
 -10   5   1 158.067 28.5205   1 
   9   5   1 162.502 37.8855  -2 
  -9   5   1 162.502 37.8855   1 
   8   5   1 174.590 42.1568  -2 
  -8   5   1 174.590 42.1568   1 
  -7   5   1 179.510 17.0381   1 
   6   5   1 216.228 36.0653  -2 
  -6   5   1 216.228 36.0653   1 
  -5   5   1 31.9165 9.27316   1 
  -4   5   1 444.182 19.6978   1 
  -3   5   1 672.615 23.8857   1 
  -2   5   1 259.666 13.7080   1 
  -1   5   1 409.221 17.6935   1 
   0   5   1 262.757 14.1483   1 
  -1   5   1 737.094 71.0299  -2 
   1   5   1 737.094 71.0299   1 
  -2   5   1 816.909 76.9364  -2 
   2   5   1 816.909 76.9364   1 
  -3   5   1 540.279 56.8522  -2 
   3   5   1 540.279 56.8522   1 
  -4   5   1 252.549 39.9531  -2 
   4   5   1 252.549 39.9531   1 
  -5   5   1 165.815 37.5422  -2 
   5   5   1 165.815 37.5422   1 
  -6   5   1 275.538 45.3960  -2 
   6   5   1 275.538 45.3960   1 
  -7   5   1 358.156 42.2700  -2 
   7   5   1 358.156 42.2700   1 
   8   5   1 108.826 15.8339   1 
   9   5   1 119.220 16.3148   1 
  10   5   1 98.6824 14.6015   1 
  11   5   1 99.6753 16.1090   1 
  12   5   1 83.8615 16.4083   1 
 -13   5   1 38.2550 30.7448  -2 
  13   5   1 38.2550 30.7448   1 
  11   6   1 -0.1831 39.2129  -2 
 -11   6   1 -0.1831 39.2129   1 
  10   6   1 54.8230 27.7042  -2 
 -10   6   1 54.8230 27.7042   1 
   9   6   1 -1.9663 33.2327  -2 
  -9   6   1 -1.9663 33.2327   1 
   8   6   1 51.6254 31.8612  -2 
  -8   6   1 51.6254 31.8612   1 
   7   6   1 38.1281 30.8853  -2 
  -7   6   1 38.1281 30.8853   1 
   6   6   1 -52.627 26.4001  -2 
  -6   6   1 -52.627 26.4001   1 
   5   6   1 23.2220 28.0635  -2 
  -5   6   1 23.2220 28.0635   1 
   4   6   1 79.3953 30.3924  -2 
  -4   6   1 79.3953 30.3924   1 
   3   6   1 30.6355 25.6181  -2 
  -3   6   1 30.6355 25.6181   1 
   2   6   1 -32.622 22.2808  -2 
  -2   6   1 -32.622 22.2808   1 
   1   6   1 3.30273 28.3648  -2 
  -1   6   1 3.30273 28.3648   1 
   0   6   1 -44.521 26.3118  -2 
   0   6   1 -44.521 26.3118   1 
  -1   6   1 25.6727 28.3425  -2 
   1   6   1 25.6727 28.3425   1 
  -2   6   1 83.6267 32.1948  -2 
   2   6   1 83.6267 32.1948   1 
  -3   6   1 3.54414 30.9694  -2 
   3   6   1 3.54414 30.9694   1 
  -4   6   1 -11.643 27.1773  -2 
   4   6   1 -11.643 27.1773   1 
  -5   6   1 17.1470 31.8685  -2 
   5   6   1 17.1470 31.8685   1 
  -6   6   1 -35.928 27.7244  -2 
   6   6   1 -35.928 27.7244   1 
  -7   6   1 10.9594 29.6007  -2 
   7   6   1 10.9594 29.6007   1 
  -8   6   1 9.88300 32.1299  -2 
   8   6   1 9.88300 32.1299   1 
  -9   6   1 -2.6983 35.4515  -2 
   9   6   1 -2.6983 35.4515   1 
 -10   6   1 27.5421 38.0291  -2 
  10   6   1 27.5421 38.0291   1 
 -11   6   1 -0.2123 33.9900  -2 
  11   6   1 -0.2123 33.9900   1 
   8   7   1 63.6240 37.7617  -2 
  -8   7   1 63.6240 37.7617   1 
   7   7   1 101.818 39.4926  -2 
  -7   7   1 101.818 39.4926   1 
   6   7   1 173.005 40.5635  -2 
  -6   7   1 173.005 40.5635   1 
   5   7   1 139.644 36.8531  -2 
  -5   7   1 139.644 36.8531   1 
   4   7   1 163.750 31.4826  -2 
  -4   7   1 163.750 31.4826   1 
   3   7   1 124.954 32.2072  -2 
  -3   7   1 124.954 32.2072   1 
   2   7   1 180.585 33.4036  -2 
  -2   7   1 180.585 33.4036   1 
   1   7   1 209.931 41.8804  -2 
  -1   7   1 209.931 41.8804   1 
   0   7   1 95.5804 36.1139  -2 
   0   7   1 95.5804 36.1139   1 
  -1   7   1 160.355 38.9092  -2 
   1   7   1 160.355 38.9092   1 
  -2   7   1 211.783 34.8430  -2 
   2   7   1 211.783 34.8430   1 
  -3   7   1 196.921 41.5586  -2 
   3   7   1 196.921 41.5586   1 
  -4   7   1 99.1770 29.7614  -2 
   4   7   1 99.1770 29.7614   1 
  -5   7   1 130.938 32.5592  -2 
   5   7   1 130.938 32.5592   1 
  -6   7   1 175.376 31.0979  -2 
   6   7   1 175.376 31.0979   1 
  -7   7   1 70.6143 35.8376  -2 
   7   7   1 70.6143 35.8376   1 
  -8   7   1 0.25597 33.8777  -2 
   8   7   1 0.25597 33.8777   1 
  -3   8   1 22.9910 15.0184   1 
   2   8   1 -18.930 30.5611  -2 
  -2   8   1 -18.930 30.5611   1 
   1   8   1 -10.529 31.2736  -2 
  -1   8   1 -10.529 31.2736   1 
   0   8   1 56.0981 28.9769  -2 
   0   8   1 56.0981 28.9769   1 
  -1   8   1 -30.522 27.1840  -2 
   1   8   1 -30.522 27.1840   1 
  -2   8   1 3.10399 27.9084  -2 
   2   8   1 3.10399 27.9084   1 
 -16   0   2 124.286 28.0998   1 
 -15   0   2 131.993 26.8598   1 
 -14   0   2 223.204 24.6087   1 
 -13   0   2 85.9373 23.0879   1 
 -12   0   2 8.21227 15.4541   1 
 -11   0   2 -3.3692 13.1313   1 
 -10   0   2 211.765 19.0915   1 
  -9   0   2 226.611 18.5490   1 
  -8   0   2 433.317 25.7275   1 
  -7   0   2 2299.74 90.6191   1 
  -6   0   2 674.758 29.6626   1 
  -5   0   2 27.6078 7.27098   1 
  -4   0   2 111.460 9.43256   1 
  -3   0   2 17.6051 5.14666   1 
  -2   0   2 9999.99 374.807   1 
  -1   0   2 8845.67 331.677   1 
   0   0   2 253.631 14.0883   1 
   1   0   2 2376.18 103.724   1 
   2   0   2 56.5983 6.58484   1 
   3   0   2 1.10641 4.77855   1 
   4   0   2 9.53977 5.57802   1 
   5   0   2 44.2533 7.76029   1 
   6   0   2 978.600 41.4813   1 
   7   0   2 1285.76 53.7035   1 
   8   0   2 1764.98 72.2142   1 
   9   0   2 947.888 42.9831   1 
  10   0   2 18.6183 10.0722   1 
  11   0   2 5.28607 9.63427   1 
  12   0   2 -7.9185 8.94755   1 
  13   0   2 75.6714 17.5707   1 
  14   0   2 158.325 22.5786   1 
  15   0   2 32.2038 19.5512   1 
  16   0   2 66.6765 23.9501   1 
 -16   1   2 -11.208 12.0098   1 
 -15   1   2 -0.7819 13.4482   1 
 -14   1   2 106.528 16.7830   1 
 -13   1   2 46.6337 13.2079   1 
 -12   1   2 28.9054 10.4327   1 
 -11   1   2 105.830 11.8102   1 
 -10   1   2 217.343 14.4813   1 
  -9   1   2 101.832 10.3226   1 
  -8   1   2 43.4601 7.61899   1 
  -7   1   2 317.370 14.5702   1 
  -6   1   2 712.933 25.9061   1 
  -5   1   2 254.236 11.3322   1 
  -4   1   2 36.8841 5.02456   1 
  -3   1   2 3.91019 4.08687   1 
  -2   1   2 4706.68 146.184   1 
  -1   1   2 2714.87 85.1838   1 
   0   1   2 414.916 15.5287   1 
   1   1   2 216.409 8.81060   1 
   2   1   2 424.021 13.4886   1 
   3   1   2 435.329 15.0177   1 
   4   1   2 79.4949 6.51447   1 
   5   1   2 62.7807 6.17235   1 
   6   1   2 122.914 7.74927   1 
   7   1   2 78.2351 7.70062   1 
   8   1   2 319.118 13.7077   1 
   9   1   2 280.434 13.4376   1 
  10   1   2 18.4569 6.87700   1 
  11   1   2 6.46033 7.45594   1 
  12   1   2 18.8713 8.44083   1 
  13   1   2 118.589 14.1666   1 
  14   1   2 43.2681 12.7007   1 
  15   1   2 13.1672 12.8548   1 
  16   1   2 21.7054 13.6236   1 
 -16   2   2 -13.377 12.8213   1 
 -15   2   2 -10.513 13.9636   1 
 -14   2   2 44.2400 15.5504   1 
 -13   2   2 56.9902 13.4792   1 
 -12   2   2 583.111 30.0883   1 
 -11   2   2 550.320 25.0159   1 
 -10   2   2 120.853 13.2465   1 
  -9   2   2 209.231 14.3812   1 
  -8   2   2 5.34516 5.95932   1 
  -7   2   2 28.3125 5.98696   1 
  -6   2   2 647.432 22.2507   1 
  -5   2   2 961.459 30.9524   1 
  -4   2   2 2515.37 69.3805   1 
  -3   2   2 1045.54 30.4517   1 
  -2   2   2 86.9275 6.42391   1 
  -1   2   2 142.181 7.17974   1 
   0   2   2 83.4463 5.63583   1 
   1   2   2 302.551 10.4494   1 
   2   2   2 1077.35 31.0415   1 
   3   2   2 4816.76 129.881   1 
   4   2   2 3285.23 96.9149   1 
   5   2   2 406.506 17.1927   1 
   6   2   2 136.977 10.5877   1 
   7   2   2 -3.2314 6.18535   1 
   8   2   2 9.86391 7.06753   1 
   9   2   2 45.7228 8.50681   1 
  10   2   2 198.438 13.1300   1 
  11   2   2 606.223 26.8583   1 
  12   2   2 253.517 17.1608   1 
  13   2   2 95.3900 13.6473   1 
  14   2   2 10.2043 10.8544   1 
  15   2   2 -0.8621 12.5409   1 
 -15   3   2 31.6304 14.5354   1 
 -14   3   2 28.4638 13.4422   1 
 -13   3   2 7.22033 9.84815   1 
 -12   3   2 35.9817 10.9224   1 
 -11   3   2 -0.4013 8.69304   1 
 -10   3   2 179.285 15.0852   1 
  -9   3   2 327.341 18.0151   1 
  -8   3   2 3.91454 8.18824   1 
  -7   3   2 528.038 23.1339   1 
  -6   3   2 509.398 19.7992   1 
  -5   3   2 85.2757 6.81819   1 
  -4   3   2 97.9604 8.18478   1 
  -3   3   2 176.731 9.31273   1 
  -2   3   2 295.973 12.6115   1 
  -1   3   2 654.534 21.2358   1 
   0   3   2 85.9306 7.97378   1 
   1   3   2 346.226 13.9283   1 
   2   3   2 264.831 12.8795   1 
   3   3   2 109.953 8.87027   1 
   4   3   2 81.2986 7.75300   1 
   5   3   2 131.425 8.70628   1 
   6   3   2 182.070 9.97826   1 
   7   3   2 49.4583 8.43999   1 
   8   3   2 69.2551 10.3902   1 
   9   3   2 106.858 14.2440   1 
  10   3   2 74.9646 13.2992   1 
  11   3   2 3.64129 11.5780   1 
  12   3   2 51.6898 12.9004   1 
  13   3   2 112.085 16.1863   1 
  14   3   2 51.2716 14.5201   1 
  15   3   2 10.1771 12.5999   1 
 -14   4   2 88.0468 16.1421   1 
 -13   4   2 -7.2125 11.1442   1 
 -12   4   2 6.78926 10.4284   1 
 -11   4   2 -4.5298 9.44127   1 
 -10   4   2 125.332 14.9282   1 
  -9   4   2 577.176 26.7260   1 
  -8   4   2 506.484 23.8969   1 
  -7   4   2 463.825 23.8956   1 
  -6   4   2 351.014 17.7821   1 
  -5   4   2 30.8822 9.00197   1 
  -4   4   2 15.6597 6.31883   1 
  -3   4   2 119.413 9.78817   1 
  -2   4   2 529.384 19.0344   1 
  -1   4   2 917.156 29.2927   1 
   0   4   2 1873.06 54.2244   1 
   1   4   2 2026.86 58.1546   1 
   2   4   2 197.094 10.9707   1 
   3   4   2 54.4318 7.70305   1 
   4   4   2 24.8198 7.64914   1 
   5   4   2 222.079 12.9130   1 
   6   4   2 928.250 32.7587   1 
   7   4   2 500.103 20.8717   1 
   8   4   2 335.986 21.6756   1 
   9   4   2 223.560 20.8562   1 
  10   4   2 17.7142 13.3740   1 
  11   4   2 19.7795 12.4758   1 
  12   4   2 11.6557 12.7990   1 
  13   4   2 49.2304 16.0386   1 
  14   4   2 76.2146 17.8638   1 
 -13   5   2 2.29218 12.9918   1 
 -12   5   2 9.00641 12.6630   1 
 -11   5   2 -15.871 11.8343   1 
 -10   5   2 87.1543 15.3790   1 
  -9   5   2 168.504 19.0510   1 
  -8   5   2 -5.5374 9.58307   1 
  -7   5   2 88.0521 14.5051   1 
  -6   5   2 172.332 16.0088   1 
  -5   5   2 38.5698 9.49683   1 
  -4   5   2 11.8243 7.47079   1 
  -3   5   2 180.865 11.8541   1 
  -2   5   2 287.053 14.2463   1 
  -1   5   2 19.5943 8.15787   1 
   0   5   2 42.7912 8.74702   1 
   1   5   2 524.621 20.2581   1 
   2   5   2 200.220 12.2297   1 
   3   5   2 9.14925 7.06308   1 
   4   5   2 24.1584 7.29138   1 
   5   5   2 227.203 16.2828   1 
   6   5   2 302.839 21.3618   1 
   7   5   2 -6.7867 11.4986   1 
   8   5   2 36.5352 14.8743   1 
   9   5   2 133.030 20.9611   1 
  10   5   2 73.3938 15.8674   1 
  11   5   2 -10.950 11.8833   1 
  12   5   2 -1.1489 13.5214   1 
 -11   6   2 115.995 20.4422   1 
 -10   6   2 25.5392 15.1550   1 
  -9   6   2 -12.646 12.3052   1 
  -8   6   2 11.3304 11.2790   1 
  -7   6   2 2.55648 11.4628   1 
  -6   6   2 0.64628 9.19525   1 
  -5   6   2 542.261 26.3766   1 
  -4   6   2 1187.67 41.9724   1 
  -3   6   2 418.236 20.7926   1 
  -2   6   2 140.838 13.7000   1 
  -1   6   2 6.21758 8.04400   1 
   0   6   2 13.8505 8.20893   1 
   1   6   2 101.700 12.7788   1 
   2   6   2 219.025 16.7502   1 
   3   6   2 417.361 23.4621   1 
   4   6   2 539.294 26.3647   1 
   5   6   2 204.894 17.2957   1 
   6   6   2 58.1769 13.1818   1 
   7   6   2 4.93721 11.0104   1 
   8   6   2 1.42299 12.7453   1 
   9   6   2 47.9984 16.4760   1 
  10   6   2 175.039 24.3239   1 
  -8   7   2 17.7184 11.8626   1 
  -7   7   2 24.5555 12.6807   1 
  -6   7   2 13.0320 11.1150   1 
  -5   7   2 33.3081 12.1377   1 
  -4   7   2 23.0202 10.7673   1 
  -3   7   2 98.4545 15.0300   1 
  -2   7   2 96.5614 14.6023   1 
  -1   7   2 88.9424 15.4961   1 
   0   7   2 29.7319 12.9863   1 
   1   7   2 397.183 27.2555   1 
   2   7   2 80.7232 17.9825   1 
   3   7   2 14.6617 12.7800   1 
   4   7   2 4.60929 15.0283   1 
   5   7   2 132.781 22.0421   1 
   6   7   2 243.808 27.5269   1 
   7   7   2 5.94358 14.7958   1 
  -1   8   2 230.687 28.9984   1 
   0   8   2 296.969 31.8427   1 
   1   8   2 131.476 28.1629   1 
 -16   0   3 14.6983 27.9062   1 
 -15   0   3 14.9259 25.9797   1 
 -14   0   3 -6.6821 34.1194   1 
 -13   0   3 -10.607 24.9846   1 
 -12   0   3 9.94908 26.1844   1 
 -11   0   3 6.12706 22.0676   1 
 -10   0   3 -18.120 15.0270   1 
  -9   0   3 -4.7730 15.0325   1 
  -8   0   3 -5.2867 13.6373   1 
  -7   0   3 -7.0172 12.6204   1 
  -6   0   3 0.93740 12.8368   1 
  -5   0   3 17.4334 10.1906   1 
  -4   0   3 2.44487 11.0143   1 
  -3   0   3 1.21234 6.92687   1 
  -2   0   3 -6.4707 5.12824   1 
  -1   0   3 2.60444 6.56426   1 
   0   0   3 6.48027 5.30670   1 
   1   0   3 6.53021 5.71715   1 
   2   0   3 6.74195 6.08221   1 
   3   0   3 6.82568 8.68698   1 
   4   0   3 1.65000 9.29613   1 
   5   0   3 0.66802 10.2371   1 
   6   0   3 0.60099 11.2043   1 
   7   0   3 -2.7989 13.1315   1 
   8   0   3 6.87958 14.7187   1 
   9   0   3 -13.694 14.1161   1 
  10   0   3 6.10920 14.4049   1 
  11   0   3 -1.3739 14.9221   1 
  12   0   3 15.4078 16.1746   1 
  13   0   3 -6.1584 20.0190   1 
  14   0   3 -4.5085 20.5431   1 
  15   0   3 -3.8225 27.7034   1 
  15   1   3 47.2438 26.5044  -2 
 -16   1   3 47.2438 26.5044   1 
  14   1   3 81.2658 22.7405  -2 
 -15   1   3 81.2658 22.7405   1 
  13   1   3 186.473 24.8558  -2 
 -14   1   3 186.473 24.8558   1 
  12   1   3 99.4791 19.6159  -2 
 -13   1   3 99.4791 19.6159   1 
  11   1   3 159.075 21.9149  -2 
 -12   1   3 159.075 21.9149   1 
  10   1   3 170.937 17.2203  -2 
 -11   1   3 170.937 17.2203   1 
   9   1   3 233.294 18.2328  -2 
 -10   1   3 233.294 18.2328   1 
   8   1   3 335.746 20.8223  -2 
  -9   1   3 335.746 20.8223   1 
   7   1   3 639.975 28.9218  -2 
  -8   1   3 639.975 28.9218   1 
   6   1   3 768.092 32.0028  -2 
  -7   1   3 768.092 32.0028   1 
   5   1   3 463.106 23.2279  -2 
  -6   1   3 463.106 23.2279   1 
   4   1   3 840.135 36.5514  -2 
  -5   1   3 840.135 36.5514   1 
   3   1   3 981.307 36.0538  -2 
  -4   1   3 981.307 36.0538   1 
   2   1   3 1859.68 73.6884  -2 
  -3   1   3 1859.68 73.6884   1 
   1   1   3 2658.66 119.094  -2 
  -2   1   3 2658.66 119.094   1 
   0   1   3 393.369 23.1912  -2 
  -1   1   3 393.369 23.1912   1 
  -1   1   3 557.701 23.7698  -2 
   0   1   3 557.701 23.7698   1 
  -2   1   3 1821.79 83.1524  -2 
   1   1   3 1821.79 83.1524   1 
  -3   1   3 1993.49 78.8845  -2 
   2   1   3 1993.49 78.8845   1 
  -4   1   3 1762.04 57.0501  -2 
   3   1   3 1762.04 57.0501   1 
  -5   1   3 612.344 21.2390  -2 
   4   1   3 612.344 21.2390   1 
  -6   1   3 609.176 20.3053  -2 
   5   1   3 609.176 20.3053   1 
  -7   1   3 741.412 24.1841  -2 
   6   1   3 741.412 24.1841   1 
  -8   1   3 806.017 26.6334  -2 
   7   1   3 806.017 26.6334   1 
  -9   1   3 691.753 24.6359  -2 
   8   1   3 691.753 24.6359   1 
 -10   1   3 126.023 11.3790  -2 
   9   1   3 126.023 11.3790   1 
 -11   1   3 218.549 13.6783  -2 
  10   1   3 218.549 13.6783   1 
 -12   1   3 161.235 13.0668  -2 
  11   1   3 161.235 13.0668   1 
 -13   1   3 121.734 13.6355  -2 
  12   1   3 121.734 13.6355   1 
 -14   1   3 166.210 17.0012  -2 
  13   1   3 166.210 17.0012   1 
 -15   1   3 76.8466 18.0653  -2 
  14   1   3 76.8466 18.0653   1 
 -16   1   3 55.7886 19.5883  -2 
  15   1   3 55.7886 19.5883   1 
  15   2   3 37.7555 28.2853  -2 
 -16   2   3 37.7555 28.2853   1 
  14   2   3 -25.777 20.4048  -2 
 -15   2   3 -25.777 20.4048   1 
  13   2   3 2.66338 19.4129  -2 
 -14   2   3 2.66338 19.4129   1 
  12   2   3 7.30095 16.5966  -2 
 -13   2   3 7.30095 16.5966   1 
  11   2   3 12.1883 15.8311  -2 
 -12   2   3 12.1883 15.8311   1 
  10   2   3 35.9977 15.0000  -2 
 -11   2   3 35.9977 15.0000   1 
   9   2   3 40.1222 14.3884  -2 
 -10   2   3 40.1222 14.3884   1 
   8   2   3 39.6849 12.2319  -2 
  -9   2   3 39.6849 12.2319   1 
   7   2   3 39.3079 9.46502  -2 
  -8   2   3 39.3079 9.46502   1 
   6   2   3 10.2031 7.92135  -2 
  -7   2   3 10.2031 7.92135   1 
   5   2   3 42.8616 8.81677  -2 
  -6   2   3 42.8616 8.81677   1 
   4   2   3 20.3760 6.75637  -2 
  -5   2   3 20.3760 6.75637   1 
   3   2   3 165.206 10.2628  -2 
  -4   2   3 165.206 10.2628   1 
   2   2   3 337.174 14.4646  -2 
  -3   2   3 337.174 14.4646   1 
   1   2   3 397.427 17.4790  -2 
  -2   2   3 397.427 17.4790   1 
   0   2   3 43.1789 5.80178  -2 
  -1   2   3 43.1789 5.80178   1 
  -1   2   3 52.6210 11.8487  -2 
   0   2   3 52.6210 11.8487   1 
  -2   2   3 221.851 16.2784  -2 
   1   2   3 221.851 16.2784   1 
  -3   2   3 256.144 14.9309  -2 
   2   2   3 256.144 14.9309   1 
  -4   2   3 93.1936 7.62458  -2 
   3   2   3 93.1936 7.62458   1 
  -5   2   3 13.7595 6.62032  -2 
   4   2   3 13.7595 6.62032   1 
  -6   2   3 120.918 9.68239  -2 
   5   2   3 120.918 9.68239   1 
  -7   2   3 -7.3778 8.47496  -2 
   6   2   3 -7.3778 8.47496   1 
  -8   2   3 28.1829 9.31296  -2 
   7   2   3 28.1829 9.31296   1 
  -9   2   3 27.2183 9.73686  -2 
   8   2   3 27.2183 9.73686   1 
 -10   2   3 63.6826 10.2690  -2 
   9   2   3 63.6826 10.2690   1 
 -11   2   3 8.83920 11.0134  -2 
  10   2   3 8.83920 11.0134   1 
 -12   2   3 20.1468 14.0697  -2 
  11   2   3 20.1468 14.0697   1 
 -13   2   3 18.3447 14.2807  -2 
  12   2   3 18.3447 14.2807   1 
 -14   2   3 31.6263 15.3405  -2 
  13   2   3 31.6263 15.3405   1 
 -15   2   3 -12.325 15.6198  -2 
  14   2   3 -12.325 15.6198   1 
 -16   2   3 24.1467 20.0249  -2 
  15   2   3 24.1467 20.0249   1 
  14   3   3 59.9409 23.8937  -2 
 -15   3   3 59.9409 23.8937   1 
  13   3   3 60.1330 20.4020  -2 
 -14   3   3 60.1330 20.4020   1 
  12   3   3 154.614 21.2773  -2 
 -13   3   3 154.614 21.2773   1 
  11   3   3 254.880 26.1191  -2 
 -12   3   3 254.880 26.1191   1 
  10   3   3 126.422 20.2134  -2 
 -11   3   3 126.422 20.2134   1 
   9   3   3 406.746 24.6263  -2 
 -10   3   3 406.746 24.6263   1 
   8   3   3 249.840 18.8071  -2 
  -9   3   3 249.840 18.8071   1 
   7   3   3 90.2643 13.9371  -2 
  -8   3   3 90.2643 13.9371   1 
   6   3   3 564.571 27.6103  -2 
  -7   3   3 564.571 27.6103   1 
   5   3   3 323.250 17.2311  -2 
  -6   3   3 323.250 17.2311   1 
   4   3   3 375.043 16.4481  -2 
  -5   3   3 375.043 16.4481   1 
   3   3   3 612.530 22.3649  -2 
  -4   3   3 612.530 22.3649   1 
   2   3   3 349.914 15.1816  -2 
  -3   3   3 349.914 15.1816   1 
   1   3   3 709.376 24.6831  -2 
  -2   3   3 709.376 24.6831   1 
   0   3   3 1377.70 43.1214  -2 
  -1   3   3 1377.70 43.1214   1 
  -1   3   3 1741.50 58.7364  -2 
   0   3   3 1741.50 58.7364   1 
  -2   3   3 988.029 36.1891  -2 
   1   3   3 988.029 36.1891   1 
  -3   3   3 559.854 23.3347  -2 
   2   3   3 559.854 23.3347   1 
  -4   3   3 780.005 33.9267  -2 
   3   3   3 780.005 33.9267   1 
  -5   3   3 522.121 30.0199  -2 
   4   3   3 522.121 30.0199   1 
  -6   3   3 545.961 31.9958  -2 
   5   3   3 545.961 31.9958   1 
  -7   3   3 438.388 21.0986  -2 
   6   3   3 438.388 21.0986   1 
  -8   3   3 90.1184 11.5368  -2 
   7   3   3 90.1184 11.5368   1 
  -9   3   3 180.670 11.9777  -2 
   8   3   3 180.670 11.9777   1 
 -10   3   3 387.475 21.3056  -2 
   9   3   3 387.475 21.3056   1 
 -11   3   3 220.521 17.9500  -2 
  10   3   3 220.521 17.9500   1 
 -12   3   3 177.782 17.6350  -2 
  11   3   3 177.782 17.6350   1 
 -13   3   3 230.199 21.9325  -2 
  12   3   3 230.199 21.9325   1 
 -14   3   3 88.4994 19.3482  -2 
  13   3   3 88.4994 19.3482   1 
 -15   3   3 18.9380 19.7763  -2 
  14   3   3 18.9380 19.7763   1 
  13   4   3 2.32994 23.1664  -2 
 -14   4   3 2.32994 23.1664   1 
  12   4   3 36.6591 23.3873  -2 
 -13   4   3 36.6591 23.3873   1 
  11   4   3 -19.411 19.8832  -2 
 -12   4   3 -19.411 19.8832   1 
  10   4   3 19.4301 15.3079  -2 
 -11   4   3 19.4301 15.3079   1 
   9   4   3 29.4006 15.4496  -2 
 -10   4   3 29.4006 15.4496   1 
   8   4   3 -23.406 12.4777  -2 
  -9   4   3 -23.406 12.4777   1 
   7   4   3 42.2614 13.0581  -2 
  -8   4   3 42.2614 13.0581   1 
   6   4   3 102.744 14.2839  -2 
  -7   4   3 102.744 14.2839   1 
   5   4   3 46.9513 11.1218  -2 
  -6   4   3 46.9513 11.1218   1 
   4   4   3 29.4939 11.2384  -2 
  -5   4   3 29.4939 11.2384   1 
   3   4   3 41.9075 9.81302  -2 
  -4   4   3 41.9075 9.81302   1 
   2   4   3 84.6892 10.2558  -2 
  -3   4   3 84.6892 10.2558   1 
   1   4   3 129.654 10.7604  -2 
  -2   4   3 129.654 10.7604   1 
   0   4   3 16.6447 8.89209  -2 
  -1   4   3 16.6447 8.89209   1 
  -1   4   3 63.1807 8.82422  -2 
   0   4   3 63.1807 8.82422   1 
  -2   4   3 81.2510 8.95770  -2 
   1   4   3 81.2510 8.95770   1 
  -3   4   3 189.067 11.9761  -2 
   2   4   3 189.067 11.9761   1 
  -4   4   3 -1.9633 12.1614  -2 
   3   4   3 -1.9633 12.1614   1 
  -5   4   3 -11.827 14.5738  -2 
   4   4   3 -11.827 14.5738   1 
  -6   4   3 122.851 19.0249  -2 
   5   4   3 122.851 19.0249   1 
  -7   4   3 32.8229 16.2449  -2 
   6   4   3 32.8229 16.2449   1 
  -8   4   3 7.71850 16.2276  -2 
   7   4   3 7.71850 16.2276   1 
  -9   4   3 13.4049 17.5469  -2 
   8   4   3 13.4049 17.5469   1 
 -10   4   3 59.5643 18.8209  -2 
   9   4   3 59.5643 18.8209   1 
 -11   4   3 17.0349 18.9085  -2 
  10   4   3 17.0349 18.9085   1 
 -12   4   3 34.9225 19.5655  -2 
  11   4   3 34.9225 19.5655   1 
 -13   4   3 13.1384 18.3220  -2 
  12   4   3 13.1384 18.3220   1 
 -14   4   3 -9.6548 18.4545  -2 
  13   4   3 -9.6548 18.4545   1 
  12   5   3 25.7598 23.5620  -2 
 -13   5   3 25.7598 23.5620   1 
  11   5   3 45.1153 23.7373  -2 
 -12   5   3 45.1153 23.7373   1 
  10   5   3 102.578 20.4930  -2 
 -11   5   3 102.578 20.4930   1 
   9   5   3 41.7816 17.5014  -2 
 -10   5   3 41.7816 17.5014   1 
   8   5   3 140.737 18.2185  -2 
  -9   5   3 140.737 18.2185   1 
   7   5   3 163.969 18.4213  -2 
  -8   5   3 163.969 18.4213   1 
   6   5   3 161.708 17.0892  -2 
  -7   5   3 161.708 17.0892   1 
   5   5   3 395.314 23.7128  -2 
  -6   5   3 395.314 23.7128   1 
   4   5   3 593.341 25.0732  -2 
  -5   5   3 593.341 25.0732   1 
   3   5   3 327.816 17.6518  -2 
  -4   5   3 327.816 17.6518   1 
   2   5   3 233.452 13.6517  -2 
  -3   5   3 233.452 13.6517   1 
   1   5   3 239.571 14.1348  -2 
  -2   5   3 239.571 14.1348   1 
   0   5   3 442.961 18.5892  -2 
  -1   5   3 442.961 18.5892   1 
  -1   5   3 626.593 25.8267  -2 
   0   5   3 626.593 25.8267   1 
  -2   5   3 281.037 16.7554  -2 
   1   5   3 281.037 16.7554   1 
  -3   5   3 161.214 14.0178  -2 
   2   5   3 161.214 14.0178   1 
  -4   5   3 245.113 16.1732  -2 
   3   5   3 245.113 16.1732   1 
  -5   5   3 455.921 21.6756  -2 
   4   5   3 455.921 21.6756   1 
  -6   5   3 678.983 31.1698  -2 
   5   5   3 678.983 31.1698   1 
  -7   5   3 210.965 24.3140  -2 
   6   5   3 210.965 24.3140   1 
  -8   5   3 174.904 22.2933  -2 
   7   5   3 174.904 22.2933   1 
  -9   5   3 164.065 23.1431  -2 
   8   5   3 164.065 23.1431   1 
 -10   5   3 93.2597 22.5681  -2 
   9   5   3 93.2597 22.5681   1 
 -11   5   3 144.709 24.2726  -2 
  10   5   3 144.709 24.2726   1 
 -12   5   3 78.2980 23.2285  -2 
  11   5   3 78.2980 23.2285   1 
 -13   5   3 49.9100 23.0013  -2 
  12   5   3 49.9100 23.0013   1 
  10   6   3 26.4335 31.6290  -2 
 -11   6   3 26.4335 31.6290   1 
   9   6   3 38.5182 17.9327  -2 
 -10   6   3 38.5182 17.9327   1 
   8   6   3 23.7860 16.5629  -2 
  -9   6   3 23.7860 16.5629   1 
   7   6   3 49.5773 16.4871  -2 
  -8   6   3 49.5773 16.4871   1 
   6   6   3 18.2325 13.5146  -2 
  -7   6   3 18.2325 13.5146   1 
   5   6   3 26.8982 13.2123  -2 
  -6   6   3 26.8982 13.2123   1 
   4   6   3 42.3734 13.4847  -2 
  -5   6   3 42.3734 13.4847   1 
   3   6   3 30.7547 12.0370  -2 
  -4   6   3 30.7547 12.0370   1 
   2   6   3 18.3699 15.7087  -2 
  -3   6   3 18.3699 15.7087   1 
   1   6   3 -16.413 15.7887  -2 
  -2   6   3 -16.413 15.7887   1 
   0   6   3 42.9998 15.8905  -2 
  -1   6   3 42.9998 15.8905   1 
  -1   6   3 56.1899 15.7101  -2 
   0   6   3 56.1899 15.7101   1 
  -2   6   3 24.4939 14.9482  -2 
   1   6   3 24.4939 14.9482   1 
  -3   6   3 -3.4340 14.6113  -2 
   2   6   3 -3.4340 14.6113   1 
  -4   6   3 7.62111 16.6041  -2 
   3   6   3 7.62111 16.6041   1 
  -5   6   3 31.7906 17.4046  -2 
   4   6   3 31.7906 17.4046   1 
  -6   6   3 10.9490 17.3830  -2 
   5   6   3 10.9490 17.3830   1 
  -7   6   3 70.3158 20.2295  -2 
   6   6   3 70.3158 20.2295   1 
  -8   6   3 54.7697 20.4605  -2 
   7   6   3 54.7697 20.4605   1 
  -9   6   3 29.0564 21.1631  -2 
   8   6   3 29.0564 21.1631   1 
 -10   6   3 23.2903 21.9099  -2 
   9   6   3 23.2903 21.9099   1 
 -11   6   3 40.0033 30.6573  -2 
  10   6   3 40.0033 30.6573   1 
   6   7   3 51.0398 23.2594  -2 
  -7   7   3 51.0398 23.2594   1 
   5   7   3 30.7776 22.9579  -2 
  -6   7   3 30.7776 22.9579   1 
   4   7   3 169.369 25.5281  -2 
  -5   7   3 169.369 25.5281   1 
   3   7   3 198.332 27.8179  -2 
  -4   7   3 198.332 27.8179   1 
   2   7   3 173.694 23.9443  -2 
  -3   7   3 173.694 23.9443   1 
   1   7   3 196.958 24.3434  -2 
  -2   7   3 196.958 24.3434   1 
   0   7   3 139.194 22.2435  -2 
  -1   7   3 139.194 22.2435   1 
  -1   7   3 134.188 22.0687  -2 
   0   7   3 134.188 22.0687   1 
  -2   7   3 205.084 23.6460  -2 
   1   7   3 205.084 23.6460   1 
  -3   7   3 143.933 22.7348  -2 
   2   7   3 143.933 22.7348   1 
  -4   7   3 198.327 23.6767  -2 
   3   7   3 198.327 23.6767   1 
  -5   7   3 168.917 23.0594  -2 
   4   7   3 168.917 23.0594   1 
  -6   7   3 104.313 25.5031  -2 
   5   7   3 104.313 25.5031   1 
  -7   7   3 74.8235 26.0097  -2 
   6   7   3 74.8235 26.0097   1 
   7   7   3 59.2607 32.1228   1 
  15   0   4 314.669 43.9822  -2 
 -16   0   4 314.669 43.9822   1 
  14   0   4 313.932 62.3587  -2 
 -15   0   4 313.932 62.3587   1 
  13   0   4 -13.822 37.8740  -2 
 -14   0   4 -13.822 37.8740   1 
  12   0   4 -1.9009 26.7892  -2 
 -13   0   4 -1.9009 26.7892   1 
  11   0   4 -37.236 24.0026  -2 
 -12   0   4 -37.236 24.0026   1 
  10   0   4 -1.7841 24.2450  -2 
 -11   0   4 -1.7841 24.2450   1 
   9   0   4 57.2527 22.4476  -2 
 -10   0   4 57.2527 22.4476   1 
   8   0   4 1009.78 68.1864  -2 
  -9   0   4 1009.78 68.1864   1 
   7   0   4 2778.98 227.932  -2 
  -8   0   4 2778.98 227.932   1 
   6   0   4 866.426 84.6603  -2 
  -7   0   4 866.426 84.6603   1 
   5   0   4 477.108 53.7485  -2 
  -6   0   4 477.108 53.7485   1 
   4   0   4 208.435 20.1368  -2 
  -5   0   4 208.435 20.1368   1 
   3   0   4 58.1958 9.85990  -2 
  -4   0   4 58.1958 9.85990   1 
   2   0   4 614.008 31.5254  -2 
  -3   0   4 614.008 31.5254   1 
   1   0   4 666.123 40.0391  -2 
  -2   0   4 666.123 40.0391   1 
   0   0   4 2077.44 113.153  -2 
  -1   0   4 2077.44 113.153   1 
  -1   0   4 1506.71 83.4380  -2 
   0   0   4 1506.71 83.4380   1 
  -2   0   4 1114.63 51.9775  -2 
   1   0   4 1114.63 51.9775   1 
  -3   0   4 795.768 33.6732  -2 
   2   0   4 795.768 33.6732   1 
  -4   0   4 29.1952 8.84695  -2 
   3   0   4 29.1952 8.84695   1 
  -5   0   4 176.664 13.9392  -2 
   4   0   4 176.664 13.9392   1 
  -6   0   4 417.603 25.4899  -2 
   5   0   4 417.603 25.4899   1 
  -7   0   4 1750.64 72.1208  -2 
   6   0   4 1750.64 72.1208   1 
  -8   0   4 3778.73 147.602  -2 
   7   0   4 3778.73 147.602   1 
  -9   0   4 695.638 34.6552  -2 
   8   0   4 695.638 34.6552   1 
 -10   0   4 48.9405 14.1967  -2 
   9   0   4 48.9405 14.1967   1 
 -11   0   4 61.7949 15.7652  -2 
  10   0   4 61.7949 15.7652   1 
 -12   0   4 41.5205 16.0965  -2 
  11   0   4 41.5205 16.0965   1 
 -13   0   4 21.3478 15.7308  -2 
  12   0   4 21.3478 15.7308   1 
 -14   0   4 38.8274 18.9883  -2 
  13   0   4 38.8274 18.9883   1 
 -15   0   4 178.782 26.6087  -2 
  14   0   4 178.782 26.6087   1 
 -16   0   4 415.819 46.3598  -2 
  15   0   4 415.819 46.3598   1 
  15   1   4 -26.645 27.0680  -2 
 -16   1   4 -26.645 27.0680   1 
  14   1   4 -6.2581 22.3477  -2 
 -15   1   4 -6.2581 22.3477   1 
  13   1   4 29.4674 21.5075  -2 
 -14   1   4 29.4674 21.5075   1 
  12   1   4 105.711 22.1292  -2 
 -13   1   4 105.711 22.1292   1 
  11   1   4 23.8047 22.4649  -2 
 -12   1   4 23.8047 22.4649   1 
  10   1   4 61.0766 14.9140  -2 
 -11   1   4 61.0766 14.9140   1 
   9   1   4 31.0256 12.9645  -2 
 -10   1   4 31.0256 12.9645   1 
   8   1   4 81.1624 14.4621  -2 
  -9   1   4 81.1624 14.4621   1 
   7   1   4 -7.3765 13.8808  -2 
  -8   1   4 -7.3765 13.8808   1 
   6   1   4 373.495 21.9689  -2 
  -7   1   4 373.495 21.9689   1 
   5   1   4 370.965 21.4575  -2 
  -6   1   4 370.965 21.4575   1 
   4   1   4 365.871 22.9545  -2 
  -5   1   4 365.871 22.9545   1 
   3   1   4 540.102 22.6575  -2 
  -4   1   4 540.102 22.6575   1 
   2   1   4 3198.40 172.895  -2 
  -3   1   4 3198.40 172.895   1 
   1   1   4 553.668 29.4796  -2 
  -2   1   4 553.668 29.4796   1 
   0   1   4 2.63666 6.75362  -2 
  -1   1   4 2.63666 6.75362   1 
  -1   1   4 14.1683 4.15605  -2 
   0   1   4 14.1683 4.15605   1 
  -2   1   4 1390.24 46.4877  -2 
   1   1   4 1390.24 46.4877   1 
  -3   1   4 2030.51 59.4227  -2 
   2   1   4 2030.51 59.4227   1 
  -4   1   4 259.631 11.1380  -2 
   3   1   4 259.631 11.1380   1 
  -5   1   4 191.002 10.4640  -2 
   4   1   4 191.002 10.4640   1 
  -6   1   4 461.610 17.3973  -2 
   5   1   4 461.610 17.3973   1 
  -7   1   4 317.682 14.7788  -2 
   6   1   4 317.682 14.7788   1 
  -8   1   4 8.67347 9.68185  -2 
   7   1   4 8.67347 9.68185   1 
  -9   1   4 41.2945 10.2709  -2 
   8   1   4 41.2945 10.2709   1 
 -10   1   4 67.9276 10.5447  -2 
   9   1   4 67.9276 10.5447   1 
 -11   1   4 116.627 12.2712  -2 
  10   1   4 116.627 12.2712   1 
 -12   1   4 23.4752 11.5959  -2 
  11   1   4 23.4752 11.5959   1 
 -13   1   4 84.2483 13.5540  -2 
  12   1   4 84.2483 13.5540   1 
 -14   1   4 74.8525 15.6424  -2 
  13   1   4 74.8525 15.6424   1 
 -15   1   4 -2.7533 16.5402  -2 
  14   1   4 -2.7533 16.5402   1 
 -16   1   4 53.2559 18.8402  -2 
  15   1   4 53.2559 18.8402   1 
  14   2   4 19.7086 24.3375  -2 
 -15   2   4 19.7086 24.3375   1 
  13   2   4 54.9622 23.1211  -2 
 -14   2   4 54.9622 23.1211   1 
  12   2   4 442.412 32.7186  -2 
 -13   2   4 442.412 32.7186   1 
  11   2   4 407.061 26.8046  -2 
 -12   2   4 407.061 26.8046   1 
  10   2   4 668.355 34.1673  -2 
 -11   2   4 668.355 34.1673   1 
   9   2   4 317.940 22.6252  -2 
 -10   2   4 317.940 22.6252   1 
   8   2   4 1.69693 11.3963  -2 
  -9   2   4 1.69693 11.3963   1 
   7   2   4 7.24420 12.2141  -2 
  -8   2   4 7.24420 12.2141   1 
   6   2   4 52.9549 11.6168  -2 
  -7   2   4 52.9549 11.6168   1 
   5   2   4 724.680 32.8448  -2 
  -6   2   4 724.680 32.8448   1 
   4   2   4 1189.31 43.8413  -2 
  -5   2   4 1189.31 43.8413   1 
   3   2   4 1326.46 44.2285  -2 
  -4   2   4 1326.46 44.2285   1 
   2   2   4 2913.97 91.6367  -2 
  -3   2   4 2913.97 91.6367   1 
   1   2   4 453.991 17.0831  -2 
  -2   2   4 453.991 17.0831   1 
   0   2   4 68.8706 10.2764  -2 
  -1   2   4 68.8706 10.2764   1 
  -1   2   4 122.343 12.0044  -2 
   0   2   4 122.343 12.0044   1 
  -2   2   4 629.954 26.8978  -2 
   1   2   4 629.954 26.8978   1 
  -3   2   4 2910.30 101.745  -2 
   2   2   4 2910.30 101.745   1 
  -4   2   4 1399.50 46.3037  -2 
   3   2   4 1399.50 46.3037   1 
  -5   2   4 1072.86 34.0596  -2 
   4   2   4 1072.86 34.0596   1 
  -6   2   4 768.268 26.8570  -2 
   5   2   4 768.268 26.8570   1 
  -7   2   4 35.8902 9.69978  -2 
   6   2   4 35.8902 9.69978   1 
  -8   2   4 -13.686 9.19991  -2 
   7   2   4 -13.686 9.19991   1 
  -9   2   4 21.5806 9.40885  -2 
   8   2   4 21.5806 9.40885   1 
 -10   2   4 397.368 17.8536  -2 
   9   2   4 397.368 17.8536   1 
 -11   2   4 621.894 24.2459  -2 
  10   2   4 621.894 24.2459   1 
 -12   2   4 574.482 27.8257  -2 
  11   2   4 574.482 27.8257   1 
 -13   2   4 467.825 28.3630  -2 
  12   2   4 467.825 28.3630   1 
 -14   2   4 55.2355 18.5410  -2 
  13   2   4 55.2355 18.5410   1 
 -15   2   4 4.55289 18.0985  -2 
  14   2   4 4.55289 18.0985   1 
 -15   3   4 -1.5438 15.0579   1 
  13   3   4 93.7530 29.1366  -2 
 -14   3   4 93.7530 29.1366   1 
  12   3   4 148.415 25.6613  -2 
 -13   3   4 148.415 25.6613   1 
  11   3   4 -23.071 19.6362  -2 
 -12   3   4 -23.071 19.6362   1 
  10   3   4 142.594 22.0533  -2 
 -11   3   4 142.594 22.0533   1 
   9   3   4 273.657 21.3082  -2 
 -10   3   4 273.657 21.3082   1 
   8   3   4 26.0577 13.2941  -2 
  -9   3   4 26.0577 13.2941   1 
   7   3   4 87.3737 14.5682  -2 
  -8   3   4 87.3737 14.5682   1 
   6   3   4 103.651 13.9392  -2 
  -7   3   4 103.651 13.9392   1 
   5   3   4 253.786 14.4585  -2 
  -6   3   4 253.786 14.4585   1 
   4   3   4 65.7588 9.94284  -2 
  -5   3   4 65.7588 9.94284   1 
   3   3   4 35.8333 9.29014  -2 
  -4   3   4 35.8333 9.29014   1 
   2   3   4 491.691 20.1064  -2 
  -3   3   4 491.691 20.1064   1 
   1   3   4 531.814 22.9058  -2 
  -2   3   4 531.814 22.9058   1 
   0   3   4 81.7217 8.18179  -2 
  -1   3   4 81.7217 8.18179   1 
  -1   3   4 22.7826 11.8403  -2 
   0   3   4 22.7826 11.8403   1 
  -2   3   4 788.198 34.6507  -2 
   1   3   4 788.198 34.6507   1 
  -3   3   4 666.133 26.5527  -2 
   2   3   4 666.133 26.5527   1 
  -4   3   4 6.36471 14.1047  -2 
   3   3   4 6.36471 14.1047   1 
  -5   3   4 145.273 18.9436  -2 
   4   3   4 145.273 18.9436   1 
  -6   3   4 337.128 22.7774  -2 
   5   3   4 337.128 22.7774   1 
  -7   3   4 121.751 11.9732  -2 
   6   3   4 121.751 11.9732   1 
  -8   3   4 30.5431 11.8857  -2 
   7   3   4 30.5431 11.8857   1 
  -9   3   4 28.2903 11.3641  -2 
   8   3   4 28.2903 11.3641   1 
 -10   3   4 269.536 19.1767  -2 
   9   3   4 269.536 19.1767   1 
 -11   3   4 128.010 17.3980  -2 
  10   3   4 128.010 17.3980   1 
 -12   3   4 -9.7620 15.2634  -2 
  11   3   4 -9.7620 15.2634   1 
 -13   3   4 77.3966 18.8893  -2 
  12   3   4 77.3966 18.8893   1 
 -14   3   4 66.8165 19.6946  -2 
  13   3   4 66.8165 19.6946   1 
 -15   3   4 17.7099 42.9591  -2 
  14   3   4 17.7099 42.9591   1 
 -14   4   4 16.1510 13.0383   1 
  12   4   4 56.5834 23.7835  -2 
 -13   4   4 56.5834 23.7835   1 
  11   4   4 26.5898 20.9224  -2 
 -12   4   4 26.5898 20.9224   1 
  10   4   4 -4.4679 16.5987  -2 
 -11   4   4 -4.4679 16.5987   1 
   9   4   4 131.081 19.2035  -2 
 -10   4   4 131.081 19.2035   1 
   8   4   4 517.737 31.2098  -2 
  -9   4   4 517.737 31.2098   1 
   7   4   4 913.294 44.4648  -2 
  -8   4   4 913.294 44.4648   1 
   6   4   4 401.717 25.2368  -2 
  -7   4   4 401.717 25.2368   1 
   5   4   4 168.148 16.7808  -2 
  -6   4   4 168.148 16.7808   1 
   4   4   4 52.8068 9.77403  -2 
  -5   4   4 52.8068 9.77403   1 
   3   4   4 4.77288 8.85235  -2 
  -4   4   4 4.77288 8.85235   1 
   2   4   4 44.3135 9.45335  -2 
  -3   4   4 44.3135 9.45335   1 
   1   4   4 522.403 20.9132  -2 
  -2   4   4 522.403 20.9132   1 
   0   4   4 2651.69 106.744  -2 
  -1   4   4 2651.69 106.744   1 
  -1   4   4 2366.29 87.7212  -2 
   0   4   4 2366.29 87.7212   1 
  -2   4   4 346.739 22.6745  -2 
   1   4   4 346.739 22.6745   1 
  -3   4   4 48.4043 14.4722  -2 
   2   4   4 48.4043 14.4722   1 
  -4   4   4 3.09661 13.6615  -2 
   3   4   4 3.09661 13.6615   1 
  -5   4   4 83.0534 16.9429  -2 
   4   4   4 83.0534 16.9429   1 
  -6   4   4 202.553 20.8870  -2 
   5   4   4 202.553 20.8870   1 
  -7   4   4 366.492 27.1585  -2 
   6   4   4 366.492 27.1585   1 
  -8   4   4 860.078 45.4976  -2 
   7   4   4 860.078 45.4976   1 
  -9   4   4 552.393 34.7124  -2 
   8   4   4 552.393 34.7124   1 
 -10   4   4 177.508 22.4271  -2 
   9   4   4 177.508 22.4271   1 
 -11   4   4 3.31973 17.8515  -2 
  10   4   4 3.31973 17.8515   1 
 -12   4   4 37.4239 20.4639  -2 
  11   4   4 37.4239 20.4639   1 
 -13   4   4 38.1921 21.5311  -2 
  12   4   4 38.1921 21.5311   1 
  11   5   4 14.0861 19.7076  -2 
 -12   5   4 14.0861 19.7076   1 
  10   5   4 185.796 23.9227  -2 
 -11   5   4 185.796 23.9227   1 
   9   5   4 146.086 21.1151  -2 
 -10   5   4 146.086 21.1151   1 
   8   5   4 67.3067 17.5743  -2 
  -9   5   4 67.3067 17.5743   1 
   7   5   4 8.93132 15.8140  -2 
  -8   5   4 8.93132 15.8140   1 
   6   5   4 104.629 16.3575  -2 
  -7   5   4 104.629 16.3575   1 
   5   5   4 214.903 19.8999  -2 
  -6   5   4 214.903 19.8999   1 
   4   5   4 139.770 16.5665  -2 
  -5   5   4 139.770 16.5665   1 
   3   5   4 78.4988 14.1034  -2 
  -4   5   4 78.4988 14.1034   1 
   2   5   4 162.305 15.3292  -2 
  -3   5   4 162.305 15.3292   1 
   1   5   4 104.598 14.3445  -2 
  -2   5   4 104.598 14.3445   1 
   0   5   4 87.1265 13.5097  -2 
  -1   5   4 87.1265 13.5097   1 
  -1   5   4 72.3220 14.8807  -2 
   0   5   4 72.3220 14.8807   1 
  -2   5   4 90.6288 14.3432  -2 
   1   5   4 90.6288 14.3432   1 
  -3   5   4 291.507 19.8941  -2 
   2   5   4 291.507 19.8941   1 
  -4   5   4 65.0478 13.8057  -2 
   3   5   4 65.0478 13.8057   1 
  -5   5   4 273.245 22.8389  -2 
   4   5   4 273.245 22.8389   1 
  -6   5   4 231.175 23.0751  -2 
   5   5   4 231.175 23.0751   1 
  -7   5   4 55.9123 17.2745  -2 
   6   5   4 55.9123 17.2745   1 
  -8   5   4 -7.2174 16.9134  -2 
   7   5   4 -7.2174 16.9134   1 
  -9   5   4 72.1990 18.8685  -2 
   8   5   4 72.1990 18.8685   1 
 -10   5   4 131.579 22.3623  -2 
   9   5   4 131.579 22.3623   1 
 -11   5   4 91.5615 22.8860  -2 
  10   5   4 91.5615 22.8860   1 
 -12   5   4 9.27020 20.2117  -2 
  11   5   4 9.27020 20.2117   1 
   9   6   4 95.0582 26.6037  -2 
 -10   6   4 95.0582 26.6037   1 
   8   6   4 25.1353 21.7297  -2 
  -9   6   4 25.1353 21.7297   1 
   7   6   4 -38.503 20.2870  -2 
  -8   6   4 -38.503 20.2870   1 
   6   6   4 -30.171 19.5415  -2 
  -7   6   4 -30.171 19.5415   1 
   5   6   4 372.273 33.7292  -2 
  -6   6   4 372.273 33.7292   1 
   4   6   4 766.454 49.7904  -2 
  -5   6   4 766.454 49.7904   1 
   3   6   4 599.608 35.8706  -2 
  -4   6   4 599.608 35.8706   1 
   2   6   4 368.022 25.9625  -2 
  -3   6   4 368.022 25.9625   1 
   1   6   4 83.3408 18.8823  -2 
  -2   6   4 83.3408 18.8823   1 
   0   6   4 32.3215 13.9474  -2 
  -1   6   4 32.3215 13.9474   1 
  -1   6   4 18.2799 14.7104  -2 
   0   6   4 18.2799 14.7104   1 
  -2   6   4 90.4084 16.7228  -2 
   1   6   4 90.4084 16.7228   1 
  -3   6   4 335.326 22.3686  -2 
   2   6   4 335.326 22.3686   1 
  -4   6   4 601.862 34.1876  -2 
   3   6   4 601.862 34.1876   1 
  -5   6   4 1041.70 48.7222  -2 
   4   6   4 1041.70 48.7222   1 
  -6   6   4 384.659 28.5848  -2 
   5   6   4 384.659 28.5848   1 
  -7   6   4 54.7185 20.4282  -2 
   6   6   4 54.7185 20.4282   1 
  -8   6   4 0.63102 18.7145  -2 
   7   6   4 0.63102 18.7145   1 
  -9   6   4 15.9110 20.6787  -2 
   8   6   4 15.9110 20.6787   1 
 -10   6   4 108.991 22.3266  -2 
   9   6   4 108.991 22.3266   1 
   5   7   4 373.711 37.1170  -2 
  -6   7   4 373.711 37.1170   1 
   4   7   4 107.195 26.2497  -2 
  -5   7   4 107.195 26.2497   1 
   3   7   4 32.7026 23.6958  -2 
  -4   7   4 32.7026 23.6958   1 
   2   7   4 120.912 22.0178  -2 
  -3   7   4 120.912 22.0178   1 
   1   7   4 92.8416 24.7683  -2 
  -2   7   4 92.8416 24.7683   1 
   0   7   4 -6.3207 18.9993  -2 
  -1   7   4 -6.3207 18.9993   1 
  -1   7   4 17.4428 18.9803  -2 
   0   7   4 17.4428 18.9803   1 
  -2   7   4 52.8170 19.5959  -2 
   1   7   4 52.8170 19.5959   1 
  -3   7   4 88.4213 21.0096  -2 
   2   7   4 88.4213 21.0096   1 
  -4   7   4 21.8726 20.0852  -2 
   3   7   4 21.8726 20.0852   1 
  -5   7   4 107.339 21.6511  -2 
   4   7   4 107.339 21.6511   1 
  -6   7   4 240.255 26.5208  -2 
   5   7   4 240.255 26.5208   1 
 -15   0   5 7.77625 34.3160   1 
 -14   0   5 -26.919 26.4140   1 
 -13   0   5 -34.417 18.8378   1 
 -12   0   5 2.45906 18.0287   1 
 -11   0   5 13.2436 18.3264   1 
 -10   0   5 2.26527 8.86732   1 
  -9   0   5 5.12763 10.7946   1 
  -8   0   5 2.76279 9.87032   1 
  -7   0   5 -1.0390 9.39974   1 
  -6   0   5 5.21501 8.10265   1 
  -5   0   5 1.90494 7.63093   1 
  -4   0   5 4.50356 7.45717   1 
  -3   0   5 1.72271 8.69545   1 
  -2   0   5 -1.7415 8.50961   1 
  -1   0   5 3.58218 7.17659   1 
   0   0   5 -7.6421 6.39184   1 
   1   0   5 0.60135 6.62461   1 
   2   0   5 2.88401 5.98478   1 
   3   0   5 2.00925 6.71158   1 
   4   0   5 8.27349 7.92586   1 
   5   0   5 -11.215 8.24832   1 
   6   0   5 -7.8853 9.60189   1 
   7   0   5 -4.8520 9.37522   1 
   8   0   5 -2.6215 10.1693   1 
   9   0   5 -1.7714 11.6172   1 
  10   0   5 9.73200 11.9650   1 
  11   0   5 1.07989 11.5335   1 
  12   0   5 -3.9581 11.8766   1 
  13   0   5 6.33583 14.1143   1 
  14   0   5 -2.9222 14.7214   1 
 -15   1   5 19.3449 15.6515   1 
 -14   1   5 34.9852 15.3311   1 
 -13   1   5 20.7069 16.2257   1 
 -12   1   5 104.926 17.3346   1 
 -11   1   5 141.750 14.7759   1 
 -10   1   5 85.3925 12.0675   1 
  -9   1   5 238.778 16.8156   1 
  -8   1   5 227.613 17.4208   1 
  -7   1   5 294.613 17.3400   1 
  -6   1   5 461.540 20.0147   1 
  -5   1   5 254.160 12.6404   1 
  -4   1   5 619.155 22.0793   1 
  -3   1   5 384.959 15.4034   1 
  -2   1   5 186.735 9.99422   1 
  -1   1   5 330.173 12.4617   1 
   0   1   5 475.052 16.1849   1 
   1   1   5 1045.49 33.2148   1 
   2   1   5 257.492 11.1793   1 
   3   1   5 301.104 12.8128   1 
   4   1   5 400.576 15.8264   1 
   5   1   5 262.585 12.5615   1 
   6   1   5 662.417 23.3193   1 
   7   1   5 141.697 11.4169   1 
   8   1   5 34.4011 8.01825   1 
   9   1   5 184.264 13.0098   1 
  10   1   5 61.1627 9.95831   1 
  11   1   5 122.810 12.7504   1 
  12   1   5 53.9098 11.9462   1 
  13   1   5 4.98887 11.4380   1 
  14   1   5 44.9342 17.2430   1 
 -15   2   5 7.38931 16.1014   1 
 -14   2   5 3.94913 12.2318   1 
 -13   2   5 -0.5807 10.9716   1 
 -12   2   5 18.1042 10.9356   1 
 -11   2   5 96.7936 13.9586   1 
 -10   2   5 13.1910 9.67298   1 
  -9   2   5 27.4665 9.40236   1 
  -8   2   5 20.1668 8.22538   1 
  -7   2   5 6.43042 7.70516   1 
  -6   2   5 49.2202 9.44138   1 
  -5   2   5 9.82803 8.24749   1 
  -4   2   5 451.793 21.6109   1 
  -3   2   5 11.9407 5.80764   1 
  -2   2   5 82.1711 10.6501   1 
  -1   2   5 24.8084 5.73337   1 
   0   2   5 23.6835 8.28748   1 
   1   2   5 11.9291 8.08681   1 
   2   2   5 1.95378 7.94350   1 
   3   2   5 49.7141 6.28354   1 
   4   2   5 2.54427 6.84201   1 
   5   2   5 18.7002 7.46218   1 
   6   2   5 8.51071 7.75565   1 
   7   2   5 -8.1119 7.00648   1 
   8   2   5 6.30373 8.28131   1 
   9   2   5 4.88517 8.50934   1 
  10   2   5 8.48418 9.25901   1 
  11   2   5 6.50884 10.9552   1 
  12   2   5 11.4247 13.1721   1 
  13   2   5 -3.1245 12.6927   1 
 -14   3   5 159.680 21.3169   1 
 -13   3   5 80.6978 14.9103   1 
 -12   3   5 53.6476 14.0728   1 
 -11   3   5 97.0621 14.9198   1 
 -10   3   5 59.0540 11.9206   1 
  -9   3   5 129.597 14.3110   1 
  -8   3   5 81.9843 11.9122   1 
  -7   3   5 133.254 11.5148   1 
  -6   3   5 187.559 12.3479   1 
  -5   3   5 122.259 11.6130   1 
  -4   3   5 540.308 22.0810   1 
  -3   3   5 380.673 18.0076   1 
  -2   3   5 530.421 22.6249   1 
  -1   3   5 896.706 34.8000   1 
   0   3   5 96.2775 12.3768   1 
   1   3   5 273.399 16.9055   1 
   2   3   5 412.870 20.7177   1 
   3   3   5 84.8355 11.7535   1 
   4   3   5 205.265 15.2098   1 
   5   3   5 161.824 16.3991   1 
   6   3   5 74.3766 13.5217   1 
   7   3   5 198.285 18.2824   1 
   8   3   5 227.041 17.5949   1 
   9   3   5 99.3374 13.9452   1 
  10   3   5 112.548 20.0880   1 
  11   3   5 77.4970 19.0654   1 
  12   3   5 -3.5311 15.1902   1 
  13   3   5 57.5923 20.0996   1 
 -13   4   5 7.81419 12.9426   1 
 -12   4   5 -11.903 10.7137   1 
 -11   4   5 -0.5378 11.2754   1 
 -10   4   5 1.05340 9.98696   1 
  -9   4   5 9.01824 11.1619   1 
  -8   4   5 2.43174 9.81123   1 
  -7   4   5 39.8991 9.75729   1 
  -6   4   5 22.9100 10.0986   1 
  -5   4   5 -4.5408 7.61582   1 
  -4   4   5 23.2999 8.24100   1 
  -3   4   5 13.2651 10.1642   1 
  -2   4   5 19.7889 9.96537   1 
  -1   4   5 21.0281 9.89831   1 
   0   4   5 96.3229 13.9131   1 
   1   4   5 17.9314 10.9870   1 
   2   4   5 -1.6932 10.0454   1 
   3   4   5 31.2522 12.0683   1 
   4   4   5 7.11451 9.31762   1 
   5   4   5 8.92089 9.90897   1 
   6   4   5 18.9124 10.7603   1 
   7   4   5 14.8829 10.6141   1 
   8   4   5 -8.5886 11.2123   1 
   9   4   5 -1.2380 13.0797   1 
  10   4   5 17.5642 15.7956   1 
  11   4   5 6.01744 16.0292   1 
  12   4   5 -31.753 22.6807   1 
 -11   5   5 16.2790 17.1246   1 
 -10   5   5 81.6988 18.6110   1 
  -9   5   5 148.213 22.0779   1 
  -8   5   5 115.392 20.0614   1 
  -7   5   5 153.514 26.5851   1 
  -6   5   5 230.580 24.1503   1 
  -5   5   5 148.829 18.2223   1 
  -4   5   5 73.7713 14.0283   1 
  -3   5   5 91.0818 14.0466   1 
  -2   5   5 157.618 15.2658   1 
  -1   5   5 146.955 15.7885   1 
   0   5   5 167.936 17.1749   1 
   1   5   5 136.889 17.7207   1 
   2   5   5 121.146 17.5043   1 
   3   5   5 394.536 25.5802   1 
   4   5   5 271.310 22.5495   1 
   5   5   5 21.6518 12.4287   1 
   6   5   5 91.7545 16.4084   1 
   7   5   5 57.2448 17.0410   1 
   8   5   5 84.8772 18.9122   1 
   9   5   5 78.5265 19.3311   1 
  10   5   5 -1.5003 15.7210   1 
  -9   6   5 8.89126 15.7585   1 
  -8   6   5 25.5201 15.3578   1 
  -7   6   5 67.9619 18.2414   1 
  -6   6   5 23.0776 16.0029   1 
  -5   6   5 12.9039 15.6078   1 
  -4   6   5 4.41191 11.9329   1 
  -3   6   5 12.3373 13.4422   1 
  -2   6   5 21.1341 13.8341   1 
  -1   6   5 5.63655 11.0657   1 
   0   6   5 34.6192 11.9513   1 
   1   6   5 5.66997 11.0839   1 
   2   6   5 14.3710 11.8399   1 
   3   6   5 0.67166 12.0967   1 
   4   6   5 21.9427 13.2324   1 
   5   6   5 29.8991 15.0619   1 
   6   6   5 -16.229 12.3330   1 
   7   6   5 19.8987 16.9572   1 
  -5   7   5 109.808 24.7743   1 
  -4   7   5 79.8644 22.2915   1 
  -3   7   5 32.8642 16.3964   1 
  -2   7   5 50.9308 17.5054   1 
  -1   7   5 126.743 20.0572   1 
   0   7   5 89.3775 18.9581   1 
   1   7   5 50.5634 17.3477   1 
   2   7   5 71.6929 17.5966   1 
   3   7   5 45.4049 16.2843   1 
 -15   0   6 34.2942 31.8544   1 
 -14   0   6 18.7735 30.4845   1 
 -13   0   6 14.4152 19.2749   1 
 -12   0   6 71.4267 23.0464   1 
 -11   0   6 96.0201 23.1242   1 
 -10   0   6 304.077 24.9573   1 
  -9   0   6 604.108 44.2575   1 
  -8   0   6 499.555 38.5462   1 
  -7   0   6 682.433 46.5716   1 
  -6   0   6 90.4350 15.6761   1 
  -5   0   6 137.302 17.3264   1 
  -4   0   6 -11.701 10.7182   1 
  -3   0   6 247.999 22.6600   1 
  -2   0   6 498.594 28.1907   1 
  -1   0   6 1105.69 54.0325   1 
   0   0   6 2349.59 106.983   1 
   1   0   6 448.876 23.0849   1 
   2   0   6 2.45209 7.91161   1 
   3   0   6 24.1504 9.29725   1 
  -6   0   6 27.5661 19.1079  -2 
   4   0   6 27.5661 19.1079   1 
   5   0   6 1015.51 45.7909   1 
   6   0   6 578.429 30.0333   1 
   7   0   6 93.7536 15.1053   1 
   8   0   6 396.693 25.2787   1 
 -11   0   6 111.421 42.2718  -2 
   9   0   6 111.421 42.2718   1 
 -12   0   6 3.41140 36.8791  -2 
  10   0   6 3.41140 36.8791   1 
 -13   0   6 52.1535 28.7508  -2 
  11   0   6 52.1535 28.7508   1 
  12   0   6 -6.0434 12.9611   1 
  13   0   6 91.5471 25.8381   1 
  13   1   6 49.5760 60.8754  -2 
 -15   1   6 49.5760 60.8754   1 
 -14   1   6 10.3450 18.8045   1 
 -13   1   6 -1.3534 16.9505   1 
 -12   1   6 56.2075 15.8675   1 
 -11   1   6 69.7733 12.7695   1 
 -10   1   6 280.459 19.4778   1 
  -9   1   6 3.00097 9.56623   1 
  -8   1   6 46.8977 10.8938   1 
  -7   1   6 216.589 12.9094   1 
  -6   1   6 97.5223 10.0542   1 
  -5   1   6 107.755 10.8779   1 
  -4   1   6 57.6531 8.76003   1 
  -3   1   6 89.4010 10.4217   1 
  -2   1   6 135.463 9.33966   1 
  -1   1   6 37.4471 6.45046   1 
   0   1   6 272.526 11.9182   1 
   1   1   6 258.065 11.9450   1 
   2   1   6 97.0128 7.75069   1 
   3   1   6 16.2376 6.03557   1 
   4   1   6 157.044 9.61357   1 
   5   1   6 535.414 19.1696   1 
   6   1   6 179.554 11.4320   1 
  -9   1   6 32.6583 29.5331  -2 
   7   1   6 32.6583 29.5331   1 
   8   1   6 113.303 12.8136   1 
 -11   1   6 163.486 29.9553  -2 
   9   1   6 163.486 29.9553   1 
 -12   1   6 70.0056 27.0350  -2 
  10   1   6 70.0056 27.0350   1 
 -13   1   6 13.5859 27.4889  -2 
  11   1   6 13.5859 27.4889   1 
 -14   1   6 94.9588 42.6073  -2 
  12   1   6 94.9588 42.6073   1 
 -15   1   6 77.5162 33.5341  -2 
  13   1   6 77.5162 33.5341   1 
 -14   2   6 35.8262 14.5460   1 
 -13   2   6 218.531 25.2659   1 
 -12   2   6 360.468 22.3213   1 
 -11   2   6 57.6296 13.2712   1 
 -10   2   6 -1.2659 9.51232   1 
  -9   2   6 6.59217 10.8030   1 
  -8   2   6 3.13225 8.39804   1 
  -7   2   6 88.8930 12.2019   1 
  -6   2   6 289.513 17.4471   1 
  -5   2   6 1685.54 63.3711   1 
  -4   2   6 1177.30 43.0319   1 
  -3   2   6 178.377 14.3704   1 
  -2   2   6 237.411 15.5441   1 
  -1   2   6 1.55684 8.39503   1 
   0   2   6 17.1309 9.31904   1 
   1   2   6 266.936 16.7401   1 
   2   2   6 527.582 26.0148   1 
   3   2   6 1064.42 43.2259   1 
   4   2   6 520.612 26.0149   1 
   5   2   6 107.732 13.5652   1 
  -8   2   6 -25.214 32.0137  -2 
   6   2   6 -25.214 32.0137   1 
  -9   2   6 -27.512 34.1799  -2 
   7   2   6 -27.512 34.1799   1 
 -10   2   6 7.97682 27.0580  -2 
   8   2   6 7.97682 27.0580   1 
 -11   2   6 234.912 46.7073  -2 
   9   2   6 234.912 46.7073   1 
 -12   2   6 615.215 53.0727  -2 
  10   2   6 615.215 53.0727   1 
 -13   2   6 424.354 64.3116  -2 
  11   2   6 424.354 64.3116   1 
 -14   2   6 23.5736 44.9948  -2 
  12   2   6 23.5736 44.9948   1 
 -13   3   6 5.87863 14.3915   1 
 -12   3   6 -6.8995 13.0668   1 
   9   3   6 106.452 36.1441  -2 
 -11   3   6 106.452 36.1441   1 
   8   3   6 37.2054 31.1435  -2 
 -10   3   6 37.2054 31.1435   1 
  -9   3   6 -8.1853 9.77547   1 
  -8   3   6 7.30357 9.82580   1 
   5   3   6 94.0938 30.9243  -2 
  -7   3   6 94.0938 30.9243   1 
  -6   3   6 78.4460 12.0132   1 
  -5   3   6 74.3766 11.6751   1 
  -4   3   6 19.8629 8.57594   1 
  -3   3   6 322.834 19.8430   1 
  -2   3   6 369.271 21.5016   1 
  -1   3   6 17.9801 9.64613   1 
   0   3   6 437.013 21.8942   1 
   1   3   6 183.428 15.6056   1 
   2   3   6 8.27116 8.85972   1 
   3   3   6 -4.0061 8.78428   1 
   4   3   6 71.0505 12.6758   1 
   5   3   6 136.533 15.6018   1 
  -8   3   6 194.465 47.8716  -2 
   6   3   6 194.465 47.8716   1 
   7   3   6 8.62657 10.9066   1 
 -10   3   6 78.9048 40.1941  -2 
   8   3   6 78.9048 40.1941   1 
 -11   3   6 82.2584 30.9481  -2 
   9   3   6 82.2584 30.9481   1 
 -12   3   6 21.0241 45.2145  -2 
  10   3   6 21.0241 45.2145   1 
 -13   3   6 11.3151 45.7439  -2 
  11   3   6 11.3151 45.7439   1 
  12   3   6 30.3143 16.5182   1 
  10   4   6 62.4279 39.2225  -2 
 -12   4   6 62.4279 39.2225   1 
 -11   4   6 9.29945 18.0492   1 
   8   4   6 360.102 52.0656  -2 
 -10   4   6 360.102 52.0656   1 
  -9   4   6 275.204 24.8540   1 
   6   4   6 462.209 57.8570  -2 
  -8   4   6 462.209 57.8570   1 
   5   4   6 271.361 44.5095  -2 
  -7   4   6 271.361 44.5095   1 
   4   4   6 38.3733 26.2210  -2 
  -6   4   6 38.3733 26.2210   1 
  -5   4   6 -1.2435 9.74819   1 
   2   4   6 12.4205 44.0110  -2 
  -4   4   6 12.4205 44.0110   1 
  -3   4   6 219.156 18.9446   1 
  -2   4   6 672.478 32.6007   1 
  -1   4   6 404.347 24.1714   1 
  -2   4   6 802.705 65.7186  -2 
   0   4   6 802.705 65.7186   1 
  -3   4   6 445.680 70.3255  -2 
   1   4   6 445.680 70.3255   1 
  -4   4   6 -59.725 44.4953  -2 
   2   4   6 -59.725 44.4953   1 
  -5   4   6 -62.569 43.8330  -2 
   3   4   6 -62.569 43.8330   1 
  -6   4   6 -2.6800 43.6559  -2 
   4   4   6 -2.6800 43.6559   1 
  -7   4   6 352.111 64.9004  -2 
   5   4   6 352.111 64.9004   1 
  -8   4   6 466.966 71.3042  -2 
   6   4   6 466.966 71.3042   1 
   7   4   6 458.621 27.0308   1 
 -10   4   6 362.859 67.4118  -2 
   8   4   6 362.859 67.4118   1 
 -11   4   6 38.4390 50.6734  -2 
   9   4   6 38.4390 50.6734   1 
 -12   4   6 33.9211 49.1527  -2 
  10   4   6 33.9211 49.1527   1 
   8   5   6 36.5376 36.7021  -2 
 -10   5   6 36.5376 36.7021   1 
   7   5   6 40.2034 35.0448  -2 
  -9   5   6 40.2034 35.0448   1 
   6   5   6 71.2153 35.9555  -2 
  -8   5   6 71.2153 35.9555   1 
   5   5   6 186.240 39.7367  -2 
  -7   5   6 186.240 39.7367   1 
   4   5   6 82.4772 34.2993  -2 
  -6   5   6 82.4772 34.2993   1 
   3   5   6 -8.8680 28.5865  -2 
  -5   5   6 -8.8680 28.5865   1 
   2   5   6 -28.735 45.1056  -2 
  -4   5   6 -28.735 45.1056   1 
   1   5   6 477.309 70.6052  -2 
  -3   5   6 477.309 70.6052   1 
   0   5   6 222.796 59.8633  -2 
  -2   5   6 222.796 59.8633   1 
  -1   5   6 17.3345 35.6148  -2 
  -1   5   6 17.3345 35.6148   1 
  -2   5   6 259.042 60.9418  -2 
   0   5   6 259.042 60.9418   1 
  -3   5   6 393.210 50.9254  -2 
   1   5   6 393.210 50.9254   1 
  -4   5   6 82.6398 53.5632  -2 
   2   5   6 82.6398 53.5632   1 
  -5   5   6 105.713 54.2877  -2 
   3   5   6 105.713 54.2877   1 
  -6   5   6 -43.365 43.9633  -2 
   4   5   6 -43.365 43.9633   1 
  -7   5   6 143.113 58.1116  -2 
   5   5   6 143.113 58.1116   1 
  -8   5   6 -0.6456 50.0267  -2 
   6   5   6 -0.6456 50.0267   1 
  -9   5   6 126.292 57.0913  -2 
   7   5   6 126.292 57.0913   1 
 -10   5   6 91.1041 55.5917  -2 
   8   5   6 91.1041 55.5917   1 
   9   5   6 -2.2375 25.0054   1 
   6   6   6 3.76180 64.8488  -2 
  -8   6   6 3.76180 64.8488   1 
   5   6   6 5.40523 25.6339  -2 
  -7   6   6 5.40523 25.6339   1 
   4   6   6 185.665 44.1433  -2 
  -6   6   6 185.665 44.1433   1 
   3   6   6 494.686 43.0984  -2 
  -5   6   6 494.686 43.0984   1 
   2   6   6 333.077 67.9592  -2 
  -4   6   6 333.077 67.9592   1 
   1   6   6 88.7499 60.3535  -2 
  -3   6   6 88.7499 60.3535   1 
   0   6   6 -47.876 39.0534  -2 
  -2   6   6 -47.876 39.0534   1 
  -1   6   6 68.1232 41.7138  -2 
  -1   6   6 68.1232 41.7138   1 
  -2   6   6 -25.401 41.4092  -2 
   0   6   6 -25.401 41.4092   1 
  -3   6   6 151.522 47.3393  -2 
   1   6   6 151.522 47.3393   1 
  -4   6   6 748.722 100.407  -2 
   2   6   6 748.722 100.407   1 
  -5   6   6 827.798 106.985  -2 
   3   6   6 827.798 106.985   1 
  -6   6   6 78.9065 62.2398  -2 
   4   6   6 78.9065 62.2398   1 
  -7   6   6 41.2040 59.3402  -2 
   5   6   6 41.2040 59.3402   1 
   6   6   6 23.6964 13.3488   1 
 -14   0   7 -14.653 38.1400   1 
 -13   0   7 3.90750 29.3583   1 
 -12   0   7 15.9444 27.2795   1 
 -11   0   7 1.84167 30.2795   1 
  -6   0   7 5.97540 17.3299   1 
  -5   0   7 -8.6690 14.2320   1 
  -4   0   7 13.4152 13.8656   1 
  -3   0   7 -0.7131 11.3211   1 
  -2   0   7 5.90988 11.3830   1 
  -1   0   7 -4.9177 11.2312   1 
   0   0   7 2.67202 9.60472   1 
   1   0   7 -7.0326 8.41542   1 
   2   0   7 6.43225 8.19389   1 
   3   0   7 -1.2490 8.85928   1 
   4   0   7 2.10550 9.75276   1 
   5   0   7 8.59696 10.6064   1 
   6   0   7 -1.0731 10.9603   1 
   7   0   7 -3.5838 11.4839   1 
   8   0   7 3.04749 17.4936   1 
   9   0   7 23.6980 19.7824   1 
  10   0   7 12.3799 20.6005   1 
  11   0   7 7.76346 28.1393   1 
  12   0   7 0.34905 27.1704   1 
  12   1   7 53.5553 33.7908  -2 
 -14   1   7 53.5553 33.7908   1 
  11   1   7 168.990 34.6331  -2 
 -13   1   7 168.990 34.6331   1 
  10   1   7 130.033 30.8322  -2 
 -12   1   7 130.033 30.8322   1 
   9   1   7 88.9123 28.4856  -2 
 -11   1   7 88.9123 28.4856   1 
   8   1   7 145.138 41.3629  -2 
 -10   1   7 145.138 41.3629   1 
   7   1   7 124.155 24.0907  -2 
  -9   1   7 124.155 24.0907   1 
   6   1   7 209.664 24.1528  -2 
  -8   1   7 209.664 24.1528   1 
   5   1   7 230.363 25.0491  -2 
  -7   1   7 230.363 25.0491   1 
   4   1   7 182.979 18.0585  -2 
  -6   1   7 182.979 18.0585   1 
   3   1   7 245.691 20.5308  -2 
  -5   1   7 245.691 20.5308   1 
   2   1   7 273.375 21.7336  -2 
  -4   1   7 273.375 21.7336   1 
   1   1   7 251.857 15.2455  -2 
  -3   1   7 251.857 15.2455   1 
   0   1   7 328.517 15.8470  -2 
  -2   1   7 328.517 15.8470   1 
  -1   1   7 599.163 23.4056  -2 
  -1   1   7 599.163 23.4056   1 
  -2   1   7 380.813 17.4473  -2 
   0   1   7 380.813 17.4473   1 
  -3   1   7 205.805 14.7040  -2 
   1   1   7 205.805 14.7040   1 
  -4   1   7 350.525 18.4525  -2 
   2   1   7 350.525 18.4525   1 
  -5   1   7 203.495 13.4153  -2 
   3   1   7 203.495 13.4153   1 
  -6   1   7 285.620 16.1883  -2 
   4   1   7 285.620 16.1883   1 
  -7   1   7 281.815 16.2455  -2 
   5   1   7 281.815 16.2455   1 
  -8   1   7 101.007 11.7031  -2 
   6   1   7 101.007 11.7031   1 
  -9   1   7 129.171 13.2460  -2 
   7   1   7 129.171 13.2460   1 
 -10   1   7 150.882 13.9628  -2 
   8   1   7 150.882 13.9628   1 
 -11   1   7 123.265 13.6040  -2 
   9   1   7 123.265 13.6040   1 
 -12   1   7 132.980 14.6095  -2 
  10   1   7 132.980 14.6095   1 
 -13   1   7 92.0308 14.1504  -2 
  11   1   7 92.0308 14.1504   1 
 -14   1   7 51.3583 17.2788  -2 
  12   1   7 51.3583 17.2788   1 
  11   2   7 20.2750 24.1636  -2 
 -13   2   7 20.2750 24.1636   1 
  10   2   7 -19.955 22.2276  -2 
 -12   2   7 -19.955 22.2276   1 
   9   2   7 39.0846 21.1654  -2 
 -11   2   7 39.0846 21.1654   1 
   8   2   7 11.2385 17.0114  -2 
 -10   2   7 11.2385 17.0114   1 
   7   2   7 3.38026 18.3247  -2 
  -9   2   7 3.38026 18.3247   1 
   6   2   7 -6.0066 17.8148  -2 
  -8   2   7 -6.0066 17.8148   1 
   5   2   7 8.24765 13.5844  -2 
  -7   2   7 8.24765 13.5844   1 
   4   2   7 76.0314 14.3407  -2 
  -6   2   7 76.0314 14.3407   1 
   3   2   7 24.9479 11.5461  -2 
  -5   2   7 24.9479 11.5461   1 
   2   2   7 50.1273 12.3910  -2 
  -4   2   7 50.1273 12.3910   1 
   1   2   7 60.5947 12.5076  -2 
  -3   2   7 60.5947 12.5076   1 
   0   2   7 -2.2580 10.8551  -2 
  -2   2   7 -2.2580 10.8551   1 
  -1   2   7 42.6124 11.3328  -2 
  -1   2   7 42.6124 11.3328   1 
  -2   2   7 4.63782 9.27814  -2 
   0   2   7 4.63782 9.27814   1 
  -3   2   7 33.2199 10.2078  -2 
   1   2   7 33.2199 10.2078   1 
  -4   2   7 26.4800 10.0017  -2 
   2   2   7 26.4800 10.0017   1 
  -5   2   7 3.66831 8.92233  -2 
   3   2   7 3.66831 8.92233   1 
  -6   2   7 94.0399 12.3514  -2 
   4   2   7 94.0399 12.3514   1 
  -7   2   7 -11.692 10.3053  -2 
   5   2   7 -11.692 10.3053   1 
  -8   2   7 0.68655 9.53213  -2 
   6   2   7 0.68655 9.53213   1 
  -9   2   7 -10.514 9.66451  -2 
   7   2   7 -10.514 9.66451   1 
 -10   2   7 14.7687 11.5587  -2 
   8   2   7 14.7687 11.5587   1 
 -11   2   7 30.0145 12.2599  -2 
   9   2   7 30.0145 12.2599   1 
 -12   2   7 -4.2842 12.5061  -2 
  10   2   7 -4.2842 12.5061   1 
 -13   2   7 29.7150 14.2054  -2 
  11   2   7 29.7150 14.2054   1 
  10   3   7 23.0283 24.1129  -2 
 -12   3   7 23.0283 24.1129   1 
   9   3   7 57.1473 17.9867  -2 
 -11   3   7 57.1473 17.9867   1 
   8   3   7 46.2299 15.9786  -2 
 -10   3   7 46.2299 15.9786   1 
   7   3   7 128.843 17.6787  -2 
  -9   3   7 128.843 17.6787   1 
   6   3   7 206.415 19.3029  -2 
  -8   3   7 206.415 19.3029   1 
   5   3   7 104.849 16.4447  -2 
  -7   3   7 104.849 16.4447   1 
   4   3   7 287.575 21.5046  -2 
  -6   3   7 287.575 21.5046   1 
   3   3   7 450.382 24.1108  -2 
  -5   3   7 450.382 24.1108   1 
   2   3   7 114.983 15.3052  -2 
  -4   3   7 114.983 15.3052   1 
   1   3   7 409.422 25.2659  -2 
  -3   3   7 409.422 25.2659   1 
   0   3   7 210.656 18.5895  -2 
  -2   3   7 210.656 18.5895   1 
  -1   3   7 43.7790 12.8395  -2 
  -1   3   7 43.7790 12.8395   1 
  -2   3   7 390.565 24.2293  -2 
   0   3   7 390.565 24.2293   1 
  -3   3   7 223.168 19.9791  -2 
   1   3   7 223.168 19.9791   1 
  -4   3   7 122.314 16.4565  -2 
   2   3   7 122.314 16.4565   1 
  -5   3   7 386.599 25.8077  -2 
   3   3   7 386.599 25.8077   1 
  -6   3   7 211.950 17.1297  -2 
   4   3   7 211.950 17.1297   1 
  -7   3   7 146.668 14.9353  -2 
   5   3   7 146.668 14.9353   1 
  -8   3   7 276.507 19.4142  -2 
   6   3   7 276.507 19.4142   1 
  -9   3   7 170.174 15.8758  -2 
   7   3   7 170.174 15.8758   1 
 -10   3   7 57.7632 13.2188  -2 
   8   3   7 57.7632 13.2188   1 
 -11   3   7 69.4665 15.1959  -2 
   9   3   7 69.4665 15.1959   1 
 -12   3   7 61.5340 19.2274  -2 
  10   3   7 61.5340 19.2274   1 
   9   4   7 19.7400 21.9225  -2 
 -11   4   7 19.7400 21.9225   1 
   8   4   7 -24.790 16.9519  -2 
 -10   4   7 -24.790 16.9519   1 
   7   4   7 7.03198 17.5549  -2 
  -9   4   7 7.03198 17.5549   1 
   6   4   7 -1.3448 16.3723  -2 
  -8   4   7 -1.3448 16.3723   1 
   5   4   7 33.9940 14.8408  -2 
  -7   4   7 33.9940 14.8408   1 
   4   4   7 5.95876 12.1263  -2 
  -6   4   7 5.95876 12.1263   1 
   3   4   7 9.27134 11.3462  -2 
  -5   4   7 9.27134 11.3462   1 
   2   4   7 0.29935 11.2664  -2 
  -4   4   7 0.29935 11.2664   1 
   1   4   7 22.9266 11.5593  -2 
  -3   4   7 22.9266 11.5593   1 
   0   4   7 13.3955 12.6363  -2 
  -2   4   7 13.3955 12.6363   1 
  -1   4   7 34.3160 13.7017  -2 
  -1   4   7 34.3160 13.7017   1 
  -2   4   7 -7.9552 12.4412  -2 
   0   4   7 -7.9552 12.4412   1 
  -3   4   7 1.49985 13.1036  -2 
   1   4   7 1.49985 13.1036   1 
  -4   4   7 18.4998 12.2435  -2 
   2   4   7 18.4998 12.2435   1 
  -5   4   7 -8.0927 11.7874  -2 
   3   4   7 -8.0927 11.7874   1 
  -6   4   7 1.15077 14.0197  -2 
   4   4   7 1.15077 14.0197   1 
  -7   4   7 53.4329 16.7902  -2 
   5   4   7 53.4329 16.7902   1 
  -8   4   7 8.75279 15.8885  -2 
   6   4   7 8.75279 15.8885   1 
  -9   4   7 27.9975 16.5654  -2 
   7   4   7 27.9975 16.5654   1 
 -10   4   7 -19.879 15.1959  -2 
   8   4   7 -19.879 15.1959   1 
 -11   4   7 56.6181 19.7090  -2 
   9   4   7 56.6181 19.7090   1 
   7   5   7 68.4894 18.9464  -2 
  -9   5   7 68.4894 18.9464   1 
   6   5   7 23.5761 17.0516  -2 
  -8   5   7 23.5761 17.0516   1 
   5   5   7 98.8534 19.1681  -2 
  -7   5   7 98.8534 19.1681   1 
   4   5   7 38.3081 15.7830  -2 
  -6   5   7 38.3081 15.7830   1 
   3   5   7 57.3147 15.8515  -2 
  -5   5   7 57.3147 15.8515   1 
   2   5   7 140.666 16.8777  -2 
  -4   5   7 140.666 16.8777   1 
   1   5   7 105.766 16.7545  -2 
  -3   5   7 105.766 16.7545   1 
   0   5   7 121.183 16.7106  -2 
  -2   5   7 121.183 16.7106   1 
  -1   5   7 226.293 20.3822  -2 
  -1   5   7 226.293 20.3822   1 
  -2   5   7 102.254 17.3463  -2 
   0   5   7 102.254 17.3463   1 
  -3   5   7 217.879 19.4135  -2 
   1   5   7 217.879 19.4135   1 
  -4   5   7 295.384 23.1417  -2 
   2   5   7 295.384 23.1417   1 
  -5   5   7 62.6250 15.9191  -2 
   3   5   7 62.6250 15.9191   1 
  -6   5   7 64.4908 16.2238  -2 
   4   5   7 64.4908 16.2238   1 
  -7   5   7 80.1944 19.8076  -2 
   5   5   7 80.1944 19.8076   1 
  -8   5   7 82.8071 19.0253  -2 
   6   5   7 82.8071 19.0253   1 
  -9   5   7 114.026 19.9682  -2 
   7   5   7 114.026 19.9682   1 
   3   6   7 -9.7650 14.9098  -2 
  -5   6   7 -9.7650 14.9098   1 
   2   6   7 -6.4328 14.5203  -2 
  -4   6   7 -6.4328 14.5203   1 
   1   6   7 -22.420 13.0424  -2 
  -3   6   7 -22.420 13.0424   1 
   0   6   7 15.8981 14.5053  -2 
  -2   6   7 15.8981 14.5053   1 
  -1   6   7 3.56053 12.7655  -2 
  -1   6   7 3.56053 12.7655   1 
  -2   6   7 32.6412 13.8973  -2 
   0   6   7 32.6412 13.8973   1 
  -3   6   7 5.66718 13.6877  -2 
   1   6   7 5.66718 13.6877   1 
  -4   6   7 14.4556 13.7754  -2 
   2   6   7 14.4556 13.7754   1 
  -5   6   7 22.8986 16.1332  -2 
   3   6   7 22.8986 16.1332   1 
 -13   0   8 96.4380 27.3333   1 
  10   0   8 -22.074 39.7449  -2 
 -12   0   8 -22.074 39.7449   1 
 -11   0   8 40.8699 41.5501   1 
 -10   0   8 254.158 32.1735   1 
  -9   0   8 459.119 39.8211   1 
  -8   0   8 429.299 48.3472   1 
  -7   0   8 15.2788 16.0551   1 
  -6   0   8 -16.952 14.5316   1 
  -5   0   8 7.99980 18.3812   1 
  -4   0   8 5.79669 11.1690   1 
  -3   0   8 135.232 17.2402   1 
  -2   0   8 1071.66 67.9605   1 
  -1   0   8 1020.47 54.0121   1 
   0   0   8 217.369 20.9018   1 
   1   0   8 120.402 16.2530   1 
   2   0   8 0.88706 10.2465   1 
   3   0   8 19.2710 11.9330   1 
   4   0   8 28.9210 21.0884   1 
   5   0   8 31.4153 22.1590   1 
   6   0   8 276.700 37.2308   1 
   7   0   8 268.813 39.2188   1 
   8   0   8 135.999 32.9542   1 
   9   0   8 67.5288 30.0288   1 
  10   0   8 28.5135 27.2513   1 
  10   1   8 23.3882 42.4878  -2 
 -12   1   8 23.3882 42.4878   1 
   9   1   8 48.5672 42.4995  -2 
 -11   1   8 48.5672 42.4995   1 
 -10   1   8 7.35647 18.2752   1 
  -9   1   8 -10.412 13.3673   1 
  -8   1   8 33.3439 15.5121   1 
  -7   1   8 88.1460 16.7698   1 
  -6   1   8 109.113 15.5017   1 
   3   1   8 60.6844 34.2222  -2 
  -5   1   8 60.6844 34.2222   1 
   2   1   8 50.3735 35.5207  -2 
  -4   1   8 50.3735 35.5207   1 
   1   1   8 73.9283 33.9959  -2 
  -3   1   8 73.9283 33.9959   1 
  -2   1   8 136.781 15.4254   1 
  -1   1   8 2.31623 20.9061  -2 
  -1   1   8 2.31623 20.9061   1 
   0   1   8 121.774 14.3061   1 
   1   1   8 99.1062 13.5550   1 
   2   1   8 32.7696 10.0257   1 
   3   1   8 142.653 14.0134   1 
   4   1   8 239.670 17.2438   1 
   5   1   8 7.29552 9.13237   1 
   6   1   8 9.77260 10.0517   1 
  -9   1   8 16.8347 26.7567  -2 
   7   1   8 16.8347 26.7567   1 
   8   1   8 150.107 19.7708   1 
 -11   1   8 121.141 40.7372  -2 
   9   1   8 121.141 40.7372   1 
  10   1   8 -2.2500 16.2434   1 
 -12   2   8 122.844 22.9853   1 
   9   2   8 168.709 50.9249  -2 
 -11   2   8 168.709 50.9249   1 
   8   2   8 30.0743 41.8785  -2 
 -10   2   8 30.0743 41.8785   1 
  -9   2   8 -18.367 17.3472   1 
  -8   2   8 -15.266 15.2349   1 
  -7   2   8 138.997 20.5821   1 
   4   2   8 672.419 74.1562  -2 
  -6   2   8 672.419 74.1562   1 
   3   2   8 554.255 68.4989  -2 
  -5   2   8 554.255 68.4989   1 
   2   2   8 563.443 66.4673  -2 
  -4   2   8 563.443 66.4673   1 
  -3   2   8 194.343 17.9291   1 
   0   2   8 19.1348 34.3379  -2 
  -2   2   8 19.1348 34.3379   1 
  -1   2   8 -1.4417 34.1986  -2 
  -1   2   8 -1.4417 34.1986   1 
   0   2   8 26.1128 10.0883   1 
  -3   2   8 234.630 51.0554  -2 
   1   2   8 234.630 51.0554   1 
   2   2   8 401.367 23.4837   1 
   3   2   8 432.954 24.9197   1 
  -6   2   8 736.857 77.1520  -2 
   4   2   8 736.857 77.1520   1 
   5   2   8 41.7427 11.5279   1 
   6   2   8 -4.1363 10.1756   1 
  -9   2   8 90.9785 34.9647  -2 
   7   2   8 90.9785 34.9647   1 
 -10   2   8 51.1141 26.9092  -2 
   8   2   8 51.1141 26.9092   1 
 -11   2   8 192.673 42.8665  -2 
   9   2   8 192.673 42.8665   1 
 -12   2   8 205.639 46.3828  -2 
  10   2   8 205.639 46.3828   1 
 -11   3   8 12.4208 17.2795   1 
   8   3   8 40.6323 44.4910  -2 
 -10   3   8 40.6323 44.4910   1 
   7   3   8 -5.9833 39.3183  -2 
  -9   3   8 -5.9833 39.3183   1 
  -8   3   8 -13.329 19.1446   1 
  -7   3   8 131.620 48.0394   1 
   4   3   8 179.572 28.4016  -2 
  -6   3   8 179.572 28.4016   1 
   3   3   8 50.7048 35.5974  -2 
  -5   3   8 50.7048 35.5974   1 
  -4   3   8 174.518 18.8660   1 
   1   3   8 75.3572 35.8588  -2 
  -3   3   8 75.3572 35.8588   1 
   0   3   8 -24.391 30.7057  -2 
  -2   3   8 -24.391 30.7057   1 
  -1   3   8 -11.333 37.1917  -2 
  -1   3   8 -11.333 37.1917   1 
  -2   3   8 33.8689 41.0901  -2 
   0   3   8 33.8689 41.0901   1 
  -3   3   8 155.436 46.7630  -2 
   1   3   8 155.436 46.7630   1 
  -4   3   8 91.0586 30.4079  -2 
   2   3   8 91.0586 30.4079   1 
  -5   3   8 39.3741 27.8073  -2 
   3   3   8 39.3741 27.8073   1 
   4   3   8 131.088 17.7988   1 
  -7   3   8 150.333 50.3269  -2 
   5   3   8 150.333 50.3269   1 
  -8   3   8 -13.201 43.1768  -2 
   6   3   8 -13.201 43.1768   1 
  -9   3   8 9.04471 26.5212  -2 
   7   3   8 9.04471 26.5212   1 
 -10   3   8 144.891 32.8215  -2 
   8   3   8 144.891 32.8215   1 
 -11   3   8 91.7983 39.7618  -2 
   9   3   8 91.7983 39.7618   1 
   7   4   8 260.480 37.1983  -2 
  -9   4   8 260.480 37.1983   1 
   6   4   8 222.615 35.0528  -2 
  -8   4   8 222.615 35.0528   1 
   5   4   8 72.4206 26.7296  -2 
  -7   4   8 72.4206 26.7296   1 
   4   4   8 67.5611 49.8228  -2 
  -6   4   8 67.5611 49.8228   1 
   3   4   8 4.01975 46.8787  -2 
  -5   4   8 4.01975 46.8787   1 
   2   4   8 20.3183 34.8004  -2 
  -4   4   8 20.3183 34.8004   1 
   1   4   8 49.0364 35.8596  -2 
  -3   4   8 49.0364 35.8596   1 
   0   4   8 481.064 49.5601  -2 
  -2   4   8 481.064 49.5601   1 
  -1   4   8 858.976 67.9958  -2 
  -1   4   8 858.976 67.9958   1 
  -2   4   8 351.525 47.3188  -2 
   0   4   8 351.525 47.3188   1 
   1   4   8 48.4219 13.1955   1 
  -4   4   8 47.8455 26.6279  -2 
   2   4   8 47.8455 26.6279   1 
  -5   4   8 -0.4686 45.2017  -2 
   3   4   8 -0.4686 45.2017   1 
  -6   4   8 83.7213 28.7515  -2 
   4   4   8 83.7213 28.7515   1 
  -7   4   8 170.956 63.4471  -2 
   5   4   8 170.956 63.4471   1 
  -8   4   8 438.290 46.4256  -2 
   6   4   8 438.290 46.4256   1 
  -9   4   8 235.377 37.7804  -2 
   7   4   8 235.377 37.7804   1 
  -7   5   8 102.448 56.0346   1 
   4   5   8 90.4449 33.8339  -2 
  -6   5   8 90.4449 33.8339   1 
   3   5   8 107.333 31.6993  -2 
  -5   5   8 107.333 31.6993   1 
   2   5   8 155.659 58.8500  -2 
  -4   5   8 155.659 58.8500   1 
   1   5   8 152.935 64.3740  -2 
  -3   5   8 152.935 64.3740   1 
   0   5   8 21.3672 36.0821  -2 
  -2   5   8 21.3672 36.0821   1 
  -1   5   8 -9.6343 34.7218  -2 
  -1   5   8 -9.6343 34.7218   1 
  -2   5   8 73.3699 26.2021  -2 
   0   5   8 73.3699 26.2021   1 
  -3   5   8 147.022 28.2739  -2 
   1   5   8 147.022 28.2739   1 
  -4   5   8 136.124 42.1560  -2 
   2   5   8 136.124 42.1560   1 
  -5   5   8 20.4798 24.5239  -2 
   3   5   8 20.4798 24.5239   1 
  -6   5   8 46.5931 31.6782  -2 
   4   5   8 46.5931 31.6782   1 
 -10   0   9 6.80546 22.7291   1 
  -9   0   9 6.06672 19.9197   1 
  -8   0   9 2.72421 19.8364   1 
  -7   0   9 15.8337 16.0352   1 
  -6   0   9 -13.793 14.9632   1 
  -5   0   9 3.57947 14.8279   1 
  -4   0   9 -7.5545 10.8653   1 
  -3   0   9 -4.3793 11.9811   1 
  -2   0   9 -2.5592 11.4982   1 
  -1   0   9 -7.1192 17.3561   1 
   0   0   9 4.72156 19.4028   1 
   1   0   9 -3.1662 18.0996   1 
   2   0   9 -10.030 17.2376   1 
   3   0   9 2.50061 21.7529   1 
   4   0   9 21.0835 20.7519   1 
   5   0   9 12.7308 21.2190   1 
   6   0   9 22.7625 22.5318   1 
   7   0   9 1.14561 20.2081   1 
   8   0   9 7.72789 24.8465   1 
 -11   1   9 63.7954 22.9659   1 
 -10   1   9 93.1026 32.2018   1 
  -9   1   9 106.200 36.1622   1 
  -8   1   9 44.9250 17.8173   1 
  -7   1   9 53.5086 13.6141   1 
  -6   1   9 122.671 16.4608   1 
  -5   1   9 130.990 15.9446   1 
  -4   1   9 145.054 16.5303   1 
  -3   1   9 89.6126 14.5837   1 
  -2   1   9 152.655 15.8015   1 
  -1   1   9 142.339 19.1150   1 
   0   1   9 102.205 17.3965   1 
   1   1   9 92.9937 14.8802   1 
   2   1   9 39.5209 12.1610   1 
   3   1   9 120.096 15.7250   1 
   4   1   9 59.1721 16.5033   1 
   5   1   9 22.2862 16.2145   1 
   6   1   9 103.475 22.1009   1 
   7   1   9 65.4952 19.9596   1 
   8   1   9 49.1137 19.9764   1 
 -10   2   9 13.0304 21.2185   1 
  -9   2   9 53.1369 24.5592   1 
  -8   2   9 39.9203 17.7611   1 
  -7   2   9 20.6257 12.0690   1 
  -6   2   9 10.8852 12.5805   1 
  -5   2   9 56.1303 13.8104   1 
  -4   2   9 19.1185 12.1342   1 
  -3   2   9 12.3262 11.6711   1 
  -2   2   9 22.6156 12.0780   1 
  -1   2   9 9.09857 10.5677   1 
   0   2   9 8.91982 9.93826   1 
   1   2   9 6.06035 10.1911   1 
   2   2   9 20.6190 10.5236   1 
   3   2   9 21.7449 12.1212   1 
   4   2   9 10.4086 11.2261   1 
   5   2   9 13.5221 12.0091   1 
   6   2   9 13.5187 12.2521   1 
   7   2   9 -7.5338 11.8946   1 
  -9   3   9 18.7815 19.3663   1 
  -8   3   9 46.7179 19.3959   1 
  -7   3   9 160.055 26.2368   1 
  -6   3   9 69.3506 15.7624   1 
  -5   3   9 44.2784 14.4272   1 
  -4   3   9 86.3811 16.7083   1 
  -3   3   9 12.5473 12.6375   1 
  -2   3   9 86.9886 16.1302   1 
  -1   3   9 67.7008 15.1185   1 
   0   3   9 19.4685 12.5859   1 
   1   3   9 140.818 17.3771   1 
   2   3   9 73.6970 15.0261   1 
   3   3   9 122.073 18.2026   1 
   4   3   9 111.984 18.4254   1 
   5   3   9 91.8227 15.2591   1 
   6   3   9 26.3980 13.2842   1 
  -7   4   9 35.6176 15.8431   1 
  -6   4   9 13.7797 18.1440   1 
  -5   4   9 15.0322 14.6478   1 
  -4   4   9 4.25907 13.2362   1 
  -3   4   9 3.55311 13.1097   1 
  -2   4   9 1.62277 12.5168   1 
  -1   4   9 -4.2339 12.9843   1 
   0   4   9 17.9391 14.4690   1 
   1   4   9 -7.6726 12.2760   1 
   2   4   9 30.3188 13.1068   1 
   3   4   9 8.76631 13.1157   1 
   4   4   9 3.18153 13.8239   1 
   6   0  10 179.486 50.1780  -2 
  -9   0  10 179.486 50.1780   1 
   5   0  10 25.7418 43.4901  -2 
  -8   0  10 25.7418 43.4901   1 
   4   0  10 25.6838 43.2754  -2 
  -7   0  10 25.6838 43.2754   1 
   3   0  10 -32.795 39.5271  -2 
  -6   0  10 -32.795 39.5271   1 
   2   0  10 -16.114 40.5597  -2 
  -5   0  10 -16.114 40.5597   1 
   1   0  10 2.92037 40.9039  -2 
  -4   0  10 2.92037 40.9039   1 
   0   0  10 185.793 48.1205  -2 
  -3   0  10 185.793 48.1205   1 
  -1   0  10 342.115 40.4716  -2 
  -2   0  10 342.115 40.4716   1 
  -2   0  10 400.005 43.1848  -2 
  -1   0  10 400.005 43.1848   1 
  -3   0  10 261.271 35.6723  -2 
   0   0  10 261.271 35.6723   1 
  -4   0  10 -3.6800 26.6977  -2 
   1   0  10 -3.6800 26.6977   1 
  -5   0  10 25.9603 25.8705  -2 
   2   0  10 25.9603 25.8705   1 
  -6   0  10 -33.998 25.0874  -2 
   3   0  10 -33.998 25.0874   1 
  -7   0  10 63.8957 27.7663  -2 
   4   0  10 63.8957 27.7663   1 
  -8   0  10 212.359 37.1566  -2 
   5   0  10 212.359 37.1566   1 
  -9   0  10 263.856 55.7498  -2 
   6   0  10 263.856 55.7498   1 
   5   1  10 91.5904 45.9843  -2 
  -8   1  10 91.5904 45.9843   1 
   4   1  10 61.6222 27.2988  -2 
  -7   1  10 61.6222 27.2988   1 
   3   1  10 47.7402 23.2559  -2 
  -6   1  10 47.7402 23.2559   1 
   2   1  10 -2.8831 18.6773  -2 
  -5   1  10 -2.8831 18.6773   1 
   1   1  10 134.742 22.4717  -2 
  -4   1  10 134.742 22.4717   1 
   0   1  10 228.994 26.3912  -2 
  -3   1  10 228.994 26.3912   1 
  -1   1  10 2.83238 17.7116  -2 
  -2   1  10 2.83238 17.7116   1 
  -2   1  10 66.9240 22.7665  -2 
  -1   1  10 66.9240 22.7665   1 
  -3   1  10 150.342 21.8029  -2 
   0   1  10 150.342 21.8029   1 
  -4   1  10 83.1616 20.6741  -2 
   1   1  10 83.1616 20.6741   1 
  -5   1  10 35.2930 19.6118  -2 
   2   1  10 35.2930 19.6118   1 
  -6   1  10 23.3921 19.6576  -2 
   3   1  10 23.3921 19.6576   1 
  -7   1  10 17.7635 20.1364  -2 
   4   1  10 17.7635 20.1364   1 
  -8   1  10 113.460 22.8174  -2 
   5   1  10 113.460 22.8174   1 
   4   2  10 83.4927 22.4767  -2 
  -7   2  10 83.4927 22.4767   1 
   3   2  10 341.371 31.7231  -2 
  -6   2  10 341.371 31.7231   1 
   2   2  10 459.514 31.2179  -2 
  -5   2  10 459.514 31.2179   1 
   1   2  10 64.3236 21.5087  -2 
  -4   2  10 64.3236 21.5087   1 
   0   2  10 10.8702 19.3552  -2 
  -3   2  10 10.8702 19.3552   1 
  -1   2  10 -12.054 18.1055  -2 
  -2   2  10 -12.054 18.1055   1 
  -2   2  10 -16.418 18.2149  -2 
  -1   2  10 -16.418 18.2149   1 
  -3   2  10 54.8089 15.4198  -2 
   0   2  10 54.8089 15.4198   1 
  -4   2  10 166.659 24.7765  -2 
   1   2  10 166.659 24.7765   1 
  -5   2  10 454.415 27.5896  -2 
   2   2  10 454.415 27.5896   1 
  -6   2  10 293.521 23.3874  -2 
   3   2  10 293.521 23.3874   1 
  -7   2  10 73.7305 22.4023  -2 
   4   2  10 73.7305 22.4023   1 
   3   3  10 21.3647 20.3457  -2 
  -6   3  10 21.3647 20.3457   1 
   2   3  10 20.9139 17.9309  -2 
  -5   3  10 20.9139 17.9309   1 
   1   3  10 56.5064 19.2921  -2 
  -4   3  10 56.5064 19.2921   1 
   0   3  10 40.3272 18.8260  -2 
  -3   3  10 40.3272 18.8260   1 
  -1   3  10 17.6490 15.5770  -2 
  -2   3  10 17.6490 15.5770   1 
  -2   3  10 29.8881 15.0383  -2 
  -1   3  10 29.8881 15.0383   1 
  -3   3  10 77.4552 15.6774  -2 
   0   3  10 77.4552 15.6774   1 
  -4   3  10 79.3514 15.7493  -2 
   1   3  10 79.3514 15.7493   1 
  -5   3  10 27.1959 15.1773  -2 
   2   3  10 27.1959 15.1773   1 
  -6   3  10 -37.401 45.3843  -2 
   3   3  10 -37.401 45.3843   1 
  -5   0  11 -12.767 33.2082   1 
  -4   0  11 17.8955 35.1321   1 
  -3   0  11 6.47130 25.5316   1 
  -2   0  11 -12.197 23.3010   1 
  -1   0  11 65.6701 31.6661   1 
   0   0  11 -4.8708 26.6935   1 
   1   0  11 17.2757 27.6847   1 
  -4   1  11 46.4678 26.9349   1 
   0   1  11 82.1782 40.3165  -2 
  -3   1  11 82.1782 40.3165   1 
  -1   1  11 45.1833 36.5377  -2 
  -2   1  11 45.1833 36.5377   1 
  -2   1  11 36.4897 24.4765  -2 
  -1   1  11 36.4897 24.4765   1 
  -3   1  11 50.7503 26.6359  -2 
   0   1  11 50.7503 26.6359   1 
   0   0   0    0.00    0.00   0 
;
_shelx_hkl_checksum              76559
#END Tags that were not found in dictionaries
loop_
_space_group_symop_operation_xyz
'x, y, z'
'-x, y+1/2, -z+1/2'
'-x, -y, -z'
'x, -y-1/2, z-1/2'
loop_
_atom_site_label
_atom_site_type_symbol
_atom_site_fract_x
_atom_site_fract_y
_atom_site_fract_z
_atom_site_U_iso_or_equiv
_atom_site_adp_type
_atom_site_occupancy
_atom_site_site_symmetry_order
_atom_site_calc_flag
_atom_site_refinement_flags_posn
_atom_site_refinement_flags_adp
_atom_site_refinement_flags_occupancy
Ni1 Ni 0.0000 0.0000 0.0000 0.0199(3) Uani 1 2 d S . P
S1 S 0.13075(10) -0.2491(2) 0.0204(2) 0.0229(3) Uani 1 1 d . . .
N1 N 0.0869(4) 0.1842(7) 0.1371(6) 0.0227(9) Uani 1 1 d . . .
H1 H 0.0618 0.3171 0.1657 0.027 Uiso 1 1 calc R U .
C1 C 0.2244(4) -0.0971(9) 0.1443(7) 0.0223(11) Uani 1 1 d . . .
C2 C 0.1883(4) 0.1215(8) 0.1957(7) 0.0202(11) Uani 1 1 d . . .
C3 C 0.2611(4) 0.2577(11) 0.3002(8) 0.0254(11) Uani 1 1 d . . .
H3 H 0.2382 0.4026 0.3353 0.030 Uiso 1 1 calc R U .
C4 C 0.3632(5) 0.1827(11) 0.3506(7) 0.0301(13) Uani 1 1 d . . .
H4 H 0.4114 0.2758 0.4200 0.036 Uiso 1 1 calc R U .
C5 C 0.3983(5) -0.0330(10) 0.3004(8) 0.0290(13) Uani 1 1 d . . .
H5 H 0.4697 -0.0843 0.3376 0.035 Uiso 1 1 calc R U .
C6 C 0.3307(5) -0.1690(10) 0.1989(8) 0.0277(12) Uani 1 1 d . . .
H6 H 0.3559 -0.3129 0.1653 0.033 Uiso 1 1 calc R U .
loop_
_atom_site_aniso_label
_atom_site_aniso_U_11
_atom_site_aniso_U_22
_atom_site_aniso_U_33
_atom_site_aniso_U_23
_atom_site_aniso_U_13
_atom_site_aniso_U_12
Ni1 0.0290(5) 0.0117(4) 0.0191(4) -0.0010(5) 0.0025(4) -0.0012(4)
S1 0.0339(7) 0.0133(5) 0.0215(6) -0.0014(6) 0.0020(7) -0.0002(5)
N1 0.029(2) 0.017(2) 0.023(2) -0.001(2) 0.005(2) -0.0010(17)
C1 0.031(3) 0.012(2) 0.025(3) 0.004(2) 0.010(2) -0.002(2)
C2 0.030(3) 0.011(2) 0.022(3) 0.000(2) 0.014(2) -0.002(2)
C3 0.038(3) 0.017(2) 0.022(3) -0.004(2) 0.010(3) -0.004(3)
C4 0.037(3) 0.027(3) 0.027(3) 0.000(2) 0.006(3) -0.004(3)
C5 0.029(3) 0.028(3) 0.030(3) 0.004(3) 0.001(2) -0.001(2)
C6 0.035(3) 0.019(3) 0.030(3) 0.004(2) 0.010(3) 0.005(2)
loop_
_atom_type_symbol
_atom_type_description
_atom_type_scat_dispersion_real
_atom_type_scat_dispersion_imag
_atom_type_scat_source
C C 0.0033 0.0016 'International Tables Vol C Tables 4.2.6.8 and 6.1.1.4'
H H 0.0000 0.0000 'International Tables Vol C Tables 4.2.6.8 and 6.1.1.4'
N N 0.0061 0.0033 'International Tables Vol C Tables 4.2.6.8 and 6.1.1.4'
S S 0.1246 0.1234 'International Tables Vol C Tables 4.2.6.8 and 6.1.1.4'
Ni Ni 0.3393 1.1124 'International Tables Vol C Tables 4.2.6.8 and 6.1.1.4'
loop_
_geom_angle_atom_site_label_1
_geom_angle_atom_site_label_2
_geom_angle_atom_site_label_3
_geom_angle
_geom_angle_site_symmetry_1
_geom_angle_site_symmetry_3
N1 Ni1 N1 180.0 . 3
N1 Ni1 S1 91.81(15) . 3
N1 Ni1 S1 88.19(15) 3 3
N1 Ni1 S1 88.18(15) . .
N1 Ni1 S1 91.82(15) 3 .
S1 Ni1 S1 180.0 3 .
C1 S1 Ni1 98.31(19) . .
C2 N1 Ni1 121.5(4) . .
C2 N1 H1 119.3 . .
Ni1 N1 H1 119.3 . .
C6 C1 C2 118.9(5) . .
C6 C1 S1 125.7(4) . .
C2 C1 S1 115.5(4) . .
N1 C2 C3 124.5(5) . .
N1 C2 C1 116.5(5) . .
C3 C2 C1 118.9(5) . .
C4 C3 C2 120.6(6) . .
C4 C3 H3 119.7 . .
C2 C3 H3 119.7 . .
C3 C4 C5 120.4(6) . .
C3 C4 H4 119.8 . .
C5 C4 H4 119.8 . .
C6 C5 C4 120.8(5) . .
C6 C5 H5 119.6 . .
C4 C5 H5 119.6 . .
C5 C6 C1 120.4(5) . .
C5 C6 H6 119.8 . .
C1 C6 H6 119.8 . .
loop_
_geom_bond_atom_site_label_1
_geom_bond_atom_site_label_2
_geom_bond_distance
_geom_bond_site_symmetry_2
Ni1 N1 1.822(4) .
Ni1 N1 1.822(4) 3
Ni1 S1 2.1702(14) 3
Ni1 S1 2.1702(14) .
S1 C1 1.706(6) .
N1 C2 1.343(7) .
N1 H1 0.8800 .
C1 C6 1.405(8) .
C1 C2 1.435(7) .
C2 C3 1.419(7) .
C3 C4 1.356(8) .
C3 H3 0.9500 .
C4 C5 1.413(8) .
C4 H4 0.9500 .
C5 C6 1.369(8) .
C5 H5 0.9500 .
C6 H6 0.9500 .
loop_
_geom_torsion_atom_site_label_1
_geom_torsion_atom_site_label_2
_geom_torsion_atom_site_label_3
_geom_torsion_atom_site_label_4
_geom_torsion
_geom_torsion_site_symmetry_1
S1 Ni1 N1 C2 -178.8(4) 3
S1 Ni1 N1 C2 1.2(4) .
Ni1 S1 C1 C6 -178.2(5) .
Ni1 S1 C1 C2 2.3(4) .
Ni1 N1 C2 C3 178.8(4) .
Ni1 N1 C2 C1 0.1(6) .
C6 C1 C2 N1 178.6(5) .
S1 C1 C2 N1 -1.8(6) .
C6 C1 C2 C3 -0.1(8) .
S1 C1 C2 C3 179.4(4) .
N1 C2 C3 C4 -178.5(5) .
C1 C2 C3 C4 0.1(8) .
C2 C3 C4 C5 -0.4(9) .
C3 C4 C5 C6 0.7(9) .
C4 C5 C6 C1 -0.7(9) .
C2 C1 C6 C5 0.5(8) .
S1 C1 C6 C5 -179.1(5) .
