#------------------------------------------------------------------------------
#$Date: 2016-03-24 14:36:54 +0200 (Thu, 24 Mar 2016) $
#$Revision: 179669 $
#$URL: svn://www.crystallography.net/cod/cif/4/51/22/4512281.cif $
#------------------------------------------------------------------------------
#
# This file is available in the Crystallography Open Database (COD),
# http://www.crystallography.net/
#
# All data on this site have been placed in the public domain by the
# contributors.
#
data_4512281
loop_
_publ_author_name
'Hain, Malia S.'
'Fukuda, Yoko'
'Rojas Ram\'irez, Carolina'
'Winer, Benjamin Y.'
'Winslow, Stephanie E.'
'Pike, Robert D.'
'Bebout, Deborah C.'
_publ_section_title
;
 Staging Bonding between Group 12 Metal Ions and Neutral Selenium Donors:
 Intermolecular Interactions of Mixed N,Se Donor Ligands and Anions
;
_journal_issue                   12
_journal_name_full               'Crystal Growth &amp; Design'
_journal_page_first              6497
_journal_paper_doi               10.1021/cg501395p
_journal_volume                  14
_journal_year                    2014
_chemical_formula_moiety         'C12 H12 N4 O6 Se Zn'
_chemical_formula_sum            'C12 H12 N4 O6 Se Zn'
_chemical_formula_weight         452.59
_chemical_name_common
;
bis(nitrato-O,O')-(bis(2-pyridylmethyl)selenide-N,N',Se)-zinc(ii)
;
_space_group_crystal_system      triclinic
_space_group_IT_number           2
_space_group_name_Hall           '-P 1'
_space_group_name_H-M_alt        'P -1'
_symmetry_space_group_name_Hall  '-P 1'
_symmetry_space_group_name_H-M   'P -1'
_atom_sites_solution_hydrogens   geom
_audit_creation_method           SHELXL-2014/5
_cell_angle_alpha                81.8816(8)
_cell_angle_beta                 80.8657(7)
_cell_angle_gamma                65.1216(7)
_cell_formula_units_Z            2
_cell_length_a                   7.9133(2)
_cell_length_b                   8.3841(2)
_cell_length_c                   12.7127(3)
_cell_measurement_reflns_used    9990
_cell_measurement_temperature    100(2)
_cell_measurement_theta_max      72.19
_cell_measurement_theta_min      3.53
_cell_volume                     752.85(3)
_computing_cell_refinement       'SAINTPLUS (Bruker AXS, 2004)'
_computing_data_collection       'APEX2 (Bruker AXS, 2004)'
_computing_data_reduction        SAINTPLUS
_computing_molecular_graphics    'SHELXLE (Hubschle, 2011)'
_computing_publication_material  'Mercury 3.3 (CCDC, 2014)'
_computing_structure_refinement  'SHELXL-2014/5 (Sheldrick, 2014)'
_computing_structure_solution    'SHELXS97 (Sheldrick, 1997)'
_diffrn_ambient_temperature      100(2)
_diffrn_measured_fraction_theta_full 0.954
_diffrn_measured_fraction_theta_max 0.969
_diffrn_measurement_device_type  'Bruker SMART APEX II CCD'
_diffrn_measurement_method       '\w and \y'
_diffrn_radiation_monochromator  graphite
_diffrn_radiation_type           CuK\a
_diffrn_radiation_wavelength     1.54178
_diffrn_reflns_av_R_equivalents  0.0304
_diffrn_reflns_av_unetI/netI     0.0266
_diffrn_reflns_Laue_measured_fraction_full 0.954
_diffrn_reflns_Laue_measured_fraction_max 0.969
_diffrn_reflns_limit_h_max       9
_diffrn_reflns_limit_h_min       -9
_diffrn_reflns_limit_k_max       10
_diffrn_reflns_limit_k_min       -10
_diffrn_reflns_limit_l_max       15
_diffrn_reflns_limit_l_min       -14
_diffrn_reflns_number            12991
_diffrn_reflns_point_group_measured_fraction_full 0.954
_diffrn_reflns_point_group_measured_fraction_max 0.969
_diffrn_reflns_theta_full        67.679
_diffrn_reflns_theta_max         66.966
_diffrn_reflns_theta_min         3.533
_exptl_absorpt_coefficient_mu    5.417
_exptl_absorpt_correction_T_max  0.7718
_exptl_absorpt_correction_T_min  0.4299
_exptl_absorpt_correction_type   numerical
_exptl_absorpt_process_details   'SADABS (Sheldrick, 2004)'
_exptl_crystal_colour            colorless
_exptl_crystal_density_diffrn    1.997
_exptl_crystal_description       block
_exptl_crystal_F_000             448
_exptl_crystal_size_max          0.244
_exptl_crystal_size_mid          0.210
_exptl_crystal_size_min          0.085
_refine_diff_density_max         0.786
_refine_diff_density_min         -0.609
_refine_diff_density_rms         0.089
_refine_ls_extinction_method     none
_refine_ls_goodness_of_fit_ref   1.037
_refine_ls_hydrogen_treatment    constr
_refine_ls_matrix_type           full
_refine_ls_number_parameters     217
_refine_ls_number_reflns         2603
_refine_ls_number_restraints     0
_refine_ls_restrained_S_all      1.037
_refine_ls_R_factor_all          0.0268
_refine_ls_R_factor_gt           0.0262
_refine_ls_shift/su_max          0.001
_refine_ls_shift/su_mean         0.000
_refine_ls_structure_factor_coef Fsqd
_refine_ls_weighting_details
'w=1/[\s^2^(Fo^2^)+(0.0442P)^2^+1.0609P] where P=(Fo^2^+2Fc^2^)/3'
_refine_ls_weighting_scheme      calc
_refine_ls_wR_factor_gt          0.0714
_refine_ls_wR_factor_ref         0.0720
_reflns_Friedel_coverage         0.000
_reflns_number_gt                2558
_reflns_number_total             2603
_reflns_threshold_expression     'I > 2\s(I)'
_cod_data_source_file            cg501395p_si_002.cif
_cod_data_source_block           P1bar_Compound_3
_cod_depositor_comments
'Adding full bibliography for 4512278--4512284.cif.'
_cod_database_code               4512281
#BEGIN Tags that were not found in dictionaries:
_shelx_space_group_comment
;
The symmetry employed for this shelxl refinement is uniquely defined
by the following loop, which should always be used as a source of
symmetry information in preference to the above space-group names.
They are only intended as comments.
;
_shelx_estimated_absorpt_t_min   0.352
_shelx_estimated_absorpt_t_max   0.656
_shelxl_version_number           2014/5
_shelx_res_file
;
TITL P1bar in P-1
CELL 1.54178   7.91330   8.38410  12.71270  81.8816  80.8657  65.1216
ZERR    2.00   0.00020   0.00020   0.00030   0.0008   0.0007   0.0007
LATT  1
SFAC C H N O ZN SE
UNIT 24 24 8 12 2 2
LIST 4
TEMP -173.000
SIZE 0.085 0.21 0.244

L.S. 20
BOND $H
CONF
ACTA
OMIT -2 134
OMIT 7 2 4
OMIT 5 4 6
OMIT 7 3 5
OMIT 5 7 6
OMIT 6 3 3
OMIT 6 3 4
OMIT 7 2 5
FMAP 2
PLAN 5
BIND Zn1 O4
BIND Zn1 O1

WGHT    0.044200    1.060900
FVAR       0.17725
MOLE   1
SE1   6    0.308736    0.296493    0.326451    11.00000    0.00817    0.01280 =
         0.01025   -0.00169    0.00072   -0.00543
ZN1   5    0.687997    0.176792    0.253729    11.00000    0.00692    0.00786 =
         0.01121   -0.00185   -0.00070   -0.00254
O1    4    0.611752    0.360030    0.091846    11.00000    0.00940    0.01361 =
         0.01531   -0.00158    0.00042   -0.00444
O2    4    0.896748    0.194010    0.121640    11.00000    0.01043    0.01639 =
         0.01560    0.00200   -0.00351   -0.00400
O3    4    0.838818    0.355051   -0.030002    11.00000    0.02036    0.02562 =
         0.01486    0.00418    0.00487   -0.00909
O4    4    0.714237    0.025027    0.446440    11.00000    0.00889    0.01341 =
         0.03538   -0.00375    0.00196   -0.00251
O5    4    0.930755   -0.008817    0.313238    11.00000    0.01777    0.01447 =
         0.01243    0.00056   -0.00343   -0.00285
O6    4    0.996450   -0.173054    0.462086    11.00000    0.01532    0.01639 =
         0.01917    0.00586   -0.00558   -0.00118
N1    3    0.646527    0.402703    0.318322    11.00000    0.00745    0.00926 =
         0.00865   -0.00033   -0.00068   -0.00360
N2    3    0.615233    0.011254    0.182153    11.00000    0.01042    0.01046 =
         0.00959   -0.00031   -0.00041   -0.00530
N3    3    0.783173    0.304681    0.058548    11.00000    0.01212    0.01040 =
         0.01250   -0.00218   -0.00094   -0.00497
N4    3    0.880705   -0.054006    0.410596    11.00000    0.01161    0.01016 =
         0.01605   -0.00188   -0.00206   -0.00545
C1    1    0.792233    0.413300    0.353706    11.00000    0.00718    0.01311 =
         0.01022    0.00102    0.00010   -0.00365
AFIX  43
H1    2    0.910865    0.316154    0.347244    11.00000   -1.20000
AFIX   0
C2    1    0.776486    0.560114    0.399220    11.00000    0.01230    0.01688 =
         0.01184    0.00028   -0.00248   -0.00878
AFIX  43
H2    2    0.882799    0.564485    0.422296    11.00000   -1.20000
AFIX   0
C3    1    0.603358    0.700219    0.410495    11.00000    0.01766    0.01286 =
         0.01086   -0.00258    0.00014   -0.00854
AFIX  43
H3    2    0.588621    0.802250    0.441899    11.00000   -1.20000
AFIX   0
C4    1    0.450776    0.689829    0.375202    11.00000    0.01056    0.01016 =
         0.01053   -0.00095    0.00222   -0.00351
AFIX  43
H4    2    0.330258    0.784188    0.382963    11.00000   -1.20000
AFIX   0
C5    1    0.476909    0.539476    0.328388    11.00000    0.00847    0.01115 =
         0.00804   -0.00147    0.00164   -0.00340
C6    1    0.316739    0.528612    0.285223    11.00000    0.00819    0.01020 =
         0.01646   -0.00269   -0.00201   -0.00176
AFIX  23
H6A   2    0.330559    0.548793    0.206297    11.00000   -1.20000
H6B   2    0.197484    0.622043    0.313110    11.00000   -1.20000
AFIX   0
C7    1    0.290298    0.231317    0.187422    11.00000    0.00976    0.01477 =
         0.01242   -0.00350   -0.00259   -0.00492
AFIX  23
H7A   2    0.164638    0.232646    0.187299    11.00000   -1.20000
H7B   2    0.305239    0.319296    0.130309    11.00000   -1.20000
AFIX   0
C8    1    0.437895    0.050991    0.164604    11.00000    0.01188    0.01169 =
         0.00636    0.00302   -0.00048   -0.00640
C9    1    0.391936   -0.066946    0.122035    11.00000    0.01467    0.01286 =
         0.01155    0.00206   -0.00296   -0.00804
AFIX  43
H9    2    0.265479   -0.038514    0.112509    11.00000   -1.20000
AFIX   0
C10   1    0.532922   -0.227390    0.093402    11.00000    0.02181    0.01202 =
         0.01057    0.00036   -0.00147   -0.01077
AFIX  43
H10   2    0.503840   -0.310030    0.064377    11.00000   -1.20000
AFIX   0
C11   1    0.716240   -0.265296    0.107697    11.00000    0.01762    0.01118 =
         0.01256   -0.00086    0.00039   -0.00497
AFIX  43
H11   2    0.815428   -0.372685    0.087029    11.00000   -1.20000
AFIX   0
C12   1    0.751482   -0.143112    0.152773    11.00000    0.01217    0.01213 =
         0.01269   -0.00084   -0.00005   -0.00437
AFIX  43
H12   2    0.876870   -0.169173    0.163426    11.00000   -1.20000
AFIX   0
HKLF 4

REM  P1bar in P-1
REM R1 =  0.0262 for    2558 Fo > 4sig(Fo)  and  0.0268 for all    2603 data
REM    217 parameters refined using      0 restraints

END

WGHT      0.0344      0.9642

REM Highest difference peak  0.786,  deepest hole -0.609,  1-sigma level  0.089
Q1    1   0.2083  0.3085  0.3812  11.00000  0.05    0.79
Q2    1   0.4186  0.2755  0.2787  11.00000  0.05    0.72
Q3    1   0.4007  0.3466  0.2789  11.00000  0.05    0.69
Q4    1   0.5783  0.1953  0.3028  11.00000  0.05    0.68
Q5    1   0.2908  0.2640  0.2603  11.00000  0.05    0.58
;
_shelx_res_checksum              40420
_shelx_hkl_file
;
  -1   0   0  172.02   10.01
  -1   0   0  183.99    9.28
   1   0   0  194.77    9.29
   1   0   0  177.01   10.78
  -2   0   0  264.02   11.96
  -2   0   0  259.97   14.60
   2   0   0  260.64   15.72
   2   0   0  263.48   13.55
   2   0   0  278.58   11.96
  -3   0   0  245.13   14.15
  -3   0   0  250.11   11.59
   3   0   0  261.82   11.59
   3   0   0  258.49   13.15
   3   0   0  264.61   15.24
  -4   0   0    0.27    0.17
  -4   0   0    0.20    0.13
   4   0   0    0.28    0.12
   4   0   0    0.18    0.14
   4   0   0    0.29    0.17
  -5   0   0  114.91    7.01
  -5   0   0  117.58    5.75
   5   0   0  124.77    5.72
   5   0   0  123.86    5.13
   5   0   0  132.45    7.55
  -6   0   0   28.31    1.20
  -6   0   0   25.95    1.54
   6   0   0   26.50    1.32
   6   0   0   28.96    1.25
  -7   0   0   24.27    1.07
   7   0   0   25.13    1.15
   8   0   0   48.95    1.98
   8  -1   0    6.94    0.39
   7  -1   0    8.70    0.54
   7  -1   0    8.25    0.56
  -7   1   0    9.10    0.55
   6  -1   0   30.18    1.46
   6  -1   0   29.58    1.35
  -6   1   0   30.73    1.33
   5  -1   0    0.09    0.13
   5  -1   0    0.04    0.14
  -5   1   0    0.19    0.19
   4  -1   0    4.94    0.50
   4  -1   0    4.82    0.36
  -4   1   0    4.50    0.42
  -4   1   0    4.28    0.46
   3  -1   0    0.14    0.08
   3  -1   0    0.17    0.11
   3  -1   0    0.48    0.16
  -3   1   0    0.53    0.14
  -3   1   0    0.22    0.12
   2  -1   0    0.21    0.09
   2  -1   0    0.21    0.14
   2  -1   0    0.20    0.12
   2  -1   0    0.19    0.10
  -2   1   0    0.17    0.11
  -2   1   0    0.59    0.14
   1  -1   0   12.33    0.89
   1  -1   0   14.32    0.68
   1  -1   0   13.68    0.72
   1  -1   0   14.76    0.81
   1  -1   0   14.21    0.68
  -1   1   0   13.30    0.82
   0  -1   0    9.63    0.52
   0   1   0    8.64    0.51
  -1  -1   0   19.81    0.98
  -1  -1   0   18.33    1.07
   1   1   0   18.89    0.98
   1   1   0   17.79    1.14
  -2  -1   0   62.40    3.46
  -2  -1   0   62.04    2.80
   2   1   0   61.29    3.70
   2   1   0   58.68    3.19
  -3  -1   0   88.31    4.89
  -3  -1   0   83.73    3.95
   3   1   0   81.63    4.52
   3   1   0   86.95    5.22
   3   1   0   89.77    3.97
  -4  -1   0   19.07    1.39
  -4  -1   0   22.02    1.11
   4   1   0   22.57    1.48
   4   1   0   20.57    1.31
   4   1   0   22.65    1.11
  -5  -1   0   27.37    1.43
  -5  -1   0   25.56    1.79
   5   1   0   28.37    1.88
  -6  -1   0    0.48    0.23
  -6  -1   0    0.22    0.40
   6   1   0    0.43    0.17
   6   1   0    0.22    0.21
   7   1   0    2.31    0.29
   8   1   0    3.43    0.33
   9   1   0    0.33    0.11
   7  -2   0   56.40    2.53
   7  -2   0   56.78    2.29
  -7   2   0   61.07    2.14
   6  -2   0    0.43    0.17
   6  -2   0    0.45    0.15
   6  -2   0    0.11    0.16
  -6   2   0    0.41    0.22
   5  -2   0   81.56    3.57
   5  -2   0   81.12    2.73
   5  -2   0   78.59    3.91
   5  -2   0   85.73    3.27
  -5   2   0   84.36    3.11
   4  -2   0  159.33    6.52
   4  -2   0  153.09    7.20
   3  -2   0   11.10    0.63
   3  -2   0   10.37    0.77
  -3   2   0   10.54    0.69
   2  -2   0  216.50   13.05
   2  -2   0  209.73   10.31
   2  -2   0  222.38    9.95
  -2   2   0  249.59   12.11
  -2   2   0  197.59    9.98
   1  -2   0    1.14    0.18
   1  -2   0    1.05    0.14
   1  -2   0    1.11    0.13
  -1   2   0    1.15    0.16
   0  -2   0  147.06    7.63
   0  -2   0  143.06    6.74
   0  -2   0  156.88    8.17
  -1  -2   0   68.85    3.88
  -1  -2   0   68.76    3.18
  -1  -2   0   74.30    3.60
   1   2   0   67.51    4.16
  -2  -2   0    1.16    0.13
  -2  -2   0    0.87    0.18
  -2  -2   0    1.08    0.12
   2   2   0    1.12    0.16
  -3  -2   0  224.56   10.03
  -3  -2   0  217.04   12.30
   3   2   0  222.34   11.38
   3   2   0  223.26   13.20
   3   2   0  221.86   10.07
  -4  -2   0  106.83    4.79
  -4  -2   0   94.28    5.93
   4   2   0   99.70    5.49
   4   2   0  115.37    6.34
  -5  -2   0   33.29    2.27
  -5  -2   0   35.00    1.77
   5   2   0   38.31    2.37
  -6  -2   0  111.29    5.64
  -6  -2   0  115.95    6.25
  -6  -2   0  144.24    6.10
   6   2   0  145.53    8.03
  -7  -2   0    0.39    0.40
   7   2   0    0.89    0.20
   8   2   0   56.25    2.27
  -9  -2   0   55.48    1.95
   9   2   0   55.80    2.17
  -7   3   0    5.03    0.31
   6  -3   0    0.41    0.19
   6  -3   0    0.38    0.13
  -6   3   0    0.56    0.23
   5  -3   0   11.45    0.60
   5  -3   0   11.76    0.57
   5  -3   0   12.33    0.75
  -5   3   0   11.16    0.75
   4  -3   0   42.81    1.91
   4  -3   0   41.20    1.58
   4  -3   0   38.82    2.01
   4  -3   0   38.89    1.45
  -4   3   0   40.29    1.73
   3  -3   0    0.83    0.18
   3  -3   0    0.91    0.23
   2  -3   0   57.22    3.29
   2  -3   0   63.78    2.86
   1  -3   0  124.48    6.68
   1  -3   0  126.63    6.10
   1  -3   0  134.35    5.87
   0  -3   0   38.83    2.13
   0  -3   0   40.10    1.86
  -1  -3   0   33.95    1.83
  -1  -3   0   33.99    1.61
  -1  -3   0   34.37    1.94
  -2  -3   0  172.62    8.66
  -2  -3   0  172.10    7.66
   2   3   0  162.93   10.05
  -3  -3   0   17.40    0.83
  -3  -3   0   16.33    1.09
   3   3   0   16.06    1.10
   3   3   0   16.23    0.98
  -4  -3   0    0.12    0.14
  -4  -3   0    0.33    0.25
  -4  -3   0    0.21    0.08
   4   3   0    0.11    0.13
   4   3   0    0.11    0.10
  -5  -3   0    0.49    0.14
  -5  -3   0    0.21    0.23
  -5  -3   0    0.26    0.27
   5   3   0    0.84    0.24
  -6  -3   0   24.18    1.31
  -6  -3   0   22.76    1.42
  -6  -3   0   24.57    1.60
   6   3   0   24.72    1.75
  -7  -3   0   17.25    1.24
  -7  -3   0   15.29    1.11
   7   3   0   15.38    0.80
  -8  -3   0    2.76    0.49
   8   3   0    2.67    0.29
  -9  -3   0   29.27    1.07
   9   3   0   26.60    1.15
   6  -4   0   48.27    1.73
   6  -4   0   48.73    1.63
  -6   4   0   48.13    1.79
   5  -4   0   62.13    2.21
   5  -4   0   59.33    2.66
   5  -4   0   57.69    2.03
  -5   4   0   58.60    2.30
   4  -4   0  141.78    4.53
   4  -4   0  137.99    4.91
   4  -4   0  143.92    5.92
  -4   4   0  132.53    5.00
   3  -4   0    0.31    0.15
   3  -4   0    0.21    0.14
   3  -4   0    0.05    0.11
   3  -4   0    0.18    0.17
  -3   4   0    0.16    0.27
   2  -4   0   52.73    2.54
   2  -4   0   53.31    2.39
   1  -4   0   86.94    4.04
   0  -4   0   21.98    1.38
   0  -4   0   25.29    1.19
   0  -4   0   24.17    1.28
  -1  -4   0  221.34   11.61
  -1  -4   0  231.73   10.26
  -2  -4   0   74.33    3.30
  -2  -4   0   68.49    3.74
  -3  -4   0   23.24    1.53
  -3  -4   0   24.02    1.34
  -3  -4   0   24.61    1.18
  -3  -4   0   23.43    1.34
   3   4   0   24.23    1.54
  -4  -4   0  172.94    8.11
  -4  -4   0  175.17    8.01
  -4  -4   0  164.81    9.90
   4   4   0  189.81   10.55
  -5  -4   0    0.45    0.26
  -5  -4   0    0.29    0.12
  -5  -4   0    0.62    0.31
  -5  -4   0    0.54    0.29
   5   4   0    0.41    0.19
  -6  -4   0   79.86    3.62
  -6  -4   0   80.28    3.98
  -6  -4   0   75.25    3.73
   6   4   0   80.08    4.97
  -7  -4   0   45.32    2.14
  -7  -4   0   45.47    2.36
  -7  -4   0   34.46    1.62
  -8  -4   0    4.80    0.63
  -8  -4   0    5.04    0.58
  -8  -4   0    5.34    0.41
   8   4   0    4.81    0.37
  -9  -4   0   46.38    1.65
   5  -5   0    0.04    0.13
   5  -5   0    0.15    0.11
   5  -5   0    0.25    0.14
   5  -5   0    0.29    0.12
  -5   5   0    0.04    0.17
   4  -5   0    0.89    0.19
   4  -5   0    1.08    0.26
   4  -5   0    0.91    0.20
  -4   5   0    2.08    0.34
   3  -5   0    0.15    0.15
   3  -5   0    0.33    0.15
   3  -5   0    0.78    0.23
   3  -5   0    0.05    0.16
  -3   5   0    0.15    0.27
   2  -5   0    0.80    0.19
   2  -5   0    1.70    0.31
   2  -5   0    0.60    0.17
   2  -5   0    1.07    0.24
   2  -5   0    0.74    0.23
   1  -5   0   68.46    3.23
   0  -5   0    3.62    0.29
  -1  -5   0    9.46    0.60
  -1  -5   0    9.19    0.54
  -2  -5   0   13.40    0.71
  -2  -5   0   12.62    0.83
  -2  -5   0   13.11    0.79
  -3  -5   0    0.76    0.14
  -3  -5   0    0.56    0.21
  -3  -5   0    0.52    0.15
  -4  -5   0   21.99    1.17
  -4  -5   0   20.93    1.12
  -4  -5   0   23.18    1.28
  -5  -5   0   12.11    0.81
  -5  -5   0   12.15    0.87
  -5  -5   0   10.61    0.67
  -6  -5   0    9.74    0.64
  -6  -5   0   10.52    0.81
  -6  -5   0   10.63    0.86
  -6  -5   0    9.36    0.59
  -7  -5   0   30.70    1.79
  -7  -5   0   29.69    1.22
  -7  -5   0   30.95    1.63
   7   5   0   30.62    1.25
  -8  -5   0    6.52    0.59
  -8  -5   0    6.51    0.42
  -8  -5   0    5.24    0.63
   8   5   0    5.93    0.40
  -9  -5   0    6.64    0.36
   9   5   0    6.15    0.35
   4  -6   0   32.53    1.17
   4  -6   0   33.40    1.22
   4  -6   0   33.42    1.28
  -4   6   0   32.69    1.33
   3  -6   0   56.97    2.02
   3  -6   0   60.99    2.22
   3  -6   0   59.22    2.62
   3  -6   0   59.79    2.48
   3  -6   0   60.47    2.13
  -3   6   0   55.62    2.28
   2  -6   0    9.73    0.67
   2  -6   0   10.92    0.57
   2  -6   0   11.92    0.77
   2  -6   0   10.72    0.62
  -2   6   0   10.37    0.73
   1  -6   0   77.07    3.23
   1  -6   0   79.07    2.60
   1  -6   0   76.49    2.74
   1  -6   0   77.48    2.84
   1  -6   0   71.55    3.56
   0  -6   0   60.09    3.05
   0  -6   0   68.14    2.82
   0  -6   0   66.70    2.45
   0   6   0   65.15    2.50
  -1  -6   0   84.29    4.06
   1   6   0   90.55    3.30
  -2  -6   0   85.74    4.02
  -2  -6   0   87.05    4.09
  -2  -6   0   86.08    3.71
  -2  -6   0   86.77    3.24
   2   6   0   86.37    3.26
  -3  -6   0    6.70    0.54
  -3  -6   0    7.04    0.46
  -3  -6   0    6.61    0.44
  -3  -6   0    7.41    0.54
  -4  -6   0   75.37    2.91
  -4  -6   0   79.02    3.75
  -4  -6   0   75.76    3.60
  -4  -6   0   77.91    3.40
  -5  -6   0   78.23    3.54
  -5  -6   0   80.10    2.94
  -5  -6   0   77.90    3.73
  -5  -6   0   83.66    3.91
  -5  -6   0   75.12    3.00
  -5  -6   0   80.83    2.80
   5   6   0   81.67    2.90
  -6  -6   0    0.35    0.20
  -6  -6   0    0.31    0.25
  -6  -6   0    0.08    0.21
   6   6   0    0.46    0.17
  -7  -6   0   24.39    1.30
  -7  -6   0   22.28    1.39
  -7  -6   0   22.40    0.97
   7   6   0   22.87    1.00
  -8  -6   0    0.48    0.24
  -8  -6   0    0.30    0.25
  -8  -6   0    0.52    0.17
   8   6   0    0.46    0.15
  -9  -6   0   22.83    0.91
  -9  -6   0   22.91    0.84
   9   6   0   21.62    0.87
   3  -7   0   27.06    0.97
   3  -7   0   27.45    1.07
   3  -7   0   27.51    1.19
   3  -7   0   27.35    1.01
  -3   7   0   27.15    1.12
   2  -7   0    5.26    0.43
   2  -7   0    5.19    0.37
   2  -7   0    5.40    0.34
   2  -7   0    5.75    0.39
  -2   7   0    4.70    0.47
   1  -7   0   17.93    0.81
   1  -7   0   17.98    0.98
   1  -7   0   17.76    0.85
   0  -7   0   31.88    1.29
   0  -7   0   33.31    1.34
   0  -7   0   33.81    1.58
   0  -7   0   31.49    1.27
   0   7   0   31.59    1.35
  -1  -7   0    4.06    0.38
  -1  -7   0    4.34    0.49
  -1  -7   0    4.00    0.32
  -1  -7   0    4.81    0.34
   1   7   0    4.86    0.41
  -2  -7   0   63.67    3.13
  -2  -7   0   65.57    2.40
  -2  -7   0   70.95    2.92
   2   7   0   68.50    2.62
  -3  -7   0   16.60    0.77
  -3  -7   0   15.19    0.86
  -3  -7   0   18.00    1.03
  -3  -7   0   16.18    0.92
   3   7   0   16.51    0.84
  -4  -7   0   41.45    1.71
  -4  -7   0   38.61    1.98
  -4  -7   0   41.79    1.97
  -4  -7   0   45.06    2.18
  -4  -7   0   41.38    1.57
  -5  -7   0   12.80    0.80
  -5  -7   0   11.74    0.63
  -5  -7   0   11.22    0.65
  -5  -7   0   11.94    0.61
  -5  -7   0   12.59    0.87
  -5  -7   0   11.24    0.61
   5   7   0   11.84    0.62
  -6  -7   0    5.13    0.55
  -6  -7   0    5.02    0.37
  -6  -7   0    4.60    0.39
  -6  -7   0    4.36    0.39
  -6  -7   0    4.88    0.52
   6   7   0    4.61    0.37
  -7  -7   0    8.13    0.64
  -7  -7   0    8.45    0.70
  -7  -7   0    8.17    0.50
  -7  -7   0    8.23    0.46
   7   7   0    8.22    0.48
  -8  -7   0   18.80    0.73
  -8  -7   0   16.97    0.96
  -8  -7   0   18.36    0.79
   8   7   0   18.42    0.78
  -9  -7   0    0.13    0.07
   9   7   0    0.05    0.08
   2  -8   0    5.77    0.34
   2  -8   0    5.89    0.28
   2  -8   0    5.56    0.30
  -2   8   0    5.49    0.37
   1  -8   0   10.30    0.47
   1  -8   0    9.30    0.48
   1  -8   0    9.70    0.57
  -1   8   0    9.03    0.59
   0  -8   0   59.86    2.06
   0  -8   0   59.05    2.47
   0   8   0   54.61    2.23
  -1  -8   0    0.75    0.24
  -1  -8   0    0.83    0.19
  -1  -8   0    0.65    0.15
   1   8   0    0.93    0.20
  -2  -8   0   16.07    0.74
  -2  -8   0   15.64    0.90
   2   8   0   16.94    0.83
  -3  -8   0   28.44    1.15
   3   8   0   29.80    1.29
  -4  -8   0    4.14    0.46
  -4  -8   0    3.90    0.34
  -4  -8   0    3.92    0.41
   4   8   0    3.68    0.39
  -5  -8   0   30.71    1.68
  -5  -8   0   32.41    1.53
  -5  -8   0   30.43    1.20
   5   8   0   30.30    1.33
  -6  -8   0    2.12    0.31
  -6  -8   0    2.21    0.34
  -6  -8   0    3.06    0.29
  -6  -8   0    2.08    0.23
   6   8   0    2.49    0.30
   6   8   0    2.56    0.26
  -7  -8   0   10.54    0.52
  -7  -8   0   10.26    0.66
  -7  -8   0   10.78    0.49
   7   8   0   10.55    0.52
  -8  -8   0   13.86    0.52
  -8  -8   0   13.22    0.57
   8   8   0   12.89    0.57
   0  -9   0   20.03    0.92
   0  -9   0   20.60    0.74
  -1  -9   0    4.67    0.28
  -1  -9   0    4.36    0.34
   1   9   0    4.26    0.30
  -2  -9   0    1.07    0.17
  -2  -9   0    0.97    0.20
   2   9   0    0.81    0.17
  -3  -9   0   36.93    1.31
   3   9   0   33.92    1.44
  -4  -9   0    9.04    0.45
   4   9   0    8.63    0.52
  -5  -9   0    3.53    0.26
  -5  -9   0    3.32    0.34
   5   9   0    3.16    0.31
  -6  -9   0   22.91    1.10
  -6  -9   0   23.80    0.85
   6   9   0   21.44    0.96
  -7  -9   0    2.58    0.17
   7   9   0    2.27    0.19
  -3 -10   0   15.14    0.51
  -4 -10   0    7.00    0.26
   4  10   0    6.99    0.39
   6   9  -1    2.60    0.27
  -6  -9   1    2.47    0.17
  -6  -9   1    2.73    0.30
   5   9  -1    9.70    0.55
  -5  -9   1   10.68    0.44
  -5  -9   1    9.66    0.60
   4   9  -1    5.06    0.39
  -4  -9   1    4.51    0.29
  -4  -9   1    4.61    0.39
   3   9  -1    7.80    0.48
  -3  -9   1    8.17    0.39
   2   9  -1   25.56    1.09
  -2  -9   1   25.88    1.19
  -2  -9   1   27.86    0.97
  -1  -9   1    0.61    0.11
  -1  -9   1    0.03    0.11
   0   9  -1   15.88    0.70
   0  -9   1   16.06    0.75
   0  -9   1   16.21    0.56
   8   8  -1   39.66    1.44
   7   8  -1   18.80    0.86
   7   8  -1   19.87    0.82
  -7  -8   1   20.50    0.75
  -7  -8   1   19.12    0.82
  -7  -8   1   20.15    1.02
   6   8  -1   22.04    0.91
   6   8  -1   20.49    0.97
  -6  -8   1   21.90    0.92
  -6  -8   1   20.12    1.23
  -6  -8   1   22.06    0.85
  -6  -8   1   21.46    1.13
   5   8  -1   46.12    1.89
  -5  -8   1   47.83    1.79
  -5  -8   1   45.99    1.69
  -5  -8   1   45.74    2.38
  -5  -8   1   49.02    2.18
   4   8  -1    7.53    0.53
  -4  -8   1    7.49    0.43
  -4  -8   1    7.61    0.63
  -4  -8   1    8.17    0.59
   3   8  -1   21.50    1.01
  -3  -8   1   20.83    1.10
  -3  -8   1   21.82    1.22
  -3  -8   1   20.28    0.87
   2   8  -1   14.62    0.75
  -2  -8   1   13.81    0.66
  -2  -8   1   13.94    0.82
  -2  -8   1   13.79    0.65
   1   8  -1   17.55    0.83
  -1  -8   1   17.61    0.75
  -1  -8   1   17.24    0.94
  -1  -8   1   16.86    0.75
   0  -8   1   82.13    2.78
   0  -8   1   79.15    3.33
  -1   8  -1   16.36    0.82
   1  -8   1   17.58    0.84
   1  -8   1   17.00    0.67
   1  -8   1   15.51    0.70
  -2   8  -1   14.21    0.66
   2  -8   1   14.56    0.69
   2  -8   1   14.95    0.54
   8   7  -1   11.26    0.55
  -8  -7   1   11.04    0.69
  -8  -7   1   12.03    0.57
  -8  -7   1   11.87    0.49
  -8  -7   1   11.73    0.49
   7   7  -1   28.30    1.13
  -7  -7   1   25.66    1.53
  -7  -7   1   28.00    1.16
  -7  -7   1   28.43    1.06
  -7  -7   1   27.59    1.41
  -7  -7   1   27.63    1.06
   6   7  -1    6.55    0.43
  -6  -7   1    6.79    0.58
  -6  -7   1    6.55    0.41
  -6  -7   1    6.74    0.41
  -6  -7   1    6.21    0.62
  -6  -7   1    6.50    0.45
  -6  -7   1    6.71    0.47
   5   7  -1   55.73    2.14
  -5  -7   1   58.33    2.64
  -5  -7   1   57.13    2.19
  -5  -7   1   60.11    2.92
  -5  -7   1   56.93    2.06
  -5  -7   1   56.41    2.25
  -4  -7   1   31.63    1.04
  -4  -7   1   33.33    1.64
  -4  -7   1   34.12    1.42
  -4  -7   1   32.39    1.27
  -4  -7   1   35.23    1.82
  -4  -7   1   31.69    1.34
   3   7  -1    8.02    0.54
  -3  -7   1    7.25    0.46
  -3  -7   1    8.37    0.65
  -3  -7   1    8.00    0.53
  -3  -7   1    8.14    0.60
  -3  -7   1    7.95    0.35
   2   7  -1   32.92    1.39
  -2  -7   1   33.00    1.71
  -2  -7   1   31.64    1.54
  -2  -7   1   30.76    1.25
  -2  -7   1   31.69    1.56
  -2  -7   1   31.44    1.25
  -2  -7   1   30.94    1.01
   1   7  -1    9.00    0.58
  -1  -7   1   10.16    0.53
  -1  -7   1    9.90    0.70
  -1  -7   1    9.20    0.54
   0   7  -1    1.00    0.22
   0  -7   1    0.18    0.13
   0  -7   1    0.22    0.20
   0  -7   1    0.21    0.16
   1  -7   1   10.68    0.59
   1  -7   1    9.65    0.54
   1  -7   1   10.88    0.68
  -2   7  -1    5.96    0.55
   2  -7   1    6.24    0.41
   2  -7   1    6.43    0.39
   2  -7   1    6.44    0.47
   2  -7   1    6.14    0.36
  -3   7  -1   10.42    0.59
   3  -7   1   11.29    0.47
   3  -7   1   11.27    0.59
   3  -7   1   12.14    0.49
   3  -7   1   11.55    0.53
   9   6  -1   27.86    1.06
  -9  -6   1   28.15    0.98
  -9  -6   1   28.42    1.09
   8   6  -1    6.13    0.39
  -8  -6   1    5.48    0.58
  -8  -6   1    6.32    0.36
  -8  -6   1    6.10    0.52
  -8  -6   1    6.16    0.42
   7   6  -1   53.57    2.06
  -7  -6   1   54.35    2.11
  -7  -6   1   55.34    2.82
  -7  -6   1   53.35    1.97
  -7  -6   1   57.26    2.57
   6   6  -1    0.05    0.12
  -6  -6   1    0.21    0.16
  -6  -6   1    0.96    0.21
  -6  -6   1   -0.02    0.21
  -6  -6   1    0.23    0.26
  -6  -6   1    0.04    0.17
   5   6  -1   17.35    0.82
  -5  -6   1   18.66    0.87
  -5  -6   1   18.69    1.08
  -5  -6   1   17.92    0.86
  -5  -6   1   18.25    0.80
  -5  -6   1   18.23    0.88
  -5  -6   1   19.89    1.20
  -5  -6   1   17.79    0.64
  -4  -6   1   97.19    4.55
  -4  -6   1   98.07    4.14
  -4  -6   1   89.12    4.34
  -4  -6   1   92.80    3.54
  -4  -6   1   97.59    3.45
  -3  -6   1    1.90    0.18
  -3  -6   1    2.04    0.20
  -3  -6   1    1.98    0.25
  -3  -6   1    2.24    0.24
  -3  -6   1    1.83    0.30
  -3  -6   1    1.56    0.30
  -2  -6   1   43.33    1.71
  -2  -6   1   41.38    2.00
  -2  -6   1   41.30    1.66
  -2  -6   1   44.22    1.98
  -2  -6   1   43.27    2.16
  -2  -6   1   41.71    1.39
   1   6  -1   54.73    2.12
  -1  -6   1   51.71    2.38
  -1  -6   1   52.07    2.62
  -1  -6   1   51.99    2.50
  -1  -6   1   56.45    2.76
   0   6  -1    0.33    0.20
   0  -6   1    0.07    0.10
   0  -6   1    0.68    0.14
   0  -6   1    0.23    0.14
   0  -6   1   -0.04    0.18
   0  -6   1    0.02    0.18
   1  -6   1   24.85    1.27
   1  -6   1   26.30    1.08
   1  -6   1   26.55    1.08
   1  -6   1   27.22    1.16
   1  -6   1   26.74    1.31
   2  -6   1   18.96    1.00
   2  -6   1   18.84    0.81
   2  -6   1   18.33    0.89
   2  -6   1   18.50    0.83
  -3   6  -1   35.56    1.57
   3  -6   1   37.85    1.66
   3  -6   1   36.12    1.73
   3  -6   1   38.16    1.40
   3  -6   1   38.20    1.48
   3  -6   1   36.03    1.35
  -4   6  -1    9.80    0.59
   4  -6   1   10.02    0.51
   4  -6   1   10.12    0.47
   4  -6   1   10.37    0.47
   9   5  -1   26.75    1.03
  -9  -5   1   26.23    1.07
  -9  -5   1   28.00    0.99
   8   5  -1    1.15    0.19
  -8  -5   1    1.27    0.31
  -8  -5   1    1.13    0.19
  -8  -5   1    1.59    0.36
  -7  -5   1   40.23    1.54
  -7  -5   1   40.79    2.25
  -7  -5   1   42.08    2.06
  -6  -5   1   33.77    1.72
  -6  -5   1   29.88    1.58
  -6  -5   1   31.59    1.36
  -6  -5   1   33.41    1.27
  -6  -5   1   34.63    1.89
  -5  -5   1    8.67    0.74
  -5  -5   1    8.14    0.51
  -5  -5   1    8.25    0.51
  -5  -5   1    8.78    0.69
  -4  -5   1  135.67    6.23
  -4  -5   1  129.41    6.08
  -4  -5   1  134.19    5.66
  -3  -5   1    1.41    0.28
  -3  -5   1    1.80    0.18
  -3  -5   1    2.34    0.23
  -2  -5   1  130.89    6.13
  -2  -5   1  137.89    4.85
  -2  -5   1  135.29    6.22
  -1  -5   1  237.05    8.68
  -1  -5   1  254.42   11.06
  -1  -5   1  240.58   11.04
   0  -5   1    5.65    0.35
   0  -5   1    5.73    0.48
   0  -5   1    5.89    0.46
   0  -5   1    5.53    0.37
   1  -5   1  121.82    5.60
   2  -5   1   37.65    1.95
   2  -5   1   39.72    1.54
   2  -5   1   41.96    1.57
   2  -5   1   42.82    1.84
   2  -5   1   42.17    1.93
   2  -5   1   39.63    1.48
   2  -5   1   40.60    1.62
  -3   5  -1    5.57    0.56
   3  -5   1    4.96    0.40
   3  -5   1    5.75    0.50
   3  -5   1    6.09    0.48
   3  -5   1    5.90    0.40
   3  -5   1    5.13    0.41
  -4   5  -1   36.05    1.63
   4  -5   1   40.13    1.48
   4  -5   1   40.91    1.55
   4  -5   1   37.91    1.42
   4  -5   1   39.70    1.85
  -5   5  -1    3.70    0.35
   5  -5   1    3.31    0.33
   5  -5   1    3.75    0.27
   5  -5   1    3.41    0.28
   5  -5   1    3.75    0.28
  -9  -4   1    6.73    0.35
   8   4  -1    0.16    0.13
  -8  -4   1    0.16    0.25
  -8  -4   1    0.08    0.15
  -8  -4   1    0.22    0.27
  -7  -4   1   19.10    0.99
  -7  -4   1   23.50    1.46
  -7  -4   1   22.31    0.94
  -7  -4   1   22.98    1.32
   6   4  -1    7.28    0.76
  -6  -4   1    7.19    0.52
  -6  -4   1    8.76    0.75
  -6  -4   1    7.89    0.52
  -6  -4   1    6.91    0.50
  -6  -4   1    7.98    0.48
  -6  -4   1    9.48    0.83
   5   4  -1   12.16    0.93
  -5  -4   1   11.97    0.90
  -5  -4   1   12.44    0.86
  -5  -4   1   10.13    0.97
  -5  -4   1   10.91    0.65
  -5  -4   1   11.50    0.62
   4   4  -1   98.36    5.49
   4   4  -1  111.03    6.28
  -4  -4   1   96.45    5.94
  -4  -4   1  104.03    4.74
  -4  -4   1  105.99    4.91
  -3  -4   1   34.91    1.75
  -3  -4   1   32.50    1.84
  -3  -4   1   33.53    1.59
  -2  -4   1   43.39    2.07
  -2  -4   1   45.34    2.39
  -1  -4   1  104.18    4.60
  -1  -4   1   97.31    5.25
   0  -4   1   14.70    0.94
   0  -4   1   15.28    0.77
   1  -4   1  124.21    5.80
   1  -4   1  119.94    5.54
   1  -4   1  118.14    5.53
   2  -4   1   67.64    2.96
   2  -4   1   67.45    3.18
   3  -4   1    8.15    0.47
   3  -4   1    7.55    0.58
   3  -4   1    8.67    0.59
   3  -4   1    7.78    0.52
   3  -4   1    8.18    0.49
  -4   4  -1    1.48    0.35
   4  -4   1    1.02    0.26
   4  -4   1    0.81    0.21
   4  -4   1    0.85    0.18
  -5   4  -1   16.15    0.87
   5  -4   1   15.18    0.89
   5  -4   1   16.76    0.75
   5  -4   1   15.15    0.72
   5  -4   1   15.89    0.69
  -6   4  -1    6.05    0.40
   6  -4   1    5.90    0.34
   6  -4   1    6.19    0.32
   6  -4   1    5.58    0.34
   9   3  -1   18.64    0.83
  -9  -3   1   19.91    0.76
   8   3  -1   36.64    1.56
  -8  -3   1   37.95    1.43
   7   3  -1    3.60    0.35
  -7  -3   1    3.82    0.59
  -7  -3   1    4.85    0.62
  -7  -3   1    2.78    0.34
   6   3  -1   86.97    5.53
  -6  -3   1   82.73    4.15
  -6  -3   1   91.89    4.02
  -6  -3   1   92.34    4.44
   5   3  -1  156.25    8.91
  -5  -3   1  147.42    5.67
  -5  -3   1  133.93    8.36
  -5  -3   1  145.38    6.30
  -5  -3   1  143.49    6.72
  -5  -3   1  152.19    6.96
   4   3  -1   30.85    1.92
   4   3  -1   36.12    2.17
  -4  -3   1   34.69    1.83
  -4  -3   1   34.02    1.61
  -4  -3   1   33.93    1.39
  -4  -3   1   30.12    2.08
   3   3  -1  124.08    7.36
   3   3  -1  116.46    6.37
  -3  -3   1  132.24    5.58
  -3  -3   1  117.31    6.90
   2   3  -1   18.29    1.19
  -2  -3   1   18.56    1.17
  -2  -3   1   19.41    0.91
  -2  -3   1   19.35    1.06
  -1  -3   1   80.70    3.97
  -1  -3   1   69.77    4.22
  -1  -3   1   78.51    3.48
   0  -3   1   65.28    2.96
   0  -3   1   63.34    3.39
   1  -3   1   62.55    2.77
   1  -3   1   57.61    3.19
   1  -3   1   58.30    2.90
   2  -3   1  119.67    6.62
   2  -3   1  130.02    5.79
   2  -3   1  129.07    6.05
   3  -3   1    3.42    0.32
   3  -3   1    2.92    0.28
  -4   3  -1   32.86    1.49
   4  -3   1   32.93    1.21
   4  -3   1   33.81    1.59
   4  -3   1   31.65    1.65
   4  -3   1   32.07    1.31
  -5   3  -1  129.35    4.83
   5  -3   1  128.56    4.73
   5  -3   1  144.63    5.73
   5  -3   1  135.69    4.37
  -6   3  -1   21.53    0.99
   6  -3   1   20.61    1.10
   6  -3   1   21.39    0.90
   6  -3   1   22.02    0.85
  -7   3  -1   37.06    1.35
   7  -3   1   37.66    1.32
   7  -3   1   36.42    1.23
   9   2  -1   11.29    0.55
  -9  -2   1   11.89    0.51
   8   2  -1   38.89    1.66
  -8  -2   1   40.83    1.50
   7   2  -1    2.98    0.33
  -7  -2   1    2.44    0.29
   6   2  -1   10.41    0.95
  -6  -2   1   10.88    1.01
  -6  -2   1   10.75    0.72
   5   2  -1    0.22    0.17
  -5  -2   1    0.31    0.14
  -5  -2   1    0.29    0.22
  -5  -2   1    0.19    0.32
   4   2  -1   19.93    1.28
   4   2  -1   17.16    1.14
  -4  -2   1   15.50    1.21
  -4  -2   1   19.18    0.94
   3   2  -1   96.00    5.22
   3   2  -1   99.36    6.03
  -3  -2   1   97.09    5.64
  -3  -2   1  106.43    4.56
   2   2  -1   34.47    1.79
   2   2  -1   32.04    2.04
  -2  -2   1   33.65    1.75
  -2  -2   1   31.70    1.93
  -2  -2   1   33.48    1.53
   1   2  -1  210.01   12.67
  -1  -2   1  217.06    9.66
  -1  -2   1  200.30   11.79
  -1  -2   1  231.27   10.94
   0  -2   1   16.75    0.80
   0  -2   1   16.59    0.93
   1  -2   1   10.55    0.56
   1  -2   1    9.65    0.62
   1  -2   1    9.29    0.51
   2  -2   1    1.66    0.19
   2  -2   1    1.52    0.23
   2  -2   1    1.53    0.17
   3  -2   1    0.59    0.20
   3  -2   1    0.68    0.14
   3  -2   1    0.71    0.18
   4  -2   1    5.00    0.39
   4  -2   1    4.88    0.39
  -5   2  -1    3.78    0.46
   5  -2   1    4.33    0.39
   5  -2   1    4.17    0.40
   5  -2   1    4.52    0.34
   5  -2   1    4.12    0.32
  -6   2  -1    4.75    0.48
   6  -2   1    5.13    0.44
   6  -2   1    5.52    0.43
   6  -2   1    4.44    0.33
  -7   2  -1   13.45    0.65
   7  -2   1   13.09    0.73
   9   1  -1    5.66    0.32
   8   1  -1   61.19    2.46
  -8  -1   1   61.67    2.22
  -8  -1   1   62.36    2.23
   7   1  -1    2.04    0.27
  -7  -1   1    2.30    0.28
   6   1  -1  124.73    4.70
  -6  -1   1  124.38    4.30
  -6  -1   1  116.45    5.72
   5   1  -1  152.13    8.98
  -5  -1   1  141.19    8.38
  -5  -1   1  148.02    6.81
   4   1  -1   66.36    3.72
   4   1  -1   72.86    4.27
  -4  -1   1   71.35    3.22
  -4  -1   1   62.84    3.98
   3   1  -1  259.21   13.60
   3   1  -1  260.35   15.77
  -3  -1   1  280.68   11.98
  -3  -1   1  260.23   14.67
   2   1  -1  127.70    7.91
   2   1  -1  135.00    6.82
  -2  -1   1  132.91    7.36
  -2  -1   1  134.68    5.99
   1   1  -1  140.40    7.21
   1   1  -1  128.71    8.39
  -1  -1   1  141.93    6.37
  -1  -1   1  136.77    7.80
  -1  -1   1  159.56    7.21
   0   1  -1  345.74   17.53
   0  -1   1  342.78   17.49
  -1   1  -1   74.13    4.54
   1  -1   1   83.39    3.88
   1  -1   1   85.46    4.25
   1  -1   1   84.83    3.74
   1  -1   1   82.61    4.90
  -2   1  -1  217.89   12.73
  -2   1  -1  213.91   10.47
   2  -1   1  249.27   11.87
   2  -1   1  233.93   10.83
   2  -1   1  240.81   10.45
   2  -1   1  232.71   13.72
  -3   1  -1  112.55    6.77
   3  -1   1  122.02    5.77
   3  -1   1  123.44    7.30
   3  -1   1  118.88    6.34
   3  -1   1  128.93    5.55
   4  -1   1   23.77    1.62
   4  -1   1   23.80    1.21
   4  -1   1   22.58    1.15
   4  -1   1   23.84    1.21
   5  -1   1   51.59    2.62
   5  -1   1   56.80    2.41
  -6   1  -1    0.41    0.24
   6  -1   1    0.64    0.17
   6  -1   1    0.59    0.18
   6  -1   1    0.95    0.21
  -7   1  -1   23.35    1.01
   7  -1   1   22.54    1.13
   7  -1   1   22.09    1.05
   8  -1   1   57.58    2.24
   8   0  -1   15.21    0.74
  -8   0   1   15.99    0.69
   7   0  -1    3.24    0.34
  -7   0   1    3.03    0.32
   6   0  -1   43.62    1.84
  -6   0   1   43.80    1.73
  -6   0   1   42.60    2.23
   5   0  -1   20.54    1.02
   5   0  -1   20.80    1.54
  -5   0   1   21.04    1.18
  -5   0   1   20.83    1.46
   4   0  -1   22.62    1.48
   4   0  -1   19.50    1.31
  -4   0   1   18.53    1.36
  -4   0   1   22.17    1.12
   3   0  -1   90.61    4.81
   3   0  -1   93.56    4.19
   3   0  -1   88.00    5.53
  -3   0   1   92.36    4.20
  -3   0   1   90.49    5.15
   2   0  -1    9.17    0.58
   2   0  -1    7.63    0.63
  -2   0   1    9.01    0.47
  -2   0   1    9.46    0.60
   1   0  -1   92.00    4.38
   1   0  -1   72.41    5.07
  -1   0   1   90.41    4.38
  -1   0   1   84.04    4.71
   0   0  -1   18.12    0.89
   0   0  -1   15.64    0.88
  -1   0  -1   33.60    1.87
  -1   0  -1   31.32    1.73
   1   0   1   35.50    1.73
   1   0   1   33.11    2.01
  -2   0  -1   20.22    1.18
   2   0   1   20.41    1.11
   2   0   1   19.41    1.26
   2   0   1   19.52    0.99
   2   0   1   19.18    0.95
  -3   0  -1   19.31    1.03
  -3   0  -1   20.07    1.29
   3   0   1   20.49    1.37
   3   0   1   21.78    1.03
   3   0   1   21.09    1.22
   3   0   1   20.81    1.08
  -4   0  -1    3.28    0.40
  -4   0  -1    3.75    0.33
   4   0   1    3.85    0.30
   4   0   1    3.68    0.40
   4   0   1    3.87    0.41
  -5   0  -1   10.45    0.74
  -5   0  -1    9.66    0.87
   5   0   1   11.28    0.62
   5   0   1   11.30    0.92
   5   0   1   10.99    0.67
  -6   0  -1    0.11    0.47
   6   0   1    0.89    0.21
   6   0   1    1.99    0.26
   6   0   1    1.04    0.22
   6   0   1    1.10    0.21
   7   0   1   24.12    1.12
   8   0   1    0.60    0.15
   8  -1  -1   24.53    1.04
  -8   1   1   24.86    0.96
  -8   1   1   25.45    0.95
   7  -1  -1   51.07    2.12
  -7   1   1   52.66    1.96
   6  -1  -1    3.16    0.34
   6  -1  -1    2.83    0.34
  -6   1   1    2.59    0.35
   5  -1  -1  181.80   10.94
   5  -1  -1  180.43    7.47
  -5   1   1  176.67    8.34
   4  -1  -1   59.54    3.60
   4  -1  -1   54.98    2.47
  -4   1   1   54.61    3.31
  -4   1   1   55.70    2.74
   3  -1  -1  197.15   12.21
   3  -1  -1  218.34    9.29
   3  -1  -1  196.43   10.55
  -3   1   1  206.47    9.31
  -3   1   1  201.15   11.32
   2  -1  -1  175.44    9.28
   2  -1  -1  166.36   10.74
   2  -1  -1  182.93    8.17
  -2   1   1  200.16    9.98
  -2   1   1  175.15    8.18
   1  -1  -1  243.72   13.14
  -1   1   1  251.16   11.61
  -1   1   1  277.14   14.15
   0  -1  -1  261.21   13.05
   0   1   1  250.88   13.02
  -1  -1  -1  157.45    8.65
  -1  -1  -1  157.95    8.01
   1   1   1  157.26    7.99
   1   1   1  156.54    9.31
  -2  -1  -1  182.29    8.93
  -2  -1  -1  184.41    9.69
   2   1   1  174.64   10.41
   2   1   1  180.01    7.93
   2   1   1  159.93    8.20
   2   1   1  170.63    8.95
  -3  -1  -1  200.88   10.69
  -3  -1  -1  191.99    8.72
   3   1   1  202.13    8.73
   3   1   1  185.55    9.03
   3   1   1  193.74   11.47
   3   1   1  180.35    9.88
  -4  -1  -1  140.22    9.01
  -4  -1  -1  161.32    7.36
   4   1   1  166.54    8.37
   4   1   1  169.26    9.68
   4   1   1  167.29    7.36
  -5  -1  -1   52.73    3.46
  -5  -1  -1   57.38    2.80
   5   1   1   60.65    2.79
   5   1   1   60.07    3.68
  -6  -1  -1  114.97    5.76
   6   1   1  125.67    7.56
   6   1   1  119.44    5.72
   6   1   1  128.75    4.71
  -7  -1  -1    1.36    0.50
   7   1   1    2.34    0.29
   8   1   1   62.00    2.48
   9   1   1   24.75    1.03
   7  -2  -1    0.31    0.16
   7  -2  -1    0.31    0.14
  -7   2   1    1.09    0.20
   6  -2  -1    0.31    0.16
   6  -2  -1    0.65    0.21
   6  -2  -1    0.23    0.14
  -6   2   1    0.37    0.22
   5  -2  -1   11.11    0.76
   5  -2  -1   11.62    0.68
   5  -2  -1   11.75    0.56
   5  -2  -1   11.47    0.72
  -5   2   1   11.50    0.72
  -5   2   1   11.72    0.84
   4  -2  -1   14.48    0.80
   4  -2  -1   13.99    0.84
  -4   2   1   14.25    0.90
   3  -2  -1   13.23    0.74
   3  -2  -1   12.77    0.99
  -3   2   1   13.15    0.79
   2  -2  -1    0.70    0.18
   2  -2  -1    0.85    0.15
   2  -2  -1    0.64    0.16
  -2   2   1    0.58    0.15
   1  -2  -1    0.05    0.08
   1  -2  -1    0.30    0.11
   1  -2  -1    0.15    0.07
   1  -2  -1    0.16    0.07
  -1   2   1    0.12    0.09
   0  -2  -1   23.65    1.11
   0  -2  -1   23.67    1.26
   0   2   1   22.27    1.13
  -1  -2  -1   32.53    1.59
  -1  -2  -1   29.23    1.41
  -1  -2  -1   30.03    1.72
   1   2   1   27.54    1.59
  -2  -2  -1   44.70    2.46
  -2  -2  -1   38.78    2.22
  -2  -2  -1   43.61    1.99
   2   2   1   45.77    2.22
   2   2   1   41.28    2.61
   2   2   1   41.96    2.03
  -3  -2  -1   85.01    4.52
  -3  -2  -1   80.91    3.65
   3   2   1   78.98    4.14
   3   2   1   81.45    3.68
   3   2   1   68.89    3.79
   3   2   1   81.32    4.81
  -4  -2  -1    2.08    0.21
  -4  -2  -1    1.65    0.33
   4   2   1    1.79    0.29
   4   2   1    1.91    0.27
   4   2   1    2.04    0.22
  -5  -2  -1   25.04    1.30
  -5  -2  -1   23.57    1.68
   5   2   1   25.76    1.31
   5   2   1   25.59    1.73
  -6  -2  -1    0.72    0.41
  -6  -2  -1    1.69    0.29
  -6  -2  -1    1.43    0.51
   6   2   1    1.58    0.37
  -7  -2  -1    0.27    0.35
  -7  -2  -1    0.94    0.48
   7   2   1    0.28    0.16
   8   2   1    0.14    0.12
   9   2   1    0.65    0.14
  -7   3   1   46.20    1.65
   6  -3  -1   16.92    0.68
   6  -3  -1   15.05    0.87
  -6   3   1   16.85    0.81
   5  -3  -1    3.85    0.34
   5  -3  -1    3.96    0.41
   5  -3  -1    3.66    0.32
  -5   3   1    4.22    0.46
   4  -3  -1   97.84    4.08
   4  -3  -1   93.77    3.12
   4  -3  -1   96.20    3.38
   4  -3  -1   90.38    4.44
  -4   3   1   95.47    3.51
  -4   3   1   89.97    4.53
   3  -3  -1   29.19    1.52
   3  -3  -1   30.44    1.46
  -3   3   1   29.56    1.60
   2  -3  -1  104.42    4.58
   2  -3  -1   91.63    5.21
  -2   3   1   99.68    4.63
   1  -3  -1  173.22    7.44
   1  -3  -1  159.09    8.43
  -1   3   1  157.07    7.48
   0  -3  -1   40.09    1.85
   0  -3  -1   40.46    2.21
   0  -3  -1   38.58    2.11
   0   3   1   36.98    1.89
  -1  -3  -1   86.68    4.54
  -1  -3  -1   82.94    3.74
  -1  -3  -1   80.51    4.21
   1   3   1   75.16    3.79
  -2  -3  -1   21.23    0.99
  -2  -3  -1   20.80    1.10
  -2  -3  -1   21.00    1.24
   2   3   1   17.44    1.04
  -3  -3  -1  140.85    8.16
  -3  -3  -1  152.39    6.64
   3   3   1  150.52    8.73
   3   3   1  144.47    7.51
   3   3   1  141.42    6.70
  -4  -3  -1  110.76    4.92
  -4  -3  -1   97.54    6.08
   4   3   1  114.23    6.49
   4   3   1  104.20    4.96
  -5  -3  -1    5.44    0.70
  -5  -3  -1    8.17    0.52
  -5  -3  -1    7.41    0.73
   5   3   1    9.20    0.72
  -6  -3  -1  155.04    6.43
  -6  -3  -1  130.63    6.61
  -6  -3  -1  125.33    5.96
  -7  -3  -1   64.16    3.43
  -7  -3  -1   61.91    3.08
   7   3   1   67.28    2.60
  -8  -3  -1   -0.02    0.32
  -8  -3  -1    0.63    0.33
   8   3   1    0.53    0.16
   9   3   1   53.73    2.11
   6  -4  -1    4.41    0.26
  -6   4   1    4.02    0.32
   5  -4  -1    1.47    0.20
   5  -4  -1    1.07    0.23
   5  -4  -1    2.00    0.24
  -5   4   1    1.25    0.29
   4  -4  -1   -0.08    0.15
   4  -4  -1    0.17    0.17
   4  -4  -1    0.18    0.15
  -4   4   1    0.19    0.25
   3  -4  -1    7.54    0.48
   3  -4  -1    7.31    0.58
   3  -4  -1    7.90    0.47
   3  -4  -1    6.97    0.52
  -3   4   1    7.61    0.65
   2  -4  -1    0.29    0.13
   2  -4  -1    0.22    0.19
   1  -4  -1    1.90    0.22
   0  -4  -1    6.06    0.49
   0  -4  -1    7.16    0.43
  -1  -4  -1    2.70    0.26
  -1  -4  -1    2.70    0.23
   1   4   1    2.29    0.31
  -2  -4  -1   28.31    1.68
  -2  -4  -1   26.36    1.52
  -2  -4  -1   28.65    1.35
  -3  -4  -1   12.74    0.77
  -3  -4  -1   13.67    0.71
  -3  -4  -1   12.40    0.92
  -4  -4  -1   24.23    1.64
  -4  -4  -1   25.13    1.25
  -4  -4  -1   22.01    1.38
   4   4   1   26.83    1.66
  -5  -4  -1    0.24    0.27
  -5  -4  -1    0.30    0.12
  -5  -4  -1    0.36    0.24
  -5  -4  -1    0.08    0.27
   5   4   1    0.21    0.16
  -6  -4  -1    6.25    0.75
  -6  -4  -1    6.25    0.68
  -6  -4  -1    5.91    0.48
   6   4   1    6.40    0.67
  -7  -4  -1   15.69    1.17
  -7  -4  -1   15.18    1.06
   7   4   1   14.09    0.71
  -8  -4  -1    3.82    0.52
  -8  -4  -1    3.68    0.57
   8   4   1    4.17    0.35
  -9  -4  -1    4.00    0.32
   9   4   1    3.43    0.27
   5  -5  -1    6.36    0.37
   5  -5  -1    6.76    0.35
   5  -5  -1    6.37    0.45
  -5   5   1    6.72    0.44
   4  -5  -1  106.67    3.50
   4  -5  -1  108.93    4.57
   4  -5  -1  109.10    3.80
  -4   5   1  101.16    3.85
   3  -5  -1   20.93    1.13
   3  -5  -1   19.96    0.86
   3  -5  -1   20.80    0.94
  -3   5   1   19.68    1.05
   2  -5  -1   20.08    1.06
   2  -5  -1   21.77    0.89
   2  -5  -1   18.91    1.11
   2  -5  -1   21.59    0.97
   2  -5  -1   21.26    1.14
   1  -5  -1  221.84    8.84
   1  -5  -1  202.87    9.69
   0  -5  -1   41.68    2.02
  -1  -5  -1   47.44    2.27
  -2  -5  -1   68.91    3.66
  -2  -5  -1   65.63    3.25
  -2  -5  -1   71.87    3.23
  -3  -5  -1   12.23    0.74
  -3  -5  -1   10.58    0.64
  -4  -5  -1   58.97    2.77
  -4  -5  -1   58.49    2.63
  -4  -5  -1   57.10    2.88
  -5  -5  -1  119.04    5.53
  -5  -5  -1  119.37    5.15
  -5  -5  -1  122.99    5.68
  -5  -5  -1  115.68    6.96
  -6  -5  -1    4.00    0.39
  -6  -5  -1    4.39    0.58
  -6  -5  -1    4.42    0.64
   6   5   1    5.01    0.36
  -7  -5  -1   56.52    2.88
  -7  -5  -1   52.87    2.60
   7   5   1   54.49    2.06
  -8  -5  -1   25.75    1.58
  -8  -5  -1   27.24    1.45
   8   5   1   27.62    1.10
  -9  -5  -1   28.03    1.40
  -9  -5  -1   30.06    1.11
   4  -6  -1    7.69    0.42
   4  -6  -1    7.71    0.39
   4  -6  -1    6.86    0.49
   4  -6  -1    7.85    0.43
  -4   6   1    7.78    0.48
   3  -6  -1   10.32    0.60
   3  -6  -1    9.39    0.62
   3  -6  -1    9.85    0.56
   3  -6  -1    9.04    0.50
  -3   6   1    8.58    0.63
   2  -6  -1    9.00    0.56
   2  -6  -1    8.58    0.61
   2  -6  -1   10.07    0.66
   2  -6  -1    9.18    0.51
  -2   6   1    8.98    0.67
   1  -6  -1    0.33    0.17
   1  -6  -1    0.40    0.18
   1  -6  -1    0.42    0.15
   1  -6  -1    0.29    0.18
  -1   6   1    0.35    0.17
   0  -6  -1    1.48    0.33
   0  -6  -1    1.95    0.25
   0  -6  -1    1.54    0.28
   0   6   1    1.94    0.27
  -1  -6  -1   17.80    0.96
   1   6   1   17.79    0.86
  -2  -6  -1   13.36    0.79
   2   6   1   15.25    0.76
  -3  -6  -1   12.48    0.76
  -3  -6  -1   13.29    0.69
  -3  -6  -1   12.63    0.81
  -3  -6  -1   12.34    0.73
  -4  -6  -1    0.07    0.11
  -4  -6  -1    0.08    0.16
  -4  -6  -1    0.14    0.19
  -4  -6  -1    0.07    0.18
  -5  -6  -1    5.99    0.59
  -5  -6  -1    6.54    0.57
  -5  -6  -1    6.44    0.48
  -5  -6  -1    6.29    0.46
   5   6   1    7.25    0.44
  -6  -6  -1    2.39    0.45
  -6  -6  -1    2.26    0.30
  -6  -6  -1    1.69    0.33
   6   6   1    1.96    0.25
  -7  -6  -1   10.70    0.88
  -7  -6  -1   12.04    0.83
   7   6   1   11.22    0.60
  -8  -6  -1    0.28    0.25
  -8  -6  -1    0.23    0.23
  -8  -6  -1    0.14    0.17
   8   6   1    0.39    0.15
  -9  -6  -1    0.67    0.15
  -9  -6  -1    0.69    0.14
   9   6   1    0.47    0.12
   3  -7  -1   31.14    1.16
   3  -7  -1   32.64    1.21
   3  -7  -1   31.14    1.10
  -3   7   1   31.06    1.24
   2  -7  -1    8.23    0.47
   2  -7  -1    7.82    0.42
   2  -7  -1    7.64    0.52
   2  -7  -1    8.00    0.47
  -2   7   1    6.73    0.55
   1  -7  -1    4.91    0.44
   1  -7  -1    4.26    0.33
   1  -7  -1    3.98    0.37
  -1   7   1    4.17    0.45
   0  -7  -1   97.49    3.89
   0  -7  -1   96.53    3.38
   0  -7  -1   87.32    3.27
   0   7   1   90.66    3.47
  -1  -7  -1   27.46    1.45
  -1  -7  -1   30.40    1.46
   1   7   1   29.22    1.27
  -2  -7  -1   65.83    2.88
  -2  -7  -1   64.34    3.14
   2   7   1   68.73    2.59
  -3  -7  -1   53.72    2.34
  -3  -7  -1   48.85    2.43
   3   7   1   49.68    2.03
  -4  -7  -1    4.83    0.46
  -4  -7  -1    5.27    0.51
  -4  -7  -1    4.72    0.39
   4   7   1    5.17    0.39
   4   7   1    4.67    0.42
  -5  -7  -1   60.37    2.51
  -5  -7  -1   66.83    2.95
  -5  -7  -1   69.66    3.25
   5   7   1   65.29    2.41
   5   7   1   64.06    2.53
  -6  -7  -1    1.77    0.38
  -6  -7  -1    1.72    0.26
  -6  -7  -1    1.67    0.25
  -6  -7  -1    1.82    0.35
   6   7   1    2.11    0.29
   6   7   1    1.69    0.24
  -7  -7  -1   77.18    3.34
  -7  -7  -1   71.06    3.66
  -7  -7  -1   77.06    2.76
  -7  -7  -1   75.82    2.64
   7   7   1   74.58    2.73
  -8  -7  -1   46.51    1.70
  -8  -7  -1   41.35    2.04
  -8  -7  -1   46.25    1.62
   8   7   1   45.21    1.68
  -9  -7  -1    1.03    0.13
  -9  -7  -1    1.09    0.13
   9   7   1    0.82    0.12
   2  -8  -1   15.38    0.59
   2  -8  -1   15.01    0.61
   2  -8  -1   14.44    0.68
  -2   8   1   14.19    0.64
   1  -8  -1    4.99    0.34
   1  -8  -1    4.68    0.37
   1  -8  -1    5.52    0.34
  -1   8   1    4.53    0.42
   0  -8  -1    6.38    0.41
   0  -8  -1    5.67    0.40
   0  -8  -1    6.63    0.49
   0   8   1    6.21    0.54
   0   8   1    6.21    0.40
  -1  -8  -1    5.43    0.48
  -1  -8  -1    5.32    0.41
   1   8   1    5.45    0.40
  -2  -8  -1    0.52    0.19
  -2  -8  -1    0.12    0.19
   2   8   1    0.10    0.17
  -3  -8  -1    1.67    0.25
  -3  -8  -1    2.04    0.32
   3   8   1    2.05    0.29
  -4  -8  -1    0.20    0.17
   4   8   1    0.40    0.19
  -5  -8  -1   29.25    1.42
  -5  -8  -1   29.36    1.57
  -5  -8  -1   28.84    1.14
   5   8   1   27.32    1.24
   5   8   1   27.56    1.15
  -6  -8  -1   21.64    0.88
  -6  -8  -1   20.35    1.20
  -6  -8  -1   21.15    1.11
   6   8   1   21.45    0.90
   6   8   1   19.44    0.94
  -7  -8  -1    5.36    0.47
  -7  -8  -1    5.73    0.35
   7   8   1    5.92    0.37
  -8  -8  -1   21.98    0.81
   8   8   1   21.20    0.85
   0  -9  -1   45.98    1.57
   0  -9  -1   44.81    1.88
  -1  -9  -1   19.53    0.76
  -1  -9  -1   19.96    0.92
   1   9   1   17.36    0.80
  -2  -9  -1    8.36    0.44
  -2  -9  -1    7.49    0.50
   2   9   1    7.67    0.45
  -3  -9  -1   71.79    3.11
  -3  -9  -1   81.28    2.66
   3   9   1   76.55    2.88
  -4  -9  -1   16.65    0.69
   4   9   1   14.35    0.75
  -5  -9  -1   48.78    1.69
   5   9   1   45.48    1.84
  -6  -9  -1   89.20    3.64
  -6  -9  -1   90.98    2.92
   6   9   1   78.03    3.01
   6   9   1   85.22    3.16
  -7  -9  -1    0.12    0.09
   7   9   1    0.23    0.09
  -2 -10  -1    1.64    0.13
  -3 -10  -1    4.73    0.24
  -4 -10  -1    5.49    0.26
   4  10   1    4.96    0.30
  -5 -10  -1    3.73    0.21
   6   9  -2   21.21    0.90
   5   9  -2   29.10    1.22
  -5  -9   2   29.55    1.37
   4   9  -2    4.20    0.34
  -4  -9   2    3.65    0.19
  -4  -9   2    3.46    0.34
   3   9  -2   12.73    0.64
  -3  -9   2   12.41    0.47
   2   9  -2   17.14    0.79
  -2  -9   2   18.79    0.64
  -2  -9   2   18.65    0.73
  -1  -9   2    5.10    0.35
   0   9  -2   22.40    0.91
   0  -9   2   22.02    0.97
   7   8  -2   37.03    1.44
   7   8  -2   36.14    1.37
  -7  -8   2   36.96    1.68
  -7  -8   2   36.46    1.39
   6   8  -2    7.30    0.43
   6   8  -2    8.22    0.50
  -6  -8   2    7.33    0.46
  -6  -8   2    7.72    0.44
  -6  -8   2    7.72    0.36
  -6  -8   2    7.36    0.61
  -6  -8   2    7.24    0.56
   5   8  -2    0.77    0.22
  -5  -8   2    0.08    0.19
  -5  -8   2    0.07    0.14
  -5  -8   2    0.17    0.19
  -5  -8   2    0.57    0.19
  -5  -8   2    0.08    0.12
   4   8  -2   11.57    0.66
  -4  -8   2   10.77    0.51
  -4  -8   2   11.38    0.53
  -4  -8   2   11.24    0.72
  -4  -8   2   10.33    0.41
  -4  -8   2   10.46    0.77
   3   8  -2    3.82    0.39
  -3  -8   2    3.87    0.31
  -3  -8   2    3.72    0.23
  -3  -8   2    3.66    0.41
  -3  -8   2    3.77    0.30
  -3  -8   2    3.68    0.43
   2   8  -2    0.73    0.21
  -2  -8   2    0.97    0.13
  -2  -8   2    1.21    0.26
  -2  -8   2    0.88    0.22
  -2  -8   2    0.75    0.17
  -2  -8   2    0.77    0.16
   1   8  -2    0.57    0.18
  -1  -8   2    0.78    0.16
  -1  -8   2    0.37    0.20
  -1  -8   2    0.58    0.17
   0  -8   2    0.18    0.16
   0  -8   2    0.75    0.14
   0  -8   2    0.11    0.11
  -1   8  -2    3.93    0.40
   1  -8   2    3.95    0.23
   1  -8   2    4.09    0.35
  -2   8  -2    0.15    0.15
   2  -8   2    0.00    0.11
   8   7  -2    2.93    0.25
  -8  -7   2    3.01    0.26
  -8  -7   2    2.99    0.17
   7   7  -2   55.32    1.98
  -7  -7   2   55.74    2.02
  -7  -7   2   48.32    2.64
  -7  -7   2   53.15    2.42
  -7  -7   2   51.60    2.04
  -7  -7   2   53.64    1.84
   6   7  -2    9.49    0.52
  -6  -7   2    8.35    0.53
  -6  -7   2    9.53    0.75
  -6  -7   2    9.00    0.56
  -6  -7   2    9.55    0.69
  -6  -7   2    9.09    0.46
   5   7  -2   55.82    2.14
  -5  -7   2   56.57    2.04
  -5  -7   2   57.92    2.20
  -5  -7   2   60.37    2.66
  -5  -7   2   60.91    2.94
  -5  -7   2   56.57    2.26
  -5  -7   2   55.53    1.73
  -4  -7   2   28.75    1.16
  -4  -7   2   29.58    1.53
  -4  -7   2   33.67    1.72
  -4  -7   2   31.04    1.32
  -4  -7   2   29.79    1.26
  -4  -7   2   30.91    1.26
  -4  -7   2   30.52    0.97
  -4  -7   2   31.02    1.11
  -4  -7   2   29.48    1.04
  -4  -7   2   28.17    1.20
  -3  -7   2    4.66    0.34
  -3  -7   2    4.54    0.35
  -3  -7   2    4.55    0.40
  -3  -7   2    4.25    0.33
  -3  -7   2    4.43    0.33
  -3  -7   2    4.87    0.50
  -3  -7   2    4.35    0.44
  -3  -7   2    4.20    0.29
  -3  -7   2    4.26    0.25
   2   7  -2  103.72    3.87
  -2  -7   2  101.50    2.99
  -2  -7   2   99.20    3.61
  -2  -7   2   99.25    3.29
  -2  -7   2  100.98    3.18
  -2  -7   2  106.79    3.81
  -2  -7   2  101.67    4.41
  -2  -7   2   99.27    3.51
  -2  -7   2  109.92    4.88
   1   7  -2   28.54    1.25
  -1  -7   2   26.80    0.89
  -1  -7   2   27.44    1.37
  -1  -7   2   27.17    1.10
  -1  -7   2   27.92    1.13
  -1  -7   2   28.10    1.52
  -1  -7   2   27.82    1.38
   0  -7   2    2.42    0.27
   0  -7   2    2.49    0.36
   0  -7   2    1.51    0.21
   0  -7   2    2.22    0.18
   1  -7   2   38.53    1.49
   1  -7   2   40.21    1.55
   1  -7   2   38.40    1.78
   1  -7   2   39.20    1.45
  -2   7  -2    0.93    0.28
   2  -7   2    0.76    0.19
   2  -7   2    0.81    0.19
   2  -7   2    1.07    0.17
  -3   7  -2   33.04    1.34
   3  -7   2   35.24    1.17
   3  -7   2   33.59    1.27
   3  -7   2   32.98    1.14
   3  -7   2   33.36    1.44
   9   6  -2    6.71    0.33
   8   6  -2    7.80    0.45
  -8  -6   2    8.29    0.39
  -8  -6   2    7.85    0.59
  -8  -6   2    8.34    0.47
   7   6  -2    1.02    0.19
  -7  -6   2    0.91    0.22
  -7  -6   2    1.23    0.36
  -7  -6   2    1.14    0.31
  -7  -6   2    1.01    0.18
  -6  -6   2    0.41    0.19
  -6  -6   2    0.14    0.10
  -6  -6   2    0.57    0.20
  -6  -6   2    0.56    0.27
  -6  -6   2    0.77    0.18
  -6  -6   2    0.43    0.17
  -6  -6   2    0.34    0.27
  -5  -6   2    7.28    0.63
  -5  -6   2    7.05    0.37
  -5  -6   2    7.15    0.49
  -5  -6   2    7.34    0.49
  -5  -6   2    6.64    0.33
  -5  -6   2    6.61    0.44
  -5  -6   2    6.94    0.42
  -5  -6   2    8.57    0.70
  -5  -6   2    6.83    0.49
  -4  -6   2   18.07    0.82
  -4  -6   2   18.40    0.63
  -4  -6   2   17.94    0.78
  -4  -6   2   18.80    0.69
  -4  -6   2   17.98    0.87
  -4  -6   2   18.89    1.17
  -4  -6   2   17.73    0.78
  -4  -6   2   18.48    0.86
  -4  -6   2   17.73    1.04
  -3  -6   2    9.26    0.65
  -3  -6   2    8.92    0.49
  -3  -6   2    8.50    0.40
  -3  -6   2    9.05    0.70
  -3  -6   2    9.64    0.54
  -3  -6   2    9.70    0.55
  -2  -6   2   18.67    0.85
  -2  -6   2   20.17    0.71
  -2  -6   2   19.64    0.88
  -2  -6   2   20.20    0.92
  -2  -6   2   20.04    1.06
  -2  -6   2   18.39    1.14
   1   6  -2   16.77    0.82
  -1  -6   2   15.75    1.00
  -1  -6   2   16.02    0.90
  -1  -6   2   15.95    0.62
  -1  -6   2   15.91    0.98
  -1  -6   2   15.35    0.74
   0  -6   2    0.35    0.12
   0  -6   2    0.65    0.17
   0  -6   2    0.34    0.20
   0  -6   2    0.25    0.19
   0  -6   2    0.27    0.15
   0  -6   2    0.62    0.16
   0  -6   2    0.40    0.19
   0  -6   2    0.51    0.21
   0  -6   2    0.33    0.17
   0  -6   2    0.22    0.10
   1  -6   2   69.45    2.48
   1  -6   2   67.72    2.62
   1  -6   2   71.50    3.00
   1  -6   2   69.90    2.08
   1  -6   2   72.95    2.56
   2  -6   2   12.22    0.60
   2  -6   2   12.47    0.61
   2  -6   2   12.68    0.75
   2  -6   2   11.65    0.66
  -3   6  -2    0.87    0.29
   3  -6   2    1.46    0.25
   3  -6   2    1.37    0.20
   3  -6   2    1.49    0.24
   3  -6   2    1.30    0.20
  -4   6  -2    3.69    0.36
   4  -6   2    3.82    0.25
   4  -6   2    3.22    0.29
   4  -6   2    3.58    0.26
   4  -6   2    3.48    0.29
   9   5  -2   27.13    1.01
  -9  -5   2   26.56    0.92
  -9  -5   2   26.31    1.04
   8   5  -2    0.17    0.14
  -8  -5   2    0.31    0.14
  -8  -5   2    0.55    0.24
  -8  -5   2    0.46    0.30
  -7  -5   2  117.01    4.08
  -7  -5   2  125.45    5.24
  -7  -5   2  124.33    5.78
  -7  -5   2  115.12    4.31
  -6  -5   2   37.35    1.64
  -6  -5   2   43.98    2.06
  -6  -5   2   39.49    1.51
  -6  -5   2   40.84    1.64
  -6  -5   2   44.30    2.27
  -6  -5   2   38.51    1.26
  -5  -5   2    1.99    0.26
  -5  -5   2    1.80    0.37
  -5  -5   2    1.57    0.33
  -5  -5   2    2.18    0.20
  -5  -5   2    1.87    0.22
  -4  -5   2  192.75    8.14
  -4  -5   2  197.13    8.99
  -4  -5   2  194.09    5.86
  -4  -5   2  194.32    6.96
  -3  -5   2  153.31    7.22
  -3  -5   2  161.71    5.60
  -3  -5   2  152.75    6.55
  -2  -5   2   43.45    2.27
  -2  -5   2   46.97    1.72
  -1  -5   2  140.44    5.06
  -1  -5   2  147.53    6.50
  -1  -5   2  134.12    6.35
   0  -5   2    2.81    0.24
   0  -5   2    2.81    0.32
   0  -5   2    2.65    0.32
   0  -5   2    2.39    0.19
   0  -5   2    2.82    0.33
   1  -5   2   47.46    2.17
   1  -5   2   45.25    2.19
   1  -5   2   49.02    2.45
   1  -5   2   46.08    1.83
   1  -5   2   47.47    2.33
   1  -5   2   46.39    1.53
   2  -5   2   37.86    1.19
   2  -5   2   36.91    1.80
   2  -5   2   38.30    1.46
   2  -5   2   37.10    1.54
   2  -5   2   40.99    1.51
   2  -5   2   40.62    1.85
   2  -5   2   40.02    1.76
   2  -5   2   37.20    1.41
   3  -5   2   16.54    0.94
   3  -5   2   15.48    0.72
   3  -5   2   15.07    0.72
   3  -5   2   15.93    0.78
   3  -5   2   16.40    0.87
  -4   5  -2   40.30    1.73
   4  -5   2   41.78    1.49
   4  -5   2   43.28    1.81
   4  -5   2   40.99    1.62
   4  -5   2   39.54    1.92
   4  -5   2   41.90    1.53
  -5   5  -2    1.67    0.26
   5  -5   2    1.93    0.19
   5  -5   2    1.40    0.17
   5  -5   2    1.73    0.21
  -9  -4   2    7.77    0.42
  -9  -4   2    8.86    0.37
   8   4  -2   17.30    0.79
  -8  -4   2   18.26    0.76
  -8  -4   2   17.52    0.83
  -7  -4   2    2.43    0.33
  -7  -4   2    1.86    0.39
  -7  -4   2    2.88    0.34
  -7  -4   2    2.83    0.51
  -7  -4   2    2.15    0.27
  -6  -4   2   53.04    2.25
  -6  -4   2   58.42    2.20
  -6  -4   2   60.57    2.48
  -6  -4   2   64.30    3.16
  -6  -4   2   65.34    2.88
  -6  -4   2   60.02    2.15
   5   4  -2   33.97    2.26
  -5  -4   2   33.74    1.34
  -5  -4   2   32.34    1.61
  -5  -4   2   30.32    2.22
  -5  -4   2   35.11    1.76
  -5  -4   2   33.59    1.13
  -5  -4   2   34.24    1.45
  -5  -4   2   37.28    1.94
  -4  -4   2   59.73    2.83
  -4  -4   2   52.41    3.35
  -4  -4   2   53.95    2.58
  -4  -4   2   57.12    2.08
   3   4  -2   95.50    5.38
  -3  -4   2  103.55    4.63
  -3  -4   2  106.68    4.81
  -2  -4   2    5.34    0.44
  -2  -4   2    5.31    0.41
  -2  -4   2    5.19    0.28
  -1  -4   2   77.33    4.12
  -1  -4   2   77.50    3.67
  -1  -4   2   79.58    3.56
   0  -4   2   51.54    2.84
   0  -4   2   52.77    2.51
   0  -4   2   52.17    2.41
   1  -4   2  129.03    5.93
   1  -4   2  124.66    5.69
   1  -4   2  117.89    5.63
   1  -4   2  121.63    4.47
   1  -4   2  124.59    4.47
   2  -4   2   50.24    2.46
   2  -4   2   48.28    2.25
   2  -4   2   48.68    2.37
   2  -4   2   54.28    2.60
   3  -4   2    4.65    0.37
   3  -4   2    4.15    0.42
   3  -4   2    4.69    0.36
   3  -4   2    5.35    0.41
   3  -4   2    4.04    0.33
   3  -4   2    4.93    0.37
  -4   4  -2   33.12    1.51
   4  -4   2   33.75    1.36
   4  -4   2   35.07    1.65
   4  -4   2   33.68    1.30
   4  -4   2   32.59    1.26
   4  -4   2   31.86    1.51
  -5   4  -2   22.42    1.08
   5  -4   2   22.29    0.89
   5  -4   2   23.34    0.96
   5  -4   2   21.48    1.15
   5  -4   2   21.39    0.91
  -6   4  -2    0.01    0.15
   6  -4   2    0.11    0.09
   6  -4   2    0.23    0.11
   6  -4   2    0.05    0.10
   9   3  -2   18.34    0.81
  -9  -3   2   20.09    0.72
   8   3  -2   20.42    0.94
  -8  -3   2   20.77    0.86
   7   3  -2    2.00    0.26
  -7  -3   2    1.90    0.28
  -7  -3   2    1.28    0.22
  -7  -3   2    1.61    0.23
  -7  -3   2    1.51    0.25
  -6  -3   2   34.55    1.69
  -6  -3   2   33.55    1.85
  -6  -3   2   29.09    1.52
  -6  -3   2   31.58    1.37
  -6  -3   2   26.67    1.25
  -6  -3   2   26.92    0.97
  -6  -3   2   31.82    1.23
  -6  -3   2   31.57    1.19
   5   3  -2   33.44    2.28
  -5  -3   2   33.63    1.45
  -5  -3   2   32.76    1.66
  -5  -3   2   36.59    1.79
  -5  -3   2   32.02    2.22
  -5  -3   2   37.97    1.98
  -5  -3   2   32.96    1.34
   4   3  -2   11.04    0.89
   4   3  -2   14.44    0.99
  -4  -3   2   13.00    0.68
  -4  -3   2   12.80    0.61
  -4  -3   2   12.05    0.97
  -4  -3   2   13.53    0.90
   3   3  -2   76.17    4.49
   3   3  -2   71.06    3.92
  -3  -3   2   76.39    3.36
  -3  -3   2   70.46    4.23
   2   3  -2    0.30    0.09
  -2  -3   2    0.25    0.12
  -2  -3   2    0.20    0.05
  -2  -3   2    0.27    0.09
  -1  -3   2  164.42    8.33
  -1  -3   2  160.10    7.30
   0  -3   2   97.43    5.04
   0  -3   2   96.39    4.39
   1  -3   2    0.65    0.10
   1  -3   2    0.35    0.11
   1  -3   2    0.29    0.12
   2  -3   2  222.89    9.94
   2  -3   2  206.58    9.52
   2  -3   2  199.13   10.87
   2  -3   2  211.57    9.51
   3  -3   2    3.59    0.37
   3  -3   2    4.00    0.31
   3  -3   2    3.62    0.34
  -4   3  -2   19.17    1.06
   4  -3   2   20.99    1.07
   4  -3   2   18.10    1.03
   4  -3   2   20.80    0.82
   4  -3   2   20.22    0.88
  -5   3  -2   73.42    2.96
   5  -3   2   77.37    2.62
   5  -3   2   77.61    2.84
   5  -3   2   83.46    3.45
  -6   3  -2    4.11    0.42
   6  -3   2    3.75    0.31
   6  -3   2    3.84    0.32
   6  -3   2    3.04    0.37
   6  -3   2    3.78    0.29
   7  -3   2   30.35    1.04
   7  -3   2   31.10    1.10
   9   2  -2    6.60    0.35
  -9  -2   2    6.57    0.31
   8   2  -2   86.65    3.37
  -8  -2   2   87.90    3.00
  -8  -2   2   85.97    3.06
   7   2  -2   12.24    0.66
  -7  -2   2   11.62    0.61
  -7  -2   2   11.09    0.59
   6   2  -2   36.98    1.56
  -6  -2   2   30.39    1.43
  -6  -2   2   37.83    1.44
  -6  -2   2   37.25    1.38
  -6  -2   2   38.18    1.59
  -6  -2   2   36.49    1.83
   5   2  -2   67.98    4.19
  -5  -2   2   65.70    2.63
  -5  -2   2   68.83    3.34
  -5  -2   2   64.42    3.11
  -5  -2   2   61.57    3.94
   4   2  -2    1.19    0.26
   4   2  -2    1.46    0.31
  -4  -2   2    1.06    0.16
  -4  -2   2    1.09    0.31
  -4  -2   2    0.82    0.24
   3   2  -2  117.59    7.14
   3   2  -2  117.85    6.19
  -3  -2   2  124.47    5.38
  -3  -2   2  113.41    6.66
   2   2  -2  104.69    5.26
   2   2  -2   94.77    6.07
  -2  -2   2  103.40    4.58
  -2  -2   2  102.72    4.60
  -2  -2   2  100.80    5.67
   1   2  -2   51.39    3.40
  -1  -2   2   57.61    3.18
  -1  -2   2   61.44    2.96
   0  -2   2   37.33    1.91
   0  -2   2   36.36    1.64
   0  -2   2   34.51    1.64
   1  -2   2    5.01    0.27
   1  -2   2    4.37    0.30
   1  -2   2    4.44    0.34
   2  -2   2  206.77    8.91
   2  -2   2  191.28    9.24
   2  -2   2  191.54   10.13
   3  -2   2   62.98    3.05
   3  -2   2   61.65    2.89
   3  -2   2   61.65    2.93
   3  -2   2   60.06    3.37
   4  -2   2    0.37    0.14
   4  -2   2    0.44    0.19
   4  -2   2    0.52    0.14
  -5   2  -2  195.23    6.99
   5  -2   2  191.15    9.12
   5  -2   2  203.87    6.90
   5  -2   2  202.18    6.36
   5  -2   2  205.16    8.30
  -6   2  -2   30.87    1.38
   6  -2   2   31.89    1.28
   6  -2   2   31.85    1.19
   6  -2   2   34.07    1.57
  -7   2  -2   36.88    1.46
   7  -2   2   34.16    1.67
   7  -2   2   37.88    1.36
   7  -2   2   38.09    1.28
   8   1  -2   54.48    2.18
  -8  -1   2   54.35    1.94
  -8  -1   2   54.37    1.98
   7   1  -2    0.51    0.17
  -7  -1   2    0.40    0.19
  -7  -1   2    0.43    0.18
   6   1  -2   43.30    1.86
  -6  -1   2   42.98    2.20
  -6  -1   2   46.11    1.73
   5   1  -2   51.75    3.30
  -5  -1   2   49.96    2.45
  -5  -1   2   48.38    2.06
  -5  -1   2   50.90    3.10
   4   1  -2    0.21    0.17
   4   1  -2    0.46    0.19
  -4  -1   2    0.41    0.13
  -4  -1   2    0.37    0.12
  -4  -1   2    0.38    0.19
   3   1  -2   10.08    0.74
   3   1  -2   11.24    0.83
  -3  -1   2   12.07    0.59
  -3  -1   2    9.99    0.77
   2   1  -2   83.52    5.36
   2   1  -2   91.58    4.64
  -2  -1   2   90.02    4.03
  -2  -1   2   90.55    4.99
   1   1  -2   52.16    2.63
  -1  -1   2   50.88    2.60
  -1  -1   2   47.72    2.82
   0  -1   2   30.86    1.61
  -1   1  -2    0.09    0.06
   1  -1   2    0.10    0.05
   1  -1   2    0.16    0.05
   1  -1   2    0.13    0.07
  -2   1  -2   65.82    3.79
   2  -1   2   68.80    3.11
   2  -1   2   69.60    3.55
   2  -1   2   68.98    4.09
   2  -1   2   65.56    3.23
  -3   1  -2   37.47    2.36
   3  -1   2   41.04    1.93
   3  -1   2   40.46    2.25
   3  -1   2   42.02    1.93
   3  -1   2   41.60    2.03
   3  -1   2   41.02    2.55
  -4   1  -2    0.72    0.31
   4  -1   2    1.17    0.24
   4  -1   2    0.88    0.17
   4  -1   2    0.92    0.16
   5  -1   2   10.17    0.60
   5  -1   2    9.05    0.60
  -6   1  -2    0.11    0.24
   6  -1   2    0.18    0.13
   6  -1   2    0.06    0.15
   6  -1   2    0.26    0.16
   7  -1   2    3.12    0.33
   7  -1   2    3.24    0.34
   8  -1   2    5.34    0.30
   8  -1   2    4.71    0.31
   8   0  -2   52.45    2.11
  -8   0   2   53.96    1.92
  -8   0   2   53.16    1.87
   7   0  -2   23.59    1.11
  -7   0   2   23.91    1.05
  -7   0   2   24.04    1.05
   6   0  -2    0.53    0.17
  -6   0   2    0.32    0.20
  -6   0   2    0.12    0.19
   5   0  -2  122.02    7.33
  -5   0   2  112.93    5.52
  -5   0   2  119.82    6.81
   4   0  -2   14.58    1.07
  -4   0   2   12.24    0.64
  -4   0   2   13.14    0.97
  -4   0   2   13.86    0.78
   3   0  -2  115.51    7.15
   3   0  -2  119.72    6.20
  -3   0   2  121.38    5.41
  -3   0   2  115.23    6.63
   2   0  -2  229.71   14.82
   2   0  -2  238.21   12.77
  -2   0   2  282.29   13.77
  -2   0   2  247.15   11.25
   1   0  -2   24.35    1.35
  -1   0   2   25.95    1.44
  -1   0   2   24.03    1.15
   0   0  -2  160.78    9.15
   0   0  -2  199.74    9.17
  -1   0  -2  239.02   12.42
  -1   0  -2  243.78   13.42
   1   0   2  258.18   12.46
   1   0   2  244.10   11.37
   1   0   2  238.14   10.99
  -2   0  -2    6.73    0.48
  -2   0  -2    7.52    0.51
   2   0   2    7.50    0.40
   2   0   2    8.26    0.46
   2   0   2    7.58    0.42
   2   0   2    7.46    0.54
  -3   0  -2  271.96   14.75
   3   0   2  278.39   12.07
   3   0   2  270.59   15.87
   3   0   2  268.41   12.50
   3   0   2  244.67   13.65
  -4   0  -2   30.80    2.10
   4   0   2   37.31    1.70
   4   0   2   35.78    2.26
   5   0   2  119.69    7.17
   5   0   2  113.76    5.41
   5   0   2  116.92    4.89
   6   0   2   98.11    3.72
   6   0   2   97.33    4.05
   6   0   2   89.25    4.45
   7   0   2    3.67    0.36
   7   0   2    3.76    0.37
   8   0   2   46.76    1.90
   8  -1  -2    5.98    0.33
  -8   1   2    5.60    0.30
  -8   1   2    5.55    0.31
   7  -1  -2   23.36    1.09
  -7   1   2   24.40    1.02
   6  -1  -2    1.60    0.26
   6  -1  -2    0.91    0.23
  -6   1   2    1.18    0.29
   5  -1  -2   38.13    1.85
   5  -1  -2   41.79    2.78
  -5   1   2   39.29    2.07
  -5   1   2   42.95    1.69
   4  -1  -2   80.15    4.98
   4  -1  -2   79.03    3.40
  -4   1   2   76.52    3.76
  -4   1   2   81.05    4.60
   3  -1  -2   95.08    5.19
   3  -1  -2   94.14    5.98
  -3   1   2  101.64    4.54
  -3   1   2   99.88    5.54
   2  -1  -2  191.05   12.46
   2  -1  -2  216.43   10.76
  -2   1   2  218.99    9.48
   1  -1  -2    2.83    0.26
  -1   1   2    3.42    0.21
  -1   1   2    3.00    0.22
   0  -1  -2    2.14    0.17
   0   1   2    2.01    0.16
   0   1   2    1.92    0.18
   0   1   2    1.85    0.14
  -1  -1  -2   43.91    2.37
   1   1   2   42.70    1.93
   1   1   2   39.08    1.99
  -2  -1  -2    4.37    0.33
   2   1   2    4.40    0.27
   2   1   2    4.07    0.34
   2   1   2    3.68    0.26
   2   1   2    4.01    0.25
  -3  -1  -2    6.80    0.41
  -3  -1  -2    7.57    0.55
   3   1   2    7.40    0.48
   3   1   2    7.09    0.44
   3   1   2    6.97    0.56
   3   1   2    7.34    0.41
  -4  -1  -2   -0.03    0.21
  -4  -1  -2    0.37    0.17
   4   1   2    0.32    0.15
   4   1   2    0.56    0.13
  -5  -1  -2   56.06    3.70
   5   1   2   63.94    2.97
   5   1   2   66.50    3.95
   6   1   2   91.90    3.59
   6   1   2   96.22    5.79
   6   1   2   88.36    4.35
  -7  -1  -2   -0.01    0.39
  -7  -1  -2    0.17    0.37
   7   1   2   -0.02    0.13
   8   1   2   10.48    0.58
   9   1   2    2.42    0.21
   7  -2  -2   52.99    2.14
  -7   2   2   55.70    1.99
   6  -2  -2   47.68    2.14
   6  -2  -2   45.88    1.94
  -6   2   2   46.31    1.84
   5  -2  -2   21.39    0.88
   5  -2  -2   23.54    1.18
   5  -2  -2   21.87    1.07
  -5   2   2   23.24    1.09
  -5   2   2   21.06    1.28
   4  -2  -2  128.35    5.27
  -4   2   2  119.82    5.81
   3  -2  -2    0.05    0.15
  -3   2   2    0.21    0.14
   2  -2  -2  136.92    7.20
   2  -2  -2  145.69    6.36
   2  -2  -2  126.72    8.33
  -2   2   2  143.71    6.35
   1  -2  -2  142.23    9.95
   1  -2  -2  176.87    7.58
   1  -2  -2  173.60    8.59
  -1   2   2  174.10    7.59
   0  -2  -2    0.36    0.10
   0   2   2    0.39    0.11
   0   2   2    0.18    0.07
  -1  -2  -2  925.32   49.65
  -1  -2  -2 1000.00   46.01
   1   2   2  767.18   40.63
   1   2   2  924.04   45.92
  -2  -2  -2   29.00    1.63
  -2  -2  -2   27.68    1.31
   2   2   2   28.69    1.43
   2   2   2   27.08    1.34
   2   2   2   25.09    1.37
   2   2   2   27.83    1.44
  -3  -2  -2   74.18    3.42
  -3  -2  -2   75.73    4.22
   3   2   2   75.01    3.44
   3   2   2   77.84    4.51
   3   2   2   65.88    3.55
   3   2   2   76.55    3.85
  -4  -2  -2   72.07    4.46
  -4  -2  -2   75.85    3.60
   4   2   2   81.80    4.76
   4   2   2   79.54    3.62
  -5  -2  -2    5.22    0.60
  -5  -2  -2    6.90    0.46
   5   2   2    5.58    0.43
   5   2   2    6.29    0.59
  -6  -2  -2   70.60    3.54
   6   2   2   73.12    3.50
   6   2   2   74.95    4.64
  -7  -2  -2   13.22    1.08
  -7  -2  -2   13.17    1.18
  -8  -2  -2    3.46    0.53
  -8  -2  -2    3.70    0.64
   8   2   2    4.06    0.34
   9   2   2   31.04    1.28
  -7   3   2    5.15    0.29
   6  -3  -2    0.20    0.12
   6  -3  -2    0.34    0.17
  -6   3   2    0.35    0.19
   5  -3  -2    2.79    0.27
   5  -3  -2    2.35    0.33
  -5   3   2    2.35    0.35
   4  -3  -2    1.94    0.25
   4  -3  -2    2.13    0.34
   4  -3  -2    2.16    0.26
  -4   3   2    2.87    0.42
  -4   3   2    2.64    0.38
   3  -3  -2    1.18    0.25
  -3   3   2    0.81    0.23
   2  -3  -2    1.18    0.20
  -2   3   2    0.71    0.20
   1  -3  -2    0.99    0.21
   1  -3  -2    0.73    0.16
   1  -3  -2    1.10    0.25
  -1   3   2    0.58    0.17
   0  -3  -2    6.59    0.39
   0  -3  -2    6.48    0.45
   0   3   2    5.19    0.40
   0   3   2    6.54    0.43
  -1  -3  -2    6.93    0.40
  -1  -3  -2    6.80    0.43
   1   3   2    6.29    0.45
  -2  -3  -2  265.11   13.02
  -2  -3  -2  266.31   14.12
  -2  -3  -2  255.10   11.56
   2   3   2  236.72   11.61
  -3  -3  -2   12.70    0.90
  -3  -3  -2   13.12    0.70
   3   3   2   13.14    0.74
   3   3   2   13.47    0.78
  -4  -3  -2    7.92    0.48
  -4  -3  -2    6.30    0.63
   4   3   2    7.75    0.51
   4   3   2    7.63    0.63
  -5  -3  -2    0.30    0.23
  -5  -3  -2    0.45    0.31
  -5  -3  -2    0.32    0.12
   5   3   2    0.24    0.16
   5   3   2    0.51    0.15
  -6  -3  -2    0.71    0.21
  -6  -3  -2    0.51    0.40
  -6  -3  -2    0.43    0.36
   6   3   2    0.42    0.16
   6   3   2    0.24    0.20
  -7  -3  -2    0.89    0.45
  -7  -3  -2    0.82    0.38
   7   3   2    1.79    0.24
  -8  -3  -2    4.49    0.58
  -8  -3  -2    4.62    0.69
   8   3   2    5.39    0.39
   9   3   2    6.63    0.39
   6  -4  -2   46.79    1.56
  -6   4   2   47.15    1.71
   5  -4  -2    3.92    0.40
   5  -4  -2    4.37    0.33
   5  -4  -2    4.48    0.31
  -5   4   2    3.64    0.39
   4  -4  -2   32.25    1.26
   4  -4  -2   35.52    1.67
   4  -4  -2   33.46    1.36
  -4   4   2   32.77    1.47
   3  -4  -2   93.31    3.85
   3  -4  -2   90.88    2.95
   3  -4  -2   92.17    3.20
   3  -4  -2   81.85    4.14
  -3   4   2   80.23    4.22
  -3   4   2   86.34    3.28
   2  -4  -2   12.50    0.75
   2  -4  -2   13.57    0.80
  -2   4   2   11.70    0.82
   1  -4  -2  209.88    9.30
  -1   4   2  197.49    9.36
   0  -4  -2    4.75    0.37
   0  -4  -2    3.60    0.31
   0   4   2    3.67    0.36
  -1  -4  -2  246.69   10.79
  -1  -4  -2  229.48   12.17
   1   4   2  237.27   10.87
  -2  -4  -2  330.61   16.99
  -2  -4  -2  350.98   15.07
   2   4   2  318.45   15.16
  -3  -4  -2    0.00    0.15
  -3  -4  -2    0.12    0.11
   3   4   2   -0.07    0.11
  -4  -4  -2  202.85    8.71
  -4  -4  -2  193.88   10.73
  -4  -4  -2  167.46    8.75
   4   4   2  197.76    8.77
  -5  -4  -2  123.44    6.30
  -5  -4  -2  116.65    5.69
  -5  -4  -2  140.37    6.17
  -5  -4  -2  140.91    7.70
   5   4   2  143.82    6.24
  -6  -4  -2   20.55    1.39
  -6  -4  -2   18.43    1.22
  -6  -4  -2   21.49    1.15
  -7  -4  -2  166.96    7.46
  -7  -4  -2  174.57    8.25
   7   4   2  177.52    6.06
   7   4   2  176.77    6.58
  -8  -4  -2   13.43    1.05
  -8  -4  -2   14.01    0.98
   8   4   2   12.74    0.68
  -9  -4  -2   30.99    1.51
   9   4   2   30.67    1.26
   5  -5  -2    0.17    0.12
   5  -5  -2    0.17    0.10
   5  -5  -2    0.11    0.14
  -5   5   2    0.40    0.16
   4  -5  -2    2.24    0.25
   4  -5  -2    1.82    0.24
   4  -5  -2    1.98    0.29
  -4   5   2    1.89    0.32
   3  -5  -2    0.66    0.19
   3  -5  -2    0.58    0.18
   3  -5  -2    0.63    0.24
  -3   5   2    0.60    0.28
   2  -5  -2    0.64    0.18
   2  -5  -2    0.78    0.22
   2  -5  -2    0.58    0.18
   2  -5  -2    0.61    0.21
   2  -5  -2    0.79    0.26
  -2   5   2    0.47    0.26
  -2   5   2    0.77    0.32
   1  -5  -2   13.10    0.78
   1  -5  -2   11.17    0.69
  -1   5   2   11.03    0.60
  -1   5   2    9.26    0.81
  -1  -5  -2   39.39    1.83
  -1  -5  -2   36.04    2.06
   1   5   2   35.91    1.94
  -2  -5  -2    1.55    0.20
   2   5   2    0.96    0.27
  -3  -5  -2   48.08    2.47
  -3  -5  -2   53.21    2.44
  -4  -5  -2    1.40    0.36
  -4  -5  -2    1.81    0.35
  -4  -5  -2    1.47    0.29
  -4  -5  -2    1.50    0.22
  -5  -5  -2    0.10    0.24
  -5  -5  -2    0.55    0.26
  -5  -5  -2    0.22    0.14
  -5  -5  -2    0.59    0.27
  -6  -5  -2    4.97    0.45
  -6  -5  -2    4.85    0.61
  -6  -5  -2    4.93    0.63
   6   5   2    4.87    0.37
  -7  -5  -2    0.47    0.34
  -7  -5  -2    0.85    0.36
   7   5   2    0.53    0.17
  -8  -5  -2    0.95    0.32
  -8  -5  -2    0.91    0.35
   8   5   2    1.35    0.22
  -9  -5  -2    0.50    0.22
   4  -6  -2   26.43    1.01
   4  -6  -2   25.52    0.93
  -4   6   2   24.61    1.03
   3  -6  -2   83.25    2.78
   3  -6  -2   88.80    3.04
   3  -6  -2   81.47    3.60
  -3   6   2   80.01    3.06
   2  -6  -2   21.21    0.87
   2  -6  -2   20.83    0.96
   2  -6  -2   20.07    1.05
   2  -6  -2   21.19    1.11
  -2   6   2   19.00    1.02
   1  -6  -2    5.88    0.52
   1  -6  -2    5.69    0.46
   1  -6  -2    6.63    0.54
   1  -6  -2    6.12    0.42
   1  -6  -2    6.49    0.48
  -1   6   2    5.22    0.41
   0  -6  -2   76.30    2.81
   0  -6  -2   71.44    3.53
   0  -6  -2   79.49    3.22
   0   6   2   72.02    2.82
  -1  -6  -2    2.75    0.29
   1   6   2    2.75    0.30
  -2  -6  -2   64.40    3.19
   2   6   2   70.25    2.62
  -3  -6  -2   49.85    2.44
   3   6   2   50.82    2.02
  -4  -6  -2   11.70    0.81
  -4  -6  -2   12.10    0.66
  -4  -6  -2   12.26    0.74
  -4  -6  -2   13.10    0.78
   4   6   2   12.21    0.66
  -5  -6  -2  157.08    7.45
  -5  -6  -2  159.68    6.77
  -5  -6  -2  157.03    7.39
   5   6   2  166.96    5.60
  -6  -6  -2    0.52    0.20
  -6  -6  -2    0.62    0.32
  -6  -6  -2    1.63    0.36
   6   6   2    0.67    0.17
  -7  -6  -2   75.73    3.36
  -7  -6  -2   75.17    3.70
   7   6   2   71.90    2.71
  -8  -6  -2   45.80    2.16
  -8  -6  -2   44.90    2.38
   8   6   2   46.82    1.73
  -9  -6  -2    0.91    0.17
  -9  -6  -2    0.61    0.23
  -9  -6  -2    0.44    0.14
   9   6   2    0.55    0.12
   3  -7  -2    4.67    0.30
   3  -7  -2    4.69    0.27
  -3   7   2    4.16    0.33
   2  -7  -2    0.49    0.17
   2  -7  -2    0.79    0.20
   2  -7  -2    0.58    0.15
  -2   7   2    0.72    0.24
   1  -7  -2    0.19    0.13
   1  -7  -2    0.25    0.17
   1  -7  -2    0.28    0.17
  -1   7   2    0.22    0.25
  -1   7   2    0.09    0.14
   0  -7  -2   38.17    1.53
   0  -7  -2   39.59    1.78
   0   7   2   35.87    1.54
  -1  -7  -2    3.42    0.33
  -1  -7  -2    3.11    0.41
   1   7   2    4.05    0.37
  -2  -7  -2    3.80    0.48
  -2  -7  -2    3.76    0.35
   2   7   2    3.60    0.38
  -3  -7  -2    1.28    0.23
  -3  -7  -2    2.04    0.40
   3   7   2    2.14    0.31
  -4  -7  -2    4.60    0.40
  -4  -7  -2    4.85    0.47
   4   7   2    4.80    0.42
   4   7   2    5.22    0.39
  -5  -7  -2    1.65    0.32
  -5  -7  -2    2.13    0.39
   5   7   2    1.43    0.22
   5   7   2    1.95    0.29
  -6  -7  -2    6.45    0.57
  -6  -7  -2    6.57    0.63
   6   7   2    6.37    0.43
  -7  -7  -2    2.17    0.26
  -7  -7  -2    3.21    0.41
  -7  -7  -2    2.13    0.37
   7   7   2    2.51    0.27
  -8  -7  -2    3.02    0.28
  -8  -7  -2    3.10    0.30
  -8  -7  -2    3.01    0.37
   8   7   2    2.49    0.26
  -9  -7  -2    3.67    0.24
  -9  -7  -2    3.58    0.24
   9   7   2    3.10    0.22
   2  -8  -2   38.34    1.57
   2  -8  -2   37.70    1.39
   2  -8  -2   38.69    1.35
   1  -8  -2    7.90    0.44
   1  -8  -2    8.56    0.45
   1  -8  -2    8.32    0.51
   0  -8  -2   54.98    2.09
   0  -8  -2   59.53    2.44
   0   8   2   56.32    2.17
  -1  -8  -2   28.99    1.42
   1   8   2   30.20    1.25
  -2  -8  -2   74.03    3.12
   2   8   2   72.88    2.81
  -3  -8  -2   82.44    3.45
   3   8   2   82.00    3.13
   4   8   2    5.18    0.42
  -5  -8  -2   64.84    2.72
   5   8   2   58.52    2.35
   5   8   2   58.56    2.23
  -6  -8  -2   68.09    2.85
  -6  -8  -2   65.46    2.29
  -6  -8  -2   61.03    3.12
   6   8   2   59.95    2.43
   6   8   2   65.74    2.35
  -7  -8  -2    0.74    0.22
  -7  -8  -2    0.64    0.16
   7   8   2    0.44    0.14
  -8  -8  -2   48.45    1.70
   0  -9  -2    0.52    0.11
   0  -9  -2    0.59    0.15
  -1  -9  -2    1.64    0.23
  -1  -9  -2    1.52    0.19
   1   9   2    1.59    0.19
  -2  -9  -2    4.17    0.33
  -2  -9  -2    3.55    0.35
  -3  -9  -2    8.97    0.57
  -3  -9  -2   10.15    0.51
   3   9   2    8.92    0.52
  -4  -9  -2    5.42    0.37
   4   9   2    4.91    0.38
  -5  -9  -2    4.54    0.33
   5   9   2    3.89    0.33
  -6  -9  -2    1.75    0.21
   6   9   2    1.39    0.20
   6   9   2    1.97    0.20
  -7  -9  -2    0.94    0.15
   7   9   2    1.14    0.14
  -2 -10  -2    0.06    0.08
  -3 -10  -2   34.15    1.44
  -3 -10  -2   36.29    1.21
   3  10   2   32.44    1.31
  -4 -10  -2   52.90    1.75
   4  10   2   49.04    1.90
  -5 -10  -2    1.41    0.15
  -6 -10  -2   58.49    1.96
  -6  -9   3    9.96    0.39
   5   9  -3    0.14    0.13
  -5  -9   3    0.07    0.08
  -5  -9   3    0.10    0.09
   4   9  -3    2.77    0.29
  -4  -9   3    3.29    0.22
  -4  -9   3    2.82    0.31
   3   9  -3    0.58    0.16
  -3  -9   3    0.79    0.12
  -3  -9   3    0.61    0.18
  -3  -9   3    0.77    0.13
  -2  -9   3    7.59    0.34
  -2  -9   3    7.17    0.36
  -1  -9   3    0.01    0.11
  -1  -9   3    0.07    0.08
   7   8  -3   63.64    2.30
   7   8  -3   65.60    2.42
  -7  -8   3   65.24    2.33
  -7  -8   3   65.46    2.07
  -6  -8   3   11.05    0.72
  -6  -8   3   12.15    0.61
  -6  -8   3   12.33    0.58
  -6  -8   3   12.32    0.50
  -5  -8   3   42.14    2.24
  -5  -8   3   44.10    1.49
  -5  -8   3   44.18    2.05
  -5  -8   3   45.48    1.49
  -5  -8   3   45.66    1.77
  -5  -8   3   43.59    1.33
   4   8  -3   52.96    2.01
  -4  -8   3   50.33    1.61
  -4  -8   3   49.08    1.93
  -4  -8   3   49.49    1.70
  -4  -8   3   45.82    2.48
  -4  -8   3   49.73    1.66
  -4  -8   3   52.63    2.29
  -4  -8   3   47.77    1.82
  -4  -8   3   49.21    1.49
   3   8  -3   18.06    0.86
  -3  -8   3   16.47    0.66
  -3  -8   3   16.46    0.68
  -3  -8   3   17.74    0.96
  -3  -8   3   17.03    0.58
  -3  -8   3   17.48    0.65
  -3  -8   3   15.97    1.02
  -3  -8   3   16.05    0.74
   2   8  -3  139.92    4.91
  -2  -8   3  127.27    4.85
  -2  -8   3  128.73    4.85
  -2  -8   3  136.67    4.61
  -2  -8   3  131.98    4.41
  -2  -8   3  132.74    3.83
  -2  -8   3  136.33    4.19
  -2  -8   3  125.06    6.16
  -2  -8   3  139.34    5.61
  -1  -8   3    0.83    0.15
  -1  -8   3    1.06    0.14
  -1  -8   3    1.26    0.25
  -1  -8   3    1.03    0.12
  -1  -8   3    1.06    0.18
   0  -8   3   36.40    1.61
   0  -8   3   35.84    1.24
   0  -8   3   35.97    1.23
   0  -8   3   35.51    1.35
  -1   8  -3   45.62    1.80
   1  -8   3   47.94    1.97
  -2   8  -3    0.67    0.19
   2  -8   3    0.72    0.14
   8   7  -3   15.27    0.65
  -8  -7   3   15.95    0.67
  -8  -7   3   15.47    0.60
   7   7  -3    0.90    0.18
  -7  -7   3    0.90    0.24
  -7  -7   3    0.99    0.20
  -7  -7   3    0.80    0.18
  -7  -7   3    0.70    0.14
  -7  -7   3    0.68    0.10
   6   7  -3    2.27    0.26
  -6  -7   3    2.19    0.40
  -6  -7   3    2.11    0.35
  -6  -7   3    1.90    0.20
  -6  -7   3    1.92    0.26
  -6  -7   3    2.26    0.29
  -6  -7   3    2.37    0.22
  -6  -7   3    1.94    0.17
  -5  -7   3    1.96    0.17
  -5  -7   3    2.16    0.27
  -5  -7   3    1.83    0.23
  -5  -7   3    1.98    0.21
  -5  -7   3    1.96    0.27
  -5  -7   3    1.97    0.37
  -5  -7   3    1.98    0.34
  -5  -7   3    1.98    0.20
  -5  -7   3    2.32    0.26
  -5  -7   3    2.28    0.23
  -4  -7   3    5.79    0.29
  -4  -7   3    5.24    0.38
  -4  -7   3    5.67    0.31
  -4  -7   3    5.62    0.52
  -4  -7   3    5.41    0.41
  -4  -7   3    5.43    0.38
  -4  -7   3    6.06    0.59
  -4  -7   3    5.37    0.34
  -4  -7   3    5.91    0.46
  -4  -7   3    5.09    0.34
  -3  -7   3   20.67    0.69
  -3  -7   3   19.58    0.88
  -3  -7   3   20.17    0.83
  -3  -7   3   20.83    0.91
  -3  -7   3   19.21    0.79
  -3  -7   3   20.66    1.13
  -3  -7   3   20.13    0.75
  -3  -7   3   21.33    0.97
   2   7  -3    0.26    0.18
  -2  -7   3    0.71    0.25
  -2  -7   3    0.49    0.10
  -2  -7   3    0.49    0.14
  -2  -7   3    0.58    0.22
  -2  -7   3    0.51    0.16
  -2  -7   3    0.33    0.11
  -2  -7   3    0.68    0.18
  -2  -7   3    0.37    0.15
   1   7  -3   23.27    1.11
  -1  -7   3   25.61    1.06
  -1  -7   3   24.42    0.80
  -1  -7   3   23.26    0.95
  -1  -7   3   24.87    1.02
  -1  -7   3   23.11    1.22
  -1  -7   3   23.11    0.91
  -1  -7   3   26.04    1.39
  -1  -7   3   24.40    1.25
  -1  -7   3   23.51    0.87
   0  -7   3    3.08    0.28
   0  -7   3    3.81    0.31
   0  -7   3    3.31    0.37
   0  -7   3    3.31    0.27
   0  -7   3    3.18    0.21
   0  -7   3    3.41    0.41
   1  -7   3    9.30    0.64
   1  -7   3   10.19    0.58
   1  -7   3    9.11    0.46
   1  -7   3   10.66    0.53
  -2   7  -3    3.25    0.41
   2  -7   3    3.17    0.33
   2  -7   3    2.98    0.22
   2  -7   3    3.12    0.31
  -3   7  -3    7.40    0.47
   3  -7   3    7.40    0.43
   3  -7   3    7.65    0.39
   8   6  -3    0.86    0.15
  -8  -6   3    1.13    0.20
   7   6  -3  118.22    4.15
  -7  -6   3  114.54    3.92
  -7  -6   3  114.77    4.30
  -7  -6   3  119.72    3.73
  -7  -6   3  116.89    4.18
  -7  -6   3  120.98    5.05
  -7  -6   3  119.84    4.23
  -7  -6   3  114.08    5.56
  -6  -6   3   98.60    3.52
  -6  -6   3  103.35    4.86
  -6  -6   3   97.61    3.19
  -6  -6   3   99.38    3.73
  -6  -6   3  104.85    4.41
  -6  -6   3   96.26    2.92
  -6  -6   3   96.52    3.65
  -6  -6   3   98.21    3.38
  -6  -6   3   99.15    3.62
  -6  -6   3   99.74    3.10
  -6  -6   3  104.66    3.70
  -5  -6   3   26.29    1.09
  -5  -6   3   25.61    1.14
  -5  -6   3   25.01    0.99
  -5  -6   3   24.31    0.99
  -5  -6   3   25.07    0.90
  -5  -6   3   25.52    1.06
  -5  -6   3   25.25    0.94
  -5  -6   3   25.19    1.39
  -5  -6   3   24.95    0.84
  -5  -6   3   25.00    1.13
  -5  -6   3   26.98    1.54
  -5  -6   3   25.35    1.11
  -4  -6   3   78.07    2.76
  -4  -6   3   75.73    2.26
  -4  -6   3   76.83    2.48
  -4  -6   3   76.74    2.40
  -4  -6   3   76.45    2.85
  -4  -6   3   77.99    2.86
  -4  -6   3   74.66    3.42
  -4  -6   3   79.42    3.79
  -4  -6   3   74.57    2.91
  -4  -6   3   74.06    2.64
  -3  -6   3   27.93    1.54
  -3  -6   3   27.47    1.18
  -3  -6   3   25.80    1.10
  -3  -6   3   27.27    1.15
  -3  -6   3   25.64    1.04
  -3  -6   3   25.38    1.38
  -3  -6   3   25.66    0.97
  -3  -6   3   27.51    0.92
  -3  -6   3   27.11    0.86
  -3  -6   3   27.19    1.11
  -2  -6   3   28.90    1.21
  -2  -6   3   29.96    1.00
  -2  -6   3   28.07    1.12
  -2  -6   3   29.55    1.48
  -2  -6   3   29.57    0.94
  -2  -6   3   29.51    1.20
  -2  -6   3   29.97    1.27
   1   6  -3   60.53    2.36
  -1  -6   3   57.02    2.69
  -1  -6   3   63.06    1.92
  -1  -6   3   60.32    2.97
  -1  -6   3   59.38    3.05
  -1  -6   3   59.72    2.29
  -1  -6   3   59.74    2.57
  -1  -6   3   58.12    2.11
  -1  -6   3   60.87    1.99
  -1  -6   3   58.30    2.20
  -1  -6   3   60.27    2.33
  -1  -6   3   61.73    1.79
   0  -6   3    0.96    0.15
   0  -6   3    0.09    0.11
   0  -6   3    0.20    0.21
   0  -6   3    0.87    0.23
   0  -6   3    0.33    0.14
   0  -6   3    0.00    0.08
   0  -6   3    0.22    0.14
   0  -6   3    0.21    0.18
   0  -6   3    0.03    0.18
   0  -6   3    0.06    0.12
   0  -6   3    0.04    0.11
   1  -6   3   74.21    2.67
   1  -6   3   72.76    3.22
   1  -6   3   73.42    2.43
   1  -6   3   72.95    3.12
   1  -6   3   71.68    2.73
   1  -6   3   74.70    2.57
   1  -6   3   71.56    2.18
   1  -6   3   78.01    2.82
   1  -6   3   74.84    3.56
   2  -6   3   24.82    1.23
   2  -6   3   24.25    1.03
   2  -6   3   25.50    1.00
   2  -6   3   24.32    1.09
   2  -6   3   25.36    0.98
   2  -6   3   25.19    0.83
  -3   6  -3   13.62    0.81
   3  -6   3   13.70    0.69
   3  -6   3   13.89    0.62
   3  -6   3   14.27    0.76
   3  -6   3   13.45    0.59
  -4   6  -3   30.26    1.28
   4  -6   3   32.99    1.24
   4  -6   3   32.56    1.13
   4  -6   3   31.47    1.37
   4  -6   3   32.78    1.11
   8   5  -3    0.28    0.13
  -8  -5   3    0.17    0.15
  -8  -5   3    0.14    0.11
  -7  -5   3    1.70    0.23
  -7  -5   3    1.21    0.37
  -7  -5   3    1.70    0.36
  -7  -5   3    1.51    0.21
  -7  -5   3    1.44    0.26
  -7  -5   3    1.28    0.27
  -6  -5   3    1.95    0.28
  -6  -5   3    2.01    0.18
  -6  -5   3    2.26    0.27
  -6  -5   3    2.92    0.54
  -6  -5   3    2.77    0.23
  -6  -5   3    2.08    0.41
  -6  -5   3    2.59    0.27
  -6  -5   3    3.07    0.30
  -6  -5   3    2.06    0.28
  -6  -5   3    3.29    0.29
  -5  -5   3    2.04    0.23
  -5  -5   3    2.32    0.21
  -5  -5   3    2.53    0.36
  -5  -5   3    2.01    0.25
  -5  -5   3    2.53    0.25
  -5  -5   3    1.68    0.40
  -5  -5   3    1.66    0.36
  -5  -5   3    3.34    0.33
  -5  -5   3    2.54    0.31
  -5  -5   3    2.57    0.32
  -5  -5   3    2.30    0.19
  -4  -5   3   24.62    1.08
  -4  -5   3   24.83    1.02
  -4  -5   3   25.20    1.47
  -4  -5   3   24.16    0.85
  -4  -5   3   25.71    1.35
  -4  -5   3   24.80    1.09
  -3  -5   3   10.67    0.73
  -3  -5   3   12.18    0.46
  -3  -5   3   11.77    0.83
  -3  -5   3   11.76    0.54
  -2  -5   3   15.31    0.87
  -2  -5   3   15.25    0.95
  -2  -5   3   15.23    0.67
  -1  -5   3   38.35    1.81
  -1  -5   3   40.01    2.00
  -1  -5   3   38.27    1.50
   0  -5   3   33.49    1.34
   0  -5   3   33.07    1.79
   0  -5   3   33.98    1.76
   0  -5   3   34.04    1.12
   0  -5   3   34.18    1.61
   1  -5   3    0.03    0.15
   1  -5   3    0.34    0.17
   1  -5   3    0.27    0.11
   1  -5   3    0.07    0.16
   1  -5   3    0.24    0.17
   1  -5   3    0.10    0.09
   2  -5   3   23.60    1.23
   2  -5   3   23.37    0.97
   2  -5   3   25.17    1.36
   2  -5   3   24.74    1.03
   2  -5   3   24.22    0.97
   2  -5   3   23.92    0.80
   2  -5   3   25.20    1.07
   2  -5   3   23.87    1.06
   2  -5   3   24.10    1.20
   3  -5   3    0.14    0.12
   3  -5   3    0.31    0.20
   3  -5   3    0.06    0.15
   3  -5   3    0.06    0.13
   3  -5   3    0.11    0.16
  -4   5  -3    7.08    0.59
   4  -5   3    7.17    0.39
   4  -5   3    6.59    0.41
   4  -5   3    6.81    0.52
   4  -5   3    6.71    0.49
   4  -5   3    7.13    0.46
  -5   5  -3    6.71    0.47
   5  -5   3    6.92    0.37
   5  -5   3    7.57    0.41
   5  -5   3    7.51    0.34
  -8  -4   3   39.62    1.54
  -8  -4   3   38.77    1.40
  -8  -4   3   38.96    1.47
  -7  -4   3   39.09    1.62
  -7  -4   3   39.88    1.49
  -7  -4   3   41.85    1.56
  -6  -4   3  121.83    4.38
  -6  -4   3  124.43    4.71
  -6  -4   3  113.11    3.48
  -6  -4   3  126.70    5.22
  -6  -4   3  122.46    4.19
  -6  -4   3  117.68    4.05
  -6  -4   3  112.73    4.39
  -6  -4   3  129.43    5.78
  -6  -4   3  113.27    3.68
  -6  -4   3  115.38    4.27
  -5  -4   3    6.25    0.43
  -5  -4   3    6.45    0.38
  -5  -4   3    5.86    0.71
  -5  -4   3    7.14    0.68
  -5  -4   3    6.66    0.62
  -5  -4   3    6.32    0.31
  -4  -4   3   23.44    0.93
  -4  -4   3   21.70    1.32
  -4  -4   3   22.38    1.22
  -3  -4   3  231.54    7.99
  -3  -4   3  218.75   10.27
  -2  -4   3   18.87    1.06
  -2  -4   3   19.09    0.75
  -2  -4   3   18.28    1.11
  -1  -4   3  175.71    7.99
  -1  -4   3  185.85    6.27
  -1  -4   3  163.84    9.04
   0  -4   3   32.12    1.23
   0  -4   3   31.05    1.61
   1  -4   3  119.28    5.70
   1  -4   3  119.01    5.49
   1  -4   3  117.83    4.30
   1  -4   3  118.26    4.30
   2  -4   3  130.71    5.42
   2  -4   3  127.28    5.42
   2  -4   3  127.15    5.97
   2  -4   3  127.40    4.69
   2  -4   3  132.20    6.23
   3  -4   3    1.94    0.30
   3  -4   3    1.77    0.17
   3  -4   3    1.80    0.26
   3  -4   3    2.08    0.33
   3  -4   3    2.29    0.29
   3  -4   3    1.66    0.29
   3  -4   3    1.89    0.24
   3  -4   3    1.57    0.22
   3  -4   3    1.92    0.29
  -4   4  -3  142.54    5.31
   4  -4   3  155.06    6.27
   4  -4   3  143.39    4.98
   4  -4   3  149.38    4.80
   4  -4   3  149.27    5.21
   4  -4   3  148.10    5.90
  -5   4  -3   31.26    1.41
   5  -4   3   32.53    1.23
   5  -4   3   32.97    1.21
   5  -4   3   32.00    1.57
   5  -4   3   34.49    1.32
  -6   4  -3    4.51    0.34
   6  -4   3    4.96    0.28
   6  -4   3    4.85    0.26
   6  -4   3    4.66    0.30
   8   3  -3   67.03    2.67
  -8  -3   3   67.15    2.44
  -8  -3   3   70.16    2.37
  -8  -3   3   69.57    2.51
   7   3  -3   22.75    1.06
  -7  -3   3   23.11    1.04
  -7  -3   3   22.83    0.99
  -7  -3   3   23.60    1.10
  -7  -3   3   23.63    0.95
  -6  -3   3   16.18    0.81
  -6  -3   3   16.99    0.78
  -6  -3   3   16.11    1.22
  -6  -3   3   16.94    0.74
  -6  -3   3   18.06    0.85
  -6  -3   3   16.02    0.60
   5   3  -3   37.95    2.61
  -5  -3   3   38.08    2.52
  -5  -3   3   38.43    1.28
  -5  -3   3   42.03    1.94
  -5  -3   3   38.64    1.63
  -5  -3   3   38.34    1.52
  -5  -3   3   40.23    2.12
   4   3  -3    0.17    0.14
  -4  -3   3    0.33    0.21
  -4  -3   3    0.23    0.19
  -4  -3   3    0.08    0.08
   3   3  -3  103.38    5.76
   3   3  -3  113.97    6.62
  -3  -3   3  112.82    4.21
  -3  -3   3  104.24    5.09
  -3  -3   3  111.85    6.21
  -2  -3   3    0.63    0.13
  -2  -3   3    0.82    0.18
  -1  -3   3    6.36    0.44
   0  -3   3  165.31    8.51
   1  -3   3    4.34    0.38
   1  -3   3    4.30    0.32
   1  -3   3    4.21    0.35
   2  -3   3   63.13    2.99
   2  -3   3   65.50    3.09
   2  -3   3   59.92    2.88
   2  -3   3   62.11    2.33
   3  -3   3   14.34    0.76
   3  -3   3   13.67    0.87
   3  -3   3   14.89    0.91
   3  -3   3   15.19    0.61
   3  -3   3   14.30    0.80
   3  -3   3   15.27    0.81
  -4   3  -3   24.05    1.22
   4  -3   3   24.15    0.95
   4  -3   3   24.33    1.03
   4  -3   3   24.15    1.16
   4  -3   3   24.94    0.98
   4  -3   3   24.83    0.81
   4  -3   3   24.36    1.35
   4  -3   3   25.30    1.25
   4  -3   3   23.21    1.20
  -5   3  -3   31.18    1.46
   5  -3   3   34.15    1.24
   5  -3   3   33.19    1.34
   5  -3   3   35.64    1.64
   5  -3   3   32.11    1.27
  -6   3  -3    5.83    0.48
   6  -3   3    5.98    0.36
   6  -3   3    6.41    0.37
   6  -3   3    5.78    0.38
   6  -3   3    5.15    0.44
   7  -3   3    3.72    0.22
   7  -3   3    3.78    0.22
   8   2  -3   54.13    2.15
  -8  -2   3   52.13    1.89
  -8  -2   3   54.55    1.95
   7   2  -3   27.80    1.26
  -7  -2   3   28.48    1.11
  -7  -2   3   27.90    1.16
  -7  -2   3   29.15    1.30
  -7  -2   3   27.04    1.19
   6   2  -3   23.65    1.10
  -6  -2   3   24.69    1.03
  -6  -2   3   25.67    1.12
  -6  -2   3   22.52    0.79
  -6  -2   3   23.89    0.96
  -6  -2   3   21.05    1.02
   5   2  -3   54.26    3.48
  -5  -2   3   51.03    3.27
  -5  -2   3   53.03    2.02
  -5  -2   3   54.98    2.51
  -5  -2   3   52.42    2.16
  -5  -2   3   52.92    1.71
   4   2  -3    6.20    0.61
  -4  -2   3    6.40    0.56
  -4  -2   3    6.12    0.60
  -4  -2   3    6.22    0.37
  -4  -2   3    6.44    0.36
  -4  -2   3    6.46    0.33
   3   2  -3  143.36    8.52
   3   2  -3  139.17    7.37
  -3  -2   3  144.17    5.40
  -3  -2   3  137.72    7.92
   2   2  -3   26.92    1.49
   2   2  -3   24.44    1.69
  -2  -2   3   27.76    1.59
   1   2  -3   62.44    4.18
  -1  -2   3   76.96    3.62
   0  -2   3  146.18    7.49
   1  -2   3  133.05    6.25
   1  -2   3  132.55    6.84
   2  -2   3  134.19    5.91
   2  -2   3  128.50    6.76
   2  -2   3  127.88    6.17
   3  -2   3  118.59    5.58
   3  -2   3  130.67    5.86
   3  -2   3  121.97    5.62
   3  -2   3  116.82    6.39
   4  -2   3    0.23    0.12
   4  -2   3    0.05    0.14
   4  -2   3    0.35    0.16
  -5   2  -3    3.99    0.48
   5  -2   3    3.77    0.33
   5  -2   3    3.45    0.38
   5  -2   3    3.74    0.32
   5  -2   3    4.71    0.31
   5  -2   3    3.54    0.31
  -6   2  -3   15.51    0.88
   6  -2   3   16.91    0.89
   6  -2   3   15.28    0.67
   6  -2   3   15.12    0.70
   6  -2   3   14.57    0.71
   7  -2   3    5.74    0.44
   7  -2   3    6.67    0.34
   7  -2   3    6.28    0.35
   8   1  -3    9.27    0.51
  -8  -1   3    8.91    0.48
  -8  -1   3    8.73    0.44
   7   1  -3   33.01    1.46
  -7  -1   3   34.10    1.35
  -7  -1   3   32.92    1.28
   6   1  -3    0.55    0.20
  -6  -1   3    0.70    0.20
  -6  -1   3    0.85    0.20
  -6  -1   3    0.70    0.19
  -6  -1   3    0.89    0.22
   5   1  -3   54.14    3.45
  -5  -1   3   52.04    2.50
  -5  -1   3   51.30    3.21
  -5  -1   3   50.98    2.13
   4   1  -3   75.85    4.58
  -4  -1   3   73.52    3.38
  -4  -1   3   66.79    2.65
  -4  -1   3   74.03    2.86
  -4  -1   3   72.73    4.25
   3   1  -3   64.69    3.71
   3   1  -3   68.66    4.28
  -3  -1   3   72.09    3.17
  -3  -1   3   69.98    3.98
   2   1  -3   38.47    2.03
   2   1  -3   31.92    2.31
  -2  -1   3   40.20    2.17
   1   1  -3  301.98   15.73
  -1  -1   3  283.19   14.35
  -1  -1   3  341.07   16.98
   0  -1   3  924.11   47.08
  -1   1  -3   85.06    4.69
   1  -1   3   84.11    3.98
   1  -1   3   85.24    4.36
  -2   1  -3   87.21    5.02
   2  -1   3   88.31    4.66
   2  -1   3   91.58    4.10
   2  -1   3   93.40    4.28
   3  -1   3   77.08    3.52
   3  -1   3   76.25    4.02
   3  -1   3   72.50    3.55
   3  -1   3   79.37    3.69
   4  -1   3   10.28    0.63
   4  -1   3   12.48    0.73
   4  -1   3   10.60    0.62
   4  -1   3   11.57    0.71
   5  -1   3   10.90    0.67
   5  -1   3   12.09    0.69
   6  -1   3  107.03    4.17
   6  -1   3  105.25    3.50
   6  -1   3  109.39    4.58
   7  -1   3   13.55    0.57
   7  -1   3   12.59    0.73
   7  -1   3   12.42    0.68
   7  -1   3   12.92    0.61
   8  -1   3   17.87    0.80
   8  -1   3   19.89    0.73
   8   0  -3   33.02    1.37
  -8   0   3   33.69    1.24
  -8   0   3   33.03    1.19
   7   0  -3   17.73    0.89
  -7   0   3   18.01    0.83
  -7   0   3   17.87    0.78
   6   0  -3   18.34    0.93
  -6   0   3   18.06    0.90
   5   0  -3   93.58    5.81
  -5   0   3   89.27    3.64
  -5   0   3   92.27    4.31
   4   0  -3   21.38    1.57
  -4   0   3   22.23    1.45
  -4   0   3   21.49    1.12
  -4   0   3   21.64    0.95
  -4   0   3   19.91    0.88
   3   0  -3    4.93    0.51
   3   0  -3    4.96    0.48
  -3   0   3    4.97    0.33
  -3   0   3    4.87    0.45
   2   0  -3  119.38    6.34
   2   0  -3  103.75    7.33
  -2   0   3  127.48    5.53
  -2   0   3  136.42    6.82
   1   0  -3   41.83    2.16
  -1   0   3   39.06    1.91
  -1   0  -3    7.04    0.47
  -1   0  -3    7.12    0.40
   1   0   3    7.48    0.39
   1   0   3    6.73    0.36
  -2   0  -3    7.32    0.48
  -2   0  -3    6.28    0.43
   2   0   3    6.59    0.35
   2   0   3    7.09    0.40
   2   0   3    7.13    0.39
  -3   0  -3   13.05    0.88
   3   0   3   13.85    0.69
   3   0   3   13.79    0.78
   3   0   3   12.98    0.94
   3   0   3   13.20    0.73
  -4   0  -3   18.05    1.36
   4   0   3   22.94    1.49
   4   0   3   22.77    1.17
   4   0   3   21.34    1.08
   4   0   3   21.61    1.15
   5   0   3   14.59    0.83
   5   0   3   15.67    0.80
   5   0   3   14.28    0.83
   5   0   3   15.28    1.17
   6   0   3   56.72    2.27
   6   0   3   51.55    2.67
   6   0   3   58.31    2.47
   8   0   3   43.34    1.80
   8   0   3   45.59    1.60
  -8   1   3    4.59    0.24
   7  -1  -3   34.17    1.48
  -7   1   3   34.04    1.30
  -7   1   3   36.49    1.37
   6  -1  -3    0.47    0.19
  -6   1   3    0.21    0.16
  -6   1   3   -0.11    0.18
   5  -1  -3   59.73    2.63
  -5   1   3   63.68    2.31
  -5   1   3   53.88    2.45
  -5   1   3   59.20    2.89
   4  -1  -3   95.30    4.13
   4  -1  -3   99.24    6.07
  -4   1   3   98.74    4.54
  -4   1   3   93.89    3.81
   3  -1  -3   10.22    0.89
  -3   1   3   10.75    0.63
  -3   1   3   11.67    0.55
   2  -1  -3   98.17    5.10
   2  -1  -3   84.83    5.88
  -2   1   3  106.49    4.44
   1  -1  -3   70.61    3.73
  -1   1   3   68.96    3.36
  -1   1   3   73.24    3.25
   0  -1  -3    3.20    0.23
   0   1   3    2.98    0.19
   0   1   3    2.65    0.23
   0   1   3    2.59    0.19
  -1  -1  -3   41.71    2.26
  -1  -1  -3   48.00    2.53
  -1  -1  -3   45.70    2.27
   1   1   3   42.68    2.11
   1   1   3   43.96    2.02
  -2  -1  -3  151.43    8.17
   2   1   3  142.75    6.66
   2   1   3  147.99    6.90
  -3  -1  -3   57.78    3.33
   3   1   3   58.97    2.69
   3   1   3   56.98    2.80
   3   1   3   58.08    3.57
  -4  -1  -3   68.00    4.27
   4   1   3   78.51    4.59
   4   1   3   73.58    3.60
   4   1   3   76.55    3.45
  -5  -1  -3    7.53    0.73
   5   1   3    8.29    0.74
   5   1   3    8.08    0.49
   5   1   3    8.03    0.52
   6   1   3   26.23    1.86
   6   1   3   24.86    1.34
   6   1   3   24.02    1.22
   6   1   3   26.98    1.17
  -7  -1  -3    0.77    0.50
  -7  -1  -3    0.80    0.43
   7   1   3    1.67    0.23
  -8  -1  -3    9.77    1.00
  -8  -1  -3   11.87    0.93
   8   1   3   14.74    0.68
   9   1   3   34.79    1.38
   9   1   3   34.29    1.22
   7  -2  -3   32.87    1.34
  -7   2   3   31.80    1.18
  -7   2   3   32.35    1.24
   6  -2  -3   25.47    1.18
   6  -2  -3   26.19    1.29
  -6   2   3   26.07    1.14
   5  -2  -3    3.33    0.39
   5  -2  -3    3.35    0.38
  -5   2   3    3.00    0.39
  -5   2   3    3.13    0.41
   4  -2  -3   43.22    2.01
  -4   2   3   42.97    2.18
   3  -2  -3   47.88    2.22
   3  -2  -3   49.85    3.18
  -3   2   3   47.47    2.36
   2  -2  -3   52.83    3.60
   2  -2  -3   56.24    3.11
  -2   2   3   62.08    2.72
   1  -2  -3    0.94    0.18
  -1   2   3    0.64    0.13
  -1   2   3    1.19    0.14
   0  -2  -3   11.41    0.68
   0   2   3   11.56    0.62
   0   2   3   11.02    0.62
  -1  -2  -3   87.15    4.58
  -1  -2  -3   86.49    4.18
   1   2   3   76.91    3.75
   1   2   3   80.40    4.22
   1   2   3   77.25    3.88
  -2  -2  -3    8.38    0.56
   2   2   3    7.72    0.44
   2   2   3    7.46    0.45
  -3  -2  -3   63.67    3.61
   3   2   3   64.22    2.92
   3   2   3   60.43    3.03
  -4  -2  -3  121.53    7.34
   4   2   3  136.02    7.87
   4   2   3  132.56    5.97
  -5  -2  -3    0.14    0.32
  -5  -2  -3    0.59    0.26
  -5  -2  -3    0.17    0.30
   5   2   3    0.19    0.16
   5   2   3    0.49    0.14
  -7  -2  -3    3.62    0.69
  -7  -2  -3    2.98    0.55
  -8  -2  -3    8.63    0.92
  -8  -2  -3   10.05    0.87
   9   2   3    9.43    0.48
   6  -3  -3   21.48    0.96
   6  -3  -3   21.55    1.08
  -6   3   3   22.15    0.94
   5  -3  -3    3.19    0.40
   5  -3  -3    2.95    0.35
   5  -3  -3    2.42    0.26
  -5   3   3    3.19    0.41
   4  -3  -3   64.33    2.21
   4  -3  -3   61.25    2.37
   4  -3  -3   66.92    2.90
  -4   3   3   65.92    2.49
  -4   3   3   61.47    3.14
   3  -3  -3   20.76    1.11
  -3   3   3   19.19    1.14
   2  -3  -3   42.07    2.10
  -2   3   3   44.02    2.14
   1  -3  -3   15.83    0.96
   1  -3  -3   14.10    1.11
  -1   3   3   14.49    0.86
  -1   3   3   17.21    0.87
   0  -3  -3   46.06    2.38
   0   3   3   45.88    2.14
   0   3   3   40.98    2.18
  -1  -3  -3  577.09   25.87
  -1  -3  -3  613.77   29.19
  -1  -3  -3  634.33   31.55
   1   3   3  552.61   25.91
   1   3   3  495.73   26.76
  -2  -3  -3  204.61   10.96
  -2  -3  -3  211.53   10.07
   2   3   3  176.41    9.30
   2   3   3  198.42    9.02
  -3  -3  -3   53.18    2.93
  -3  -3  -3   49.48    2.36
   3   3   3   51.07    2.39
   3   3   3   45.82    2.46
  -4  -3  -3   77.19    4.55
   4   3   3   79.54    3.68
  -5  -3  -3   50.01    3.19
   5   3   3   57.07    3.36
   5   3   3   49.41    2.53
  -6  -3  -3   10.31    0.90
  -6  -3  -3   10.81    0.98
  -7  -3  -3   32.36    2.01
  -7  -3  -3   30.56    1.78
  -8  -3  -3    0.27    0.38
  -8  -3  -3    0.37    0.35
   8   3   3    0.58    0.16
  -9  -3  -3    8.86    0.69
   9   3   3    9.72    0.49
   6  -4  -3    2.81    0.19
  -6   4   3    2.64    0.23
  -6   4   3    2.66    0.23
   5  -4  -3    3.54    0.28
   5  -4  -3    3.23    0.37
  -5   4   3    3.79    0.38
   4  -4  -3    6.02    0.41
   4  -4  -3    6.34    0.52
   4  -4  -3    6.02    0.43
  -4   4   3    6.16    0.53
   3  -4  -3   16.71    0.96
   3  -4  -3   15.37    0.73
   3  -4  -3   15.37    0.78
  -3   4   3   14.91    0.88
  -3   4   3   14.95    0.98
   2  -4  -3    0.13    0.20
  -2   4   3    0.13    0.17
   1  -4  -3   32.91    1.69
  -1   4   3   36.04    1.79
   0  -4  -3   15.55    0.99
   0  -4  -3   17.50    0.93
   0   4   3   16.08    0.93
  -1  -4  -3    2.48    0.26
  -1  -4  -3    2.78    0.25
  -1  -4  -3    2.45    0.24
   1   4   3    2.32    0.29
  -2  -4  -3  179.44    9.79
  -2  -4  -3  184.37    8.02
   2   4   3  163.43    8.08
  -3  -4  -3    8.73    0.69
  -3  -4  -3    8.84    0.53
   3   4   3    8.68    0.58
  -4  -4  -3   68.21    4.11
  -4  -4  -3   71.55    3.30
  -5  -4  -3    2.01    0.27
  -5  -4  -3    1.67    0.38
  -5  -4  -3    1.96    0.44
  -5  -4  -3    2.27    0.46
   5   4   3    1.84    0.29
  -6  -4  -3   16.35    0.96
  -6  -4  -3   12.89    1.04
  -6  -4  -3   15.05    1.19
   6   4   3   16.74    0.96
  -7  -4  -3    3.48    0.56
  -7  -4  -3    4.26    0.69
   7   4   3    4.37    0.38
   7   4   3    4.56    0.37
  -8  -4  -3    0.51    0.33
  -8  -4  -3    0.76    0.40
   8   4   3    0.07    0.13
  -9  -4  -3    4.85    0.49
   9   4   3    4.08    0.30
   5  -5  -3   15.30    0.65
   5  -5  -3   17.07    0.62
  -5   5   3   15.07    0.68
   4  -5  -3    5.56    0.46
   4  -5  -3    5.22    0.35
   4  -5  -3    4.76    0.37
  -4   5   3    4.43    0.43
   3  -5  -3  101.17    3.28
   3  -5  -3  101.35    4.28
   3  -5  -3   94.24    3.54
  -3   5   3   94.99    3.58
   2  -5  -3    9.32    0.53
   2  -5  -3    8.68    0.65
   2  -5  -3    9.28    0.58
   2  -5  -3    7.88    0.64
  -2   5   3    8.20    0.69
  -2   5   3    8.60    0.65
  -2   5   3    6.82    0.48
   1  -5  -3   86.96    3.64
   1  -5  -3   83.54    3.91
  -1   5   3   75.07    3.95
  -1   5   3   81.59    3.06
   0  -5  -3   80.71    3.73
   0  -5  -3   89.57    4.02
   0   5   3   84.60    4.10
  -1  -5  -3   14.06    0.77
   1   5   3   12.21    0.84
  -2  -5  -3  104.02    4.69
   2   5   3   97.11    4.77
  -3  -5  -3   44.87    2.16
  -3  -5  -3   45.61    2.69
   3   5   3   42.20    2.23
  -4  -5  -3  101.30    5.69
  -4  -5  -3  100.84    4.57
  -4  -5  -3   91.01    4.61
   4   5   3   97.09    4.63
  -5  -5  -3  183.22    8.18
  -5  -5  -3  171.53    8.24
  -5  -5  -3  175.51    7.49
  -5  -5  -3  180.82   10.14
   5   5   3  175.62    8.22
  -6  -5  -3   48.15    2.39
  -6  -5  -3   48.06    2.56
  -6  -5  -3   46.60    2.32
   6   5   3   43.97    2.39
   6   5   3   49.82    1.81
  -7  -5  -3   85.27    3.91
  -7  -5  -3   89.31    4.32
   7   5   3   84.55    3.11
  -8  -5  -3   42.56    2.36
  -8  -5  -3   43.74    2.16
   8   5   3   45.07    1.67
  -9  -5  -3    1.23    0.27
   4  -6  -3    0.65    0.13
   4  -6  -3    0.77    0.12
  -4   6   3    0.79    0.18
   3  -6  -3    1.32    0.25
   3  -6  -3    0.82    0.18
   3  -6  -3    1.25    0.20
  -3   6   3    0.99    0.25
   2  -6  -3    0.73    0.22
   2  -6  -3    0.52    0.19
   2  -6  -3    0.75    0.24
   2  -6  -3    0.24    0.14
  -2   6   3    0.47    0.15
  -2   6   3    0.90    0.29
   1  -6  -3    0.42    0.23
   1  -6  -3    0.31    0.20
   1  -6  -3    0.47    0.21
   1  -6  -3    0.49    0.17
   1  -6  -3    0.39    0.18
  -1   6   3    0.23    0.14
  -1   6   3    0.12    0.26
   0  -6  -3    3.05    0.36
   0  -6  -3    2.65    0.31
   0  -6  -3    2.33    0.37
   0  -6  -3    2.70    0.42
   0   6   3    2.61    0.29
   0   6   3    2.49    0.45
  -1  -6  -3    0.13    0.13
   1   6   3    0.34    0.24
   1   6   3    0.11    0.16
  -2  -6  -3   13.53    0.78
   2   6   3   13.74    0.69
   2   6   3   11.50    0.87
  -3  -6  -3    1.04    0.21
   3   6   3    1.25    0.25
   3   6   3    0.46    0.20
  -4  -6  -3    1.44    0.29
  -4  -6  -3    1.82    0.27
  -4  -6  -3    2.17    0.35
   4   6   3    2.30    0.29
   4   6   3    1.15    0.27
  -5  -6  -3   43.39    2.27
  -5  -6  -3   46.25    2.38
  -5  -6  -3   46.84    2.19
   5   6   3   46.95    1.76
  -6  -6  -3   11.22    0.88
  -6  -6  -3   10.22    0.72
  -6  -6  -3   10.63    0.79
   6   6   3   11.24    0.59
  -7  -6  -3    7.80    0.74
  -7  -6  -3    9.04    0.71
   7   6   3    7.51    0.47
  -8  -6  -3    4.86    0.58
  -8  -6  -3    4.92    0.52
   8   6   3    4.64    0.35
  -9  -6  -3    2.19    0.31
   9   6   3    2.10    0.20
   3  -7  -3   36.35    1.21
   3  -7  -3   36.60    1.33
  -3   7   3   33.48    1.30
   2  -7  -3   18.43    0.88
   2  -7  -3   17.67    0.72
   2  -7  -3   18.62    0.80
  -2   7   3   16.65    0.82
   1  -7  -3    0.87    0.20
   1  -7  -3    1.05    0.19
   1  -7  -3    0.87    0.22
  -1   7   3    0.82    0.18
   0  -7  -3   91.33    3.66
   0  -7  -3   83.60    3.18
   0  -7  -3   87.56    2.91
   0   7   3   86.23    3.27
  -1  -7  -3   33.54    1.41
  -1  -7  -3   35.84    1.66
  -1  -7  -3   32.09    1.77
   1   7   3   34.23    1.42
  -2  -7  -3    9.48    0.64
  -2  -7  -3    9.89    0.75
   2   7   3    9.97    0.59
  -3  -7  -3   46.51    2.29
  -3  -7  -3   44.45    2.14
   3   7   3   47.30    1.87
  -4  -7  -3   23.95    1.30
   4   7   3   24.19    1.02
   4   7   3   23.74    1.09
  -5  -7  -3   24.83    1.39
  -5  -7  -3   25.72    1.28
   5   7   3   23.92    1.03
   5   7   3   22.92    1.08
  -6  -7  -3   43.73    2.28
  -6  -7  -3   43.72    2.08
   6   7   3   43.98    1.69
  -7  -7  -3    8.49    0.65
  -7  -7  -3    7.59    0.68
   7   7   3    7.86    0.47
  -8  -7  -3   60.60    2.71
   8   7   3   61.57    2.22
  -9  -7  -3   18.59    0.71
  -9  -7  -3   17.90    0.71
   9   7   3   16.97    0.69
   2  -8  -3   14.92    0.61
   1  -8  -3    4.70    0.35
   1  -8  -3    4.13    0.26
   1  -8  -3    3.50    0.30
  -1   8   3    3.60    0.28
   0  -8  -3    0.43    0.16
   0  -8  -3    0.46    0.19
   0   8   3    0.34    0.14
  -1  -8  -3    0.60    0.21
  -1  -8  -3    0.78    0.20
   1   8   3    0.82    0.19
  -2  -8  -3    0.19    0.19
   2   8   3    0.33    0.17
  -3  -8  -3    0.34    0.21
   3   8   3    0.32    0.17
  -4  -8  -3   13.85    0.84
   4   8   3   14.14    0.73
   5   8   3    2.93    0.32
   5   8   3    2.46    0.26
  -6  -8  -3    0.52    0.21
   6   8   3    0.54    0.16
  -7  -8  -3    0.21    0.18
   7   8   3    0.26    0.12
  -8  -8  -3    1.89    0.20
   8   8   3    1.48    0.18
   0  -9  -3   15.80    0.73
   0  -9  -3   15.33    0.62
  -1  -9  -3   82.59    3.20
   1   9   3   75.21    2.88
  -2  -9  -3    0.86    0.21
   2   9   3    1.16    0.18
  -3  -9  -3   96.09    3.88
   3   9   3   95.43    3.53
  -4  -9  -3   55.01    2.28
   4   9   3   53.06    2.07
   5   9   3    6.96    0.42
  -6  -9  -3   86.13    2.87
   6   9   3   80.79    2.92
  -7  -9  -3   10.94    0.49
   7   9   3   10.26    0.46
  -3 -10  -3    0.10    0.10
  -3 -10  -3    0.13    0.09
   3  10   3    0.21    0.10
  -4 -10  -3    0.11    0.12
   4  10   3    0.24    0.10
  -5 -10  -3    0.32    0.11
   5   9  -4   34.53    1.38
  -5  -9   4   35.75    1.15
  -5  -9   4   35.64    1.15
   4   9  -4   43.17    1.70
  -4  -9   4   46.84    1.44
  -4  -9   4   42.58    1.56
   3   9  -4    8.62    0.49
  -3  -9   4   10.28    0.44
  -3  -9   4   10.42    0.41
  -2  -9   4   34.15    1.12
  -2  -9   4   33.51    1.23
  -1  -9   4    0.07    0.07
  -7  -8   4    0.77    0.11
  -6  -8   4    2.29    0.20
  -6  -8   4    2.28    0.16
  -6  -8   4    2.24    0.24
  -6  -8   4    2.36    0.30
  -5  -8   4    1.57    0.13
  -5  -8   4    1.63    0.17
  -5  -8   4    1.62    0.16
  -5  -8   4    1.61    0.21
  -5  -8   4    1.45    0.27
  -5  -8   4    1.74    0.24
  -5  -8   4    1.35    0.28
  -5  -8   4    1.36    0.19
   4   8  -4    0.43    0.18
  -4  -8   4    0.56    0.23
  -4  -8   4    0.39    0.14
  -4  -8   4    0.59    0.16
  -4  -8   4    0.63    0.10
  -4  -8   4    0.61    0.13
  -4  -8   4    0.82    0.13
  -4  -8   4    0.53    0.20
   3   8  -4    2.64    0.31
  -3  -8   4    2.34    0.36
  -3  -8   4    2.88    0.27
  -3  -8   4    3.12    0.23
  -3  -8   4    2.83    0.35
  -3  -8   4    2.48    0.18
  -3  -8   4    2.42    0.21
  -3  -8   4    2.61    0.25
  -3  -8   4    2.61    0.23
   2   8  -4    3.45    0.36
  -2  -8   4    3.07    0.19
  -2  -8   4    3.28    0.29
  -2  -8   4    3.47    0.37
  -2  -8   4    3.62    0.25
  -2  -8   4    3.28    0.39
  -2  -8   4    2.92    0.28
  -2  -8   4    2.56    0.27
  -2  -8   4    3.47    0.23
  -1  -8   4    0.25    0.13
  -1  -8   4    0.16    0.16
  -1  -8   4    0.11    0.12
  -1  -8   4    0.19    0.10
  -1  -8   4    0.14    0.15
  -1  -8   4    0.27    0.08
   0  -8   4   19.00    0.92
   0  -8   4   18.24    0.76
   0  -8   4   18.21    0.69
  -1   8  -4    1.22    0.24
   1  -8   4    1.13    0.13
   1  -8   4    1.03    0.18
   8   7  -4    4.48    0.26
   7   7  -4   44.14    1.65
  -7  -7   4   45.36    2.03
  -7  -7   4   44.43    1.72
  -7  -7   4   45.53    1.47
  -7  -7   4   43.40    1.68
   6   7  -4   29.22    1.16
  -6  -7   4   29.61    1.14
  -6  -7   4   29.11    1.20
  -6  -7   4   26.35    1.59
  -6  -7   4   26.05    1.17
  -6  -7   4   29.50    1.23
  -6  -7   4   30.05    1.02
  -6  -7   4   29.72    0.99
  -6  -7   4   29.80    0.91
  -6  -7   4   28.46    1.46
  -5  -7   4   11.62    0.88
  -5  -7   4   13.05    0.83
  -5  -7   4   11.94    0.64
  -5  -7   4   12.20    0.61
  -5  -7   4   12.54    0.68
  -5  -7   4   12.15    0.60
  -5  -7   4   11.56    0.45
  -5  -7   4   11.62    0.52
  -5  -7   4   12.57    0.51
  -4  -7   4   54.41    2.12
  -4  -7   4   59.04    2.59
  -4  -7   4   53.85    1.84
  -4  -7   4   56.32    2.20
  -4  -7   4   54.08    1.88
  -4  -7   4   56.27    1.78
  -4  -7   4   55.79    2.83
  -4  -7   4   54.07    2.05
  -4  -7   4   56.95    2.13
  -4  -7   4   54.93    1.67
  -3  -7   4   10.28    0.45
  -3  -7   4   10.65    0.55
  -3  -7   4   10.27    0.48
  -3  -7   4    9.56    0.45
  -3  -7   4   10.96    0.80
  -3  -7   4   10.18    0.60
  -3  -7   4   10.76    0.56
  -3  -7   4   11.50    0.75
  -3  -7   4   10.42    0.41
   2   7  -4   67.91    2.76
  -2  -7   4   68.11    2.31
  -2  -7   4   74.94    3.19
  -2  -7   4   70.82    2.11
  -2  -7   4   71.62    2.25
  -2  -7   4   68.95    2.58
  -2  -7   4   66.28    2.40
  -2  -7   4   75.68    2.70
  -2  -7   4   76.23    3.52
  -1  -7   4  106.57    3.86
  -1  -7   4  103.11    3.23
  -1  -7   4  102.04    3.48
  -1  -7   4  105.08    3.69
  -1  -7   4  105.43    3.86
  -1  -7   4  107.89    4.50
  -1  -7   4  100.05    3.33
  -1  -7   4  103.20    4.28
  -1  -7   4  103.62    3.04
  -1  -7   4  108.01    4.96
   0  -7   4    0.36    0.18
   0  -7   4    0.54    0.22
   0  -7   4    0.33    0.11
   0  -7   4    0.21    0.13
   0  -7   4    0.19    0.08
   0  -7   4    0.10    0.11
   0  -7   4    0.27    0.14
   0  -7   4    0.36    0.20
   1  -7   4   51.05    2.23
   1  -7   4   51.46    1.73
   1  -7   4   52.23    1.89
   1  -7   4   51.05    1.72
   1  -7   4   50.60    1.53
  -2   7  -4   62.03    2.38
   2  -7   4   65.54    2.62
   2  -7   4   60.95    2.27
   2  -7   4   62.60    2.04
  -3   7  -4   14.14    0.68
   3  -7   4   15.34    0.70
   8   6  -4    5.46    0.32
  -8  -6   4    5.09    0.33
  -8  -6   4    4.91    0.27
   7   6  -4    3.07    0.31
  -7  -6   4    2.84    0.31
  -7  -6   4    2.79    0.39
  -7  -6   4    2.21    0.38
  -7  -6   4    3.07    0.35
  -7  -6   4    3.06    0.25
  -7  -6   4    3.18    0.28
  -7  -6   4    3.34    0.21
  -7  -6   4    2.98    0.31
  -6  -6   4    0.56    0.28
  -6  -6   4    0.80    0.14
  -6  -6   4    0.87    0.23
  -6  -6   4    0.53    0.11
  -6  -6   4    0.68    0.13
  -6  -6   4    0.75    0.19
  -6  -6   4    0.67    0.21
  -6  -6   4    0.62    0.16
  -6  -6   4    0.97    0.32
  -6  -6   4    0.60    0.15
  -6  -6   4    0.60    0.19
  -5  -6   4    0.62    0.20
  -5  -6   4    0.40    0.12
  -5  -6   4    0.26    0.16
  -5  -6   4    0.36    0.26
  -5  -6   4    0.68    0.12
  -5  -6   4    0.24    0.14
  -5  -6   4    0.68    0.28
  -5  -6   4    0.48    0.21
  -5  -6   4    0.44    0.13
  -5  -6   4    0.59    0.20
  -5  -6   4    0.49    0.12
  -4  -6   4    4.94    0.42
  -4  -6   4    5.18    0.35
  -4  -6   4    4.85    0.26
  -4  -6   4    4.84    0.32
  -4  -6   4    5.23    0.31
  -4  -6   4    4.59    0.52
  -4  -6   4    5.06    0.29
  -4  -6   4    4.68    0.55
  -4  -6   4    5.23    0.39
  -4  -6   4    5.39    0.43
  -3  -6   4    0.82    0.27
  -3  -6   4    0.37    0.10
  -3  -6   4    0.43    0.13
  -3  -6   4    0.29    0.12
  -3  -6   4    0.57    0.19
  -3  -6   4    0.42    0.18
  -3  -6   4    0.44    0.26
  -3  -6   4    0.33    0.13
  -3  -6   4    0.44    0.11
  -3  -6   4    0.45    0.17
  -2  -6   4    0.05    0.16
  -2  -6   4    0.12    0.15
  -2  -6   4    0.14    0.19
  -2  -6   4    0.12    0.12
  -2  -6   4    0.02    0.09
  -2  -6   4    0.20    0.09
  -2  -6   4    0.28    0.22
  -2  -6   4    0.25    0.09
  -2  -6   4    0.35    0.13
  -1  -6   4    2.64    0.37
  -1  -6   4    2.53    0.34
  -1  -6   4    2.19    0.26
  -1  -6   4    2.97    0.27
  -1  -6   4    2.43    0.25
  -1  -6   4    2.40    0.21
  -1  -6   4    2.36    0.32
  -1  -6   4    2.15    0.22
  -1  -6   4    2.43    0.19
  -1  -6   4    2.57    0.41
  -1  -6   4    2.18    0.35
   0  -6   4    0.98    0.13
   0  -6   4    0.79    0.23
   0  -6   4    1.11    0.19
   0  -6   4    0.45    0.14
   0  -6   4    0.95    0.29
   0  -6   4    0.73    0.15
   0  -6   4    0.62    0.13
   0  -6   4    0.77    0.16
   0  -6   4    0.51    0.21
   0  -6   4    0.96    0.20
   1  -6   4    0.31    0.19
   1  -6   4    0.31    0.19
   1  -6   4    0.24    0.21
   1  -6   4    0.02    0.17
   1  -6   4    0.23    0.12
   1  -6   4    0.48    0.17
   1  -6   4    0.21    0.12
   1  -6   4    0.63    0.11
   1  -6   4    0.21    0.13
   2  -6   4    8.09    0.48
   2  -6   4    7.94    0.41
   2  -6   4    9.02    0.59
   2  -6   4    8.52    0.35
   2  -6   4    8.89    0.45
   2  -6   4    8.49    0.54
  -3   6  -4   -0.09    0.22
   3  -6   4    0.20    0.13
   3  -6   4    0.16    0.15
   3  -6   4    0.04    0.09
   3  -6   4    0.22    0.15
  -4   6  -4    0.18    0.17
   4  -6   4   -0.04    0.10
   4  -6   4    0.20    0.11
   4  -6   4    0.11    0.10
   8   5  -4   21.42    0.87
  -8  -5   4   23.12    0.91
  -8  -5   4   19.45    0.88
  -8  -5   4   20.69    0.83
  -8  -5   4   20.53    0.77
  -7  -5   4   19.16    0.73
  -7  -5   4   18.44    0.86
  -7  -5   4   18.17    0.71
  -7  -5   4   17.97    0.87
  -7  -5   4   18.26    0.64
  -7  -5   4   18.00    0.81
  -7  -5   4   19.08    0.90
  -6  -5   4   85.07    3.74
  -6  -5   4   81.31    3.16
  -6  -5   4   82.03    2.47
  -6  -5   4   81.80    3.13
  -6  -5   4   81.01    2.69
  -6  -5   4   87.15    4.15
  -6  -5   4   83.06    2.62
  -6  -5   4   83.81    3.00
  -6  -5   4   83.04    3.07
  -6  -5   4   81.41    2.84
  -6  -5   4   88.88    3.13
  -5  -5   4    0.12    0.09
  -5  -5   4    0.22    0.11
  -5  -5   4    0.08    0.15
  -5  -5   4    0.98    0.17
  -5  -5   4    0.38    0.17
  -5  -5   4    0.23    0.19
  -5  -5   4    0.33    0.26
  -5  -5   4    0.09    0.11
  -5  -5   4    0.34    0.21
  -5  -5   4    0.24    0.27
  -5  -5   4    0.21    0.10
  -4  -5   4  121.43    3.64
  -4  -5   4  119.42    4.01
  -4  -5   4  120.31    4.33
  -4  -5   4  118.40    5.69
  -4  -5   4  119.35    4.32
  -4  -5   4  115.54    5.15
  -4  -5   4  123.09    4.41
  -4  -5   4  119.49    4.01
  -4  -5   4  116.50    3.46
  -3  -5   4   49.36    1.97
  -3  -5   4   50.16    2.32
  -3  -5   4   49.95    1.88
  -3  -5   4   48.78    2.55
  -3  -5   4   48.99    1.96
  -3  -5   4   51.61    1.59
  -2  -5   4    2.38    0.17
  -2  -5   4    1.94    0.20
  -2  -5   4    2.49    0.36
  -2  -5   4    2.47    0.40
  -1  -5   4   93.88    3.44
  -1  -5   4   95.59    2.89
  -1  -5   4   93.51    4.47
  -1  -5   4   93.78    4.06
   0  -5   4    5.45    0.29
   0  -5   4    5.61    0.46
   0  -5   4    5.29    0.34
   0  -5   4    5.45    0.50
   0  -5   4    5.13    0.45
   1  -5   4   50.18    2.47
   1  -5   4   50.29    1.90
   1  -5   4   49.00    1.65
   1  -5   4   49.24    1.48
   1  -5   4   49.57    1.59
   1  -5   4   48.21    1.86
   1  -5   4   47.90    2.23
   1  -5   4   47.74    2.51
   1  -5   4   47.56    2.12
   1  -5   4   49.35    1.84
   1  -5   4   47.65    1.72
   2  -5   4   82.43    2.86
   2  -5   4   83.51    2.46
   2  -5   4   84.55    3.00
   2  -5   4   81.78    2.80
   2  -5   4   83.34    3.63
   2  -5   4   79.23    3.04
   2  -5   4   81.96    3.47
   2  -5   4   89.58    4.03
   2  -5   4   85.92    3.14
   2  -5   4   83.58    2.72
   3  -5   4    1.31    0.14
   3  -5   4    1.77    0.28
   3  -5   4    1.82    0.20
   3  -5   4    1.21    0.21
   3  -5   4    1.68    0.33
   3  -5   4    1.72    0.26
   3  -5   4    1.15    0.20
  -4   5  -4   37.31    1.62
   4  -5   4   40.86    1.70
   4  -5   4   39.45    1.37
   4  -5   4   37.35    1.38
   4  -5   4   35.73    1.77
   4  -5   4   38.98    1.51
  -5   5  -4   22.57    0.97
   5  -5   4   24.21    0.93
   5  -5   4   22.91    0.79
   5  -5   4   23.60    0.85
  -8  -4   4    1.91    0.21
  -8  -4   4    2.04    0.17
  -8  -4   4    2.22    0.26
  -8  -4   4    2.15    0.26
  -7  -4   4    3.81    0.38
  -7  -4   4    3.80    0.25
  -7  -4   4    4.34    0.30
  -7  -4   4    3.67    0.29
  -7  -4   4    3.56    0.33
  -6  -4   4    0.60    0.17
  -6  -4   4    0.65    0.14
  -6  -4   4    0.69    0.20
  -6  -4   4    0.57    0.19
  -6  -4   4    0.58    0.20
  -6  -4   4    0.96    0.13
  -6  -4   4    1.11    0.35
  -6  -4   4    0.65    0.14
  -6  -4   4    0.91    0.17
  -5  -4   4   29.70    1.06
  -5  -4   4   28.64    1.26
  -5  -4   4   30.28    0.96
  -5  -4   4   28.79    1.01
  -5  -4   4   31.17    1.13
  -5  -4   4   30.15    1.72
  -5  -4   4   30.93    1.22
  -5  -4   4   30.07    1.55
  -5  -4   4   30.20    1.25
  -5  -4   4   29.62    1.22
  -4  -4   4    0.23    0.10
  -4  -4   4    0.21    0.16
  -4  -4   4    0.20    0.21
  -4  -4   4    0.06    0.20
  -4  -4   4    0.27    0.09
  -3  -4   4   14.34    0.86
  -3  -4   4   14.36    0.93
  -3  -4   4   15.49    0.63
  -2  -4   4   20.78    1.17
  -2  -4   4   20.59    0.82
  -1  -4   4    4.65    0.26
  -1  -4   4    5.18    0.43
   0  -4   4    1.26    0.16
   0  -4   4    1.25    0.25
   0  -4   4    1.05    0.19
   1  -4   4   11.78    0.70
   1  -4   4   11.67    0.56
   1  -4   4   12.20    0.78
   1  -4   4   12.38    0.56
   1  -4   4   12.09    0.75
   2  -4   4    8.32    0.63
   2  -4   4    8.75    0.63
   2  -4   4    8.96    0.59
   2  -4   4    8.61    0.58
   2  -4   4    8.47    0.46
   3  -4   4    0.29    0.14
   3  -4   4    0.17    0.16
   3  -4   4    0.05    0.14
   3  -4   4    0.44    0.21
   3  -4   4    0.03    0.13
   3  -4   4    0.05    0.11
   3  -4   4    0.66    0.13
   3  -4   4    0.16    0.19
   3  -4   4    0.21    0.17
   3  -4   4    0.09    0.09
   3  -4   4    0.37    0.17
   3  -4   4    0.19    0.19
   3  -4   4    0.23    0.14
  -4   4  -4    0.02    0.27
   4  -4   4   -0.02    0.12
   4  -4   4    0.24    0.18
   4  -4   4   -0.03    0.20
   4  -4   4    0.08    0.12
   4  -4   4    0.15    0.17
   4  -4   4    0.06    0.09
   4  -4   4    0.28    0.16
  -5   4  -4    0.41    0.26
   5  -4   4    0.31    0.15
   5  -4   4    0.27    0.13
   5  -4   4    0.32    0.12
   5  -4   4    0.30    0.17
   5  -4   4    0.57    0.20
   6  -4   4    0.08    0.07
   6  -4   4    0.04    0.08
   6  -4   4    0.09    0.10
  -8  -3   4  106.62    3.65
  -8  -3   4  107.69    3.81
  -8  -3   4  115.86    3.89
  -7  -3   4   17.31    0.82
  -7  -3   4   17.46    0.79
  -7  -3   4   17.11    0.64
  -7  -3   4   15.73    0.83
  -7  -3   4   16.37    0.71
  -6  -3   4  123.71    4.67
  -6  -3   4  115.97    4.24
  -6  -3   4  117.46    4.02
  -6  -3   4  123.40    4.36
  -6  -3   4  121.08    4.18
  -6  -3   4  116.48    3.75
  -6  -3   4  118.63    3.46
  -6  -3   4  115.70    4.37
  -6  -3   4  116.44    3.66
   5   3  -4   20.96    1.64
  -5  -3   4   22.32    1.33
  -5  -3   4   22.18    1.00
  -5  -3   4   22.48    0.98
  -5  -3   4   22.59    0.79
  -5  -3   4   23.02    0.94
   4   3  -4    7.11    0.66
  -4  -3   4    6.78    0.66
  -4  -3   4    6.66    0.38
  -4  -3   4    6.91    0.35
  -4  -3   4    6.33    0.56
   3   3  -4  247.21   14.75
  -3  -3   4  258.77    8.73
  -3  -3   4  249.00   13.74
  -3  -3   4  232.43   11.19
   2   3  -4   35.92    2.01
  -2  -3   4   35.03    1.77
  -2  -3   4   34.72    1.93
  -1  -3   4  112.82    5.85
   0  -3   4  179.95    9.55
   0  -3   4  191.49    8.43
   1  -3   4   27.02    1.33
   1  -3   4   25.70    1.00
   1  -3   4   25.65    1.34
   1  -3   4   24.00    1.47
   2  -3   4   28.05    1.33
   2  -3   4   27.44    1.43
   2  -3   4   25.67    1.28
   2  -3   4   26.64    1.08
   2  -3   4   27.79    1.44
   3  -3   4  105.99    4.37
   3  -3   4  102.30    4.98
   3  -3   4  100.67    4.36
   3  -3   4  102.63    4.81
   3  -3   4  100.28    3.76
  -4   3  -4    9.71    0.77
   4  -3   4   10.42    0.52
   4  -3   4   11.46    0.77
   4  -3   4   10.63    0.43
   4  -3   4   10.98    0.58
   4  -3   4   10.83    0.53
   4  -3   4   10.96    0.70
   4  -3   4   11.21    0.66
  -5   3  -4   60.91    2.53
   5  -3   4   64.80    2.24
   5  -3   4   65.37    2.29
   5  -3   4   70.56    2.94
   5  -3   4   66.08    2.43
   6  -3   4    1.92    0.29
   6  -3   4    1.75    0.23
   6  -3   4    1.75    0.20
   6  -3   4    1.71    0.19
   7  -3   4   22.08    0.76
   7  -3   4   22.23    0.79
   8   2  -4    1.79    0.21
  -8  -2   4    1.97    0.22
  -8  -2   4    1.56    0.17
   7   2  -4    0.11    0.14
  -7  -2   4    0.30    0.17
  -7  -2   4    0.30    0.18
  -7  -2   4    0.23    0.16
  -7  -2   4    0.99    0.18
   6   2  -4    3.68    0.39
  -6  -2   4    4.24    0.37
  -6  -2   4    3.83    0.26
  -6  -2   4    3.65    0.37
  -6  -2   4    4.47    0.33
  -6  -2   4    4.39    0.37
  -6  -2   4    4.44    0.36
   5   2  -4    2.83    0.53
  -5  -2   4    2.87    0.29
  -5  -2   4    2.45    0.22
  -5  -2   4    2.55    0.24
  -5  -2   4    2.62    0.26
   4   2  -4    1.55    0.34
  -4  -2   4    1.65    0.19
  -4  -2   4    2.38    0.19
  -4  -2   4    2.28    0.37
   3   2  -4   58.11    3.36
   3   2  -4   61.89    3.85
  -3  -2   4   61.67    2.39
  -3  -2   4   63.23    3.59
   2   2  -4    6.05    0.48
   2   2  -4    5.82    0.52
  -2  -2   4    6.31    0.49
   1   2  -4   49.25    3.33
  -1  -2   4   59.86    2.87
   0  -2   4   42.78    2.28
   1  -2   4    5.97    0.42
   1  -2   4    6.17    0.37
   2  -2   4   65.30    3.60
   2  -2   4   67.30    3.21
   2  -2   4   71.76    3.29
   3  -2   4   11.39    0.68
   3  -2   4   10.51    0.51
   3  -2   4    9.98    0.61
   3  -2   4   11.00    0.70
   4  -2   4    9.15    0.60
   4  -2   4   10.15    0.43
   4  -2   4    9.06    0.49
   4  -2   4   10.02    0.68
   4  -2   4    9.24    0.66
   4  -2   4    9.05    0.50
  -5   2  -4    0.65    0.46
   5  -2   4    1.56    0.21
   5  -2   4    1.16    0.20
   5  -2   4    2.09    0.31
   5  -2   4    1.71    0.21
  -6   2  -4    0.65    0.47
   6  -2   4    0.62    0.15
   6  -2   4    0.95    0.19
   6  -2   4    0.84    0.17
   6  -2   4    0.59    0.19
   7  -2   4    2.31    0.21
   7  -2   4    2.09    0.20
   7  -2   4    2.06    0.27
   8   1  -4    9.00    0.49
  -8  -1   4    9.19    0.46
  -8  -1   4    9.11    0.41
   7   1  -4    6.82    0.47
  -7  -1   4    7.65    0.48
  -7  -1   4    6.98    0.41
  -7  -1   4    6.19    0.47
   6   1  -4    4.73    0.42
  -6  -1   4    5.24    0.29
  -6  -1   4    4.57    0.39
  -6  -1   4    4.62    0.39
  -6  -1   4    4.70    0.34
  -6  -1   4    4.73    0.42
  -6  -1   4    4.46    0.47
   5   1  -4   57.28    3.71
  -5  -1   4   55.15    1.79
  -5  -1   4   56.47    2.28
  -5  -1   4   53.79    2.12
  -5  -1   4   56.47    2.14
   4   1  -4   65.90    4.23
  -4  -1   4   65.31    2.61
  -4  -1   4   66.02    2.44
  -4  -1   4   67.08    3.92
   3   1  -4   26.60    1.65
   3   1  -4   27.32    1.88
  -3  -1   4   28.75    1.73
  -3  -1   4   27.02    1.12
   2   1  -4  239.05   16.49
   2   1  -4  274.93   14.22
  -2  -1   4  316.96   15.33
   1   1  -4   57.02    3.01
  -1  -1   4   56.38    2.66
   0  -1   4  229.34   11.68
  -1   1  -4  239.69   12.64
   1  -1   4  225.77   10.70
   1  -1   4  223.86   11.70
  -2   1  -4    0.55    0.13
   2  -1   4    0.67    0.11
   2  -1   4    0.38    0.10
   3  -1   4  398.06   18.19
   3  -1   4  378.76   17.44
   3  -1   4  390.45   17.51
   4  -1   4   11.29    0.64
   4  -1   4   11.04    0.54
   4  -1   4   11.45    0.62
   4  -1   4   10.90    0.73
   4  -1   4   12.21    0.73
  -5   1  -4    0.14    0.38
   5  -1   4    1.10    0.16
   5  -1   4    0.67    0.18
   5  -1   4    0.30    0.13
   5  -1   4    0.39    0.15
   5  -1   4    0.48    0.18
   6  -1   4   47.91    1.64
   6  -1   4   47.20    1.96
   6  -1   4   48.01    2.15
   6  -1   4   46.02    1.70
   6  -1   4   45.12    1.76
   7  -1   4    0.36    0.13
   7  -1   4    0.39    0.14
   7  -1   4    0.48    0.18
   7  -1   4    0.18    0.15
   8  -1   4   33.89    1.19
   8   0  -4    0.59    0.13
  -8   0   4    0.54    0.13
  -8   0   4    0.59    0.10
   7   0  -4   20.77    0.95
  -7   0   4   17.53    0.94
  -7   0   4   20.61    0.89
  -7   0   4   20.11    0.81
   6   0  -4    0.26    0.16
  -6   0   4    0.13    0.16
  -6   0   4    0.24    0.20
  -6   0   4    0.05    0.13
   5   0  -4   28.32    2.12
  -5   0   4   29.08    1.28
  -5   0   4   27.57    1.33
  -5   0   4   28.30    1.41
  -5   0   4   30.36    1.27
  -5   0   4   28.24    0.94
  -5   0   4   29.03    1.10
   4   0  -4   44.81    2.98
  -4   0   4   45.32    2.10
  -4   0   4   42.86    1.69
  -4   0   4   43.50    1.80
   3   0  -4    2.99    0.42
   3   0  -4    3.00    0.40
  -3   0   4    2.97    0.21
  -3   0   4    3.25    0.38
  -3   0   4    3.27    0.23
   2   0  -4   50.56    3.43
   2   0  -4   58.49    2.98
   1   0  -4  119.83    6.37
  -1   0   4  126.11    5.75
   0   0  -4   69.48    3.59
   0   0   4   70.87    3.22
   0   0   4   67.13    3.22
  -1   0  -4   24.00    1.33
  -1   0  -4   22.66    1.18
   1   0   4   21.24    1.06
   1   0   4   21.31    1.16
  -2   0  -4    1.09    0.17
   2   0   4    1.18    0.12
   2   0   4    1.13    0.10
  -3   0  -4  122.98    6.87
   3   0   4  119.24    5.80
   3   0   4  125.39    5.57
  -4   0  -4   15.77    1.16
   4   0   4   17.42    0.97
   4   0   4   19.07    0.98
   4   0   4   16.88    0.88
  -5   0  -4    0.04    0.37
   5   0   4    0.13    0.12
   5   0   4    0.22    0.12
   6   0   4  126.35    4.25
   6   0   4  125.18    4.05
   6   0   4  128.04    5.29
   6   0   4  125.22    4.83
   6   0   4  121.54    5.77
  -7   0  -4    0.38    0.39
  -7   0  -4    0.37    0.46
   7   0   4    1.87    0.26
   7   0   4    1.99    0.28
   7   0   4    1.25    0.19
   8   0   4   25.31    0.93
   8   0   4   23.22    1.04
   7  -1  -4   75.24    2.96
  -7   1   4   76.61    2.70
  -7   1   4   75.44    2.59
   6  -1  -4   40.22    1.70
  -6   1   4   39.34    1.58
  -6   1   4   37.53    1.46
   5  -1  -4    3.50    0.40
  -5   1   4    3.53    0.31
  -5   1   4    3.75    0.36
  -5   1   4    4.68    0.46
  -5   1   4    3.92    0.43
  -5   1   4    4.12    0.38
   4  -1  -4   34.08    1.69
   4  -1  -4   37.09    2.52
  -4   1   4   34.82    1.52
  -4   1   4   36.81    1.78
   3  -1  -4    1.95    0.41
  -3   1   4    1.37    0.20
  -3   1   4    1.41    0.17
  -3   1   4    1.65    0.19
   2  -1  -4   47.39    3.37
   2  -1  -4   54.53    2.92
  -2   1   4   56.82    2.48
   1  -1  -4  109.74    5.80
  -1   1   4  111.32    5.24
  -1   1   4  110.13    5.05
  -1   1   4  113.91    5.03
   0  -1  -4   70.61    3.72
   0   1   4   71.88    3.37
  -1  -1  -4   88.29    4.91
  -1  -1  -4  101.74    4.93
   1   1   4   99.71    4.53
  -2  -1  -4    5.68    0.42
   2   1   4    5.12    0.28
   2   1   4    5.40    0.32
   2   1   4    5.30    0.28
  -3  -1  -4  177.11    9.74
   3   1   4  172.37    8.23
   3   1   4  175.57    7.92
  -4  -1  -4  164.88    9.78
   4   1   4  172.63    7.95
   4   1   4  186.65    8.28
  -5  -1  -4    0.02    0.30
  -5  -1  -4    0.13    0.21
   5   1   4    0.52    0.15
   5   1   4    0.32    0.12
   6   1   4   65.59    3.17
   6   1   4   68.53    2.91
   6   1   4   68.20    2.68
   6   1   4   64.87    3.17
  -8  -1  -4    0.68    0.43
  -8  -1  -4    1.69    0.44
   8   1   4    1.98    0.24
   8   1   4    1.72    0.20
   9   1   4   40.90    1.38
   9   1   4   38.80    1.56
   7  -2  -4   16.16    0.72
  -7   2   4   16.13    0.68
  -7   2   4   16.01    0.63
   6  -2  -4    3.77    0.38
   6  -2  -4    3.29    0.36
  -6   2   4    4.26    0.39
  -6   2   4    4.09    0.32
   5  -2  -4    2.78    0.38
  -5   2   4    1.48    0.22
  -5   2   4    2.06    0.31
  -5   2   4    1.65    0.31
   4  -2  -4   48.76    2.25
   4  -2  -4   49.79    3.29
  -4   2   4   52.81    1.97
  -4   2   4   48.72    2.39
  -4   2   4   42.60    2.02
   3  -2  -4   20.16    1.16
   3  -2  -4   21.73    1.63
  -3   2   4   21.63    0.98
  -3   2   4   22.65    1.16
   2  -2  -4    8.75    0.83
   2  -2  -4    9.45    0.72
  -2   2   4   10.51    0.50
  -2   2   4   10.23    0.59
   1  -2  -4  114.17    5.97
  -1   2   4  108.85    5.41
  -1   2   4  119.90    5.24
   0  -2  -4   34.98    1.88
   0   2   4   34.81    1.66
   0   2   4   34.37    1.71
  -1  -2  -4   14.32    0.74
   1   2   4   13.02    0.72
   1   2   4   13.09    0.76
   1   2   4   13.52    0.69
  -2  -2  -4  132.69    7.05
   2   2   4  119.17    5.94
   2   2   4  126.45    5.73
  -3  -2  -4   21.11    1.37
   3   2   4   21.81    1.13
   3   2   4   22.00    1.07
  -4  -2  -4   39.53    2.45
   4   2   4   39.34    1.93
   4   2   4   41.67    2.03
  -5  -2  -4   16.56    1.26
   5   2   4   17.64    0.87
   5   2   4   16.98    0.92
  -7  -2  -4   13.50    1.10
  -7  -2  -4   15.43    1.28
  -8  -2  -4    4.95    0.75
  -8  -2  -4    4.74    0.66
   8   2   4    6.87    0.43
   9   2   4   23.19    0.97
   9   2   4   22.44    0.85
   6  -3  -4   27.86    1.39
   6  -3  -4   30.10    1.26
  -6   3   4   31.63    1.19
  -6   3   4   30.71    1.12
   5  -3  -4    3.72    0.31
   5  -3  -4    3.86    0.40
   5  -3  -4    4.36    0.43
  -5   3   4    4.26    0.33
  -5   3   4    4.16    0.41
   4  -3  -4   51.10    2.28
   4  -3  -4   50.19    1.73
  -4   3   4   50.34    1.94
  -4   3   4   49.07    2.45
  -4   3   4   40.29    2.02
   3  -3  -4   91.25    3.82
  -3   3   4   82.97    4.08
  -3   3   4   84.28    3.19
   2  -3  -4   40.34    2.10
   2  -3  -4   45.22    2.97
  -2   3   4   45.81    1.89
  -2   3   4   46.80    2.21
   1  -3  -4  140.68    7.11
   1  -3  -4  122.32    8.27
  -1   3   4  135.54    6.48
  -1   3   4  144.67    6.29
  -1   3   4  137.96    5.26
   0  -3  -4   45.61    2.41
   0   3   4   41.94    2.21
   0   3   4   46.97    2.17
  -1  -3  -4   19.46    1.16
  -1  -3  -4   18.91    1.01
   1   3   4   17.41    0.96
   1   3   4   16.95    0.97
  -2  -3  -4  205.02   11.42
   2   3   4  215.65    9.37
   2   3   4  196.93    9.69
  -3  -3  -4   14.90    0.97
   3   3   4   13.57    0.76
   3   3   4   13.45    0.80
  -4  -3  -4   39.98    2.47
   4   3   4   40.52    1.97
   4   3   4   40.28    2.05
  -6  -3  -4    3.45    0.62
  -6  -3  -4    3.87    0.60
  -7  -3  -4   23.69    1.61
  -7  -3  -4   20.99    1.41
  -8  -3  -4    6.93    0.86
  -8  -3  -4    5.22    0.67
   8   3   4    5.68    0.40
  -9  -3  -4   13.18    0.83
   9   3   4   13.47    0.62
   9   3   4   12.55    0.56
  -6   4   4   14.20    0.54
  -6   4   4   13.83    0.57
   5  -4  -4   15.34    0.85
   5  -4  -4   15.98    0.64
  -5   4   4   15.95    0.67
  -5   4   4   14.65    0.73
   4  -4  -4   13.14    0.64
   4  -4  -4   14.16    0.69
  -4   4   4   13.92    0.76
   3  -4  -4   30.16    1.28
   3  -4  -4   32.16    1.21
   3  -4  -4   31.76    1.56
  -3   4   4   28.45    1.23
  -3   4   4   29.31    1.33
  -3   4   4   27.10    1.59
   2  -4  -4   30.51    1.55
  -2   4   4   28.69    1.56
  -2   4   4   28.45    1.21
   1  -4  -4   56.65    2.97
  -1   4   4   76.01    3.25
   0  -4  -4   60.14    3.22
   0   4   4   59.92    2.91
  -1  -4  -4    6.68    0.50
   1   4   4    5.95    0.46
   1   4   4    5.53    0.43
  -2  -4  -4  354.53   19.11
   2   4   4  364.87   15.72
   2   4   4  318.67   16.22
  -3  -4  -4    2.49    0.33
   3   4   4    2.49    0.28
  -4  -4  -4   30.71    1.96
   4   4   4   30.32    1.56
  -6  -4  -4    8.62    0.89
  -6  -4  -4    8.53    0.84
   6   4   4   10.99    0.68
  -7  -4  -4   42.56    2.46
  -7  -4  -4   37.63    2.17
   7   4   4   47.27    1.80
  -8  -4  -4   25.91    1.49
  -8  -4  -4   25.27    1.63
   8   4   4   25.94    1.13
  -9  -4  -4    3.52    0.44
   9   4   4    3.29    0.26
   5  -5  -4   10.29    0.42
  -5   5   4   10.26    0.44
  -5   5   4   10.04    0.47
   4  -5  -4    1.62    0.26
   4  -5  -4    2.36    0.24
   4  -5  -4    1.80    0.25
  -4   5   4    2.02    0.28
   3  -5  -4   30.01    1.27
   3  -5  -4   30.07    1.17
   3  -5  -4   31.63    1.53
  -3   5   4   28.35    1.30
   2  -5  -4    0.38    0.24
   2  -5  -4    0.33    0.20
   2  -5  -4    0.30    0.21
  -2   5   4    0.18    0.24
  -2   5   4    0.26    0.27
  -2   5   4    0.31    0.15
   1  -5  -4   85.40    3.12
   1  -5  -4   85.53    3.70
  -1   5   4   79.54    4.01
  -1   5   4   81.13    3.09
   0  -5  -4   72.24    3.56
   0   5   4   89.35    3.94
   1   5   4    5.73    0.51
   2   5   4   35.91    1.86
  -3  -5  -4  146.88    8.09
   3   5   4  139.09    6.65
  -4  -5  -4   79.51    4.45
  -4  -5  -4   69.84    3.61
  -4  -5  -4   75.58    3.35
   4   5   4   74.43    3.60
  -5  -5  -4   25.60    1.50
  -5  -5  -4   24.89    1.37
  -5  -5  -4   24.05    1.76
   5   5   4   24.59    1.36
  -6  -5  -4    1.50    0.46
  -6  -5  -4    1.14    0.37
   6   5   4    1.29    0.21
   6   5   4    1.01    0.24
  -7  -5  -4   61.03    3.15
  -7  -5  -4   58.93    2.84
   7   5   4   59.34    2.22
  -8  -5  -4   19.58    1.38
  -8  -5  -4   22.52    1.28
   8   5   4   23.18    0.94
  -9  -5  -4   11.68    0.75
   4  -6  -4   10.67    0.48
   4  -6  -4   11.23    0.45
  -4   6   4   10.51    0.49
   3  -6  -4   21.05    1.09
   3  -6  -4   22.23    0.92
   3  -6  -4   21.40    0.85
  -3   6   4   20.66    0.93
   2  -6  -4  121.88    5.04
   2  -6  -4  121.39    4.22
   2  -6  -4  113.55    3.86
  -2   6   4  117.88    4.21
  -2   6   4  113.84    4.30
   1  -6  -4    1.53    0.32
   1  -6  -4    1.48    0.30
   1  -6  -4    1.10    0.23
   1  -6  -4    0.96    0.24
  -1   6   4    1.04    0.20
   0  -6  -4  158.79    5.57
   0  -6  -4  163.06    6.62
   0  -6  -4  162.30    6.33
   0  -6  -4  153.17    5.10
   0   6   4  155.93    5.68
   0   6   4  143.17    7.32
  -1  -6  -4   46.82    2.05
   1   6   4   57.72    2.07
   1   6   4   51.98    2.67
   2   6   4   36.07    1.41
   2   6   4   30.75    1.78
   3   6   4  112.97    4.04
   3   6   4  105.27    5.17
   4   6   4    1.38    0.30
  -5  -6  -4   33.56    1.78
  -5  -6  -4   30.71    1.62
  -5  -6  -4   31.27    1.74
   5   6   4   33.74    1.31
  -6  -6  -4   25.56    1.49
  -6  -6  -4   23.90    1.35
   6   6   4   24.63    1.05
  -7  -6  -4   35.91    1.76
  -7  -6  -4   33.91    1.91
   7   6   4   32.74    1.35
  -8  -6  -4  104.45    4.42
  -8  -6  -4  100.51    4.86
   8   6   4   99.90    3.58
   3  -7  -4    0.81    0.13
   3  -7  -4    0.47    0.10
   2  -7  -4    4.88    0.39
   2  -7  -4    5.48    0.36
   2  -7  -4    4.91    0.32
   1  -7  -4    1.84    0.25
   1  -7  -4    1.61    0.26
   1  -7  -4    1.65    0.21
  -1   7   4    1.83    0.23
   0  -7  -4   10.38    0.56
   0  -7  -4   11.71    0.64
   0  -7  -4   12.20    0.74
   0   7   4    9.71    0.57
  -1  -7  -4    0.20    0.19
  -1  -7  -4   -0.02    0.21
   1   7   4    0.07    0.14
  -2  -7  -4   48.44    2.25
  -2  -7  -4   49.27    2.42
   2   7   4   46.08    2.51
   2   7   4   50.89    1.95
  -3  -7  -4   13.36    0.81
  -3  -7  -4   11.22    0.86
   3   7   4   13.27    0.63
   3   7   4   13.85    0.70
   3   7   4   12.16    0.88
  -4  -7  -4    1.70    0.28
  -4  -7  -4    1.48    0.35
   4   7   4    1.20    0.30
   4   7   4    0.92    0.19
   4   7   4    2.04    0.28
   5   7   4    0.30    0.14
  -6  -7  -4    1.32    0.31
  -6  -7  -4    1.00    0.30
   6   7   4    1.16    0.19
  -7  -7  -4    0.44    0.24
  -7  -7  -4    0.47    0.27
   7   7   4    0.52    0.16
  -8  -7  -4    3.69    0.40
   8   7   4    3.66    0.28
   9   7   4    6.28    0.31
   1  -8  -4   10.63    0.56
   1  -8  -4   10.58    0.44
   1  -8  -4   10.08    0.50
  -1   8   4    9.44    0.48
   0  -8  -4   29.79    1.33
   0  -8  -4   27.38    1.14
   0   8   4   28.03    1.16
  -1  -8  -4   61.99    2.29
  -1  -8  -4   60.79    2.65
   1   8   4   62.87    2.36
  -2  -8  -4    0.17    0.19
   2   8   4    0.15    0.14
  -3  -8  -4   51.88    2.27
   3   8   4   49.33    1.98
  -4  -8  -4   29.82    1.45
   4   8   4   28.85    1.16
   4   8   4   29.38    1.25
   5   8   4   16.77    0.80
   5   8   4   17.19    0.76
   6   8   4  138.62    4.84
  -7  -8  -4    1.53    0.27
   7   8   4    1.13    0.18
   8   8   4   31.13    1.17
   0  -9  -4   21.42    0.94
  -1  -9  -4    1.16    0.19
   1   9   4    0.92    0.15
  -2  -9  -4    0.33    0.17
   2   9   4    0.32    0.13
  -3  -9  -4    5.73    0.44
   3   9   4    5.79    0.38
  -4  -9  -4    0.38    0.18
   4   9   4    0.75    0.16
   5   9   4    0.30    0.11
   5   9   4    0.47    0.14
   6   9   4    0.44    0.11
   7   9   4    0.79    0.12
  -3 -10  -4   12.82    0.60
  -4 -10  -4   36.66    1.30
  -5 -10  -4    4.86    0.30
  -4  -9   5    5.97    0.26
  -3  -9   5   21.19    0.81
  -3  -9   5   21.77    0.73
  -2  -9   5   15.43    0.61
  -2  -9   5   16.13    0.55
   6   8  -5    9.96    0.52
  -6  -8   5   10.17    0.40
  -6  -8   5    9.43    0.43
  -6  -8   5    9.98    0.34
  -6  -8   5   10.56    0.50
  -5  -8   5   13.77    0.47
  -5  -8   5   13.93    0.79
  -5  -8   5   13.26    0.51
  -5  -8   5   13.97    0.66
  -5  -8   5   14.22    0.53
  -5  -8   5   13.48    0.60
   4   8  -5   47.67    1.95
  -4  -8   5   49.35    1.58
  -4  -8   5   50.98    1.81
  -4  -8   5   46.38    1.88
  -4  -8   5   52.20    1.48
  -4  -8   5   49.34    2.24
  -4  -8   5   51.21    1.62
   3   8  -5    0.68    0.20
  -3  -8   5    0.41    0.14
  -3  -8   5    0.46    0.21
  -3  -8   5    0.35    0.12
  -3  -8   5    0.49    0.19
  -3  -8   5    0.53    0.10
  -3  -8   5    0.67    0.13
  -3  -8   5    0.37    0.10
  -2  -8   5   76.84    2.96
  -2  -8   5   77.83    2.48
  -2  -8   5   83.87    2.84
  -2  -8   5   79.14    3.45
  -2  -8   5   83.96    2.56
  -2  -8   5   80.43    2.34
  -1  -8   5   62.15    2.83
  -1  -8   5   66.88    1.93
  -1  -8   5   69.48    2.35
  -1  -8   5   60.47    2.48
  -1  -8   5   69.97    2.12
   0  -8   5    0.28    0.11
   0  -8   5    0.37    0.15
   0  -8   5    0.30    0.07
   0  -8   5    0.56    0.11
  -1   8  -5   40.69    1.60
   1  -8   5   44.12    1.37
   1  -8   5   42.17    1.75
   7   7  -5   26.10    1.02
  -7  -7   5   27.05    0.90
  -7  -7   5   26.09    1.05
  -7  -7   5   26.43    1.00
  -7  -7   5   27.19    1.08
  -7  -7   5   27.52    0.84
   6   7  -5    5.84    0.37
  -6  -7   5    5.66    0.36
  -6  -7   5    6.11    0.31
  -6  -7   5    6.57    0.43
  -6  -7   5    6.78    0.33
  -6  -7   5    6.31    0.37
  -6  -7   5    6.75    0.43
  -6  -7   5    6.74    0.28
  -6  -7   5    6.10    0.53
  -5  -7   5   13.28    0.48
  -5  -7   5   13.02    0.85
  -5  -7   5   13.34    0.70
  -5  -7   5   13.41    0.63
  -5  -7   5   12.92    0.92
  -5  -7   5   12.61    0.62
  -5  -7   5   13.24    0.54
  -5  -7   5   13.49    0.69
  -5  -7   5   13.41    0.52
  -4  -7   5    5.44    0.31
  -4  -7   5    5.33    0.27
  -4  -7   5    5.30    0.57
  -4  -7   5    5.94    0.30
  -4  -7   5    5.27    0.43
  -4  -7   5    6.06    0.55
  -4  -7   5    5.64    0.40
  -4  -7   5    5.41    0.35
  -3  -7   5    0.13    0.08
  -3  -7   5    0.04    0.10
  -3  -7   5    0.08    0.11
  -3  -7   5    0.08    0.14
  -3  -7   5    0.19    0.15
  -3  -7   5    0.23    0.22
  -3  -7   5    0.08    0.09
  -3  -7   5    0.14    0.20
   2   7  -5   -0.01    0.18
  -2  -7   5    0.48    0.13
  -2  -7   5    0.02    0.13
  -2  -7   5    0.01    0.07
  -2  -7   5    0.15    0.09
  -2  -7   5    0.21    0.11
  -2  -7   5    0.12    0.20
  -2  -7   5    0.31    0.22
  -2  -7   5    0.11    0.10
  -1  -7   5   30.95    1.74
  -1  -7   5   32.68    1.09
  -1  -7   5   33.38    1.59
  -1  -7   5   33.77    1.32
  -1  -7   5   31.43    1.01
  -1  -7   5   29.77    1.13
  -1  -7   5   32.41    1.29
  -1  -7   5   33.23    1.32
   0  -7   5    0.37    0.19
   0  -7   5    0.55    0.16
   0  -7   5    0.89    0.18
   0  -7   5    0.88    0.15
   0  -7   5    0.67    0.10
   0  -7   5    1.07    0.24
   0  -7   5    0.45    0.22
   1  -7   5    0.59    0.19
   1  -7   5    0.42    0.14
   1  -7   5    0.88    0.23
   1  -7   5    0.72    0.10
   1  -7   5    0.60    0.13
   1  -7   5    0.79    0.16
  -2   7  -5   -0.07    0.20
   2  -7   5    0.14    0.09
   2  -7   5    0.01    0.13
   8   6  -5   10.99    0.49
  -8  -6   5   11.09    0.42
   7   6  -5   10.71    0.54
  -7  -6   5   10.08    0.43
  -7  -6   5   10.95    0.52
  -7  -6   5   10.68    0.40
  -7  -6   5   10.65    0.56
  -7  -6   5   10.23    0.56
  -7  -6   5   11.80    0.57
  -7  -6   5   10.26    0.45
  -6  -6   5   88.53    3.22
  -6  -6   5   83.73    3.28
  -6  -6   5   91.59    2.76
  -6  -6   5   87.23    2.83
  -6  -6   5   89.48    2.61
  -6  -6   5   92.32    3.35
  -6  -6   5   86.34    3.15
  -6  -6   5   89.12    3.28
  -6  -6   5   88.96    4.33
  -6  -6   5   92.46    3.92
  -5  -6   5    1.21    0.16
  -5  -6   5    1.07    0.25
  -5  -6   5    0.77    0.12
  -5  -6   5    0.72    0.33
  -5  -6   5    0.95    0.18
  -5  -6   5    1.05    0.16
  -5  -6   5    0.79    0.19
  -5  -6   5    0.59    0.19
  -5  -6   5    0.79    0.29
  -5  -6   5    0.38    0.18
  -4  -6   5  106.19    3.28
  -4  -6   5  110.11    3.90
  -4  -6   5  107.19    3.98
  -4  -6   5  111.11    5.16
  -4  -6   5  102.80    3.76
  -4  -6   5  103.28    3.36
  -4  -6   5  104.66    3.89
  -4  -6   5  105.65    3.10
  -4  -6   5  106.96    4.66
  -3  -6   5  112.53    4.18
  -3  -6   5  111.59    3.27
  -3  -6   5  118.89    5.41
  -3  -6   5  113.73    4.09
  -3  -6   5  111.03    4.88
  -3  -6   5  114.96    4.11
  -3  -6   5  110.57    3.45
  -3  -6   5  111.22    3.97
  -3  -6   5  108.93    3.54
  -2  -6   5    8.59    0.38
  -2  -6   5    8.37    0.54
  -2  -6   5    8.65    0.51
  -2  -6   5    8.74    0.35
  -2  -6   5    8.27    0.71
  -2  -6   5    8.43    0.66
  -2  -6   5    7.88    0.41
  -2  -6   5    9.41    0.47
  -1  -6   5  145.19    5.16
  -1  -6   5  160.26    4.55
  -1  -6   5  161.23    5.73
  -1  -6   5  176.63    7.42
  -1  -6   5  157.16    4.94
  -1  -6   5  155.91    5.48
  -1  -6   5  158.55    4.81
  -1  -6   5  155.38    6.68
  -1  -6   5  155.63    4.94
   0  -6   5    2.66    0.27
   0  -6   5    2.69    0.37
   0  -6   5    2.75    0.21
   0  -6   5    2.34    0.38
   0  -6   5    3.17    0.31
   0  -6   5    2.43    0.17
   0  -6   5    2.90    0.20
   0  -6   5    1.88    0.21
   0  -6   5    2.73    0.35
   1  -6   5   15.08    0.89
   1  -6   5   15.70    0.87
   1  -6   5   15.63    0.73
   1  -6   5   15.99    0.99
   1  -6   5   15.00    0.72
   1  -6   5   14.38    0.62
   1  -6   5   14.71    0.56
   1  -6   5   15.10    0.54
   2  -6   5   70.18    2.26
   2  -6   5   72.06    2.20
   2  -6   5   67.04    2.91
   2  -6   5   72.28    3.03
   2  -6   5   69.37    2.05
   2  -6   5   64.42    3.32
   2  -6   5   67.54    2.49
   2  -6   5   71.73    2.57
   2  -6   5   68.19    2.62
  -3   6  -5    2.80    0.37
   3  -6   5    3.29    0.31
   3  -6   5    2.05    0.26
   3  -6   5    3.13    0.24
   3  -6   5    3.00    0.26
  -4   6  -5   20.54    0.93
   4  -6   5   24.39    0.91
   4  -6   5   24.44    1.01
   8   5  -5    0.42    0.12
  -8  -5   5    0.40    0.12
  -8  -5   5    0.13    0.13
  -8  -5   5    0.43    0.11
  -7  -5   5    3.28    0.33
  -7  -5   5    2.97    0.25
  -7  -5   5    3.44    0.21
  -7  -5   5    2.59    0.32
  -7  -5   5    2.70    0.27
  -7  -5   5    2.63    0.27
  -7  -5   5    3.58    0.36
  -7  -5   5    3.10    0.24
  -6  -5   5   11.51    0.47
  -6  -5   5   10.87    0.77
  -6  -5   5   10.32    0.48
  -6  -5   5   10.89    0.58
  -6  -5   5    9.89    0.60
  -6  -5   5   10.48    0.67
  -6  -5   5   11.53    0.63
  -6  -5   5   11.09    0.56
  -6  -5   5   11.18    0.85
  -6  -5   5   10.69    0.43
  -5  -5   5   -0.16    0.17
  -5  -5   5   -0.07    0.08
  -5  -5   5    0.29    0.13
  -5  -5   5   -0.07    0.16
  -5  -5   5    0.13    0.16
  -5  -5   5   -0.02    0.15
  -5  -5   5    0.05    0.09
  -5  -5   5    0.34    0.10
  -5  -5   5    0.06    0.24
  -5  -5   5    0.16    0.10
  -5  -5   5    0.09    0.22
  -4  -5   5    5.91    0.36
  -4  -5   5    6.39    0.33
  -4  -5   5    6.00    0.57
  -4  -5   5    5.70    0.29
  -4  -5   5    6.84    0.44
  -4  -5   5    6.43    0.45
  -4  -5   5    5.59    0.62
  -4  -5   5    5.98    0.29
  -4  -5   5    5.95    0.47
  -4  -5   5    6.22    0.30
  -4  -5   5    6.73    0.51
  -3  -5   5    2.87    0.42
  -3  -5   5    3.17    0.35
  -3  -5   5    2.70    0.23
  -3  -5   5    2.83    0.22
  -3  -5   5    2.42    0.19
  -3  -5   5    2.34    0.29
  -3  -5   5    3.15    0.32
  -3  -5   5    2.28    0.41
  -2  -5   5   14.16    0.52
  -2  -5   5   14.26    0.63
  -2  -5   5   13.75    0.93
  -2  -5   5   13.68    0.85
  -2  -5   5   14.27    0.73
  -2  -5   5   13.86    0.71
  -1  -5   5    7.47    0.56
  -1  -5   5    7.60    0.62
  -1  -5   5    7.26    0.32
  -1  -5   5    7.56    0.40
   0  -5   5    2.84    0.19
   0  -5   5    3.18    0.38
   0  -5   5    2.53    0.24
   0  -5   5    2.62    0.31
   0  -5   5    3.07    0.33
   0  -5   5    2.66    0.33
   0  -5   5    3.17    0.20
   0  -5   5    2.79    0.23
   0  -5   5    2.13    0.35
   0  -5   5    2.84    0.21
   1  -5   5    1.06    0.24
   1  -5   5    1.58    0.16
   1  -5   5    1.42    0.27
   1  -5   5    1.49    0.27
   1  -5   5    1.55    0.15
   1  -5   5    1.64    0.22
   1  -5   5    1.97    0.20
   1  -5   5    1.97    0.35
   1  -5   5    1.43    0.24
   1  -5   5    1.84    0.21
   2  -5   5    0.33    0.14
   2  -5   5    0.18    0.12
   2  -5   5    0.23    0.10
   2  -5   5    0.15    0.08
   2  -5   5    0.13    0.16
   2  -5   5    0.11    0.20
   2  -5   5    0.17    0.16
   2  -5   5    0.08    0.10
   2  -5   5    0.12    0.17
   3  -5   5    0.41    0.15
   3  -5   5    0.25    0.12
   3  -5   5    0.41    0.19
   3  -5   5    0.34    0.10
   3  -5   5    0.13    0.21
   3  -5   5    0.38    0.13
   3  -5   5    0.52    0.18
   3  -5   5    0.27    0.10
   3  -5   5    0.32    0.16
  -4   5  -5    0.86    0.29
   4  -5   5    0.91    0.19
   4  -5   5    1.22    0.11
   4  -5   5    1.19    0.17
   4  -5   5    1.16    0.21
   4  -5   5    1.30    0.18
   5  -5   5    0.05    0.10
   5  -5   5    0.28    0.10
  -8  -4   5   56.76    1.91
  -8  -4   5   63.86    2.19
  -8  -4   5   58.50    2.11
  -7  -4   5    1.97    0.26
  -7  -4   5    1.34    0.15
  -7  -4   5    1.26    0.19
  -7  -4   5    1.58    0.18
  -7  -4   5    1.04    0.20
  -7  -4   5    1.31    0.17
  -7  -4   5    1.49    0.27
  -7  -4   5    1.58    0.14
  -7  -4   5    1.32    0.24
  -6  -4   5   78.68    2.31
  -6  -4   5   79.72    2.96
  -6  -4   5   81.14    2.91
  -6  -4   5   77.70    2.88
  -6  -4   5   74.63    2.50
  -6  -4   5   74.62    2.81
  -6  -4   5   75.75    2.95
  -6  -4   5   77.92    2.64
  -6  -4   5   80.12    2.45
  -5  -4   5  141.88    5.01
  -5  -4   5  136.24    4.32
  -5  -4   5  137.38    4.83
  -5  -4   5  139.65    4.22
  -5  -4   5  140.91    5.02
  -5  -4   5  138.38    5.07
  -5  -4   5  135.42    6.50
  -5  -4   5  138.52    5.93
  -5  -4   5  136.94    4.00
  -5  -4   5  138.75    4.89
  -5  -4   5  138.99    4.61
  -4  -4   5   22.68    1.33
  -4  -4   5   22.42    0.92
  -4  -4   5   21.75    1.19
  -4  -4   5   23.03    1.00
  -4  -4   5   21.29    1.03
  -4  -4   5   22.87    0.77
  -3  -4   5   55.72    2.82
  -3  -4   5   57.91    2.10
  -3  -4   5   58.30    1.76
  -3  -4   5   54.50    2.55
  -2  -4   5   20.09    1.08
  -2  -4   5   21.77    0.83
  -2  -4   5   20.19    1.18
  -1  -4   5   46.41    1.70
  -1  -4   5   44.09    2.28
  -1  -4   5   46.39    2.08
   0  -4   5   72.59    3.58
   0  -4   5   73.74    3.21
   0  -4   5   74.11    3.54
   0  -4   5   74.45    2.71
   1  -4   5    0.67    0.17
   1  -4   5    0.47    0.12
   1  -4   5    1.01    0.13
   1  -4   5    0.45    0.21
   1  -4   5    0.60    0.19
   2  -4   5   69.47    3.49
   2  -4   5   69.33    2.37
   2  -4   5   71.36    2.56
   2  -4   5   71.54    2.28
   2  -4   5   70.43    3.09
   2  -4   5   70.56    2.93
   2  -4   5   68.27    2.57
   2  -4   5   69.56    2.63
   2  -4   5   71.62    3.41
   2  -4   5   71.42    2.08
   2  -4   5   68.61    2.38
   3  -4   5   18.83    0.82
   3  -4   5   19.42    0.73
   3  -4   5   19.47    1.00
   3  -4   5   18.67    0.86
   3  -4   5   19.13    0.77
   3  -4   5   19.71    0.67
   3  -4   5   18.67    0.88
   3  -4   5   20.15    1.07
   3  -4   5   20.82    0.90
   3  -4   5   19.17    0.76
   3  -4   5   19.47    1.06
   3  -4   5   20.81    1.18
  -4   4  -5   36.88    1.68
   4  -4   5   39.76    1.86
   4  -4   5   38.89    1.22
   4  -4   5   39.91    1.37
   4  -4   5   39.47    1.74
   4  -4   5   38.68    1.42
   4  -4   5   40.18    2.03
   4  -4   5   37.48    1.54
   4  -4   5   40.12    1.40
  -5   4  -5  102.14    3.80
   5  -4   5  111.52    3.78
   5  -4   5  108.34    3.54
   5  -4   5  106.93    3.47
   5  -4   5  110.06    4.26
   5  -4   5  100.97    4.52
   6  -4   5    5.26    0.27
   6  -4   5    5.55    0.30
  -8  -3   5    7.15    0.43
  -8  -3   5    7.22    0.35
  -8  -3   5    6.75    0.39
  -7  -3   5    3.24    0.31
  -7  -3   5    4.07    0.25
  -7  -3   5    4.03    0.38
  -7  -3   5    3.73    0.29
  -7  -3   5    3.85    0.27
  -7  -3   5    3.63    0.33
  -6  -3   5    8.42    0.53
  -6  -3   5    8.25    0.50
  -6  -3   5    7.97    0.37
  -6  -3   5    8.16    0.51
  -6  -3   5    8.40    0.47
  -6  -3   5    8.65    0.40
  -6  -3   5    8.36    0.43
  -6  -3   5    8.80    0.52
  -6  -3   5    7.84    0.41
   5   3  -5   12.11    1.14
  -5  -3   5   13.57    0.68
  -5  -3   5   12.94    0.52
  -5  -3   5   13.39    0.54
  -5  -3   5   13.24    0.58
  -5  -3   5   13.53    0.68
  -5  -3   5   13.37    0.69
  -5  -3   5   13.54    0.49
  -5  -3   5   13.31    0.66
  -5  -3   5   13.43    0.62
   4   3  -5    0.63    0.25
  -4  -3   5    0.93    0.12
  -4  -3   5    1.06    0.14
  -4  -3   5    0.52    0.22
  -4  -3   5    0.87    0.15
  -4  -3   5    0.65    0.18
  -3  -3   5    0.47    0.20
  -3  -3   5    0.20    0.07
  -2  -3   5   62.68    2.22
  -2  -3   5   60.09    2.94
  -1  -3   5   45.71    2.60
  -1  -3   5   51.01    2.35
   0  -3   5    0.68    0.17
   0  -3   5    0.45    0.16
   1  -3   5   25.31    1.33
   1  -3   5   24.03    0.97
   1  -3   5   25.32    1.29
   2  -3   5    0.78    0.21
   2  -3   5    0.23    0.11
   2  -3   5    0.11    0.08
   2  -3   5    0.11    0.14
   2  -3   5    0.11    0.15
   2  -3   5    0.05    0.08
   3  -3   5    3.90    0.24
   3  -3   5    3.64    0.41
   3  -3   5    3.41    0.37
   3  -3   5    4.02    0.39
   3  -3   5    3.65    0.32
   3  -3   5    3.41    0.37
   3  -3   5    3.60    0.28
  -4   3  -5    0.04    0.30
   4  -3   5    0.08    0.11
   4  -3   5    0.08    0.08
   4  -3   5    0.72    0.20
   4  -3   5    0.02    0.16
   4  -3   5    0.10    0.09
   4  -3   5    0.13    0.11
   4  -3   5    0.31    0.11
   4  -3   5    0.19    0.13
   4  -3   5   -0.08    0.18
   4  -3   5   -0.04    0.10
   4  -3   5   -0.08    0.13
  -5   3  -5   -0.10    0.39
   5  -3   5    0.13    0.13
   5  -3   5    0.20    0.12
   5  -3   5    0.33    0.17
   5  -3   5    0.39    0.18
   5  -3   5    0.51    0.16
   6  -3   5    3.28    0.22
   6  -3   5    3.21    0.33
   6  -3   5    3.26    0.29
   6  -3   5    3.53    0.26
   8   2  -5   40.77    1.66
  -8  -2   5   42.61    1.53
   7   2  -5   42.90    1.79
  -7  -2   5   45.15    1.67
  -7  -2   5   39.92    1.80
  -7  -2   5   45.95    1.70
  -7  -2   5   42.92    1.54
   6   2  -5   54.81    2.39
  -6  -2   5   60.66    2.41
  -6  -2   5   59.65    2.21
  -6  -2   5   58.35    1.95
  -6  -2   5   60.47    1.91
  -6  -2   5   56.81    2.27
  -6  -2   5   58.39    2.23
  -6  -2   5   59.12    2.07
  -6  -2   5   63.91    2.28
  -6  -2   5   57.32    1.78
  -5  -2   5  127.56    3.84
  -5  -2   5  124.39    3.63
  -5  -2   5  124.31    4.20
  -5  -2   5  126.15    4.40
  -5  -2   5  127.85    4.55
  -5  -2   5  124.28    4.43
  -5  -2   5  126.12    4.58
  -5  -2   5  122.76    4.87
  -5  -2   5  123.98    3.92
   4   2  -5   16.85    1.35
  -4  -2   5   16.87    0.77
  -4  -2   5   17.06    0.60
  -4  -2   5   17.41    0.72
   3   2  -5   47.12    3.11
  -3  -2   5   47.20    1.88
  -3  -2   5   49.34    1.76
   2   2  -5  473.80   28.94
   2   2  -5  502.01   24.95
   1   2  -5    1.05    0.22
   1   2  -5    1.55    0.25
   0  -2   5  225.15   11.52
   1  -2   5  104.19    4.78
   1  -2   5  101.32    5.38
   1  -2   5  105.94    4.90
   2  -2   5   37.17    1.79
   2  -2   5   34.61    1.78
   2  -2   5   35.36    1.35
   3  -2   5  120.45    5.19
   3  -2   5  126.24    5.21
   3  -2   5  124.91    5.93
   3  -2   5  124.51    5.75
   3  -2   5  123.34    4.48
   4  -2   5   16.12    0.56
   4  -2   5   15.35    0.60
   4  -2   5   15.42    0.68
   4  -2   5   15.83    0.97
   4  -2   5   16.17    0.73
   4  -2   5   15.18    0.65
   4  -2   5   15.31    0.86
   4  -2   5   15.06    0.95
   4  -2   5   15.51    0.72
   4  -2   5   15.93    0.83
   5  -2   5   42.57    1.54
   5  -2   5   42.20    1.33
   5  -2   5   44.38    2.00
   5  -2   5   42.52    1.87
   5  -2   5   43.19    1.53
   5  -2   5   42.51    1.65
   6  -2   5    9.16    0.51
   6  -2   5    8.94    0.46
   6  -2   5    9.08    0.44
   6  -2   5    9.21    0.60
   7  -2   5    0.21    0.10
   7  -2   5    0.31    0.11
   7  -2   5    0.13    0.08
   7  -2   5    0.08    0.13
   8   1  -5    0.11    0.09
  -8  -1   5   -0.11    0.09
   7   1  -5    8.45    0.53
  -7  -1   5    7.56    0.49
  -7  -1   5    9.13    0.52
  -7  -1   5    8.23    0.42
   6   1  -5    6.19    0.49
  -6  -1   5    6.62    0.47
  -6  -1   5    6.11    0.38
  -6  -1   5    6.91    0.46
  -6  -1   5    6.35    0.53
  -6  -1   5    7.12    0.49
  -6  -1   5    7.04    0.33
  -5  -1   5    0.97    0.25
  -5  -1   5    0.00    0.11
  -5  -1   5    0.16    0.10
  -5  -1   5    0.17    0.11
  -5  -1   5    0.34    0.23
  -5  -1   5    0.27    0.12
  -5  -1   5    0.16    0.15
  -5  -1   5    0.17    0.12
  -5  -1   5    0.20    0.13
  -5  -1   5    0.24    0.16
   4   1  -5    2.35    0.46
  -4  -1   5    2.15    0.21
  -4  -1   5    2.02    0.17
  -4  -1   5    2.12    0.20
   3   1  -5    0.19    0.19
   2   1  -5   12.78    1.03
   2   1  -5   13.06    0.90
  -2  -1   5   13.45    0.55
   1   1  -5  116.09    6.01
  -1  -1   5  114.58    5.38
   0   1  -5    0.77    0.15
   0  -1   5    0.68    0.11
  -1   1  -5   36.41    2.00
   1  -1   5   32.48    1.64
   2  -1   5   19.20    1.02
   2  -1   5   18.71    0.97
   3  -1   5   22.32    1.15
   3  -1   5   20.71    1.15
   3  -1   5   21.71    0.87
   4  -1   5    6.69    0.48
   4  -1   5    5.90    0.36
   4  -1   5    6.13    0.31
   4  -1   5    6.19    0.51
   4  -1   5    6.07    0.43
   5  -1   5   10.04    0.49
   5  -1   5   10.24    0.43
   5  -1   5   10.34    0.51
   5  -1   5   10.49    0.65
   5  -1   5   10.33    0.55
   5  -1   5   10.26    0.58
   6  -1   5    8.72    0.50
   6  -1   5    9.55    0.61
   6  -1   5    8.49    0.56
   6  -1   5    9.17    0.46
   6  -1   5    8.77    0.45
   7  -1   5    8.15    0.51
   7  -1   5    9.97    0.45
   7  -1   5    9.15    0.58
   7  -1   5    9.86    0.44
   8  -1   5    0.21    0.07
   8   0  -5    3.19    0.24
  -8   0   5    3.05    0.22
   7   0  -5   54.19    2.18
  -7   0   5   54.11    1.87
  -7   0   5   53.08    1.98
   6   0  -5   22.98    1.11
  -6   0   5   22.41    0.92
  -6   0   5   23.14    1.04
  -6   0   5   22.89    1.07
  -6   0   5   22.59    1.14
  -5   0   5   41.59    1.74
  -5   0   5   46.80    1.87
  -5   0   5   42.55    1.71
  -5   0   5   42.95    1.46
  -5   0   5   46.66    1.93
  -5   0   5   44.83    1.38
  -5   0   5   47.57    1.79
  -5   0   5   43.83    1.74
  -5   0   5   42.64    1.60
   4   0  -5   90.16    5.66
  -4   0   5   90.38    3.26
  -4   0   5   86.21    3.48
  -4   0   5   88.37    2.74
   3   0  -5   12.39    1.06
  -3   0   5   12.44    0.54
  -3   0   5   12.56    0.57
   2   0  -5  206.78   12.49
   2   0  -5  206.81   10.74
  -2   0   5  208.26    7.85
   1   0  -5   84.15    4.52
  -1   0   5   87.34    4.03
   0   0  -5  103.78    5.52
   0   0   5  109.67    4.98
  -1   0  -5  238.20   12.11
   1   0   5  237.03   11.06
  -2   0  -5  165.98    8.79
   2   0   5  150.04    7.40
  -3   0  -5  175.29   10.17
   3   0   5  186.27    8.60
   3   0   5  186.90    8.29
   4   0   5   78.30    3.54
   4   0   5   75.76    3.30
   4   0   5   74.84    2.84
   4   0   5   75.79    3.66
   4   0   5   82.28    3.78
   5   0   5   27.04    1.29
   5   0   5   25.37    1.28
   5   0   5   27.60    0.94
   5   0   5   27.14    1.49
   6   0   5  123.20    4.03
   6   0   5  124.05    4.21
   6   0   5  130.37    5.28
   6   0   5  121.30    4.81
   6   0   5  124.80    4.38
   7   0   5   45.28    1.94
   7   0   5   48.60    2.14
   7   0   5   48.52    1.63
   7   0   5   46.70    1.69
   8   0   5   18.67    0.85
   8   0   5   19.92    0.74
   7  -1  -5   11.68    0.60
  -7   1   5   11.72    0.56
  -7   1   5   11.92    0.49
   6  -1  -5   48.75    2.07
  -6   1   5   48.51    2.08
  -6   1   5   51.19    1.91
  -6   1   5   49.76    1.77
  -5   1   5    0.30    0.16
  -5   1   5    0.41    0.24
  -5   1   5    0.40    0.17
  -5   1   5    0.44    0.15
  -5   1   5    0.25    0.21
  -5   1   5    0.07    0.11
   4  -1  -5   42.19    2.88
   4  -1  -5   40.31    1.94
  -4   1   5   40.67    1.61
  -4   1   5   41.40    1.36
  -4   1   5   40.51    1.62
  -4   1   5   40.85    1.72
   3  -1  -5   52.29    3.52
  -3   1   5   52.08    2.13
  -3   1   5   54.50    2.46
  -3   1   5   53.82    2.00
   2  -1  -5   18.70    1.19
   2  -1  -5   17.78    1.38
  -2   1   5   18.37    0.78
   1  -1  -5   47.36    2.62
  -1   1   5   48.36    2.31
   0  -1  -5   24.34    1.44
   0   1   5   27.54    1.29
  -1  -1  -5   13.65    0.78
   1   1   5   14.34    0.71
  -2  -1  -5   12.04    0.80
   2   1   5   11.54    0.62
  -3  -1  -5   11.11    0.80
   3   1   5   11.33    0.56
   3   1   5   11.36    0.64
  -4  -1  -5    1.61    0.33
  -4  -1  -5    0.76    0.31
   4   1   5    1.72    0.17
   4   1   5    1.97    0.23
   4   1   5    1.92    0.18
  -5  -1  -5    7.09    0.71
   5   1   5    6.67    0.44
   5   1   5    6.50    0.43
   5   1   5    7.18    0.47
   5   1   5    8.21    0.56
   5   1   5    7.10    0.40
   6   1   5    6.20    0.46
   6   1   5    6.43    0.42
   6   1   5    6.42    0.47
   7   1   5   76.84    3.01
   7   1   5   79.12    3.29
   7   1   5   71.56    2.63
  -8  -1  -5    0.98    0.40
   8   1   5    2.26    0.21
   8   1   5    1.88    0.22
   9   1   5    7.32    0.30
   7  -2  -5   34.11    1.33
  -7   2   5   33.47    1.14
  -7   2   5   32.80    1.22
   6  -2  -5   56.22    2.30
  -6   2   5   57.22    1.99
  -6   2   5   57.59    2.11
   5  -2  -5   -0.04    0.18
  -5   2   5    0.49    0.21
  -5   2   5    0.01    0.13
  -5   2   5    0.41    0.18
  -5   2   5   -0.24    0.16
   4  -2  -5   87.03    3.80
  -4   2   5   81.73    2.55
  -4   2   5   84.66    3.44
  -4   2   5   84.03    4.00
  -4   2   5   85.50    3.21
  -4   2   5   90.85    3.47
  -4   2   5   90.08    3.19
  -4   2   5   86.86    2.98
   3  -2  -5   66.68    4.38
   3  -2  -5   62.30    3.02
  -3   2   5   67.24    2.52
  -3   2   5   70.97    3.17
  -3   2   5   68.30    2.71
   2  -2  -5    0.86    0.30
  -2   2   5    0.77    0.14
  -2   2   5    1.05    0.15
  -2   2   5    1.06    0.18
   1  -2  -5  180.78    9.26
  -1   2   5  180.24    8.41
  -1   2   5  174.90    6.81
  -1   2   5  178.48    8.11
   0  -2  -5   15.57    0.94
   0   2   5   16.21    0.77
   0   2   5   15.57    0.84
   1   2   5   97.78    4.34
   1   2   5   93.00    4.33
   1   2   5   96.88    4.55
  -2  -2  -5  179.28    9.78
   2   2   5  169.71    8.25
   2   2   5  178.08    7.93
  -3  -2  -5    0.16    0.14
   3   2   5    0.14    0.07
   3   2   5    0.30    0.10
  -4  -2  -5   88.29    5.49
   4   2   5  104.83    4.62
   4   2   5   93.69    4.40
  -5  -2  -5   43.88    2.88
   5   2   5   44.95    2.22
   5   2   5   46.49    2.05
   5   2   5   50.23    2.40
   6   2   5   20.10    1.02
   6   2   5   19.40    1.06
   6   2   5   21.12    0.96
   6   2   5   20.04    0.84
  -7  -2  -5   17.94    1.30
  -7  -2  -5   19.70    1.48
  -8  -2  -5    6.18    0.74
  -8  -2  -5    6.51    0.85
   9   2   5   63.77    2.14
   9   2   5   63.31    2.44
   6  -3  -5    3.83    0.29
  -6   3   5    4.15    0.25
  -6   3   5    4.18    0.29
   5  -3  -5    3.74    0.37
   5  -3  -5    3.13    0.38
   5  -3  -5    3.45    0.29
  -5   3   5    3.46    0.29
  -5   3   5    3.94    0.38
   4  -3  -5    2.25    0.34
   4  -3  -5    2.63    0.28
  -4   3   5    2.01    0.32
  -4   3   5    2.50    0.28
  -4   3   5    2.85    0.30
  -4   3   5    1.75    0.28
   3  -3  -5   30.27    1.52
   3  -3  -5   27.70    1.16
   3  -3  -5   28.50    1.23
  -3   3   5   28.01    1.28
  -3   3   5   27.90    1.19
  -3   3   5   28.33    1.48
  -3   3   5   31.50    1.32
  -3   3   5   25.70    1.31
   2  -3  -5    0.03    0.19
   2  -3  -5    0.14    0.19
  -2   3   5    0.17    0.14
  -2   3   5    0.26    0.12
   1  -3  -5   30.73    1.83
  -1   3   5   32.41    1.34
  -1   3   5   30.66    1.59
  -1   3   5   33.73    1.66
   0  -3  -5    8.10    0.57
   0   3   5    8.22    0.52
   0   3   5    8.49    0.44
   0   3   5    8.78    0.54
  -1  -3  -5   14.47    1.00
   1   3   5   16.27    0.86
   1   3   5   14.76    0.80
  -2  -3  -5  126.00    7.20
   2   3   5  133.30    6.10
   2   3   5  124.89    5.86
  -3  -3  -5   95.09    5.32
   3   3   5   93.16    4.48
   3   3   5   90.99    4.30
  -4  -3  -5   42.41    2.57
   4   3   5   42.48    2.13
   4   3   5   40.31    2.01
  -6  -3  -5    0.39    0.39
  -6  -3  -5    0.78    0.43
  -7  -3  -5   16.46    1.20
  -7  -3  -5   16.50    1.34
  -8  -3  -5   10.65    0.96
  -8  -3  -5   10.88    1.06
   8   3   5   13.96    0.60
   8   3   5   13.76    0.66
   9   3   5    5.97    0.31
   9   3   5    6.02    0.35
   5  -4  -5   13.86    0.57
   5  -4  -5   13.90    0.76
  -5   4   5   13.92    0.59
  -5   4   5   13.12    0.64
   4  -4  -5   38.43    1.41
   4  -4  -5   42.00    1.87
   4  -4  -5   37.84    1.51
  -4   4   5   37.06    1.43
  -4   4   5   37.91    1.55
   3  -4  -5  127.62    3.99
   3  -4  -5  116.87    4.29
   3  -4  -5  123.30    5.19
  -3   4   5  116.93    4.07
  -3   4   5  118.02    4.27
  -3   4   5  114.97    4.38
   2  -4  -5    7.24    0.65
   2  -4  -5    6.96    0.49
   2  -4  -5    7.01    0.56
  -2   4   5    5.43    0.39
  -2   4   5    6.63    0.55
  -2   4   5    7.30    0.44
  -1   4   5  194.49    8.88
  -1   4   5  191.35    7.43
   0   4   5   36.34    1.84
   0   4   5   35.71    1.49
   0   4   5   33.48    1.77
  -1  -4  -5    4.72    0.44
   1   4   5    4.42    0.38
   1   4   5    4.77    0.32
   1   4   5    5.11    0.39
  -2  -4  -5   77.58    4.45
   2   4   5   76.26    3.64
   2   4   5   75.15    3.06
   2   4   5   80.67    3.80
  -3  -4  -5    4.38    0.46
   3   4   5    4.53    0.39
   3   4   5    4.23    0.35
  -4  -4  -5    6.64    0.65
   4   4   5    6.75    0.47
  -5  -4  -5   35.68    2.33
   5   4   5   34.88    1.78
  -6  -4  -5    1.91    0.52
  -6  -4  -5    1.83    0.49
   6   4   5    2.84    0.29
   6   4   5    2.15    0.26
   6   4   5    2.37    0.29
  -7  -4  -5   56.63    3.06
  -7  -4  -5   63.35    3.43
   7   4   5   72.65    2.60
  -8  -4  -5   18.78    1.22
  -8  -4  -5   18.04    1.35
   8   4   5   20.05    0.89
  -9  -4  -5    8.02    0.61
   9   4   5    7.83    0.41
   9   4   5    6.95    0.36
  -5   5   5   14.07    0.54
   4  -5  -5    0.65    0.20
   4  -5  -5    0.57    0.15
   4  -5  -5    0.31    0.15
  -4   5   5    0.38    0.13
  -4   5   5    0.08    0.15
   3  -5  -5   38.87    1.45
   3  -5  -5   40.06    1.90
   3  -5  -5   40.53    1.57
  -3   5   5   38.69    1.56
  -3   5   5   38.62    1.57
   2  -5  -5   35.75    1.37
   2  -5  -5   35.06    1.76
   2  -5  -5   35.80    1.49
  -2   5   5   33.46    1.43
   1  -5  -5    3.28    0.39
   1  -5  -5    3.50    0.49
   1  -5  -5    3.13    0.43
  -1   5   5    3.91    0.33
  -1   5   5    3.37    0.42
  -1   5   5    2.24    0.28
   0   5   5   32.48    1.76
   0   5   5   34.53    1.38
   1   5   5   40.36    1.85
   2   5   5  161.41    7.46
  -3  -5  -5   38.41    2.37
   3   5   5   37.98    1.93
  -4  -5  -5   19.34    1.40
   4   5   5   19.29    1.08
  -5  -5  -5   37.41    2.10
  -5  -5  -5   35.45    1.90
   5   5   5   41.66    1.96
  -6  -5  -5    9.24    0.87
  -6  -5  -5    8.08    0.77
   6   5   5    9.46    0.53
   6   5   5    9.40    0.63
  -7  -5  -5   12.21    1.01
  -7  -5  -5   12.23    0.92
   7   5   5   11.48    0.63
   7   5   5   11.87    0.61
  -8  -5  -5   21.19    1.37
  -8  -5  -5   21.71    1.25
   8   5   5   20.36    0.93
  -9  -5  -5    4.85    0.47
   9   5   5    4.51    0.28
   9   5   5    4.54    0.29
   4  -6  -5    0.14    0.08
  -4   6   5    0.06    0.07
   3  -6  -5   19.50    0.83
   3  -6  -5   20.68    0.78
   3  -6  -5   18.75    1.00
  -3   6   5   19.07    0.79
   2  -6  -5   36.32    1.46
   2  -6  -5   35.14    1.34
   2  -6  -5   35.51    1.73
  -2   6   5   36.31    1.45
   1  -6  -5    0.64    0.23
   1  -6  -5    0.54    0.25
   1  -6  -5    0.82    0.25
   1  -6  -5    0.56    0.22
  -1   6   5    0.26    0.15
   0  -6  -5   20.28    1.04
   0  -6  -5   23.04    1.20
   0  -6  -5   21.35    1.22
   0  -6  -5   20.67    0.95
   0   6   5   21.23    1.26
   0   6   5   22.04    0.97
  -1  -6  -5    1.08    0.31
   1   6   5    0.93    0.19
   1   6   5    1.21    0.22
   1   6   5    0.63    0.18
   1   6   5    1.26    0.28
   2   6   5   18.07    1.10
   2   6   5   19.37    0.88
   3   6   5  157.87    7.38
   3   6   5  160.21    5.77
   4   6   5    0.27    0.15
   4   6   5    0.85    0.23
   5   6   5   73.84    3.65
   5   6   5   78.26    2.78
  -6  -6  -5    7.26    0.70
  -6  -6  -5    7.27    0.66
   6   6   5    7.11    0.46
  -7  -6  -5    0.36    0.29
  -7  -6  -5    0.62    0.29
   7   6   5    0.12    0.13
  -8  -6  -5   22.30    1.36
  -8  -6  -5   23.82    1.25
   8   6   5   22.86    0.93
   3  -7  -5    1.20    0.14
   3  -7  -5    1.01    0.11
   2  -7  -5   51.93    1.70
   2  -7  -5   51.84    1.85
   2  -7  -5   48.08    2.18
  -2   7   5   47.81    1.87
   1  -7  -5    3.72    0.37
   1  -7  -5    2.46    0.28
   1  -7  -5    3.22    0.29
   1  -7  -5    3.22    0.37
  -1   7   5    3.20    0.28
   0  -7  -5   27.27    1.17
   0  -7  -5   25.74    1.31
   0  -7  -5   26.47    1.05
   0   7   5   26.54    1.14
  -1  -7  -5   15.39    0.91
  -1  -7  -5   12.98    0.76
   1   7   5   14.67    0.73
  -2  -7  -5   11.15    0.80
  -2  -7  -5   11.05    0.69
   2   7   5   11.92    0.64
   3   7   5   51.48    1.91
   3   7   5   49.68    2.58
   3   7   5   52.73    2.03
   4   7   5    9.94    0.57
   4   7   5   10.17    0.54
   5   7   5   36.18    1.43
   6   7   5   64.84    2.39
  -7  -7  -5   10.73    0.72
  -7  -7  -5    9.82    0.82
   7   7   5   10.34    0.53
  -8  -7  -5   59.06    2.60
   8   7   5   58.16    2.11
   1  -8  -5    4.37    0.25
   1  -8  -5    4.72    0.29
   1  -8  -5    4.23    0.31
  -1   8   5    3.92    0.27
   0  -8  -5    1.82    0.23
   0  -8  -5    1.82    0.20
   0  -8  -5    1.63    0.25
   0   8   5    1.99    0.22
  -1  -8  -5   24.89    1.05
  -1  -8  -5   24.59    1.22
   1   8   5   24.77    1.06
  -2  -8  -5    3.07    0.40
   2   8   5    3.60    0.33
  -3  -8  -5   12.05    0.79
   3   8   5   11.86    0.63
  -4  -8  -5    1.42    0.31
   4   8   5    2.13    0.23
   4   8   5    1.81    0.24
   5   8   5    0.34    0.13
   6   8   5   25.26    1.02
   7   8   5    5.05    0.31
   8   8   5    0.74    0.12
   0  -9  -5    0.18    0.10
  -1  -9  -5   35.49    1.49
   1   9   5   34.07    1.33
  -2  -9  -5    8.84    0.53
   2   9   5    8.24    0.44
  -3  -9  -5   16.55    0.84
   3   9   5   15.47    0.71
  -4  -9  -5   42.35    1.82
   4   9   5   41.54    1.62
   5   9   5    8.80    0.42
   5   9   5    8.10    0.44
   6   9   5   43.33    1.57
   7   9   5   27.84    1.03
  -6  -8   6   12.41    0.43
   5   8  -6    6.41    0.41
  -5  -8   6    6.41    0.38
  -5  -8   6    6.33    0.34
  -5  -8   6    6.76    0.28
  -5  -8   6    6.42    0.28
  -5  -8   6    6.57    0.25
   4   8  -6   16.06    0.79
  -4  -8   6   18.30    0.73
  -4  -8   6   17.35    0.62
  -4  -8   6   17.17    0.62
  -4  -8   6   17.80    0.56
  -4  -8   6   17.00    0.61
  -4  -8   6   17.47    0.92
   3   8  -6    0.52    0.18
  -3  -8   6    0.56    0.19
  -3  -8   6    0.92    0.12
  -3  -8   6    0.90    0.12
  -3  -8   6    0.62    0.14
  -3  -8   6    0.64    0.09
  -2  -8   6    3.19    0.20
  -2  -8   6    2.87    0.26
  -2  -8   6    3.23    0.21
  -2  -8   6    2.90    0.33
  -2  -8   6    2.96    0.16
  -1  -8   6    1.71    0.24
  -1  -8   6    2.00    0.17
  -1  -8   6    1.99    0.13
  -1  -8   6    2.05    0.20
   0  -8   6    0.41    0.11
   0  -8   6    0.23    0.13
   0  -8   6    0.40    0.07
   0  -8   6    0.48    0.09
  -7  -7   6   37.22    1.19
  -6  -7   6   35.67    1.73
  -6  -7   6   37.84    1.22
  -6  -7   6   37.15    1.47
  -6  -7   6   37.34    1.37
  -6  -7   6   35.60    1.19
  -6  -7   6   39.18    1.13
  -5  -7   6    1.13    0.27
  -5  -7   6    1.20    0.12
  -5  -7   6    1.19    0.16
  -5  -7   6    1.51    0.33
  -5  -7   6    1.50    0.16
  -5  -7   6    1.46    0.20
  -5  -7   6    1.50    0.23
  -5  -7   6    1.53    0.15
  -4  -7   6   40.35    1.23
  -4  -7   6   38.24    1.56
  -4  -7   6   41.39    1.35
  -4  -7   6   40.67    1.63
  -4  -7   6   41.27    1.31
  -4  -7   6   41.89    1.95
  -4  -7   6   37.54    2.12
  -4  -7   6   41.18    1.54
  -3  -7   6   59.38    2.18
  -3  -7   6   60.17    1.88
  -3  -7   6   59.10    1.77
  -3  -7   6   60.61    2.30
  -3  -7   6   54.90    2.96
  -3  -7   6   63.21    2.73
  -3  -7   6   57.96    2.24
  -3  -7   6   58.99    1.93
  -2  -7   6   13.01    0.64
  -2  -7   6   12.70    0.61
  -2  -7   6   13.03    0.51
  -2  -7   6   13.38    0.84
  -2  -7   6   12.94    0.89
  -2  -7   6   12.39    0.46
  -2  -7   6   12.67    0.53
  -1  -7   6   60.11    2.32
  -1  -7   6   58.21    3.03
  -1  -7   6   62.45    2.77
  -1  -7   6   61.27    1.83
  -1  -7   6   63.80    1.95
  -1  -7   6   62.63    2.01
  -1  -7   6   62.27    2.25
   0  -7   6   11.66    0.48
   0  -7   6   11.92    0.57
   0  -7   6   10.85    0.55
   0  -7   6   10.80    0.75
   0  -7   6   11.34    0.41
   0  -7   6   10.32    0.67
   0  -7   6   10.94    0.69
   1  -7   6   34.54    1.52
   1  -7   6   35.67    1.29
   1  -7   6   31.66    1.55
   1  -7   6   36.11    1.16
   1  -7   6   32.09    1.11
   1  -7   6   33.91    1.03
  -2   7  -6    8.56    0.55
   2  -7   6   10.18    0.55
   2  -7   6   10.88    0.41
   7   6  -6    4.83    0.31
  -7  -6   6    4.68    0.24
  -7  -6   6    4.63    0.24
  -7  -6   6    4.84    0.22
  -7  -6   6    4.79    0.30
  -7  -6   6    4.33    0.32
  -7  -6   6    4.82    0.33
  -6  -6   6   20.87    0.65
  -6  -6   6   19.38    0.69
  -6  -6   6   18.53    0.89
  -6  -6   6   18.97    0.88
  -6  -6   6   19.32    0.85
  -6  -6   6   17.66    0.81
  -6  -6   6   18.53    0.82
  -6  -6   6   19.81    0.71
  -6  -6   6   18.86    1.04
  -5  -6   6    0.57    0.10
  -5  -6   6    0.55    0.12
  -5  -6   6    0.60    0.21
  -5  -6   6    0.48    0.14
  -5  -6   6    0.78    0.27
  -5  -6   6    0.61    0.19
  -5  -6   6    0.64    0.13
  -5  -6   6    0.56    0.28
  -5  -6   6    0.36    0.20
  -4  -6   6   16.80    0.73
  -4  -6   6   16.32    0.77
  -4  -6   6   16.07    0.57
  -4  -6   6   16.10    0.82
  -4  -6   6   15.85    0.62
  -4  -6   6   15.55    0.99
  -4  -6   6   15.79    0.81
  -4  -6   6   16.33    1.10
  -4  -6   6   15.77    0.60
  -3  -6   6   15.83    0.80
  -3  -6   6   15.27    0.97
  -3  -6   6   15.19    1.06
  -3  -6   6   15.86    0.59
  -3  -6   6   16.17    0.71
  -3  -6   6   15.69    0.55
  -3  -6   6   16.22    0.76
  -3  -6   6   15.37    0.61
  -2  -6   6   24.00    0.96
  -2  -6   6   22.84    1.03
  -2  -6   6   22.11    0.79
  -2  -6   6   21.96    0.83
  -2  -6   6   21.47    1.23
  -2  -6   6   22.72    1.36
  -2  -6   6   22.64    0.98
  -2  -6   6   22.22    0.74
  -1  -6   6   23.62    1.38
  -1  -6   6   23.56    0.76
  -1  -6   6   22.38    1.25
  -1  -6   6   24.22    0.99
  -1  -6   6   22.29    0.82
  -1  -6   6   22.93    0.86
  -1  -6   6   23.67    1.01
   0  -6   6    7.73    0.44
   0  -6   6    7.13    0.35
   0  -6   6    7.13    0.54
   0  -6   6    7.99    0.60
   0  -6   6    7.48    0.32
   0  -6   6    7.22    0.46
   0  -6   6    7.24    0.37
   0  -6   6    7.54    0.64
   1  -6   6    7.70    0.33
   1  -6   6    8.18    0.39
   1  -6   6    7.36    0.46
   1  -6   6    7.97    0.60
   1  -6   6    7.93    0.57
   1  -6   6    7.84    0.64
   1  -6   6    7.87    0.45
   2  -6   6    6.90    0.29
   2  -6   6    7.21    0.41
   2  -6   6    6.55    0.50
   2  -6   6    6.60    0.41
   2  -6   6    6.80    0.34
   2  -6   6    6.27    0.56
   2  -6   6    6.42    0.51
   2  -6   6    6.96    0.35
   2  -6   6    6.92    0.46
  -3   6  -6    0.42    0.23
   3  -6   6    0.57    0.18
   3  -6   6    0.49    0.16
   3  -6   6    0.83    0.13
   3  -6   6    0.36    0.08
   8   5  -6   14.57    0.61
  -8  -5   6   14.91    0.52
  -7  -5   6    7.38    0.36
  -7  -5   6    8.58    0.49
  -7  -5   6    8.55    0.38
  -7  -5   6    8.58    0.33
  -7  -5   6    8.45    0.48
  -7  -5   6    8.27    0.45
  -7  -5   6    8.47    0.49
  -6  -5   6   50.75    1.58
  -6  -5   6   50.85    1.95
  -6  -5   6   47.17    1.87
  -6  -5   6   48.76    1.49
  -6  -5   6   48.68    1.88
  -6  -5   6   46.92    1.61
  -6  -5   6   51.39    1.97
  -6  -5   6   47.93    1.84
  -5  -5   6   49.99    2.37
  -5  -5   6   50.68    1.93
  -5  -5   6   52.51    1.95
  -5  -5   6   51.36    1.63
  -5  -5   6   50.17    1.67
  -5  -5   6   51.67    1.54
  -5  -5   6   49.84    1.94
  -5  -5   6   51.05    2.04
  -5  -5   6   51.06    2.03
  -5  -5   6   49.35    2.61
  -4  -5   6    2.22    0.40
  -4  -5   6    3.05    0.25
  -4  -5   6    3.13    0.21
  -4  -5   6    4.18    0.47
  -4  -5   6    3.01    0.21
  -4  -5   6    2.90    0.32
  -4  -5   6    3.47    0.41
  -4  -5   6    3.05    0.22
  -4  -5   6    3.71    0.37
  -3  -5   6   63.33    2.03
  -3  -5   6   62.44    2.43
  -3  -5   6   62.27    2.33
  -3  -5   6   64.36    2.45
  -3  -5   6   63.57    1.87
  -3  -5   6   63.25    1.97
  -3  -5   6   61.68    3.16
  -3  -5   6   64.07    2.35
  -3  -5   6   62.51    2.87
  -2  -5   6    7.63    0.49
  -2  -5   6    8.27    0.63
  -2  -5   6    8.17    0.34
  -2  -5   6    8.40    0.52
  -2  -5   6    8.18    0.42
  -2  -5   6    8.33    0.69
  -2  -5   6    8.14    0.37
  -1  -5   6   95.66    4.59
  -1  -5   6   96.65    3.51
  -1  -5   6   94.16    2.94
  -1  -5   6   96.49    3.03
  -1  -5   6   91.14    4.64
  -1  -5   6   97.61    3.42
  -1  -5   6   97.07    2.78
  -1  -5   6   98.68    4.18
   0  -5   6   21.16    0.89
   0  -5   6   19.88    1.12
   0  -5   6   21.36    0.74
   0  -5   6   20.35    1.04
   0  -5   6   21.70    1.26
   0  -5   6   20.49    0.91
   0  -5   6   21.59    0.77
   0  -5   6   20.08    0.68
   0  -5   6   19.32    1.15
   1  -5   6   28.76    1.04
   1  -5   6   30.29    1.64
   1  -5   6   29.22    0.94
   1  -5   6   29.17    1.48
   1  -5   6   29.70    1.01
   1  -5   6   30.65    1.21
   1  -5   6   29.11    1.39
   1  -5   6   28.38    1.20
   2  -5   6   47.09    1.80
   2  -5   6   50.21    2.43
   2  -5   6   48.56    2.20
   2  -5   6   49.68    1.86
   2  -5   6   46.42    1.83
   2  -5   6   47.59    1.45
   2  -5   6   44.70    1.59
   2  -5   6   45.23    2.07
   3  -5   6   22.67    1.01
   3  -5   6   23.70    1.00
   3  -5   6   21.83    0.91
   3  -5   6   23.32    0.86
   3  -5   6   23.59    0.76
   3  -5   6   22.97    1.31
   3  -5   6   23.58    0.83
   3  -5   6   23.51    1.14
  -4   5  -6   38.17    1.66
   4  -5   6   44.22    1.82
   4  -5   6   42.72    1.48
   4  -5   6   41.94    1.61
   4  -5   6   44.89    1.42
  -8  -4   6    0.10    0.10
  -8  -4   6    0.11    0.08
  -8  -4   6    0.14    0.12
  -7  -4   6   15.57    0.60
  -7  -4   6   15.13    0.76
  -7  -4   6   16.39    0.62
  -7  -4   6   17.39    0.77
  -7  -4   6   14.49    0.71
  -7  -4   6   15.45    0.75
  -7  -4   6   16.34    0.72
  -7  -4   6   16.84    0.56
  -6  -4   6    2.77    0.22
  -6  -4   6    2.38    0.28
  -6  -4   6    2.34    0.29
  -6  -4   6    2.52    0.22
  -6  -4   6    2.47    0.25
  -6  -4   6    2.67    0.20
  -6  -4   6    2.17    0.34
  -6  -4   6    2.39    0.29
  -5  -4   6    1.51    0.24
  -5  -4   6    1.95    0.28
  -5  -4   6    1.84    0.16
  -5  -4   6    2.05    0.35
  -5  -4   6    1.80    0.21
  -5  -4   6    1.74    0.17
  -5  -4   6    1.85    0.27
  -5  -4   6    1.66    0.18
  -4  -4   6    2.17    0.33
  -4  -4   6    2.89    0.19
  -4  -4   6    2.51    0.21
  -4  -4   6    2.62    0.20
  -4  -4   6    2.43    0.19
  -4  -4   6    1.95    0.25
  -4  -4   6    2.24    0.28
  -4  -4   6    2.19    0.35
  -4  -4   6    2.01    0.37
  -4  -4   6    2.71    0.31
  -3  -4   6   15.17    1.02
  -3  -4   6   15.03    0.82
  -3  -4   6   15.40    0.93
  -3  -4   6   18.54    0.82
  -3  -4   6   18.86    0.59
  -3  -4   6   16.38    0.69
  -2  -4   6    3.21    0.34
  -2  -4   6    3.23    0.40
  -2  -4   6    2.68    0.37
  -2  -4   6    2.84    0.17
  -2  -4   6    3.95    0.22
  -1  -4   6   12.10    0.53
  -1  -4   6   11.93    0.80
  -1  -4   6   12.09    0.44
  -1  -4   6   12.07    0.73
   0  -4   6    2.98    0.23
   0  -4   6    3.37    0.29
   0  -4   6    3.24    0.36
   0  -4   6    3.34    0.40
   0  -4   6    3.60    0.20
   1  -4   6    0.58    0.21
   1  -4   6    0.86    0.17
   1  -4   6    1.05    0.15
   1  -4   6    0.46    0.20
   1  -4   6    0.96    0.13
   2  -4   6   10.99    0.42
   2  -4   6   10.79    0.71
   2  -4   6   10.81    0.72
   2  -4   6   12.01    0.80
   2  -4   6   10.93    0.58
   2  -4   6   10.82    0.67
   2  -4   6   10.97    0.55
   2  -4   6   11.43    0.49
   2  -4   6   10.62    0.59
   2  -4   6   11.23    0.55
   2  -4   6   10.58    0.43
   3  -4   6    3.91    0.27
   3  -4   6    3.70    0.34
   3  -4   6    4.00    0.32
   3  -4   6    3.77    0.43
   3  -4   6    4.17    0.43
   3  -4   6    4.43    0.49
   3  -4   6    3.60    0.32
   3  -4   6    4.16    0.27
   3  -4   6    4.34    0.24
   3  -4   6    3.71    0.22
   3  -4   6    3.97    0.39
   3  -4   6    3.68    0.32
  -4   4  -6   14.67    0.90
   4  -4   6   15.44    0.75
   4  -4   6   16.65    0.63
   4  -4   6   15.71    0.99
   4  -4   6   15.97    0.76
   4  -4   6   15.64    0.59
   4  -4   6   16.33    0.85
   4  -4   6   15.81    0.70
   4  -4   6   16.80    0.57
   4  -4   6   15.63    0.90
   4  -4   6   16.20    0.65
   5  -4   6    2.39    0.24
   5  -4   6    2.60    0.28
   5  -4   6    2.55    0.31
   5  -4   6    2.47    0.22
   5  -4   6    2.29    0.23
  -8  -3   6   73.19    2.56
  -8  -3   6   74.53    2.60
  -8  -3   6   72.91    2.32
  -7  -3   6   50.11    1.80
  -7  -3   6   47.65    1.42
  -7  -3   6   47.18    1.51
  -7  -3   6   41.26    1.78
  -7  -3   6   46.99    1.82
  -7  -3   6   46.83    1.75
  -7  -3   6   46.74    1.55
  -6  -3   6   10.20    0.42
  -6  -3   6   10.50    0.54
  -6  -3   6    9.84    0.46
  -6  -3   6   11.16    0.61
  -6  -3   6    9.70    0.40
  -6  -3   6    9.56    0.57
  -6  -3   6   10.39    0.45
  -6  -3   6   10.60    0.59
  -5  -3   6  125.30    4.46
  -5  -3   6  123.94    4.15
  -5  -3   6  130.26    4.56
  -5  -3   6  124.98    4.62
  -5  -3   6  125.87    4.42
  -5  -3   6  126.57    3.64
  -5  -3   6  122.85    4.53
  -5  -3   6  128.68    3.84
  -5  -3   6  122.33    3.93
  -4  -3   6    3.91    0.34
  -4  -3   6    4.56    0.40
  -4  -3   6    4.22    0.26
  -4  -3   6    3.75    0.22
  -3  -3   6   49.92    2.46
  -3  -3   6   50.15    1.55
  -3  -3   6   49.39    1.84
  -2  -3   6   33.39    1.21
  -2  -3   6   31.80    1.67
  -1  -3   6    2.88    0.16
  -1  -3   6    2.71    0.30
   0  -3   6  113.70    5.28
   0  -3   6  112.75    3.98
   0  -3   6  108.15    5.17
   1  -3   6   72.18    2.61
   1  -3   6   69.29    3.43
   1  -3   6   72.36    3.10
   1  -3   6   71.80    3.41
   1  -3   6   71.41    2.60
   2  -3   6   25.02    1.35
   2  -3   6   23.70    1.29
   2  -3   6   24.03    0.98
   2  -3   6   24.80    1.23
   2  -3   6   24.50    1.21
   3  -3   6  124.85    4.49
   3  -3   6  123.96    4.36
   3  -3   6  114.29    5.92
   3  -3   6  121.80    4.01
   3  -3   6  122.25    4.95
   3  -3   6  123.60    5.24
   3  -3   6  125.56    3.78
   3  -3   6  125.50    5.23
   3  -3   6  121.72    4.09
   3  -3   6  123.98    3.56
   3  -3   6  129.44    5.79
   3  -3   6  122.82    3.87
   4  -3   6   19.17    0.97
   4  -3   6   19.98    0.86
   4  -3   6   18.74    0.65
   4  -3   6   18.40    0.71
   4  -3   6   18.67    1.03
   4  -3   6   17.96    0.73
   4  -3   6   20.46    1.17
   4  -3   6   18.46    0.86
   4  -3   6   18.66    0.65
   4  -3   6   18.60    0.73
   4  -3   6   19.48    0.80
   5  -3   6   29.55    1.46
   5  -3   6   30.59    1.08
   5  -3   6   30.94    1.22
   5  -3   6   29.38    0.96
   5  -3   6   30.90    1.13
   5  -3   6   29.56    1.07
   5  -3   6   29.20    1.36
   6  -3   6   36.67    1.26
   6  -3   6   36.47    1.36
   6  -3   6   34.34    1.63
  -8  -2   6    8.66    0.41
   7   2  -6    3.65    0.33
  -7  -2   6    4.24    0.36
  -7  -2   6    4.63    0.24
  -7  -2   6    3.88    0.27
  -7  -2   6    4.04    0.36
  -7  -2   6    3.27    0.30
   6   2  -6    0.38    0.18
  -6  -2   6    0.12    0.17
  -6  -2   6    0.16    0.13
  -6  -2   6    0.08    0.11
  -6  -2   6   -0.02    0.11
  -6  -2   6    0.15    0.16
  -6  -2   6    0.18    0.10
  -6  -2   6    0.23    0.12
  -6  -2   6    0.28    0.16
  -6  -2   6    0.18    0.11
  -5  -2   6   25.29    0.87
  -5  -2   6   24.72    1.06
  -5  -2   6   25.36    0.82
  -5  -2   6   23.50    1.07
  -5  -2   6   24.57    1.08
  -5  -2   6   24.85    0.93
  -5  -2   6   24.56    1.08
  -5  -2   6   24.46    0.89
  -5  -2   6   23.98    1.02
   4   2  -6    0.32    0.26
  -4  -2   6    0.50    0.11
  -4  -2   6    0.50    0.12
  -4  -2   6    0.47    0.10
  -4  -2   6    0.69    0.17
   3   2  -6    2.18    0.43
  -3  -2   6    1.86    0.16
  -3  -2   6    2.12    0.16
   2   2  -6   53.33    3.45
  -2  -2   6   54.35    1.94
   1   2  -6   83.81    4.52
  -1  -2   6   85.78    3.93
   0  -2   6   25.26    1.46
   0  -2   6   27.37    1.34
   1  -2   6    1.69    0.15
   1  -2   6    1.56    0.12
   1  -2   6    1.55    0.24
   2  -2   6   21.86    1.09
   2  -2   6   23.39    0.88
   2  -2   6   21.06    1.07
   2  -2   6   22.56    1.21
   2  -2   6   21.92    1.15
   3  -2   6    0.27    0.17
   3  -2   6    0.30    0.14
   3  -2   6    0.23    0.11
   3  -2   6    0.66    0.10
   3  -2   6    0.16    0.16
   3  -2   6    0.30    0.10
   4  -2   6    3.37    0.36
   4  -2   6    3.20    0.41
   4  -2   6    3.31    0.24
   4  -2   6    2.95    0.35
   4  -2   6    3.56    0.29
   4  -2   6    3.41    0.23
   4  -2   6    3.75    0.33
   4  -2   6    3.44    0.30
   4  -2   6    3.42    0.24
   4  -2   6    3.47    0.23
   4  -2   6    3.20    0.25
   4  -2   6    3.29    0.36
   5  -2   6   20.77    0.85
   5  -2   6   20.95    1.11
   5  -2   6   21.62    0.72
   5  -2   6   20.72    1.03
   5  -2   6   22.19    0.94
   5  -2   6   20.50    0.91
   5  -2   6   19.57    0.80
   5  -2   6   20.66    0.81
   5  -2   6   21.48    0.79
  -6   2  -6    0.48    0.45
   6  -2   6    1.34    0.21
   6  -2   6    1.14    0.14
   6  -2   6    0.98    0.21
   6  -2   6    1.20    0.18
   7  -2   6    0.72    0.12
   7  -2   6    0.65    0.12
  -8  -1   6    2.70    0.21
   7   1  -6   48.24    1.95
  -7  -1   6   49.43    1.80
  -7  -1   6   48.30    1.60
  -7  -1   6   45.58    1.61
  -7  -1   6   48.88    1.80
  -6  -1   6    0.03    0.19
  -6  -1   6    0.55    0.15
  -6  -1   6    0.15    0.12
  -6  -1   6    0.52    0.14
  -6  -1   6    0.25    0.16
  -6  -1   6    0.28    0.17
  -6  -1   6    0.96    0.19
  -6  -1   6    0.66    0.22
  -6  -1   6    0.27    0.15
  -6  -1   6    0.24    0.10
  -5  -1   6  165.89    5.25
  -5  -1   6  168.21    6.46
  -5  -1   6  170.08    6.10
  -5  -1   6  168.57    6.52
  -5  -1   6  173.53    5.14
  -5  -1   6  173.02    4.87
  -5  -1   6  171.06    5.92
  -5  -1   6  170.80    5.90
  -5  -1   6  161.64    6.11
  -5  -1   6  168.05    5.61
   4   1  -6   31.93    2.37
  -4  -1   6   32.63    1.09
  -4  -1   6   32.34    1.34
  -4  -1   6   35.12    1.30
  -4  -1   6   33.09    1.38
   3   1  -6    0.39    0.24
  -3  -1   6    0.61    0.10
  -3  -1   6    0.68    0.11
   2   1  -6  208.86   12.57
   2   1  -6  196.50   10.81
  -2  -1   6  215.93    7.87
  -2  -1   6  210.56    7.35
   1   1  -6   41.79    2.33
   0   1  -6   34.11    1.89
  -1   1  -6  156.48    8.57
   1  -1   6  151.32    7.18
   2  -1   6   32.85    1.61
   2  -1   6   32.47    1.21
   2  -1   6   32.32    1.62
   3  -1   6   31.43    1.47
   3  -1   6   31.87    1.62
   3  -1   6   29.63    1.44
   3  -1   6   31.22    1.21
   3  -1   6   32.68    1.60
   4  -1   6  129.77    6.18
   4  -1   6  128.93    4.66
   4  -1   6  126.17    5.41
   4  -1   6  127.37    5.99
   4  -1   6  131.80    3.93
   5  -1   6   19.93    0.87
   5  -1   6   19.37    0.75
   5  -1   6   18.60    0.85
   5  -1   6   19.06    1.02
   5  -1   6   18.69    1.14
   5  -1   6   19.86    0.97
   5  -1   6   19.83    0.79
   5  -1   6   19.04    0.73
   5  -1   6   19.27    0.77
   6  -1   6   96.63    3.92
   6  -1   6   87.71    3.23
   6  -1   6   90.33    3.07
   6  -1   6   90.01    2.67
   6  -1   6   88.46    2.98
   7  -1   6    7.40    0.37
   7  -1   6    7.29    0.34
   7  -1   6    6.30    0.47
   7  -1   6    7.01    0.39
   7   0  -6    0.18    0.13
  -7   0   6    0.13    0.08
  -7   0   6    0.22    0.13
  -6   0   6    1.75    0.21
  -6   0   6    1.71    0.24
  -6   0   6    1.73    0.28
  -6   0   6    1.22    0.27
  -6   0   6    1.69    0.19
  -6   0   6    1.36    0.24
  -6   0   6    1.45    0.16
  -5   0   6    0.26    0.16
  -5   0   6    0.47    0.23
  -5   0   6    0.36    0.11
  -5   0   6    0.03    0.14
  -5   0   6    0.62    0.15
  -5   0   6    0.25    0.22
  -5   0   6    0.27    0.14
  -5   0   6    0.23    0.12
  -5   0   6    0.27    0.12
  -5   0   6    0.25    0.13
   4   0  -6    6.69    0.83
  -4   0   6    7.34    0.33
  -4   0   6    6.71    0.39
  -4   0   6    6.62    0.42
  -4   0   6    6.31    0.40
   3   0  -6    7.66    0.83
  -3   0   6    7.75    0.40
  -3   0   6    8.17    0.39
   2   0  -6    6.01    0.65
   2   0  -6    5.68    0.55
  -2   0   6    5.96    0.28
  -2   0   6    5.73    0.29
   1   0  -6    3.68    0.37
  -1   0   6    3.47    0.17
   0   0  -6    2.71    0.28
   0   0   6    2.83    0.18
   1   0   6    1.99    0.14
  -2   0  -6    5.11    0.45
   2   0   6    5.19    0.32
  -3   0  -6    2.14    0.30
   3   0   6    2.07    0.16
   3   0   6    2.08    0.27
   3   0   6    2.17    0.21
   4   0   6    0.52    0.20
   4   0   6    0.49    0.14
   4   0   6    0.44    0.10
   4   0   6    0.31    0.14
   5   0   6    4.22    0.33
   5   0   6    4.56    0.26
   5   0   6    4.12    0.42
   5   0   6    4.08    0.39
   5   0   6    4.34    0.38
   5   0   6    4.64    0.32
   5   0   6    4.09    0.31
   5   0   6    4.55    0.29
   5   0   6    4.76    0.41
   6   0   6   12.24    0.72
   6   0   6   11.90    0.66
   6   0   6   11.92    0.47
   6   0   6   12.24    0.55
   6   0   6   11.38    0.53
   6   0   6   11.48    0.59
  -7   0  -6    0.03    0.39
  -7   0  -6    0.11    0.44
   7   0   6    0.56    0.14
   7   0   6    0.15    0.15
   7   0   6    0.11    0.14
   7   0   6    0.20    0.11
   8   0   6    4.48    0.22
   8   0   6    4.16    0.29
   7  -1  -6   29.61    1.23
  -7   1   6   29.74    1.12
   6  -1  -6  100.29    3.87
  -6   1   6  100.96    3.34
  -6   1   6  103.09    3.52
  -6   1   6   92.17    3.89
  -5   1   6    4.18    0.45
  -5   1   6    3.58    0.33
  -5   1   6    3.61    0.25
  -5   1   6    3.40    0.29
  -5   1   6    3.27    0.36
  -5   1   6    3.96    0.35
   4  -1  -6   94.14    4.30
  -4   1   6  106.01    3.59
  -4   1   6   97.79    3.87
  -4   1   6   99.39    3.88
  -4   1   6   99.12    2.88
  -4   1   6   97.64    3.13
  -4   1   6   96.03    3.64
  -4   1   6   96.73    3.33
  -4   1   6   97.47    3.51
  -4   1   6   99.01    3.63
  -4   1   6   98.17    3.05
   3  -1  -6  111.00    7.16
  -3   1   6  116.95    4.13
  -3   1   6  115.49    3.48
  -3   1   6  112.20    4.41
   2  -1  -6   14.65    1.27
  -2   1   6   16.24    0.66
  -2   1   6   15.90    0.69
   1  -1  -6  198.13   10.66
  -1   1   6  214.00    9.67
  -1   1   6  206.25    7.82
   0  -1  -6    2.90    0.28
   0   1   6    2.17    0.19
   1   1   6  278.49   12.99
  -2  -1  -6  143.22    7.97
   2   1   6  141.22    6.68
  -3  -1  -6   58.81    3.53
   3   1   6   63.17    2.23
   3   1   6   62.78    2.93
   3   1   6   57.23    2.85
  -4  -1  -6  394.87   23.18
   4   1   6  426.70   14.80
   4   1   6  414.80   17.06
   4   1   6  439.56   19.61
   5   1   6   11.04    0.68
   5   1   6   12.95    0.50
   6   1   6   16.45    0.85
   6   1   6   17.14    0.92
   6   1   6   17.16    0.71
   6   1   6   17.99    0.62
   6   1   6   16.58    0.71
   7   1   6   75.25    3.05
   7   1   6   81.68    3.36
   7   1   6   75.62    2.67
  -8  -1  -6    0.06    0.33
   8   1   6    0.27    0.12
   8   1   6    0.22    0.10
   6  -2  -6    2.03    0.25
  -6   2   6    2.31    0.25
  -6   2   6    2.06    0.20
   5  -2  -6    3.27    0.39
  -5   2   6    3.28    0.32
  -5   2   6    3.39    0.33
  -5   2   6    3.26    0.39
  -5   2   6    3.29    0.35
  -5   2   6    3.10    0.26
   4  -2  -6    1.47    0.31
  -4   2   6    1.49    0.24
  -4   2   6    1.29    0.27
  -4   2   6    1.35    0.16
  -4   2   6    0.97    0.18
  -4   2   6    1.87    0.32
  -4   2   6    0.91    0.19
   3  -2  -6   32.90    2.40
   3  -2  -6   28.42    1.64
  -3   2   6   33.54    1.41
  -3   2   6   34.03    1.35
  -3   2   6   33.54    1.32
  -3   2   6   33.10    1.10
   2  -2  -6    9.77    0.99
  -2   2   6   11.48    0.52
  -2   2   6   10.81    0.54
  -2   2   6   10.62    0.65
   1  -2  -6    0.36    0.17
  -1   2   6    0.53    0.11
  -1   2   6    0.16    0.09
  -1   2   6    0.19    0.08
   0   2   6    3.93    0.24
   0   2   6    4.20    0.30
   1   2   6   15.22    0.66
   1   2   6   15.11    0.81
  -2  -2  -6   17.05    1.15
   2   2   6   17.68    0.93
  -3  -2  -6    0.19    0.15
   3   2   6    0.24    0.10
  -4  -2  -6   11.31    0.91
   4   2   6   10.61    0.61
   4   2   6   12.84    0.72
   4   2   6   10.74    0.57
  -5  -2  -6    1.86    0.44
  -5  -2  -6    0.24    0.33
   5   2   6    0.86    0.16
   5   2   6    1.03    0.21
   5   2   6    1.07    0.15
   5   2   6    1.09    0.23
   5   2   6    1.42    0.16
   6   2   6    9.22    0.48
   6   2   6    9.58    0.60
   6   2   6    9.13    0.42
   6   2   6    9.59    0.56
   7   2   6   33.48    1.29
   7   2   6   35.79    1.50
  -8  -2  -6    0.64    0.44
  -8  -2  -6    0.97    0.41
   8   2   6    1.85    0.19
   8   2   6    1.73    0.23
   9   2   6    0.34    0.10
   9   2   6    0.30    0.08
   6  -3  -6   34.67    1.38
  -6   3   6   34.32    1.26
  -6   3   6   34.56    1.18
   5  -3  -6   14.82    0.84
   5  -3  -6   15.28    0.77
  -5   3   6   14.95    0.71
  -5   3   6   16.11    0.63
  -5   3   6   13.78    0.75
   4  -3  -6   26.08    1.27
   4  -3  -6   23.02    0.94
  -4   3   6   22.53    1.07
  -4   3   6   22.12    1.02
  -4   3   6   22.37    0.99
  -4   3   6   21.89    0.90
  -4   3   6   21.74    1.10
   3  -3  -6  119.71    4.00
   3  -3  -6  123.39    5.23
  -3   3   6  124.51    4.72
  -3   3   6  111.98    4.64
  -3   3   6  120.72    4.06
  -3   3   6  121.25    4.41
  -3   3   6  113.63    3.49
  -3   3   6  125.32    4.28
   2  -3  -6   18.65    1.64
  -2   3   6   21.35    0.77
  -2   3   6   21.70    0.92
  -2   3   6   20.92    0.97
  -2   3   6   23.47    0.96
  -2   3   6   21.19    1.07
  -1   3   6  109.88    4.98
  -1   3   6  106.13    3.76
  -1   3   6  105.21    4.74
  -1   3   6   96.32    4.37
  -1   3   6   98.22    4.01
   0   3   6   95.20    3.64
   0   3   6   99.03    3.90
   0   3   6  106.76    4.84
   0   3   6  101.34    4.60
  -1  -3  -6   43.76    2.59
   1   3   6   41.24    1.73
   1   3   6   44.27    2.16
   1   3   6   42.93    2.01
  -2  -3  -6  118.82    6.73
   2   3   6  122.95    5.68
   2   3   6  115.03    5.40
  -3  -3  -6   30.37    1.89
   3   3   6   28.39    1.17
   3   3   6   31.27    1.56
   3   3   6   29.73    1.43
  -4  -3  -6   68.20    3.93
   4   3   6   65.42    2.46
   4   3   6   66.32    2.86
   4   3   6   62.33    3.06
   4   3   6   67.31    3.26
  -5  -3  -6  175.43    9.88
   5   3   6  164.79    7.89
   5   3   6  183.97    8.30
   5   3   6  168.72    7.17
   6   3   6   11.07    0.61
   6   3   6   11.20    0.53
   6   3   6    9.98    0.61
   7   3   6   36.26    1.35
   7   3   6   35.84    1.53
  -8  -3  -6   62.63    3.81
   8   3   6   82.36    2.61
   8   3   6   80.67    2.97
   9   3   6    3.47    0.25
   9   3   6    3.57    0.21
   5  -4  -6    0.20    0.10
  -5   4   6    0.45    0.13
  -5   4   6    0.04    0.09
   4  -4  -6    0.29    0.15
   4  -4  -6    0.33    0.20
  -4   4   6    0.26    0.17
  -4   4   6    0.13    0.14
  -4   4   6    0.01    0.16
  -4   4   6    0.27    0.13
   3  -4  -6    9.06    0.54
   3  -4  -6   10.31    0.73
   3  -4  -6    8.79    0.57
  -3   4   6    9.17    0.48
  -3   4   6    9.43    0.59
  -3   4   6    8.70    0.57
  -3   4   6    9.65    0.53
  -3   4   6    7.06    0.55
   2  -4  -6    0.16    0.25
   2  -4  -6    0.14    0.22
  -2   4   6    0.38    0.15
  -2   4   6    0.28    0.16
  -2   4   6    0.25    0.16
  -2   4   6    0.37    0.17
  -2   4   6    0.54    0.17
  -2   4   6    0.30    0.20
  -1   4   6    4.74    0.40
  -1   4   6    4.70    0.35
  -1   4   6    4.62    0.36
   0   4   6   27.09    1.43
   0   4   6   29.06    1.21
   0   4   6   32.93    1.62
   0   4   6   31.18    1.31
   0   4   6   30.70    1.52
  -1  -4  -6   13.05    0.94
   1   4   6   11.30    0.70
   1   4   6   12.53    0.63
   1   4   6   13.44    0.73
   1   4   6   14.11    0.80
   1   4   6   12.74    0.60
  -2  -4  -6    0.22    0.15
   2   4   6    0.10    0.10
   2   4   6    0.50    0.15
   2   4   6    0.34    0.12
   2   4   6    0.59    0.14
  -3  -4  -6   65.95    3.74
   3   4   6   61.92    2.36
   3   4   6   58.88    2.95
   3   4   6   65.12    3.14
  -4  -4  -6    2.66    0.43
   4   4   6    3.10    0.34
   4   4   6    2.31    0.25
  -5  -4  -6   35.54    1.97
  -5  -4  -6   31.90    1.76
   6   4   6   17.90    0.76
   6   4   6   18.10    0.96
   6   4   6   17.50    0.86
  -7  -4  -6    5.15    0.69
  -7  -4  -6    4.08    0.70
   7   4   6    5.98    0.41
   7   4   6    6.11    0.38
  -8  -4  -6   10.59    0.99
  -8  -4  -6   10.90    0.89
   8   4   6   10.83    0.51
   8   4   6   11.53    0.59
   9   4   6    0.30    0.10
   9   4   6    0.38    0.10
   4  -5  -6    2.80    0.32
   4  -5  -6    2.28    0.23
   4  -5  -6    2.99    0.23
  -4   5   6    2.93    0.22
  -4   5   6    3.01    0.26
   3  -5  -6   30.40    1.18
   3  -5  -6   31.16    1.27
   3  -5  -6   32.58    1.55
  -3   5   6   30.57    1.17
  -3   5   6   30.39    1.26
   2  -5  -6   43.97    1.75
   2  -5  -6   46.47    2.13
   2  -5  -6   43.42    1.62
  -2   5   6   42.13    1.72
  -2   5   6   40.35    1.58
   1  -5  -6   20.97    1.05
   1  -5  -6   20.48    1.23
  -1   5   6   22.27    1.17
  -1   5   6   21.25    0.87
  -1   5   6   17.35    0.84
  -1   5   6   23.95    0.97
   0   5   6   79.92    3.80
   0   5   6   77.99    3.21
   0   5   6   82.06    3.01
   1   5   6   30.41    1.23
   1   5   6   25.90    1.39
   1   5   6   30.60    1.51
   1   5   6   29.63    1.29
  -2  -5  -6   35.28    2.09
   2   5   6   29.32    1.52
   2   5   6   33.89    1.67
   2   5   6   33.11    1.43
  -3  -5  -6   67.66    4.06
   3   5   6   69.53    3.26
  -4  -5  -6    6.99    0.73
   4   5   6    7.45    0.51
   5   5   6  137.73    4.78
   5   5   6  137.43    5.47
   5   5   6  132.22    6.27
  -6  -5  -6   30.66    1.80
  -6  -5  -6   26.22    1.59
   6   5   6   30.07    1.29
   6   5   6   31.39    1.22
  -7  -5  -6   31.04    1.91
  -7  -5  -6   32.82    1.75
   7   5   6   31.19    1.37
   7   5   6   34.44    1.30
  -8  -5  -6   44.57    2.43
  -8  -5  -6   46.51    2.22
   8   5   6   45.48    1.63
   8   5   6   45.67    1.83
   9   5   6    2.09    0.18
   9   5   6    1.94    0.19
   3  -6  -6    0.50    0.17
   3  -6  -6    0.68    0.14
   3  -6  -6    0.59    0.14
  -3   6   6    0.54    0.13
  -3   6   6    0.70    0.14
   2  -6  -6   10.56    0.56
   2  -6  -6   11.78    0.62
   2  -6  -6   11.17    0.73
  -2   6   6   11.30    0.54
  -2   6   6   11.36    0.58
   1  -6  -6    1.40    0.27
   1  -6  -6    1.59    0.26
   1  -6  -6    1.48    0.27
   1  -6  -6    2.28    0.37
  -1   6   6    1.42    0.22
  -1   6   6    1.83    0.24
   0  -6  -6    4.60    0.53
   0  -6  -6    4.30    0.47
   0  -6  -6    5.00    0.52
   0   6   6    4.59    0.34
   0   6   6    6.20    0.41
  -1  -6  -6   24.86    1.48
   1   6   6   33.54    1.58
   1   6   6   26.73    1.09
   1   6   6   34.43    1.28
   1   6   6   26.77    1.19
  -2  -6  -6    0.15    0.28
   2   6   6    0.17    0.16
   2   6   6    0.34    0.18
   2   6   6    0.35    0.17
   2   6   6    0.07    0.13
   3   6   6   82.30    3.80
   3   6   6   83.30    3.01
   3   6   6   72.77    3.28
   3   6   6   81.38    2.88
   4   6   6   17.44    0.75
   4   6   6   14.44    0.84
   4   6   6   15.73    0.92
   5   6   6    1.60    0.28
   5   6   6    1.20    0.23
   5   6   6    1.75    0.25
  -6  -6  -6   38.94    1.91
   6   6   6   38.31    1.51
  -7  -6  -6    3.06    0.47
  -7  -6  -6    3.95    0.50
   7   6   6    3.09    0.30
  -8  -6  -6   16.45    0.96
   8   6   6   15.50    0.68
   8   6   6   16.56    0.69
   9   6   6    5.47    0.28
   2  -7  -6   45.18    1.51
   2  -7  -6   46.28    1.65
  -2   7   6   44.32    1.56
  -2   7   6   42.73    1.67
   1  -7  -6    6.04    0.44
   1  -7  -6    5.79    0.38
   1  -7  -6    5.56    0.46
   1  -7  -6    6.21    0.42
  -1   7   6    5.47    0.35
  -1   7   6    5.55    0.37
   0  -7  -6   43.65    1.95
   0  -7  -6   43.48    1.74
   0  -7  -6   43.83    2.05
   0  -7  -6   42.93    1.58
   0   7   6   43.02    1.72
  -1  -7  -6   51.64    1.87
  -1  -7  -6   49.34    2.05
  -1  -7  -6   52.37    2.35
   1   7   6   54.53    2.04
  -2  -7  -6    1.52    0.33
  -2  -7  -6    2.16    0.36
   2   7   6    2.47    0.26
   2   7   6    2.53    0.29
   3   7   6   41.32    1.58
   3   7   6   41.42    1.67
   4   7   6   63.54    2.33
  -5  -7  -6   18.62    1.09
   6   7   6   30.63    1.22
   7   7   6    8.82    0.46
  -8  -7  -6   14.43    0.80
   8   7   6   13.97    0.60
   1  -8  -6   17.42    0.70
   1  -8  -6   16.98    0.63
  -1   8   6   16.48    0.71
  -1   8   6   17.37    0.65
   0  -8  -6    5.20    0.36
   0  -8  -6    4.87    0.30
   0  -8  -6    5.47    0.40
   0   8   6    4.81    0.32
  -1  -8  -6   43.04    1.65
  -1  -8  -6   42.89    1.89
   1   8   6   42.13    1.66
  -2  -8  -6    0.37    0.22
  -2  -8  -6    0.64    0.20
   2   8   6    0.59    0.16
  -3  -8  -6   33.55    1.67
   3   8   6   36.23    1.35
   3   8   6   35.67    1.43
  -4  -8  -6   29.77    1.55
   4   8   6   32.78    1.31
   4   8   6   33.72    1.26
  -5  -8  -6    8.02    0.64
   5   8   6    9.33    0.47
   6   8   6   25.64    1.02
   7   8   6   27.73    1.06
   8   8   6    0.66    0.10
   8   8   6    0.75    0.12
  -1  -9  -6   18.64    0.74
  -1  -9  -6   18.97    0.86
   1   9   6   18.72    0.77
   1   9   6   18.82    0.71
  -2  -9  -6    9.12    0.52
   2   9   6    8.65    0.44
  -3  -9  -6   11.68    0.63
   3   9   6    9.43    0.50
  -4  -9  -6   14.70    0.77
   4   9   6   13.77    0.63
  -5  -9  -6    0.95    0.20
   6   9   6   17.64    0.70
   7   9   6   21.91    0.83
  -5  -8   7    0.27    0.06
  -4  -8   7   13.05    0.55
  -4  -8   7   12.84    0.43
  -4  -8   7   13.32    0.46
  -3  -8   7    2.09    0.14
  -3  -8   7    2.08    0.20
  -3  -8   7    1.76    0.14
  -3  -8   7    1.97    0.13
  -2  -8   7    0.23    0.10
  -2  -8   7    0.22    0.07
  -2  -8   7    0.19    0.06
  -2  -8   7    0.34    0.08
  -1  -8   7   38.51    1.15
  -1  -8   7   38.41    1.40
  -1  -8   7   40.51    1.25
  -6  -7   7   34.71    1.05
  -6  -7   7   35.40    1.13
  -6  -7   7   35.95    1.37
  -6  -7   7   34.83    1.28
  -5  -7   7    0.71    0.10
  -5  -7   7    0.65    0.09
  -5  -7   7    0.75    0.11
  -5  -7   7    0.51    0.15
  -5  -7   7    0.58    0.14
  -5  -7   7    0.64    0.22
  -4  -7   7   37.54    1.53
  -4  -7   7   39.94    1.26
  -4  -7   7   36.45    1.46
  -4  -7   7   39.57    1.45
  -4  -7   7   38.18    1.16
  -4  -7   7   37.39    1.23
  -4  -7   7   38.56    1.82
  -3  -7   7   44.53    1.43
  -3  -7   7   42.86    2.05
  -3  -7   7   43.74    1.40
  -3  -7   7   44.35    1.44
  -3  -7   7   43.88    1.72
  -3  -7   7   43.06    1.67
  -3  -7   7   45.89    1.65
  -3  -7   7   44.52    1.32
  -3  -7   7   40.09    2.24
  -2  -7   7    8.31    0.63
  -2  -7   7    7.97    0.68
  -2  -7   7    8.86    0.34
  -2  -7   7    8.43    0.44
  -2  -7   7    8.79    0.37
  -2  -7   7    8.46    0.45
  -2  -7   7    9.10    0.49
  -2  -7   7    9.60    0.39
  -1  -7   7    6.09    0.54
  -1  -7   7    6.06    0.29
  -1  -7   7    6.51    0.31
  -1  -7   7    6.14    0.26
  -1  -7   7    6.13    0.39
  -1  -7   7    6.02    0.51
  -1  -7   7    5.75    0.35
   0  -7   7    9.99    0.49
   0  -7   7   10.31    0.42
   0  -7   7   10.26    0.50
   0  -7   7    9.73    0.59
   0  -7   7   10.25    0.37
   0  -7   7    9.59    0.62
   1  -7   7    7.31    0.32
   1  -7   7    7.62    0.29
   1  -7   7    7.55    0.39
   1  -7   7    7.73    0.47
   1  -7   7    8.05    0.33
   2  -7   7   11.81    0.41
   2  -7   7   11.06    0.57
   7   6  -7    0.07    0.09
  -7  -6   7    0.21    0.10
  -7  -6   7    0.05    0.06
  -7  -6   7    0.14    0.06
  -6  -6   7   12.15    0.61
  -6  -6   7   13.06    0.63
  -6  -6   7   12.42    0.47
  -6  -6   7   12.44    0.58
  -6  -6   7   11.37    0.45
  -6  -6   7   11.67    0.56
  -6  -6   7   10.99    0.57
  -6  -6   7   12.48    0.43
  -5  -6   7    0.69    0.12
  -5  -6   7    0.49    0.13
  -5  -6   7    0.91    0.23
  -5  -6   7    0.38    0.10
  -5  -6   7    0.54    0.23
  -5  -6   7    0.41    0.25
  -5  -6   7    0.43    0.10
  -5  -6   7    0.62    0.17
  -5  -6   7    0.40    0.17
  -4  -6   7   11.55    0.59
  -4  -6   7   11.16    0.44
  -4  -6   7   10.17    0.73
  -4  -6   7   11.11    0.53
  -4  -6   7   10.49    0.45
  -4  -6   7    9.82    0.81
  -4  -6   7   11.36    0.62
  -4  -6   7   10.64    0.41
  -3  -6   7   41.40    1.33
  -3  -6   7   40.09    1.25
  -3  -6   7   41.52    1.58
  -3  -6   7   41.37    2.19
  -3  -6   7   40.87    1.67
  -3  -6   7   40.90    1.99
  -3  -6   7   40.85    1.59
  -3  -6   7   40.95    1.37
  -2  -6   7    2.55    0.21
  -2  -6   7    2.11    0.18
  -2  -6   7    2.03    0.23
  -2  -6   7    2.40    0.37
  -2  -6   7    2.15    0.18
  -2  -6   7    2.13    0.40
  -2  -6   7    2.57    0.30
  -1  -6   7   19.33    0.72
  -1  -6   7   21.56    0.88
  -1  -6   7   20.55    0.67
  -1  -6   7   20.43    1.24
  -1  -6   7   21.41    1.14
  -1  -6   7   19.18    0.74
  -1  -6   7   19.23    0.89
   0  -6   7   24.28    1.24
   0  -6   7   22.43    1.14
   0  -6   7   22.33    1.34
   0  -6   7   23.86    0.82
   0  -6   7   22.97    0.75
   0  -6   7   23.28    0.98
   0  -6   7   22.88    0.84
   0  -6   7   23.28    0.99
   1  -6   7    4.76    0.45
   1  -6   7    4.44    0.31
   1  -6   7    4.48    0.27
   1  -6   7    4.27    0.23
   1  -6   7    4.00    0.41
   1  -6   7    4.41    0.47
   1  -6   7    4.31    0.34
   2  -6   7   27.54    0.94
   2  -6   7   28.62    0.96
   2  -6   7   27.93    0.87
   2  -6   7   28.10    1.08
   2  -6   7   26.13    1.11
   2  -6   7   28.09    1.29
  -3   6  -7    4.09    0.41
   3  -6   7    6.39    0.35
   3  -6   7    6.10    0.28
   3  -6   7    6.13    0.24
   3  -6   7    6.34    0.40
  -7  -5   7    2.67    0.24
  -7  -5   7    2.56    0.18
  -7  -5   7    2.39    0.16
  -7  -5   7    2.61    0.26
  -7  -5   7    2.42    0.26
  -7  -5   7    2.49    0.18
  -6  -5   7    8.41    0.50
  -6  -5   7    7.77    0.43
  -6  -5   7    8.71    0.53
  -6  -5   7    8.60    0.38
  -6  -5   7    9.04    0.35
  -6  -5   7    8.76    0.38
  -6  -5   7    8.93    0.49
  -6  -5   7    8.85    0.52
  -5  -5   7    7.86    0.51
  -5  -5   7    7.66    0.48
  -5  -5   7    7.54    0.41
  -5  -5   7    7.51    0.33
  -5  -5   7    6.93    0.35
  -5  -5   7    7.83    0.54
  -5  -5   7    8.10    0.35
  -5  -5   7    7.50    0.48
  -4  -5   7    8.50    0.52
  -4  -5   7    8.32    0.43
  -4  -5   7    8.59    0.54
  -4  -5   7    8.34    0.34
  -4  -5   7    7.83    0.56
  -4  -5   7    7.88    0.70
  -4  -5   7    8.75    0.65
  -4  -5   7    8.80    0.38
  -4  -5   7    8.25    0.36
  -3  -5   7   21.13    0.68
  -3  -5   7   20.20    0.72
  -3  -5   7   20.15    0.93
  -3  -5   7   20.70    1.15
  -3  -5   7   19.62    0.98
  -3  -5   7   20.75    0.75
  -3  -5   7   22.07    1.28
  -3  -5   7   21.24    0.87
  -3  -5   7   20.67    0.97
  -2  -5   7   14.99    0.66
  -2  -5   7   14.80    1.00
  -2  -5   7   15.54    0.77
  -2  -5   7   15.08    0.58
  -2  -5   7   14.83    0.73
  -2  -5   7   15.22    0.55
  -2  -5   7   14.45    0.90
  -1  -5   7    8.18    0.43
  -1  -5   7    7.76    0.62
  -1  -5   7    8.40    0.69
  -1  -5   7    7.99    0.36
  -1  -5   7    8.11    0.35
  -1  -5   7    7.47    0.48
   0  -5   7  109.70    5.09
   0  -5   7  111.99    3.90
   0  -5   7  104.43    3.78
   0  -5   7  106.75    4.61
   0  -5   7  103.54    3.09
   0  -5   7  107.76    3.89
   0  -5   7  108.19    3.28
   0  -5   7  105.84    4.33
   0  -5   7  102.75    3.35
   1  -5   7    0.51    0.12
   1  -5   7    0.81    0.26
   1  -5   7    0.68    0.17
   1  -5   7    0.94    0.25
   1  -5   7    0.76    0.15
   1  -5   7    0.85    0.26
   1  -5   7    1.13    0.13
   2  -5   7   23.73    1.20
   2  -5   7   22.57    1.00
   2  -5   7   23.30    0.97
   2  -5   7   21.49    1.12
   2  -5   7   22.42    0.83
   2  -5   7   21.88    1.31
   2  -5   7   22.65    0.75
   2  -5   7   23.49    0.97
   3  -5   7   18.29    0.61
   3  -5   7   17.18    0.79
   3  -5   7   17.98    0.66
   3  -5   7   17.75    0.74
   3  -5   7   18.74    0.69
   3  -5   7   17.18    1.06
   3  -5   7   18.32    0.61
   3  -5   7   18.24    0.91
   3  -5   7   18.30    0.82
   4  -5   7    5.23    0.37
   4  -5   7    5.32    0.34
   4  -5   7    5.02    0.23
   4  -5   7    5.01    0.30
   4  -5   7    5.58    0.27
  -7  -4   7   43.38    1.56
  -7  -4   7   41.45    1.34
  -7  -4   7   38.31    1.30
  -7  -4   7   41.43    1.23
  -7  -4   7   41.10    1.52
  -7  -4   7   38.86    1.58
  -6  -4   7    2.80    0.20
  -6  -4   7    3.76    0.35
  -6  -4   7    2.57    0.21
  -6  -4   7    2.65    0.30
  -6  -4   7    3.11    0.33
  -6  -4   7    2.72    0.22
  -6  -4   7    2.62    0.24
  -5  -4   7   50.21    1.89
  -5  -4   7   49.57    1.97
  -5  -4   7   49.75    1.59
  -5  -4   7   51.06    1.98
  -5  -4   7   50.30    1.51
  -5  -4   7   50.87    1.91
  -5  -4   7   47.87    1.63
  -5  -4   7   47.74    1.89
  -4  -4   7    2.52    0.29
  -4  -4   7    1.46    0.27
  -4  -4   7    2.20    0.28
  -4  -4   7    2.49    0.19
  -4  -4   7    2.66    0.19
  -4  -4   7    2.23    0.28
  -4  -4   7    2.40    0.21
  -4  -4   7    2.48    0.18
  -3  -4   7   24.62    1.45
  -3  -4   7   31.40    1.19
  -3  -4   7   26.92    0.89
  -3  -4   7   24.52    1.13
  -3  -4   7   26.16    1.03
  -3  -4   7   25.72    1.11
  -3  -4   7   24.88    1.32
  -3  -4   7   25.05    0.86
  -2  -4   7   40.24    1.61
  -2  -4   7   39.68    1.94
  -2  -4   7   41.05    2.15
  -2  -4   7   43.57    1.69
  -2  -4   7   42.80    1.31
  -2  -4   7   42.97    1.57
  -2  -4   7   42.02    1.68
  -2  -4   7   41.84    1.36
  -1  -4   7   10.76    0.77
  -1  -4   7   11.52    0.50
  -1  -4   7   10.48    0.69
  -1  -4   7   11.76    0.41
   0  -4   7  177.96    5.27
   0  -4   7  174.89    5.39
   0  -4   7  175.83    6.25
   0  -4   7  177.31    7.33
   0  -4   7  182.56    8.09
   0  -4   7  173.48    6.04
   0  -4   7  165.23    8.25
   1  -4   7   12.21    0.63
   1  -4   7   12.57    0.73
   1  -4   7   12.75    0.46
   1  -4   7   11.29    0.72
   1  -4   7   12.29    0.49
   1  -4   7   12.42    0.48
   1  -4   7   12.26    0.57
   1  -4   7   13.16    0.87
   1  -4   7   12.23    0.77
   2  -4   7    6.81    0.59
   2  -4   7    6.88    0.34
   2  -4   7    6.38    0.50
   2  -4   7    7.03    0.46
   2  -4   7    6.85    0.55
   2  -4   7    6.81    0.44
   2  -4   7    6.44    0.39
   2  -4   7    6.48    0.30
   3  -4   7  120.51    3.58
   3  -4   7  119.38    4.02
   3  -4   7  114.57    3.87
   3  -4   7  127.59    3.80
   3  -4   7  123.31    4.38
   3  -4   7  126.31    5.81
   3  -4   7  128.11    4.51
   3  -4   7  119.96    4.96
   3  -4   7  132.61    5.27
   4  -4   7    2.42    0.25
   4  -4   7    2.85    0.31
   4  -4   7    1.60    0.21
   4  -4   7    1.80    0.30
   4  -4   7    2.52    0.21
   4  -4   7    2.18    0.19
   4  -4   7    2.19    0.18
   4  -4   7    2.21    0.35
   4  -4   7    2.67    0.31
   5  -4   7   36.76    1.26
   5  -4   7   35.87    1.36
   5  -4   7   34.83    1.53
   5  -4   7   36.52    1.20
  -7  -3   7    6.94    0.33
  -7  -3   7    7.22    0.34
  -7  -3   7    6.95    0.42
  -7  -3   7    7.55    0.44
  -7  -3   7    7.45    0.31
  -7  -3   7    7.05    0.43
  -6  -3   7    2.89    0.23
  -6  -3   7    3.09    0.27
  -6  -3   7    3.03    0.22
  -6  -3   7    3.13    0.24
  -6  -3   7    2.89    0.31
  -6  -3   7    2.49    0.29
  -6  -3   7    2.53    0.30
  -5  -3   7    8.05    0.38
  -5  -3   7    8.34    0.52
  -5  -3   7    8.14    0.35
  -5  -3   7    8.54    0.44
  -5  -3   7    7.93    0.37
  -5  -3   7    7.85    0.51
  -4  -3   7   20.87    0.92
  -4  -3   7   20.96    0.74
  -4  -3   7   20.31    0.94
  -4  -3   7   19.97    0.84
  -4  -3   7   20.80    0.94
  -4  -3   7   20.55    0.67
  -4  -3   7   20.50    0.71
  -3  -3   7   17.48    0.84
  -3  -3   7   17.44    0.72
  -3  -3   7   18.40    0.83
  -3  -3   7   17.93    0.61
  -2  -3   7   18.99    0.74
  -2  -3   7   19.57    0.62
  -2  -3   7   19.29    1.09
  -2  -3   7   19.04    1.00
  -1  -3   7    0.51    0.08
  -1  -3   7    0.42    0.17
  -1  -3   7    0.28    0.14
   0  -3   7   35.70    1.70
   0  -3   7   38.40    1.88
   0  -3   7   37.13    1.36
   0  -3   7   35.80    1.79
   1  -3   7   33.81    1.74
   1  -3   7   32.91    1.57
   1  -3   7   32.73    1.06
   1  -3   7   34.02    1.27
   1  -3   7   32.32    1.65
   2  -3   7   17.48    0.80
   2  -3   7   16.67    0.96
   2  -3   7   17.72    0.74
   2  -3   7   17.93    0.91
   2  -3   7   16.97    0.95
   2  -3   7   17.33    1.05
   2  -3   7   18.06    0.65
   3  -3   7    6.68    0.50
   3  -3   7    7.39    0.61
   3  -3   7    6.57    0.42
   3  -3   7    7.37    0.41
   3  -3   7    7.17    0.56
   3  -3   7    6.90    0.34
   3  -3   7    7.91    0.32
   3  -3   7    6.49    0.34
   3  -3   7    7.51    0.55
   3  -3   7    7.69    0.47
   4  -3   7    0.49    0.20
   4  -3   7    0.52    0.14
   4  -3   7    0.70    0.13
   4  -3   7    0.65    0.13
   4  -3   7    0.83    0.21
   4  -3   7    0.86    0.28
   4  -3   7    0.83    0.18
   4  -3   7    0.91    0.19
   4  -3   7    0.66    0.11
   5  -3   7   24.28    0.87
   5  -3   7   25.14    0.89
   5  -3   7   25.68    0.80
   5  -3   7   24.91    0.95
   5  -3   7   23.47    1.22
   5  -3   7   25.08    1.15
   5  -3   7   26.09    1.04
   5  -3   7   22.33    1.02
   6  -3   7    6.92    0.34
   6  -3   7    6.92    0.33
   6  -3   7    7.41    0.38
  -7  -2   7   22.27    0.94
  -7  -2   7   23.04    0.73
  -7  -2   7   21.95    0.81
  -7  -2   7   23.27    0.95
  -6  -2   7    8.26    0.36
  -6  -2   7    8.32    0.46
  -6  -2   7    7.45    0.45
  -6  -2   7    8.59    0.51
  -6  -2   7    8.69    0.40
  -6  -2   7    8.10    0.51
  -6  -2   7    8.34    0.39
  -6  -2   7    7.94    0.52
  -5  -2   7   57.42    1.70
  -5  -2   7   54.01    2.18
  -5  -2   7   56.73    2.13
  -5  -2   7   58.34    2.26
  -5  -2   7   57.59    2.14
  -5  -2   7   55.38    1.80
  -5  -2   7   53.71    1.83
  -5  -2   7   56.99    2.15
   4   2  -7  158.41   10.52
  -4  -2   7  170.74    5.22
  -4  -2   7  176.11    5.89
  -4  -2   7  172.35    5.11
  -4  -2   7  169.11    4.84
  -4  -2   7  169.59    6.06
  -4  -2   7  167.26    6.12
  -4  -2   7  172.40    5.91
  -4  -2   7  167.96    6.47
   3   2  -7   20.37    1.64
  -3  -2   7   20.97    0.84
  -3  -2   7   23.13    0.96
  -3  -2   7   22.17    0.72
  -2  -2   7  127.44    4.52
  -1  -2   7  110.86    5.04
  -1  -2   7  108.08    3.85
   0  -2   7   25.42    0.90
   0  -2   7   23.68    1.28
   0  -2   7   24.86    1.19
   1  -2   7  107.68    3.78
   1  -2   7  106.33    4.92
   1  -2   7  102.36    4.45
   1  -2   7  107.42    4.99
   2  -2   7    3.63    0.35
   2  -2   7    3.74    0.37
   2  -2   7    3.64    0.22
   2  -2   7    3.53    0.35
   2  -2   7    3.85    0.29
   3  -2   7  104.69    3.72
   3  -2   7  104.37    4.47
   3  -2   7  109.86    3.31
   3  -2   7  105.78    4.47
   3  -2   7  105.21    3.20
   3  -2   7  105.44    4.23
   3  -2   7   99.59    5.02
   3  -2   7  103.72    4.93
   3  -2   7  104.23    3.81
   4  -2   7   91.77    3.06
   4  -2   7   96.35    3.39
   4  -2   7   91.70    3.97
   4  -2   7   86.87    3.29
   4  -2   7   97.38    4.41
   4  -2   7   92.02    2.69
   4  -2   7   89.38    2.85
   4  -2   7   90.44    2.92
   4  -2   7   92.38    3.05
   4  -2   7   90.93    3.75
   4  -2   7   91.12    2.69
  -5   2  -7    0.72    0.51
   5  -2   7    0.95    0.15
   5  -2   7    1.25    0.23
   5  -2   7    1.33    0.26
   5  -2   7    1.03    0.13
   5  -2   7    0.89    0.18
   5  -2   7    0.76    0.14
   5  -2   7    1.51    0.16
   5  -2   7    1.50    0.21
   5  -2   7    0.97    0.18
   6  -2   7   71.27    2.26
   6  -2   7   69.65    2.84
   6  -2   7   66.68    3.03
   6  -2   7   69.23    2.52
   6  -2   7   72.83    2.33
   7  -2   7    9.48    0.40
   7   1  -7   16.48    0.77
  -7  -1   7   16.04    0.72
  -7  -1   7   16.85    0.63
  -7  -1   7   17.18    0.72
   6   1  -7   29.18    1.32
  -6  -1   7   29.75    1.05
  -6  -1   7   27.96    1.20
  -6  -1   7   27.21    1.25
  -6  -1   7   29.39    1.23
  -6  -1   7   30.25    0.95
  -6  -1   7   30.62    1.02
  -6  -1   7   30.30    1.34
  -6  -1   7   30.98    1.24
  -6  -1   7   28.98    1.22
  -5  -1   7   27.58    1.12
  -5  -1   7   25.85    0.96
  -5  -1   7   27.23    1.27
  -5  -1   7   27.82    1.17
  -5  -1   7   26.98    1.14
  -5  -1   7   27.24    1.18
  -5  -1   7   26.57    0.94
  -5  -1   7   27.09    0.88
  -5  -1   7   25.74    1.15
  -5  -1   7   26.58    0.97
  -4  -1   7   36.54    1.60
  -4  -1   7   36.02    1.13
  -4  -1   7   36.41    1.43
  -4  -1   7   36.95    1.45
  -4  -1   7   37.23    1.27
  -4  -1   7   37.37    1.50
  -4  -1   7   36.81    1.51
  -4  -1   7   36.79    1.20
  -4  -1   7   36.67    1.23
  -4  -1   7   36.75    1.49
   3   1  -7    0.35    0.27
  -3  -1   7    0.12    0.07
  -3  -1   7    0.09    0.07
  -3  -1   7    0.20    0.08
  -3  -1   7    0.26    0.14
   2   1  -7   15.88    1.30
  -2  -1   7   16.43    0.63
   1   1  -7   39.80    2.28
   1  -1   7    9.58    0.50
   1  -1   7    9.89    0.60
   2  -1   7   10.42    0.58
   2  -1   7   10.57    0.66
   2  -1   7   10.26    0.59
   2  -1   7   10.53    0.44
   3  -1   7    3.42    0.33
   3  -1   7    3.21    0.36
   3  -1   7    3.45    0.23
   3  -1   7    3.42    0.33
   3  -1   7    3.48    0.20
   3  -1   7    3.94    0.30
   4  -1   7    7.31    0.31
   4  -1   7    7.34    0.33
   4  -1   7    6.93    0.33
   4  -1   7    7.08    0.35
   4  -1   7    6.51    0.50
   4  -1   7    5.97    0.39
   4  -1   7    6.72    0.58
   4  -1   7    7.64    0.44
   4  -1   7    7.10    0.51
   4  -1   7    7.01    0.50
   4  -1   7    6.88    0.39
   4  -1   7    6.84    0.31
  -5   1  -7   -0.06    0.41
   5  -1   7    0.17    0.14
   5  -1   7    0.09    0.09
   5  -1   7    0.20    0.10
   5  -1   7    0.28    0.11
   5  -1   7    0.04    0.14
   5  -1   7    0.25    0.13
   5  -1   7    0.12    0.09
   5  -1   7    0.19    0.12
   5  -1   7    0.09    0.15
   6  -1   7    7.65    0.41
   6  -1   7    7.10    0.48
   6  -1   7    6.96    0.34
   6  -1   7    7.67    0.33
   6  -1   7    6.62    0.37
   6  -1   7    7.26    0.53
   6  -1   7    7.37    0.44
   7  -1   7    3.13    0.30
   7  -1   7    3.09    0.23
   7  -1   7    2.64    0.14
   7  -1   7    2.84    0.24
   7   0  -7   54.81    2.14
  -7   0   7   55.47    1.95
  -7   0   7   53.45    1.75
   6   0  -7  108.13    4.17
  -6   0   7  100.39    4.17
  -6   0   7  108.34    3.79
  -6   0   7  109.51    3.12
  -6   0   7  109.20    3.80
  -6   0   7  108.84    3.40
  -6   0   7  106.35    3.93
  -6   0   7  111.52    4.19
  -6   0   7  104.34    3.53
  -5   0   7   18.65    0.71
  -5   0   7   17.77    0.86
  -5   0   7   19.98    0.99
  -5   0   7   19.47    0.66
  -5   0   7   18.92    0.90
  -5   0   7   18.99    0.73
  -5   0   7   17.96    0.72
  -5   0   7   17.81    0.87
  -5   0   7   18.38    0.88
  -5   0   7   18.90    0.84
  -4   0   7   47.80    1.96
  -4   0   7   49.64    1.65
  -4   0   7   49.39    1.91
  -4   0   7   50.41    1.74
  -4   0   7   52.28    1.97
  -4   0   7   49.99    2.11
  -4   0   7   48.43    1.91
  -4   0   7   50.86    1.53
  -4   0   7   52.44    2.04
  -4   0   7   50.55    1.62
   3   0  -7   10.64    1.08
  -3   0   7   11.03    0.42
  -3   0   7   10.87    0.52
  -3   0   7   10.69    0.57
  -3   0   7   11.31    0.50
   2   0  -7   42.56    3.05
  -2   0   7   47.41    1.67
  -2   0   7   45.05    1.76
   1   0  -7  225.44   11.99
  -1   0   7  234.53    8.17
  -1   0   7  235.09    8.73
   0   0   7    4.30    0.25
  -1   0  -7  147.28    8.68
   1   0   7  162.30    7.24
  -2   0  -7   41.77    2.66
   2   0   7   44.50    2.16
   2   0   7   47.99    2.17
   2   0   7   44.90    1.63
   3   0   7   41.74    2.04
   3   0   7   39.98    1.54
   3   0   7   42.75    2.05
   3   0   7   40.22    1.85
   4   0   7  123.33    5.35
   4   0   7  130.70    5.92
   4   0   7  125.96    4.60
   4   0   7  127.87    6.09
   4   0   7  129.18    3.87
   5   0   7    2.92    0.35
   5   0   7    3.53    0.28
   5   0   7    3.25    0.23
   5   0   7    3.16    0.36
   5   0   7    3.25    0.24
   5   0   7    2.91    0.29
   5   0   7    3.69    0.26
   5   0   7    3.10    0.34
   5   0   7    3.86    0.23
   5   0   7    3.39    0.36
   6   0   7   75.97    2.26
   6   0   7   82.18    3.33
   6   0   7   76.39    2.75
   6   0   7   78.67    2.87
   6   0   7   69.47    3.00
   6   0   7   73.79    2.53
   6   0   7   75.37    2.59
   6   0   7   76.46    2.43
   7   0   7   33.47    1.59
   7   0   7   33.37    1.44
   7   0   7   34.23    1.21
   7   0   7   35.59    1.32
   7   0   7   35.07    1.22
   8   0   7    0.16    0.10
   7  -1  -7    2.52    0.20
  -7   1   7    1.95    0.19
   6  -1  -7    0.29    0.15
  -6   1   7    0.42    0.16
  -6   1   7    0.43    0.09
  -6   1   7    0.07    0.12
  -5   1   7    5.10    0.33
  -5   1   7    4.58    0.39
  -5   1   7    4.98    0.39
  -5   1   7    5.85    0.33
  -5   1   7    5.58    0.48
  -5   1   7    5.85    0.29
  -5   1   7    5.34    0.31
  -5   1   7    5.25    0.42
  -5   1   7    5.23    0.38
  -5   1   7    5.15    0.37
  -4   1   7   15.37    0.63
  -4   1   7   14.70    0.79
  -4   1   7   15.72    0.86
  -4   1   7   15.59    0.65
  -4   1   7   16.99    0.77
  -4   1   7   15.40    0.75
  -4   1   7   16.11    0.62
  -4   1   7   15.16    0.76
  -4   1   7   15.34    0.73
  -4   1   7   16.05    0.57
   3  -1  -7    1.95    0.38
   3  -1  -7    2.87    0.62
  -3   1   7    2.39    0.23
  -3   1   7    2.69    0.19
  -3   1   7    2.54    0.23
  -3   1   7    2.81    0.30
   2  -1  -7    9.15    0.97
  -2   1   7   10.84    0.64
  -2   1   7   10.41    0.49
  -2   1   7   10.45    0.47
  -1   1   7    2.00    0.15
  -1   1   7    2.20    0.16
  -1   1   7    2.31    0.21
   0   1   7    5.46    0.27
   0   1   7    5.96    0.36
   1   1   7   64.26    3.03
   1   1   7   62.86    2.44
  -2  -1  -7    4.20    0.45
   2   1   7    4.64    0.23
   2   1   7    4.60    0.31
  -3  -1  -7    4.46    0.47
   3   1   7    4.05    0.36
   3   1   7    4.54    0.32
   3   1   7    4.17    0.35
   3   1   7    4.20    0.24
  -4  -1  -7    5.16    0.58
   4   1   7    5.27    0.40
   4   1   7    4.89    0.30
   4   1   7    5.38    0.27
   4   1   7    5.31    0.40
  -5  -1  -7    1.02    0.49
   5   1   7    2.39    0.23
   5   1   7    2.01    0.27
   5   1   7    3.42    0.29
   5   1   7    2.83    0.25
   5   1   7    2.76    0.22
   5   1   7    2.81    0.21
   5   1   7    2.72    0.32
   5   1   7    2.22    0.25
   5   1   7    3.09    0.33
   5   1   7    2.49    0.22
   6   1   7    3.45    0.30
   6   1   7    2.19    0.23
   6   1   7    3.02    0.24
   6   1   7    3.09    0.30
   6   1   7    2.66    0.31
   6   1   7    3.44    0.27
   6   1   7    2.96    0.34
   6   1   7    3.01    0.22
  -7  -1  -7   -0.30    0.44
  -7  -1  -7   -0.30    0.37
   7   1   7    0.38    0.13
   7   1   7    0.14    0.10
   7   1   7    0.29    0.15
   7   1   7    0.30    0.16
   8   1   7   12.94    0.63
   8   1   7   13.31    0.50
   6  -2  -7   39.60    1.60
  -6   2   7   38.71    1.44
  -5   2   7   21.03    0.98
  -5   2   7   18.05    0.83
  -5   2   7   19.02    0.84
  -5   2   7   17.25    0.87
  -5   2   7   18.80    0.73
   4  -2  -7   36.28    1.75
  -4   2   7   37.80    1.53
  -4   2   7   36.17    1.44
  -4   2   7   33.93    1.28
  -4   2   7   34.71    1.43
  -4   2   7   33.74    1.23
  -4   2   7   34.77    1.43
  -4   2   7   35.93    1.57
  -4   2   7   35.15    1.12
  -4   2   7   34.92    1.20
  -4   2   7   34.24    1.44
  -3   2   7  106.18    4.10
  -3   2   7  103.58    3.70
  -3   2   7  105.11    4.08
  -3   2   7  101.63    3.83
  -3   2   7  106.88    3.52
  -3   2   7  106.64    3.05
  -3   2   7  102.29    3.22
  -3   2   7  105.37    3.87
  -3   2   7  102.65    3.30
   2  -2  -7    1.09    0.39
  -2   2   7    2.17    0.32
  -2   2   7    2.00    0.26
  -2   2   7    1.36    0.18
  -2   2   7    1.69    0.19
  -2   2   7    2.43    0.18
  -1   2   7  230.84    9.85
  -1   2   7  241.86    8.50
  -1   2   7  235.69    9.10
  -1   2   7  249.01   11.25
   0   2   7  176.06    7.09
   0   2   7  184.25    6.63
   0   2   7  199.37    8.79
   1   2   7  138.18    5.09
   1   2   7  153.18    6.75
   1   2   7  136.95    5.45
  -2  -2  -7  341.15   18.82
   2   2   7  349.65   15.88
   2   2   7  327.45   11.98
  -3  -2  -7   95.23    5.40
   3   2   7   98.12    4.50
   3   2   7   90.14    3.38
   3   2   7   90.94    3.95
  -4  -2  -7  206.24   11.44
   4   2   7  209.39    9.60
   4   2   7  196.13    7.24
   4   2   7  199.57    8.36
   5   2   7  133.46    4.44
   5   2   7  122.33    4.56
   5   2   7  122.84    5.26
   5   2   7  122.33    6.04
  -6  -2  -7    0.08    0.40
  -6  -2  -7   -0.11    0.41
   6   2   7    0.19    0.15
   6   2   7    0.32    0.12
   6   2   7    0.18    0.13
   6   2   7    0.06    0.14
   6   2   7    0.18    0.11
   7   2   7   41.62    1.78
   7   2   7   41.84    1.53
   7   2   7   45.04    1.96
   8   2   7   15.15    0.60
   8   2   7   15.97    0.74
   5  -3  -7    7.22    0.52
   5  -3  -7    8.46    0.49
  -5   3   7    8.02    0.36
  -5   3   7    7.85    0.44
  -5   3   7    8.08    0.50
   4  -3  -7    0.51    0.23
   4  -3  -7    0.34    0.17
  -4   3   7    0.52    0.16
  -4   3   7    0.45    0.16
  -4   3   7   -0.09    0.15
  -4   3   7    0.59    0.19
  -4   3   7    0.52    0.13
   3  -3  -7    0.71    0.23
   3  -3  -7    0.18    0.25
  -3   3   7    0.69    0.17
  -3   3   7    0.32    0.11
  -3   3   7    0.34    0.13
  -3   3   7    0.28    0.18
  -3   3   7    0.11    0.14
   2  -3  -7    0.65    0.36
  -2   3   7    0.93    0.16
  -2   3   7    1.23    0.17
  -2   3   7    1.21    0.22
  -2   3   7    1.50    0.25
  -2   3   7    1.24    0.18
  -2   3   7    1.71    0.25
  -2   3   7    1.89    0.21
  -2   3   7    1.06    0.13
  -2   3   7    1.35    0.27
   1  -3  -7    0.79    0.35
  -1   3   7    1.11    0.16
  -1   3   7    1.03    0.20
  -1   3   7    1.28    0.15
  -1   3   7    1.07    0.21
  -1   3   7    0.91    0.15
  -1   3   7    1.02    0.23
   0   3   7    0.21    0.14
   0   3   7    0.13    0.10
   0   3   7    0.14    0.09
   0   3   7    0.46    0.11
  -1  -3  -7    2.99    0.37
   1   3   7    2.24    0.20
   1   3   7    2.43    0.26
   1   3   7    2.50    0.32
  -2  -3  -7    2.27    0.34
   2   3   7    2.27    0.20
   2   3   7    2.07    0.20
   2   3   7    2.47    0.26
  -3  -3  -7    1.59    0.34
   3   3   7    1.99    0.21
   3   3   7    1.57    0.25
   3   3   7    1.95    0.24
  -4  -3  -7   18.00    1.32
   4   3   7   17.09    0.79
   4   3   7   18.75    1.05
   4   3   7   18.32    0.94
   5   3   7    4.62    0.44
   5   3   7    4.65    0.41
   5   3   7    4.63    0.34
   5   3   7    4.58    0.30
   6   3   7    7.76    0.37
   6   3   7    7.83    0.53
   6   3   7    7.21    0.40
   6   3   7    7.14    0.48
  -7  -3  -7    3.81    0.72
   7   3   7    5.77    0.33
   7   3   7    5.66    0.40
  -8  -3  -7    8.35    0.82
  -8  -3  -7    7.57    0.94
   8   3   7   11.56    0.56
   8   3   7   11.86    0.47
   9   3   7    5.79    0.25
   9   3   7    6.06    0.32
  -5   4   7   50.47    1.67
  -5   4   7   49.92    1.76
   4  -4  -7    0.68    0.15
   4  -4  -7    0.76    0.22
  -4   4   7    0.76    0.13
  -4   4   7    0.43    0.17
  -4   4   7    0.71    0.17
  -4   4   7    0.60    0.16
   3  -4  -7   48.45    1.73
   3  -4  -7   52.64    2.29
   3  -4  -7   47.55    1.85
  -3   4   7   47.20    1.86
  -3   4   7   47.05    1.69
  -3   4   7   43.62    1.96
  -3   4   7   45.83    1.98
   2  -4  -7   14.06    0.81
   2  -4  -7   13.85    0.98
  -2   4   7   13.18    0.76
  -2   4   7   14.91    0.66
  -2   4   7   14.92    0.64
  -2   4   7   13.78    0.53
  -2   4   7   15.91    0.76
  -2   4   7   16.41    0.75
  -1   4   7   27.71    0.98
  -1   4   7   30.20    1.26
  -1   4   7   31.06    1.23
  -1   4   7   26.79    1.16
  -1   4   7   29.31    1.18
  -1   4   7   26.79    0.91
  -1   4   7   28.85    1.07
  -1   4   7   26.62    1.40
  -1   4   7   27.16    1.07
   0   4   7  199.90    9.25
   0   4   7  192.40    7.00
   0   4   7  192.93    8.09
   0   4   7  191.52    5.87
   0   4   7  195.43    7.48
   0   4   7  195.59    6.98
  -1  -4  -7   12.12    0.95
   1   4   7   12.39    0.62
   1   4   7   12.66    0.77
   1   4   7   11.81    0.72
   1   4   7   13.14    0.60
  -2  -4  -7   62.13    3.73
   2   4   7   61.22    2.52
   2   4   7   61.43    2.76
   2   4   7   62.25    2.88
   2   4   7   68.20    3.16
   2   4   7   62.94    2.36
  -3  -4  -7  111.51    6.26
   3   4   7  114.34    5.26
   3   4   7  108.22    3.96
   3   4   7  103.42    4.93
   3   4   7  106.27    4.24
   3   4   7  107.51    4.59
  -4  -4  -7    7.92    0.76
   4   4   7    6.90    0.42
   4   4   7    7.53    0.59
   4   4   7    7.61    0.52
   4   4   7    8.75    0.39
   4   4   7    7.33    0.44
   5   4   7   85.92    4.08
   5   4   7   94.74    3.24
   5   4   7   88.81    3.05
   5   4   7   90.12    3.67
   5   4   7   87.26    3.47
  -6  -4  -7    1.52    0.52
   6   4   7    3.46    0.32
   6   4   7    3.32    0.28
  -7  -4  -7   37.28    2.33
  -7  -4  -7   35.17    2.08
   7   4   7   43.74    1.49
   7   4   7   44.55    1.71
  -8  -4  -7   51.27    2.63
  -8  -4  -7   52.62    2.93
   8   4   7   60.43    2.24
   8   4   7   59.33    1.96
   9   4   7    6.21    0.34
   9   4   7    6.41    0.28
   4  -5  -7    5.30    0.28
  -4   5   7    5.03    0.25
   3  -5  -7    3.21    0.38
   3  -5  -7    3.01    0.31
   3  -5  -7    2.79    0.27
  -3   5   7    3.23    0.28
  -3   5   7    3.21    0.25
  -3   5   7    2.75    0.31
   2  -5  -7   46.63    2.12
   2  -5  -7   42.31    1.61
   2  -5  -7   42.81    1.74
  -2   5   7   42.40    1.72
  -2   5   7   41.91    1.56
  -2   5   7   42.99    1.83
   1  -5  -7    1.50    0.32
   1  -5  -7    1.55    0.38
  -1   5   7    1.44    0.20
  -1   5   7    1.31    0.22
  -1   5   7    1.42    0.22
  -1   5   7    1.27    0.22
   0   5   7   43.48    1.80
   0   5   7   48.82    1.71
   0   5   7   45.90    1.67
   0   5   7   48.86    2.24
   0   5   7   48.15    1.78
   0   5   7   48.39    1.89
   0   5   7   47.16    2.18
   0   5   7   48.92    1.99
   1   5   7   27.80    1.39
   1   5   7   28.22    1.20
   1   5   7   29.77    1.40
   1   5   7   29.22    1.26
   1   5   7   26.30    1.16
  -2  -5  -7    2.63    0.46
   2   5   7    2.45    0.25
   2   5   7    2.74    0.34
   2   5   7    2.73    0.30
   2   5   7    2.46    0.27
   2   5   7    2.53    0.34
   3   5   7   21.96    1.11
   3   5   7   23.02    1.03
   3   5   7   20.75    1.10
   4   5   7   32.63    1.59
   4   5   7   33.61    1.31
   4   5   7   31.13    1.50
   4   5   7   33.26    1.45
   5   5   7    0.63    0.15
   5   5   7    0.83    0.20
   5   5   7    1.22    0.20
   5   5   7    0.56    0.21
   5   5   7    1.08    0.18
  -6  -5  -7    1.46    0.39
   6   5   7    1.51    0.23
   6   5   7    1.72    0.23
   6   5   7    1.88    0.23
  -7  -5  -7    3.23    0.50
  -7  -5  -7    3.56    0.60
   7   5   7    3.73    0.33
   7   5   7    4.37    0.30
  -8  -5  -7    7.29    0.67
   8   5   7    7.23    0.37
   8   5   7    7.30    0.43
   9   5   7    0.55    0.11
   9   5   7    0.47    0.09
   3  -6  -7   16.41    0.67
   3  -6  -7   16.94    0.63
  -3   6   7   16.83    0.62
  -3   6   7   15.12    0.67
   2  -6  -7   89.11    2.87
   2  -6  -7   89.28    3.11
   2  -6  -7   84.92    3.72
  -2   6   7   84.14    2.92
  -2   6   7   83.42    3.17
   1  -6  -7    5.34    0.44
   1  -6  -7    6.44    0.58
   1  -6  -7    6.60    0.49
  -1   6   7    6.10    0.42
  -1   6   7    6.11    0.37
   0  -6  -7   50.10    2.14
   0  -6  -7   52.27    2.55
   0  -6  -7   55.75    2.43
   0   6   7   56.05    1.93
   0   6   7   52.31    1.87
   0   6   7   57.84    2.12
  -1  -6  -7    8.72    0.78
   1   6   7   11.52    0.56
   1   6   7   12.00    0.62
   1   6   7   10.87    0.59
   1   6   7   11.65    0.54
   2   6   7    5.22    0.40
   2   6   7    5.06    0.38
   2   6   7    4.26    0.34
   2   6   7    5.24    0.35
   2   6   7    4.93    0.46
   2   6   7    4.82    0.45
   2   6   7    5.55    0.37
   2   6   7    4.42    0.37
   2   6   7    5.50    0.41
   3   6   7   65.17    2.58
   3   6   7   58.74    2.56
   3   6   7   61.45    2.23
   3   6   7   57.68    2.23
   3   6   7   60.33    2.15
   3   6   7   60.09    2.86
   4   6   7   27.46    1.40
   4   6   7   29.30    1.15
   4   6   7   27.65    1.32
   5   6   7    0.13    0.18
   5   6   7    0.34    0.15
   5   6   7    0.08    0.12
   6   6   7   43.06    1.61
   6   6   7   45.29    1.69
  -7  -6  -7    4.61    0.54
   7   6   7    5.13    0.34
   7   6   7    4.61    0.33
  -8  -6  -7   48.97    2.27
   8   6   7   51.27    1.76
   9   6   7   27.05    0.95
   2  -7  -7    4.20    0.25
   2  -7  -7    4.37    0.27
  -2   7   7    3.94    0.26
  -2   7   7    4.24    0.23
   1  -7  -7    0.56    0.16
   1  -7  -7    0.49    0.15
   1  -7  -7    0.72    0.21
  -1   7   7    0.64    0.15
  -1   7   7    0.55    0.13
   0  -7  -7    1.75    0.25
   0  -7  -7    2.26    0.31
   0  -7  -7    2.32    0.35
   0  -7  -7    2.48    0.33
   0   7   7    2.61    0.25
   0   7   7    2.51    0.26
  -1  -7  -7    1.73    0.34
  -1  -7  -7    1.16    0.27
  -1  -7  -7    2.12    0.28
   1   7   7    2.25    0.27
   1   7   7    1.88    0.22
   1   7   7    1.64    0.21
  -2  -7  -7    6.91    0.64
   2   7   7    7.89    0.44
   2   7   7    7.08    0.41
   2   7   7    8.60    0.50
   2   7   7    7.81    0.43
   3   7   7   26.60    1.05
   3   7   7   24.80    1.08
   3   7   7   27.94    1.09
   3   7   7   27.15    1.14
  -4  -7  -7    0.72    0.31
   4   7   7    1.19    0.21
   4   7   7    0.89    0.16
  -5  -7  -7    2.98    0.47
   5   7   7    4.66    0.33
   5   7   7    4.99    0.35
   6   7   7   15.69    0.72
   6   7   7   16.93    0.71
   7   7   7    7.85    0.41
   7   7   7    7.53    0.40
   8   7   7    0.11    0.09
   8   7   7    0.05    0.08
   1  -8  -7    6.43    0.30
   1  -8  -7    6.54    0.32
  -1   8   7    6.70    0.29
   0  -8  -7   10.51    0.57
   0  -8  -7   10.90    0.52
   0  -8  -7   10.60    0.46
   0   8   7   10.29    0.50
   0   8   7   10.57    0.45
  -1  -8  -7   50.32    1.75
  -1  -8  -7   53.86    2.21
  -1  -8  -7   52.66    1.94
   1   8   7   51.05    1.80
   1   8   7   50.08    1.95
  -2  -8  -7   14.75    0.72
  -2  -8  -7   14.69    0.84
   2   8   7   13.53    0.67
   2   8   7   13.89    0.61
  -3  -8  -7    9.60    0.70
   3   8   7    9.85    0.48
   3   8   7    9.89    0.48
   3   8   7    9.36    0.51
  -4  -8  -7  112.96    5.13
   4   8   7  132.85    4.28
   4   8   7  133.44    4.42
  -5  -8  -7    2.04    0.34
   5   8   7    3.06    0.26
   5   8   7    2.97    0.25
   6   8   7   26.43    1.05
   6   8   7   27.65    1.03
   7   8   7    9.98    0.45
   7   8   7    9.97    0.45
   8   8   7    0.25    0.08
  -1  -9  -7    9.94    0.48
   1   9   7    8.93    0.38
  -2  -9  -7   12.73    0.63
   2   9   7   11.62    0.53
   2   9   7   12.00    0.49
  -3  -9  -7    0.24    0.15
   3   9   7    0.56    0.12
   3   9   7    0.26    0.10
  -4  -9  -7   14.20    0.73
   4   9   7   14.02    0.56
   4   9   7   13.67    0.56
   4   9   7   12.79    0.59
  -5  -9  -7    0.68    0.17
   5   9   7    0.59    0.12
   5   9   7    0.50    0.12
   6   9   7    3.64    0.22
   6   9   7    3.67    0.22
   7   9   7    6.36    0.29
  -3  -8   8    6.12    0.22
  -3  -8   8    5.93    0.30
  -2  -8   8    3.76    0.22
  -2  -8   8    4.00    0.16
  -5  -7   8    4.92    0.19
  -5  -7   8    5.01    0.23
  -5  -7   8    4.59    0.31
  -5  -7   8    4.84    0.29
  -5  -7   8    5.20    0.21
  -4  -7   8   28.49    1.43
  -4  -7   8   28.85    1.17
  -4  -7   8   28.78    0.94
  -4  -7   8   29.38    0.94
  -4  -7   8   29.75    1.12
  -4  -7   8   28.67    0.89
  -3  -7   8    9.94    0.49
  -3  -7   8   10.18    0.40
  -3  -7   8   10.71    0.37
  -3  -7   8   10.28    0.67
  -3  -7   8   10.68    0.51
  -3  -7   8   10.31    0.39
  -2  -7   8    5.34    0.47
  -2  -7   8    5.63    0.24
  -2  -7   8    5.77    0.26
  -2  -7   8    5.55    0.31
  -2  -7   8    5.80    0.35
  -2  -7   8    5.49    0.25
  -1  -7   8    2.00    0.29
  -1  -7   8    1.82    0.21
  -1  -7   8    1.90    0.13
  -1  -7   8    2.30    0.15
   0  -7   8   16.53    0.53
   0  -7   8   16.65    0.57
   0  -7   8   16.83    0.87
   0  -7   8   16.09    0.68
   1  -7   8    0.11    0.06
   1  -7   8    0.15    0.06
  -6  -6   8   26.73    1.08
  -6  -6   8   27.12    0.82
  -6  -6   8   25.97    0.86
  -6  -6   8   26.58    0.86
  -6  -6   8   26.82    1.02
  -5  -6   8   23.56    0.99
  -5  -6   8   25.86    0.85
  -5  -6   8   25.79    0.79
  -5  -6   8   26.55    1.02
  -5  -6   8   24.95    1.06
  -5  -6   8   24.49    0.83
  -4  -6   8    3.41    0.20
  -4  -6   8    2.79    0.37
  -4  -6   8    3.49    0.32
  -4  -6   8    3.27    0.21
  -4  -6   8    3.16    0.24
  -4  -6   8    3.45    0.19
  -4  -6   8    3.72    0.48
  -4  -6   8    3.49    0.34
  -3  -6   8   55.78    2.08
  -3  -6   8   52.97    1.58
  -3  -6   8   52.47    2.42
  -3  -6   8   53.62    1.98
  -3  -6   8   53.54    1.99
  -3  -6   8   48.10    2.66
  -3  -6   8   53.24    1.70
  -3  -6   8   54.04    1.67
  -2  -6   8    0.20    0.22
  -2  -6   8    0.76    0.11
  -2  -6   8    0.20    0.09
  -2  -6   8    0.27    0.08
  -2  -6   8    0.48    0.12
  -2  -6   8    0.15    0.14
  -2  -6   8    0.46    0.24
  -1  -6   8   28.96    0.91
  -1  -6   8   28.85    1.18
  -1  -6   8   30.15    1.47
  -1  -6   8   29.03    1.16
  -1  -6   8   28.39    0.98
  -1  -6   8   27.59    1.60
  -1  -6   8   30.46    0.98
   0  -6   8   20.57    1.08
   0  -6   8   20.04    0.71
   0  -6   8   20.11    0.86
   0  -6   8   18.76    0.82
   0  -6   8   19.34    1.17
   0  -6   8   20.08    0.65
   1  -6   8    1.91    0.16
   1  -6   8    1.73    0.29
   1  -6   8    2.03    0.23
   1  -6   8    1.59    0.25
   1  -6   8    1.52    0.18
   1  -6   8    1.23    0.28
   1  -6   8    1.92    0.15
   2  -6   8   43.15    1.24
   2  -6   8   39.85    1.76
   2  -6   8   41.00    1.32
   2  -6   8   41.84    1.34
   3  -6   8    6.38    0.37
   3  -6   8    6.63    0.26
  -7  -5   8    2.26    0.20
  -7  -5   8    2.61    0.22
  -7  -5   8    2.40    0.14
  -7  -5   8    2.30    0.14
  -6  -5   8    9.67    0.53
  -6  -5   8   10.28    0.37
  -6  -5   8    9.74    0.39
  -6  -5   8    9.93    0.51
  -6  -5   8    9.84    0.39
  -6  -5   8    9.91    0.51
  -5  -5   8   20.91    0.91
  -5  -5   8   21.46    0.97
  -5  -5   8   21.28    0.74
  -5  -5   8   22.67    0.94
  -5  -5   8   21.47    0.75
  -5  -5   8   22.71    0.98
  -5  -5   8   19.67    0.87
  -5  -5   8   20.98    0.70
  -4  -5   8    0.15    0.08
  -4  -5   8    0.20    0.16
  -4  -5   8    0.03    0.09
  -4  -5   8    0.02    0.08
  -4  -5   8   -0.02    0.07
  -4  -5   8    0.01    0.14
  -3  -5   8    7.86    0.52
  -3  -5   8    8.10    0.34
  -3  -5   8    7.19    0.48
  -3  -5   8    7.93    0.66
  -3  -5   8    7.42    0.40
  -3  -5   8    7.72    0.34
  -3  -5   8    8.33    0.61
  -3  -5   8    8.06    0.32
  -2  -5   8   23.42    0.82
  -2  -5   8   22.68    1.24
  -2  -5   8   23.50    0.80
  -2  -5   8   23.84    1.02
  -2  -5   8   24.89    0.96
  -2  -5   8   23.03    1.37
  -1  -5   8    2.80    0.19
  -1  -5   8    3.24    0.42
  -1  -5   8    3.42    0.47
  -1  -5   8    3.00    0.23
  -1  -5   8    3.08    0.32
  -1  -5   8    2.60    0.19
   0  -5   8   28.50    0.99
   0  -5   8   29.73    1.21
   0  -5   8   30.66    1.50
   0  -5   8   29.33    0.92
   0  -5   8   28.27    0.98
   0  -5   8   29.74    1.17
   0  -5   8   29.58    1.64
   1  -5   8   17.86    0.83
   1  -5   8   18.81    0.97
   1  -5   8   19.23    1.14
   1  -5   8   18.81    0.62
   1  -5   8   17.70    0.67
   1  -5   8   18.15    0.79
   1  -5   8   18.95    1.04
   2  -5   8   13.35    0.63
   2  -5   8   13.25    0.88
   2  -5   8   12.68    0.61
   2  -5   8   13.45    0.52
   2  -5   8   13.42    0.75
   2  -5   8   14.15    0.53
   2  -5   8   13.67    0.81
   2  -5   8   13.54    0.48
   3  -5   8    1.05    0.19
   3  -5   8    0.94    0.15
   3  -5   8    0.91    0.20
   3  -5   8    0.86    0.13
   3  -5   8    0.83    0.11
   3  -5   8    0.79    0.12
   4  -5   8    1.72    0.18
   4  -5   8    1.53    0.12
   4  -5   8    1.53    0.19
   4  -5   8    1.56    0.13
  -7  -4   8   10.69    0.49
  -7  -4   8   10.47    0.37
  -7  -4   8   10.88    0.40
  -7  -4   8   10.47    0.51
  -6  -4   8   25.93    0.87
  -6  -4   8   26.38    0.89
  -6  -4   8   25.91    1.06
  -6  -4   8   26.20    1.10
  -6  -4   8   23.43    1.02
  -6  -4   8   26.47    0.82
  -6  -4   8   25.70    1.06
  -5  -4   8   76.30    2.86
  -5  -4   8   80.19    3.00
  -5  -4   8   78.25    2.50
  -5  -4   8   81.88    2.45
  -5  -4   8   77.91    2.88
  -5  -4   8   78.70    2.90
  -5  -4   8   79.60    2.32
  -4  -4   8    0.83    0.12
  -4  -4   8    0.74    0.11
  -4  -4   8    0.71    0.22
  -4  -4   8    0.56    0.18
  -4  -4   8    0.68    0.11
  -4  -4   8    0.51    0.18
  -4  -4   8    0.70    0.13
  -4  -4   8    0.60    0.20
  -3  -4   8   31.81    1.30
  -3  -4   8   30.95    1.21
  -3  -4   8   31.51    1.02
  -3  -4   8   32.13    1.34
  -3  -4   8   30.33    1.32
  -3  -4   8   31.42    1.05
  -2  -4   8    2.51    0.17
  -2  -4   8    2.50    0.39
  -2  -4   8    2.45    0.19
  -2  -4   8    2.27    0.32
  -2  -4   8    2.52    0.30
  -2  -4   8    3.18    0.34
  -2  -4   8    2.41    0.16
  -1  -4   8    0.21    0.08
  -1  -4   8    0.27    0.17
  -1  -4   8    0.44    0.08
  -1  -4   8    0.39    0.10
  -1  -4   8    0.30    0.09
  -1  -4   8    0.04    0.16
  -1  -4   8    0.29    0.20
   0  -4   8   96.23    3.32
   0  -4   8   91.85    2.88
   0  -4   8   91.78    3.36
   0  -4   8   93.35    4.01
   0  -4   8   92.17    2.83
   0  -4   8   93.40    4.43
   0  -4   8   94.20    3.36
   0  -4   8   89.18    4.40
   1  -4   8   17.98    0.81
   1  -4   8   18.76    0.74
   1  -4   8   17.00    0.63
   1  -4   8   16.79    0.91
   1  -4   8   17.27    1.08
   1  -4   8   17.10    0.97
   1  -4   8   17.15    0.62
   2  -4   8   12.21    0.64
   2  -4   8   11.59    0.47
   2  -4   8   11.26    0.43
   2  -4   8   11.73    0.76
   2  -4   8   11.65    0.83
   2  -4   8   12.18    0.56
   2  -4   8   11.75    0.70
   3  -4   8   35.10    1.30
   3  -4   8   34.99    1.10
   3  -4   8   35.60    1.88
   3  -4   8   36.84    1.19
   3  -4   8   36.28    1.40
   3  -4   8   35.03    1.42
   3  -4   8   35.18    1.20
   3  -4   8   35.41    1.60
   4  -4   8    0.72    0.18
   4  -4   8    1.09    0.16
   4  -4   8    1.04    0.18
   4  -4   8    0.84    0.11
   4  -4   8    0.98    0.13
   4  -4   8    1.09    0.19
   4  -4   8    0.89    0.13
   5  -4   8    7.84    0.37
   5  -4   8    8.36    0.34
   5  -4   8    8.29    0.41
   5  -4   8    8.16    0.44
  -7  -3   8   18.44    0.74
  -7  -3   8   16.53    0.71
  -7  -3   8   17.00    0.56
  -7  -3   8   16.79    0.60
  -7  -3   8   16.27    0.73
  -6  -3   8   10.22    0.55
  -6  -3   8    9.93    0.54
  -6  -3   8    9.32    0.40
  -6  -3   8    9.52    0.41
  -6  -3   8    9.07    0.53
  -6  -3   8    8.54    0.46
  -6  -3   8    9.87    0.38
  -5  -3   8   49.41    1.51
  -5  -3   8   50.49    1.89
  -5  -3   8   49.35    1.63
  -5  -3   8   49.79    1.98
  -5  -3   8   51.14    1.60
  -5  -3   8   49.15    1.91
  -4  -3   8   51.12    1.62
  -4  -3   8   50.77    1.95
  -4  -3   8   51.50    1.53
  -4  -3   8   50.23    2.03
  -4  -3   8   53.31    1.98
  -4  -3   8   52.81    1.92
  -4  -3   8   49.69    1.66
  -3  -3   8   12.93    0.68
  -3  -3   8   12.44    0.46
  -3  -3   8   12.47    0.67
  -3  -3   8   12.99    0.47
  -3  -3   8   12.62    0.54
  -3  -3   8   12.70    0.64
  -2  -3   8  156.22    5.58
  -2  -3   8  164.68    4.91
  -2  -3   8  158.38    5.68
  -2  -3   8  160.85    5.80
  -2  -3   8  160.76    4.78
  -1  -3   8   22.91    1.17
  -1  -3   8   24.14    0.89
  -1  -3   8   23.39    1.29
   0  -3   8  135.76    4.85
   0  -3   8  137.74    5.73
   0  -3   8  134.75    6.31
   0  -3   8  132.92    6.39
   0  -3   8  140.95    4.08
   1  -3   8   21.34    1.14
   1  -3   8   22.94    0.75
   1  -3   8   22.09    1.15
   1  -3   8   22.19    0.76
   1  -3   8   22.80    0.88
   1  -3   8   22.88    1.27
   1  -3   8   23.10    1.10
   2  -3   8    5.32    0.27
   2  -3   8    5.08    0.46
   2  -3   8    5.65    0.52
   2  -3   8    5.55    0.31
   2  -3   8    5.28    0.40
   2  -3   8    5.07    0.38
   2  -3   8    5.02    0.44
   2  -3   8    5.58    0.39
   3  -3   8   38.44    1.26
   3  -3   8   38.43    1.82
   3  -3   8   40.95    2.03
   3  -3   8   35.51    1.27
   3  -3   8   37.26    1.71
   3  -3   8   39.05    1.49
   3  -3   8   37.10    1.39
   3  -3   8   39.59    1.82
   3  -3   8   37.43    1.18
   3  -3   8   38.25    1.51
   4  -3   8   50.51    1.93
   4  -3   8   49.11    1.76
   4  -3   8   49.83    1.66
   4  -3   8   49.54    2.55
   4  -3   8   50.75    1.53
   4  -3   8   49.36    2.16
   4  -3   8   52.06    2.31
   4  -3   8   50.95    1.92
   4  -3   8   53.22    1.64
   5  -3   8    4.34    0.39
   5  -3   8    3.95    0.25
   5  -3   8    4.37    0.30
   5  -3   8    4.72    0.30
   5  -3   8    4.52    0.26
   5  -3   8    4.42    0.22
   5  -3   8    4.54    0.33
   5  -3   8    4.38    0.36
   6  -3   8   24.51    0.87
   6  -3   8   24.70    0.83
   6  -3   8   25.16    0.95
  -7  -2   8   17.87    0.62
  -7  -2   8   17.12    0.72
  -7  -2   8   16.90    0.56
  -7  -2   8   17.67    0.73
  -6  -2   8    3.26    0.23
  -6  -2   8    3.14    0.22
  -6  -2   8    3.53    0.35
  -6  -2   8    3.39    0.24
  -6  -2   8    3.64    0.33
  -6  -2   8    3.49    0.34
  -6  -2   8    3.01    0.25
  -5  -2   8    1.11    0.13
  -5  -2   8    0.68    0.14
  -5  -2   8    0.63    0.18
  -5  -2   8    0.85    0.13
  -5  -2   8    0.44    0.18
  -5  -2   8    0.72    0.12
  -5  -2   8    0.85    0.22
  -4  -2   8   37.48    1.55
  -4  -2   8   38.53    1.46
  -4  -2   8   38.36    1.51
  -4  -2   8   39.19    1.55
  -4  -2   8   37.44    1.23
  -4  -2   8   37.50    1.16
  -4  -2   8   38.03    1.26
  -3  -2   8    3.11    0.31
  -3  -2   8    2.81    0.19
  -3  -2   8    3.18    0.29
  -3  -2   8    2.18    0.31
  -3  -2   8    2.80    0.18
  -3  -2   8    2.69    0.17
  -2  -2   8   86.29    3.07
  -2  -2   8   85.98    3.20
  -1  -2   8   24.41    0.88
   0  -2   8   18.80    0.69
   0  -2   8   18.31    0.94
   0  -2   8   18.60    1.03
   1  -2   8   67.91    2.39
   1  -2   8   66.10    3.15
   1  -2   8   65.38    3.17
   1  -2   8   66.05    2.88
   2  -2   8    1.65    0.23
   2  -2   8    1.69    0.28
   2  -2   8    2.57    0.29
   2  -2   8    2.20    0.21
   2  -2   8    2.90    0.35
   2  -2   8    2.31    0.18
   3  -2   8   24.54    1.25
   3  -2   8   24.49    0.78
   3  -2   8   23.93    0.83
   3  -2   8   25.73    1.25
   3  -2   8   25.15    0.86
   3  -2   8   25.55    1.39
   3  -2   8   25.07    0.96
   3  -2   8   22.54    1.28
   3  -2   8   23.54    1.03
   3  -2   8   24.44    0.99
   3  -2   8   24.25    1.17
   4  -2   8   19.49    0.73
   4  -2   8   20.03    1.09
   4  -2   8   19.12    0.75
   4  -2   8   20.12    0.91
   4  -2   8   22.05    1.23
   4  -2   8   22.21    0.89
   4  -2   8   20.34    0.84
   4  -2   8   20.49    1.02
   4  -2   8   20.19    0.68
   5  -2   8   12.84    0.63
   5  -2   8   13.29    0.66
   5  -2   8   14.11    0.80
   5  -2   8   13.74    0.54
   5  -2   8   13.53    0.55
   5  -2   8   13.63    0.74
   5  -2   8   13.86    0.50
   6  -2   8   18.48    0.88
   6  -2   8   18.50    0.61
   6  -2   8   18.47    0.78
   6  -2   8   17.36    0.94
   6  -2   8   19.24    0.73
   6  -2   8   19.59    0.69
   7   1  -8   29.16    1.24
  -7  -1   8   32.14    1.15
  -7  -1   8   31.32    1.02
  -7  -1   8   30.92    1.15
   6   1  -8   29.01    1.27
  -6  -1   8   29.54    1.01
  -6  -1   8   30.43    1.18
  -6  -1   8   28.80    1.20
  -6  -1   8   29.06    0.99
  -6  -1   8   29.68    0.92
  -6  -1   8   26.05    1.15
  -6  -1   8   28.77    1.18
  -5  -1   8    1.54    0.19
  -5  -1   8    1.43    0.23
  -5  -1   8    1.38    0.27
  -5  -1   8    1.84    0.19
  -5  -1   8    2.16    0.27
  -5  -1   8    2.20    0.20
  -5  -1   8    1.56    0.16
  -5  -1   8    2.41    0.22
  -5  -1   8    1.99    0.30
  -4  -1   8  102.85    3.14
  -4  -1   8  102.59    3.80
  -4  -1   8  100.61    3.66
  -4  -1   8   99.27    2.97
  -4  -1   8  102.32    4.00
  -4  -1   8  101.88    3.72
  -4  -1   8  104.77    3.69
  -4  -1   8  100.96    3.21
  -4  -1   8  105.52    3.94
   3   1  -8    1.45    0.46
  -3  -1   8    1.57    0.15
  -3  -1   8    1.45    0.13
  -3  -1   8    1.53    0.21
  -3  -1   8    1.64    0.16
  -3  -1   8    1.34    0.21
   2   1  -8   25.33    1.97
  -2  -1   8   27.19    0.84
  -2  -1   8   26.66    1.15
  -2  -1   8   26.54    0.99
   1   1  -8   33.67    2.49
  -1  -1   8   38.19    1.30
   1  -1   8   91.15    4.25
   1  -1   8   93.98    4.30
   1  -1   8   91.88    3.25
   1  -1   8   89.52    3.89
   2  -1   8   80.61    3.72
   2  -1   8   78.75    3.75
   2  -1   8   79.13    2.83
   2  -1   8   78.04    3.38
   2  -1   8   77.08    3.36
   3  -1   8    9.62    0.52
   3  -1   8    9.44    0.61
   3  -1   8   10.14    0.68
   3  -1   8    9.21    0.58
   3  -1   8    9.73    0.45
   3  -1   8    9.78    0.38
   4  -1   8   43.39    1.66
   4  -1   8   41.89    1.53
   4  -1   8   45.07    1.41
   4  -1   8   43.53    2.00
   4  -1   8   46.18    2.23
   4  -1   8   41.99    1.44
   4  -1   8   43.40    1.44
   4  -1   8   42.75    2.20
   4  -1   8   43.57    1.32
   4  -1   8   42.07    1.66
   4  -1   8   42.29    1.89
  -5   1  -8    0.13    0.42
   5  -1   8    1.06    0.18
   5  -1   8    1.27    0.19
   5  -1   8    1.06    0.10
   5  -1   8    1.10    0.15
   5  -1   8    0.97    0.19
   5  -1   8    1.09    0.15
   5  -1   8    0.96    0.21
   5  -1   8    1.23    0.26
   5  -1   8    1.34    0.15
   6  -1   8   92.52    4.05
   6  -1   8   97.63    3.82
   6  -1   8   97.13    2.78
   6  -1   8   88.08    3.48
   6  -1   8   94.70    3.37
   6  -1   8   96.02    3.11
   6  -1   8   95.78    2.94
   6  -1   8   97.72    3.02
   7  -1   8   29.12    1.14
   7  -1   8   31.30    1.04
   7  -1   8   31.42    1.07
   6   0  -8    3.35    0.33
  -6   0   8    3.24    0.30
  -6   0   8    3.18    0.20
  -6   0   8    3.14    0.23
  -6   0   8    2.64    0.27
  -6   0   8    3.47    0.30
  -6   0   8    3.05    0.31
  -6   0   8    3.11    0.23
  -5   0   8    0.87    0.16
  -5   0   8    1.58    0.17
  -5   0   8    1.35    0.26
  -5   0   8    1.15    0.23
  -5   0   8    1.22    0.14
  -5   0   8    0.98    0.15
  -5   0   8    0.87    0.21
  -5   0   8    0.92    0.18
  -5   0   8    0.97    0.21
  -4   0   8   25.93    1.16
  -4   0   8   26.39    0.95
  -4   0   8   27.22    0.88
  -4   0   8   27.21    0.93
  -4   0   8   27.68    1.11
  -4   0   8   28.22    1.15
  -4   0   8   26.78    1.13
  -4   0   8   26.80    1.17
  -4   0   8   26.06    1.25
   3   0  -8    1.30    0.44
  -3   0   8    1.05    0.20
  -3   0   8    1.46    0.30
  -3   0   8    1.13    0.15
  -3   0   8    1.17    0.15
  -3   0   8    1.00    0.12
  -3   0   8    1.36    0.23
  -3   0   8    1.02    0.12
  -3   0   8    1.08    0.25
  -3   0   8    0.95    0.13
   2   0  -8    6.01    0.80
  -2   0   8    6.70    0.30
  -2   0   8    6.68    0.42
  -2   0   8    6.52    0.32
  -2   0   8    6.71    0.28
  -1   0   8    8.62    0.37
   0   0   8   13.41    0.66
   0   0   8   12.87    0.50
  -1   0  -8   13.01    1.00
   1   0   8   13.68    0.53
   1   0   8   14.98    0.72
   1   0   8   14.58    0.80
   2   0   8    4.46    0.23
   2   0   8    4.19    0.37
   2   0   8    4.53    0.38
   2   0   8    4.59    0.30
   3   0   8   22.20    0.73
   3   0   8   21.98    0.87
   3   0   8   21.34    1.14
   3   0   8   21.92    1.19
   3   0   8   21.47    1.09
   4   0   8   14.17    0.88
   4   0   8   15.32    0.53
   4   0   8   15.39    0.67
   4   0   8   14.95    0.58
   4   0   8   15.46    0.82
   4   0   8   14.63    0.57
   4   0   8   14.90    0.71
   4   0   8   16.41    0.87
   4   0   8   15.02    0.66
   4   0   8   15.36    0.82
   4   0   8   16.14    0.57
   4   0   8   15.92    0.95
  -5   0  -8    0.03    0.41
   5   0   8    0.66    0.11
   5   0   8    0.53    0.13
   5   0   8    0.97    0.22
   5   0   8    0.74    0.15
   5   0   8    0.82    0.20
   5   0   8    0.38    0.12
   5   0   8    0.49    0.19
   5   0   8    0.55    0.11
   5   0   8    0.53    0.12
   5   0   8    0.57    0.15
   6   0   8    8.02    0.35
   6   0   8    8.40    0.46
   6   0   8    8.32    0.56
   6   0   8    8.39    0.39
   6   0   8    7.37    0.39
   6   0   8    7.45    0.34
   6   0   8    7.93    0.53
   6   0   8    7.22    0.50
   6   0   8    8.13    0.46
   6   0   8    7.41    0.42
  -7   0  -8   -0.09    0.36
   7   0   8    1.17    0.18
   7   0   8    1.59    0.25
   7   0   8    1.60    0.18
   7   0   8    1.74    0.18
   7   0   8    1.21    0.19
   6  -1  -8   61.04    2.39
  -6   1   8   60.17    1.93
  -6   1   8   59.83    2.15
  -5   1   8    0.43    0.17
  -5   1   8    0.11    0.14
  -5   1   8    0.12    0.18
  -5   1   8    0.16    0.15
  -5   1   8    0.16    0.12
  -5   1   8    0.07    0.11
  -5   1   8    0.24    0.09
  -5   1   8    0.40    0.12
  -5   1   8    0.24    0.12
  -4   1   8   97.53    3.67
  -4   1   8  106.10    3.80
  -4   1   8  103.09    4.05
  -4   1   8  106.44    4.04
  -4   1   8   98.73    3.83
  -4   1   8  104.66    3.69
  -4   1   8  103.46    3.19
  -4   1   8   99.56    3.26
  -4   1   8  107.19    3.02
  -4   1   8  104.94    3.43
  -3   1   8   34.06    1.39
  -3   1   8   33.91    1.15
  -3   1   8   32.29    1.47
  -3   1   8   33.62    1.39
  -3   1   8   33.60    1.32
  -3   1   8   32.87    1.33
  -3   1   8   31.76    1.04
  -3   1   8   32.80    1.10
  -3   1   8   34.69    1.17
   2  -1  -8    4.66    0.72
  -2   1   8    5.22    0.30
  -2   1   8    5.26    0.39
  -2   1   8    5.53    0.45
  -2   1   8    5.42    0.26
  -2   1   8    5.96    0.31
  -1   1   8  200.53    8.36
  -1   1   8  198.31    7.66
  -1   1   8  208.02    7.18
   0   1   8   59.38    2.17
   0   1   8   59.77    2.62
   0   1   8   63.27    2.88
   0   1   8   57.28    2.29
  -1  -1  -8   47.22    3.00
   1   1   8   51.64    2.42
   1   1   8   50.24    1.92
   1   1   8   51.75    1.82
   1   1   8   48.79    2.21
  -2  -1  -8  171.28    9.93
   2   1   8  175.71    6.26
   2   1   8  176.32    7.32
   2   1   8  183.07    8.31
  -3  -1  -8   18.01    1.29
   3   1   8   17.58    0.73
   3   1   8   18.81    0.99
   3   1   8   18.40    1.01
   3   1   8   18.05    0.94
   3   1   8   17.88    0.63
   4   1   8   35.37    1.13
   4   1   8   34.51    1.34
   4   1   8   33.93    1.78
   4   1   8   34.10    1.37
   4   1   8   34.56    1.62
   5   1   8   82.81    3.60
   5   1   8   79.61    3.28
   5   1   8   83.64    3.00
   5   1   8   82.46    2.76
   5   1   8   84.02    2.60
   5   1   8   86.37    2.46
   5   1   8   84.06    2.67
   5   1   8   84.65    3.43
   5   1   8   82.34    2.81
   6   1   8    9.51    0.60
   6   1   8    8.84    0.54
   6   1   8    8.07    0.45
   6   1   8    8.68    0.40
   6   1   8    8.82    0.50
   6   1   8    8.87    0.57
   6   1   8    8.60    0.43
   6   1   8    8.61    0.37
   6   1   8    9.02    0.42
   6   1   8    8.45    0.49
   7   1   8   29.12    1.37
   7   1   8   29.81    1.05
   7   1   8   27.52    1.01
   7   1   8   27.35    1.24
   7   1   8   30.18    1.03
   8   1   8    2.60    0.23
   6  -2  -8    6.34    0.36
  -6   2   8    6.67    0.32
  -5   2   8    0.44    0.14
  -5   2   8    0.53    0.14
  -5   2   8    0.50    0.16
  -5   2   8    0.56    0.20
   4  -2  -8   15.46    0.95
  -4   2   8   17.11    0.58
  -4   2   8   15.65    0.75
  -4   2   8   15.40    0.76
  -4   2   8   16.27    0.75
  -4   2   8   15.86    0.63
  -4   2   8   16.51    0.63
  -4   2   8   15.37    0.64
  -4   2   8   16.23    0.74
  -4   2   8   16.08    0.77
  -4   2   8   16.69    0.86
   3  -2  -8   21.48    1.38
  -3   2   8   27.64    1.14
  -3   2   8   24.67    0.93
  -3   2   8   26.02    1.08
  -3   2   8   26.45    0.95
  -3   2   8   26.83    1.14
  -3   2   8   25.97    0.90
  -3   2   8   26.02    1.08
  -3   2   8   26.25    0.84
  -3   2   8   25.80    1.20
   2  -2  -8   10.04    1.13
  -2   2   8   11.27    0.43
  -2   2   8   10.94    0.66
  -2   2   8   11.53    0.48
  -2   2   8   11.53    0.55
  -2   2   8   11.64    0.72
  -2   2   8   12.19    0.63
  -2   2   8   11.33    0.48
  -2   2   8   12.20    0.46
  -2   2   8   11.46    0.59
  -2   2   8   11.79    0.58
  -1   2   8    5.73    0.47
  -1   2   8    5.87    0.28
  -1   2   8    5.74    0.33
  -1   2   8    5.79    0.33
   0   2   8   90.70    3.30
   0   2   8   94.76    4.37
   0   2   8   90.90    3.90
   0   2   8   88.38    3.51
  -1  -2  -8    3.78    0.47
   1   2   8    4.06    0.24
   1   2   8    4.02    0.24
   1   2   8    3.98    0.36
   1   2   8    4.08    0.32
  -2  -2  -8    3.43    0.44
   2   2   8    3.56    0.34
   2   2   8    3.49    0.23
   2   2   8    3.81    0.31
   2   2   8    3.61    0.23
  -3  -2  -8    0.16    0.19
   3   2   8    0.14    0.15
   3   2   8    0.00    0.07
   3   2   8    0.13    0.10
  -4  -2  -8    0.33    0.25
  -4  -2  -8    0.20    0.32
   4   2   8    0.25    0.10
   4   2   8    0.55    0.19
   4   2   8    0.19    0.13
   4   2   8    0.27    0.09
  -5  -2  -8    0.08    0.40
   5   2   8    0.86    0.14
   5   2   8    0.68    0.19
   5   2   8    1.05    0.15
   5   2   8    1.09    0.22
   5   2   8    0.51    0.15
   5   2   8    0.72    0.22
   5   2   8    0.97    0.16
   5   2   8    1.19    0.18
   5   2   8    0.85    0.22
   5   2   8    0.71    0.21
   5   2   8    1.38    0.18
  -6  -2  -8   -0.18    0.35
  -6  -2  -8    0.11    0.43
   6   2   8    0.34    0.18
   6   2   8    0.14    0.11
   6   2   8    0.33    0.11
   6   2   8    0.29    0.14
   6   2   8    0.40    0.16
   6   2   8    0.49    0.19
   6   2   8    0.39    0.13
   6   2   8    0.26    0.13
   6   2   8    0.33    0.13
   6   2   8    0.38    0.15
   7   2   8    8.79    0.40
   7   2   8    8.99    0.53
   7   2   8    9.39    0.59
  -8  -2  -8    0.25    0.31
   8   2   8    0.05    0.10
   8   2   8    0.11    0.06
   5  -3  -8   41.41    1.63
  -5   3   8   40.50    1.45
  -5   3   8   38.55    1.52
   4  -3  -8    5.61    0.50
  -4   3   8    5.86    0.34
  -4   3   8    5.62    0.29
  -4   3   8    6.22    0.46
  -4   3   8    5.48    0.38
  -4   3   8    5.39    0.37
   3  -3  -8   95.37    3.35
   3  -3  -8  104.98    4.41
  -3   3   8   95.40    3.17
  -3   3   8   99.71    3.35
  -3   3   8   94.36    3.53
  -3   3   8  101.77    3.91
  -3   3   8  102.97    3.68
  -3   3   8  101.67    3.92
  -3   3   8   96.57    3.69
  -3   3   8  102.05    2.92
  -3   3   8  100.70    3.09
  -2   3   8   19.18    0.87
  -2   3   8   19.26    0.84
  -2   3   8   18.98    0.88
  -2   3   8   18.83    0.69
  -2   3   8   18.51    0.72
  -2   3   8   19.20    0.74
  -2   3   8   18.69    0.64
  -2   3   8   17.51    0.78
  -2   3   8   18.00    0.82
  -2   3   8   18.38    0.93
  -2   3   8   18.97    0.86
   1  -3  -8   45.56    3.53
  -1   3   8   52.17    1.98
  -1   3   8   54.49    2.06
  -1   3   8   52.10    2.11
  -1   3   8   54.11    2.37
  -1   3   8   53.35    1.99
  -1   3   8   52.99    1.67
   0   3   8  118.66    5.69
   0   3   8  116.66    4.29
   0   3   8  122.66    3.62
   0   3   8  116.68    5.02
   0   3   8  119.11    4.59
  -1  -3  -8    0.60    0.22
   1   3   8    0.63    0.16
   1   3   8    0.54    0.20
   1   3   8    0.66    0.13
   1   3   8    0.61    0.12
  -2  -3  -8   93.46    5.54
   2   3   8   95.24    3.72
   2   3   8   97.53    4.61
   2   3   8   97.25    3.48
   2   3   8   94.26    4.08
  -3  -3  -8  110.62    6.37
   3   3   8  117.74    5.32
   3   3   8  107.88    3.37
   3   3   8  106.02    4.65
   3   3   8  107.91    4.00
   4   3   8    0.46    0.14
   4   3   8    0.48    0.12
   4   3   8    0.51    0.17
   4   3   8    0.73    0.20
   5   3   8  104.47    4.48
   5   3   8  106.18    3.75
   5   3   8  106.74    3.35
   5   3   8  103.30    4.07
   5   3   8  110.62    4.30
   5   3   8  105.17    3.45
   5   3   8   99.59    3.53
   5   3   8  105.94    3.88
   5   3   8  103.59    5.14
   5   3   8  107.61    3.27
   6   3   8    3.49    0.33
   6   3   8    3.45    0.25
   6   3   8    3.66    0.41
   6   3   8    4.00    0.38
   6   3   8    3.99    0.26
   7   3   8   17.91    0.71
   7   3   8   18.29    0.87
   8   3   8   56.95    2.24
   8   3   8   56.89    1.93
   4  -4  -8    0.07    0.15
   4  -4  -8    0.14    0.11
  -4   4   8    0.00    0.13
  -4   4   8    0.15    0.08
  -4   4   8    0.07    0.11
   3  -4  -8    2.94    0.41
   3  -4  -8    2.80    0.30
  -3   4   8    2.60    0.27
  -3   4   8    2.65    0.28
  -3   4   8    2.76    0.31
  -3   4   8    2.42    0.22
   2  -4  -8    8.31    0.74
   2  -4  -8    8.30    0.60
  -2   4   8    9.23    0.38
  -2   4   8    9.63    0.45
  -2   4   8    9.20    0.46
  -2   4   8    9.73    0.54
  -2   4   8    9.07    0.57
  -2   4   8   10.21    0.49
  -2   4   8   10.44    0.56
  -2   4   8    8.54    0.50
  -1   4   8    0.01    0.12
  -1   4   8    0.06    0.11
  -1   4   8    0.27    0.17
  -1   4   8    0.27    0.11
  -1   4   8    0.06    0.14
  -1   4   8    0.12    0.15
  -1   4   8   -0.03    0.12
  -1   4   8    0.29    0.12
  -1   4   8    0.13    0.11
  -1   4   8    0.04    0.18
  -1   4   8   -0.02    0.13
  -1   4   8    0.34    0.10
   0   4   8    0.75    0.16
   0   4   8    0.36    0.19
   0   4   8    0.55    0.17
   0   4   8    0.39    0.18
   0   4   8    0.26    0.18
   0   4   8    0.33    0.13
   0   4   8    0.41    0.12
   0   4   8    0.17    0.10
   0   4   8    0.13    0.13
   0   4   8    0.22    0.15
   0   4   8    0.44    0.11
  -1  -4  -8    0.19    0.19
   1   4   8    0.25    0.16
   1   4   8    0.16    0.16
   1   4   8   -0.06    0.09
   1   4   8    0.13    0.10
   1   4   8    0.08    0.10
   1   4   8    0.16    0.13
  -2  -4  -8    0.13    0.20
   2   4   8    0.17    0.15
   2   4   8    0.22    0.19
   2   4   8    0.10    0.10
   2   4   8    0.20    0.11
   2   4   8    0.60    0.14
   3   4   8   22.00    1.01
   3   4   8   22.00    1.14
   3   4   8   22.63    0.80
   3   4   8   22.86    0.96
   3   4   8   21.93    1.25
   4   4   8   13.55    0.78
   4   4   8   12.91    0.67
   4   4   8   13.74    0.78
   4   4   8   13.94    0.88
   4   4   8   13.00    0.55
   4   4   8   13.73    0.51
   4   4   8   12.84    0.58
   4   4   8   13.09    0.65
   5   4   8    6.87    0.38
   5   4   8    7.60    0.45
   5   4   8    7.22    0.53
   5   4   8    7.51    0.50
   5   4   8    7.50    0.49
   5   4   8    7.50    0.39
   5   4   8    6.87    0.60
   5   4   8    7.88    0.57
   5   4   8    7.55    0.46
   6   4   8   17.11    0.84
   6   4   8   17.46    0.91
   6   4   8   16.43    0.70
  -7  -4  -8    4.40    0.71
  -7  -4  -8    4.04    0.61
   7   4   8    5.94    0.39
   7   4   8    5.29    0.31
  -8  -4  -8    3.96    0.52
   8   4   8    5.02    0.26
   8   4   8    4.79    0.34
   9   4   8    0.25    0.09
   3  -5  -8   12.11    0.72
   3  -5  -8   12.06    0.56
   3  -5  -8   11.67    0.54
  -3   5   8   11.89    0.48
  -3   5   8   11.31    0.56
   2  -5  -8  100.70    3.60
   2  -5  -8   99.74    3.32
   2  -5  -8  103.36    4.35
  -2   5   8  101.32    3.67
  -2   5   8   97.50    3.34
  -2   5   8   93.67    3.90
   1  -5  -8   34.13    1.91
   1  -5  -8   32.98    1.58
  -1   5   8   41.47    1.65
  -1   5   8   38.88    1.39
  -1   5   8   39.97    1.39
  -1   5   8   41.44    1.58
  -1   5   8   38.99    1.48
  -1   5   8   36.97    1.18
   0   5   8   26.44    1.03
   0   5   8   25.94    0.86
   0   5   8   27.00    1.15
   0   5   8   25.72    1.00
   0   5   8   28.42    1.20
   0   5   8   25.62    1.11
   0   5   8   26.20    1.08
   1   5   8   32.73    1.30
   1   5   8   31.20    1.32
   1   5   8   28.43    1.70
   1   5   8   32.74    1.30
   1   5   8   31.26    1.25
   1   5   8   31.74    1.54
   1   5   8   31.27    1.45
   1   5   8   31.94    1.19
   1   5   8   31.63    1.09
   1   5   8   33.76    1.39
   1   5   8   31.71    1.17
   1   5   8   32.03    1.01
   2   5   8   13.67    0.50
   2   5   8   12.93    0.76
   2   5   8   12.86    0.86
   2   5   8   13.26    0.65
   2   5   8   15.04    0.75
   2   5   8   12.71    0.58
   2   5   8   13.56    0.79
   2   5   8   13.56    0.66
   2   5   8   14.15    0.69
   2   5   8   12.94    0.62
   2   5   8   13.25    0.54
   2   5   8   13.23    0.67
   3   5   8   76.01    2.81
   3   5   8   78.02    2.79
   3   5   8   80.21    3.21
   3   5   8   73.62    2.88
   3   5   8   75.56    3.35
   3   5   8   77.28    2.43
   3   5   8   81.52    3.10
   3   5   8   77.27    2.58
   3   5   8   75.24    3.85
   3   5   8   76.97    2.65
   3   5   8   76.16    3.05
   4   5   8   10.02    0.60
   4   5   8    9.90    0.53
   4   5   8   10.21    0.57
   4   5   8   10.68    0.59
   4   5   8    9.77    0.66
   4   5   8    9.47    0.48
   4   5   8    9.51    0.40
   5   5   8   48.63    1.73
   5   5   8   47.81    1.83
   5   5   8   48.33    1.99
   5   5   8   47.28    1.48
   5   5   8   49.78    2.12
   6   5   8   93.62    3.76
   6   5   8   92.84    3.28
   6   5   8   91.84    3.14
   6   5   8   90.20    3.58
  -7  -5  -8    3.02    0.47
   7   5   8    3.47    0.26
   7   5   8    3.26    0.31
  -8  -5  -8   33.61    1.74
   8   5   8   37.24    1.28
   8   5   8   37.06    1.47
   9   5   8   53.14    1.76
   3  -6  -8    0.81    0.11
  -3   6   8    1.00    0.09
   2  -6  -8    1.02    0.18
   2  -6  -8    0.23    0.17
   2  -6  -8    0.58    0.15
  -2   6   8    0.43    0.11
  -2   6   8    1.07    0.16
   1  -6  -8    0.45    0.23
   1  -6  -8    0.01    0.17
   1  -6  -8    0.49    0.20
  -1   6   8    0.10    0.14
  -1   6   8    0.24    0.11
  -1   6   8    0.26    0.14
   0  -6  -8    2.36    0.37
   0  -6  -8    2.62    0.42
   0  -6  -8    2.46    0.37
   0   6   8    3.70    0.33
   0   6   8    3.28    0.26
   0   6   8    3.21    0.32
   0   6   8    3.06    0.28
  -1  -6  -8    0.46    0.27
   1   6   8    1.17    0.19
   1   6   8    1.06    0.19
   1   6   8    2.01    0.23
   1   6   8    1.31    0.18
   1   6   8    0.99    0.20
   1   6   8    0.89    0.19
   2   6   8    3.11    0.31
   2   6   8    2.39    0.24
   2   6   8    2.20    0.31
   2   6   8    2.91    0.31
   2   6   8    2.94    0.29
   2   6   8    3.10    0.37
   2   6   8    2.03    0.23
   2   6   8    2.12    0.27
   3   6   8    2.51    0.24
   3   6   8    1.93    0.23
   3   6   8    1.91    0.29
   3   6   8    2.15    0.27
   3   6   8    2.30    0.29
   3   6   8    2.63    0.28
   4   6   8   12.70    0.66
   4   6   8   13.37    0.60
   4   6   8   13.45    0.76
   4   6   8   14.13    0.73
   4   6   8   13.38    0.65
   5   6   8    0.16    0.13
   5   6   8    0.03    0.16
   5   6   8    0.18    0.12
   5   6   8    0.19    0.16
   6   6   8    6.04    0.44
   6   6   8    6.65    0.37
   6   6   8    5.16    0.36
   6   6   8    5.43    0.43
   7   6   8    0.74    0.14
   7   6   8    0.57    0.14
   8   6   8    0.62    0.11
   2  -7  -8   22.17    0.78
  -2   7   8   22.82    0.77
   1  -7  -8   45.56    2.13
   1  -7  -8   48.62    1.62
   1  -7  -8   48.35    1.77
  -1   7   8   48.05    1.63
  -1   7   8   46.81    1.79
   0  -7  -8    9.10    0.54
   0  -7  -8    9.31    0.50
   0  -7  -8    9.08    0.57
   0  -7  -8    8.47    0.61
   0   7   8    8.75    0.49
   0   7   8    9.04    0.42
  -1  -7  -8   72.22    2.84
  -1  -7  -8   77.88    3.24
  -1  -7  -8   71.20    3.36
  -1  -7  -8   72.20    2.59
   1   7   8   81.28    2.86
   1   7   8   78.77    2.52
   1   7   8   79.20    2.62
  -2  -7  -8   39.27    2.13
   2   7   8   48.36    1.63
   2   7   8   48.66    1.86
   2   7   8   49.23    1.79
   2   7   8   47.80    1.69
   2   7   8   49.64    1.77
   3   7   8   11.36    0.60
   3   7   8   11.94    0.54
   3   7   8   11.44    0.57
   3   7   8   11.73    0.58
   4   7   8   60.24    2.19
   4   7   8   59.15    2.09
   5   7   8    5.61    0.37
   5   7   8    6.39    0.44
   5   7   8    5.88    0.36
   6   7   8   48.20    1.66
   6   7   8   44.90    1.72
   7   7   8   44.16    1.52
   7   7   8   41.97    1.57
   8   7   8    1.32    0.13
   8   7   8    1.33    0.13
   0  -8  -8    0.12    0.11
   0  -8  -8    0.08    0.09
   0  -8  -8    0.20    0.11
   0   8   8    0.13    0.08
   0   8   8    0.27    0.10
  -1  -8  -8    2.69    0.26
  -1  -8  -8    2.56    0.28
  -1  -8  -8    2.05    0.21
   1   8   8    2.70    0.20
   1   8   8    2.31    0.22
  -2  -8  -8    2.00    0.31
  -2  -8  -8    1.93    0.26
   2   8   8    2.03    0.20
   2   8   8    1.97    0.21
  -3  -8  -8    2.27    0.29
  -3  -8  -8    2.67    0.38
   3   8   8    2.68    0.22
   3   8   8    2.13    0.23
   3   8   8    2.46    0.23
  -4  -8  -8   10.29    0.74
   4   8   8   11.81    0.54
   4   8   8   12.07    0.52
  -5  -8  -8    0.18    0.20
   5   8   8    0.14    0.10
   5   8   8    0.37    0.12
   6   8   8    0.18    0.10
   6   8   8    0.34    0.10
   7   8   8    7.15    0.35
   7   8   8    7.75    0.34
  -2  -9  -8   29.10    1.23
   2   9   8   28.33    1.00
  -3  -9  -8    2.83    0.27
   3   9   8    2.23    0.17
  -4  -9  -8   34.98    1.49
   4   9   8   33.89    1.24
   4   9   8   34.62    1.21
  -5  -9  -8   26.16    1.14
   5   9   8   25.25    0.91
   5   9   8   25.45    0.95
   6   9   8   25.46    0.92
   6   9   8   24.70    0.88
  -4  -7   9    8.39    0.39
  -4  -7   9    8.33    0.29
  -3  -7   9   55.08    1.93
  -3  -7   9   54.10    1.58
  -3  -7   9   54.01    1.67
  -2  -7   9    3.97    0.20
  -2  -7   9    3.74    0.26
  -2  -7   9    4.01    0.18
  -1  -7   9   22.78    0.87
  -1  -7   9   22.95    0.70
   0  -7   9   20.36    0.62
  -5  -6   9   18.46    0.80
  -5  -6   9   19.41    0.77
  -5  -6   9   19.32    0.60
  -5  -6   9   18.26    0.62
  -4  -6   9    4.25    0.31
  -4  -6   9    4.22    0.33
  -4  -6   9    4.04    0.19
  -4  -6   9    3.73    0.20
  -3  -6   9    2.57    0.27
  -3  -6   9    2.06    0.31
  -3  -6   9    2.38    0.16
  -3  -6   9    2.69    0.19
  -3  -6   9    2.23    0.16
  -2  -6   9    1.87    0.33
  -2  -6   9    1.39    0.15
  -2  -6   9    1.26    0.27
  -2  -6   9    1.66    0.14
  -2  -6   9    1.52    0.21
  -2  -6   9    1.38    0.12
  -2  -6   9    1.43    0.10
  -1  -6   9   13.66    0.82
  -1  -6   9   14.98    0.66
  -1  -6   9   13.68    0.47
  -1  -6   9   13.20    0.89
  -1  -6   9   14.59    0.48
  -1  -6   9   14.03    0.51
  -1  -6   9   12.89    0.58
   0  -6   9    1.66    0.13
   0  -6   9    1.36    0.20
   0  -6   9    1.71    0.28
   0  -6   9    1.51    0.15
   0  -6   9    1.62    0.12
   1  -6   9    0.63    0.17
   1  -6   9    0.64    0.08
   1  -6   9    0.64    0.09
   1  -6   9    0.48    0.18
   1  -6   9    0.59    0.13
   1  -6   9    0.53    0.09
   2  -6   9    0.13    0.05
   2  -6   9   -0.02    0.12
   2  -6   9    0.06    0.05
  -6  -5   9    9.77    0.46
  -6  -5   9    9.54    0.48
  -6  -5   9    9.48    0.46
  -6  -5   9    9.47    0.34
  -6  -5   9    9.38    0.36
  -5  -5   9   50.21    1.98
  -5  -5   9   49.96    1.60
  -5  -5   9   51.41    1.52
  -5  -5   9   53.78    1.90
  -5  -5   9   53.54    1.62
  -5  -5   9   49.29    1.89
  -4  -5   9    1.49    0.13
  -4  -5   9    1.40    0.23
  -4  -5   9    1.87    0.14
  -4  -5   9    1.59    0.17
  -4  -5   9    2.21    0.28
  -4  -5   9    1.44    0.14
  -3  -5   9   43.56    1.63
  -3  -5   9   42.62    1.67
  -3  -5   9   41.95    1.37
  -3  -5   9   43.81    1.37
  -3  -5   9   43.65    1.30
  -3  -5   9   44.75    1.74
  -2  -5   9   34.26    1.65
  -2  -5   9   34.35    1.37
  -2  -5   9   33.53    1.82
  -2  -5   9   34.66    1.10
  -2  -5   9   33.60    1.09
  -2  -5   9   34.97    1.31
  -1  -5   9   11.23    0.42
  -1  -5   9   10.55    0.48
  -1  -5   9   10.80    0.78
  -1  -5   9   10.45    0.71
  -1  -5   9   11.56    0.59
  -1  -5   9   10.45    0.39
   0  -5   9    4.66    0.26
   0  -5   9    4.16    0.48
   0  -5   9    4.29    0.23
   0  -5   9    4.10    0.21
   0  -5   9    4.69    0.46
   0  -5   9    4.91    0.37
   0  -5   9    4.47    0.23
   1  -5   9   17.99    0.60
   1  -5   9   19.22    0.93
   1  -5   9   19.71    1.01
   1  -5   9   17.77    0.78
   1  -5   9   16.67    1.08
   1  -5   9   17.47    0.74
   1  -5   9   17.62    0.62
   2  -5   9   22.16    0.69
   2  -5   9   20.27    1.22
   2  -5   9   22.08    0.73
   2  -5   9   20.90    0.87
   2  -5   9   22.10    0.74
   2  -5   9   21.45    1.03
   3  -5   9   51.37    2.16
   3  -5   9   52.80    1.65
   3  -5   9   54.01    1.54
   3  -5   9   51.22    1.89
   3  -5   9   52.16    1.63
  -6  -4   9    0.11    0.13
  -6  -4   9    0.13    0.07
  -6  -4   9    0.17    0.13
  -6  -4   9    0.12    0.07
  -6  -4   9    0.11    0.13
  -6  -4   9    0.06    0.07
  -5  -4   9    5.82    0.28
  -5  -4   9    5.57    0.43
  -5  -4   9    5.88    0.41
  -5  -4   9    6.15    0.27
  -5  -4   9    5.80    0.43
  -5  -4   9    5.76    0.33
  -5  -4   9    6.43    0.28
  -4  -4   9    1.87    0.16
  -4  -4   9    1.73    0.27
  -4  -4   9    1.88    0.19
  -4  -4   9    1.70    0.25
  -4  -4   9    2.15    0.16
  -4  -4   9    2.03    0.26
  -4  -4   9    1.76    0.15
  -3  -4   9    0.39    0.17
  -3  -4   9    0.80    0.10
  -3  -4   9    1.15    0.23
  -3  -4   9    0.72    0.10
  -3  -4   9    0.64    0.12
  -2  -4   9   15.01    0.75
  -2  -4   9   15.40    0.52
  -2  -4   9   16.01    0.53
  -2  -4   9   14.51    0.91
  -2  -4   9   14.44    0.95
  -2  -4   9   15.95    0.63
  -1  -4   9    2.33    0.29
  -1  -4   9    2.74    0.18
  -1  -4   9    2.44    0.16
  -1  -4   9    2.24    0.34
  -1  -4   9    2.02    0.34
  -1  -4   9    2.31    0.13
   0  -4   9   16.20    0.66
   0  -4   9   15.87    0.56
   0  -4   9   15.79    0.55
   0  -4   9   16.38    1.01
   0  -4   9   17.68    0.78
   0  -4   9   15.80    0.92
   1  -4   9   49.55    1.88
   1  -4   9   53.14    2.33
   1  -4   9   50.48    2.18
   1  -4   9   49.50    1.61
   1  -4   9   51.40    2.56
   2  -4   9    2.61    0.18
   2  -4   9    2.34    0.17
   2  -4   9    2.15    0.27
   2  -4   9    2.80    0.41
   2  -4   9    2.60    0.33
   2  -4   9    2.33    0.20
   2  -4   9    2.22    0.16
   2  -4   9    2.71    0.36
   3  -4   9   20.80    1.19
   3  -4   9   20.18    0.82
   3  -4   9   20.43    1.01
   3  -4   9   20.96    0.90
   3  -4   9   21.16    0.72
   3  -4   9   20.34    0.67
   3  -4   9   19.49    0.84
   3  -4   9   20.88    0.72
   4  -4   9   11.61    0.52
   4  -4   9   11.60    0.46
   4  -4   9   12.62    0.58
   4  -4   9   12.58    0.43
   4  -4   9   12.37    0.64
   4  -4   9   12.72    0.46
  -6  -3   9    0.43    0.16
  -6  -3   9    0.37    0.09
  -6  -3   9    0.28    0.14
  -6  -3   9    0.36    0.09
  -6  -3   9    0.49    0.10
  -6  -3   9    0.38    0.15
  -5  -3   9   47.56    1.87
  -5  -3   9   50.19    1.89
  -5  -3   9   48.69    1.50
  -5  -3   9   50.30    1.58
  -5  -3   9   50.90    1.61
  -5  -3   9   50.64    1.91
  -5  -3   9   51.56    1.97
  -4  -3   9   36.74    1.49
  -4  -3   9   36.81    1.12
  -4  -3   9   37.16    1.53
  -4  -3   9   36.21    1.21
  -4  -3   9   36.81    1.19
  -4  -3   9   38.22    1.41
  -4  -3   9   35.49    1.45
  -3  -3   9   32.66    1.06
  -3  -3   9   32.91    1.40
  -3  -3   9   33.38    1.32
  -3  -3   9   33.83    1.09
  -3  -3   9   33.70    1.26
  -3  -3   9   33.17    1.37
  -2  -3   9  186.51    6.55
  -2  -3   9  180.97    6.39
  -2  -3   9  186.04    5.52
  -2  -3   9  186.79    6.69
  -2  -3   9  184.89    5.63
  -1  -3   9  131.00    4.58
  -1  -3   9  127.57    6.00
   0  -3   9   18.47    0.60
   0  -3   9   18.39    0.71
   0  -3   9   18.37    0.99
   0  -3   9   19.28    0.61
   0  -3   9   17.92    1.08
   1  -3   9  129.56    5.89
   1  -3   9  132.35    5.07
   1  -3   9  124.23    3.87
   1  -3   9  116.60    5.92
   1  -3   9  127.54    4.51
   1  -3   9  128.77    5.34
   1  -3   9  126.10    3.80
   2  -3   9    1.93    0.26
   2  -3   9    1.63    0.27
   2  -3   9    1.73    0.27
   2  -3   9    2.07    0.18
   2  -3   9    1.52    0.29
   2  -3   9    1.66    0.14
   3  -3   9   26.15    1.26
   3  -3   9   27.02    0.85
   3  -3   9   27.13    1.07
   3  -3   9   25.20    0.91
   3  -3   9   27.63    1.13
   3  -3   9   26.46    0.90
   3  -3   9   27.17    1.49
   3  -3   9   27.44    1.04
   4  -3   9    3.46    0.34
   4  -3   9    2.27    0.36
   4  -3   9    3.38    0.21
   4  -3   9    3.06    0.24
   4  -3   9    3.39    0.30
   4  -3   9    3.49    0.21
   4  -3   9    3.04    0.37
   4  -3   9    3.58    0.31
   4  -3   9    3.12    0.19
   5  -3   9   19.92    0.77
   5  -3   9   21.25    0.71
   5  -3   9   19.37    0.83
   5  -3   9   18.87    0.69
   5  -3   9   20.99    0.65
   5  -3   9   20.87    0.94
  -6  -2   9   15.26    0.69
  -6  -2   9   14.26    0.69
  -6  -2   9   14.11    0.54
  -6  -2   9   15.15    0.51
  -6  -2   9   14.91    0.55
  -6  -2   9   15.63    0.69
  -6  -2   9   13.50    0.66
  -5  -2   9    5.62    0.27
  -5  -2   9    5.89    0.29
  -5  -2   9    5.31    0.33
  -5  -2   9    5.29    0.29
  -5  -2   9    5.44    0.45
  -5  -2   9    6.27    0.44
  -5  -2   9    5.91    0.43
  -4  -2   9   38.21    1.24
  -4  -2   9   38.54    1.52
  -4  -2   9   37.52    1.57
  -4  -2   9   39.31    1.56
  -4  -2   9   37.64    1.17
  -4  -2   9   40.06    1.47
  -4  -2   9   37.51    1.26
  -3  -2   9    7.84    0.37
  -3  -2   9    8.10    0.32
  -3  -2   9    7.94    0.50
  -3  -2   9    7.87    0.53
  -3  -2   9    8.07    0.48
  -3  -2   9    7.79    0.32
  -2  -2   9   10.15    0.42
  -2  -2   9   10.41    0.36
  -2  -2   9    9.83    0.35
  -2  -2   9    9.97    0.56
   1  -2   9   90.53    2.80
   1  -2   9   93.43    3.90
   1  -2   9   89.93    3.70
   1  -2   9   90.28    3.26
   1  -2   9   92.57    4.30
   2  -2   9    4.07    0.39
   2  -2   9    4.27    0.25
   2  -2   9    4.40    0.36
   2  -2   9    4.37    0.31
   2  -2   9    4.40    0.22
   2  -2   9    4.15    0.40
   2  -2   9    4.88    0.36
   2  -2   9    4.66    0.45
   2  -2   9    3.96    0.44
   3  -2   9    1.94    0.32
   3  -2   9    2.24    0.17
   3  -2   9    2.16    0.19
   3  -2   9    1.85    0.23
   3  -2   9    1.87    0.16
   3  -2   9    1.96    0.16
   3  -2   9    2.35    0.30
   3  -2   9    1.96    0.25
   3  -2   9    2.72    0.39
   4  -2   9   82.40    4.01
   4  -2   9   82.34    3.43
   4  -2   9   84.58    2.59
   4  -2   9   87.46    3.66
   4  -2   9   80.88    2.64
   4  -2   9   84.43    2.79
   4  -2   9   87.23    3.08
   4  -2   9   81.74    3.02
   4  -2   9   82.62    2.45
  -5   2  -9    0.33    0.45
   5  -2   9    0.17    0.13
   5  -2   9    0.20    0.14
   5  -2   9    0.35    0.12
   5  -2   9    0.56    0.15
   5  -2   9    0.14    0.09
   5  -2   9    0.27    0.10
   5  -2   9    0.21    0.08
   5  -2   9    0.50    0.19
   6  -2   9   25.24    1.11
   6  -2   9   25.39    0.99
   6  -2   9   25.13    0.91
   6  -2   9   25.72    0.86
   6  -2   9   25.08    0.78
   6   1  -9   13.95    0.69
  -6  -1   9   14.60    0.66
  -6  -1   9   14.47    0.66
  -6  -1   9   14.25    0.68
  -6  -1   9   14.17    0.54
  -6  -1   9   15.15    0.50
  -6  -1   9   15.29    0.55
  -5  -1   9    0.49    0.12
  -5  -1   9    0.42    0.19
  -5  -1   9    0.21    0.17
  -5  -1   9    0.37    0.12
  -5  -1   9    0.47    0.12
  -5  -1   9    0.30    0.20
  -5  -1   9    0.30    0.10
  -5  -1   9    0.32    0.16
  -4  -1   9   30.40    1.30
  -4  -1   9   30.30    1.37
  -4  -1   9   29.50    0.96
  -4  -1   9   32.27    1.21
  -4  -1   9   30.02    1.03
  -4  -1   9   31.27    1.30
  -4  -1   9   30.05    1.01
  -4  -1   9   29.46    1.25
  -3  -1   9   26.26    0.89
  -3  -1   9   26.83    1.17
  -3  -1   9   27.19    1.17
  -3  -1   9   26.97    1.06
  -3  -1   9   28.01    1.13
  -3  -1   9   27.40    0.91
   2   1  -9   24.46    2.03
  -2  -1   9   27.19    1.00
  -2  -1   9   27.83    1.15
  -2  -1   9   27.32    0.87
  -2  -1   9   27.09    0.85
  -2  -1   9   24.89    1.08
  -1  -1   9   27.76    1.01
   1  -1   9   70.77    2.52
   1  -1   9   70.52    3.08
   2  -1   9   46.97    2.30
   2  -1   9   45.82    1.79
   2  -1   9   47.59    1.47
   2  -1   9   47.87    2.13
   2  -1   9   48.60    2.35
   2  -1   9   47.64    2.16
   2  -1   9   48.19    1.74
   3  -1   9   34.86    1.80
   3  -1   9   36.36    1.32
   3  -1   9   36.84    1.62
   3  -1   9   35.21    1.37
   3  -1   9   35.80    1.18
   3  -1   9   36.26    1.16
   3  -1   9   37.07    1.72
   3  -1   9   36.98    1.87
   3  -1   9   34.86    1.41
   4  -1   9   31.89    1.10
   4  -1   9   31.46    1.07
   4  -1   9   32.38    1.58
   4  -1   9   33.94    1.28
   4  -1   9   32.25    1.31
   4  -1   9   30.64    1.01
   4  -1   9   33.63    1.74
   4  -1   9   32.90    1.48
   4  -1   9   32.79    1.21
   5  -1   9    8.66    0.47
   5  -1   9    9.20    0.47
   5  -1   9    8.78    0.56
   5  -1   9    9.71    0.52
   5  -1   9    8.98    0.37
   5  -1   9    9.41    0.40
   5  -1   9    9.09    0.62
   5  -1   9    8.71    0.40
   6  -1   9   29.03    0.95
   6  -1   9   27.66    1.22
   6  -1   9   27.80    0.86
   6  -1   9   28.13    1.00
   6  -1   9   25.29    1.09
   6  -1   9   27.82    1.08
   6  -1   9   25.88    0.92
   6  -1   9   25.34    1.29
   7  -1   9   19.09    0.69
   7  -1   9   19.31    0.66
   6   0  -9   51.51    2.04
  -6   0   9   50.83    1.85
  -6   0   9   49.16    1.92
  -6   0   9   51.80    1.65
  -6   0   9   54.48    1.87
  -6   0   9   52.58    1.52
  -6   0   9   49.90    1.62
  -5   0   9   20.34    0.73
  -5   0   9   20.36    0.89
  -5   0   9   20.24    0.68
  -5   0   9   19.00    0.85
  -5   0   9   20.28    0.88
  -5   0   9   19.48    0.98
  -5   0   9   20.83    0.92
  -5   0   9   20.24    0.74
  -4   0   9   56.50    2.12
  -4   0   9   55.39    1.69
  -4   0   9   55.96    2.12
  -4   0   9   56.46    1.79
  -4   0   9   57.71    2.13
  -4   0   9   55.62    2.32
  -4   0   9   56.22    2.20
  -4   0   9   55.89    1.83
  -3   0   9  137.26    5.46
  -3   0   9  138.83    4.09
  -3   0   9  142.37    5.01
  -3   0   9  144.38    5.13
  -3   0   9  146.20    5.22
  -3   0   9  147.28    4.32
  -3   0   9  142.70    4.42
   2   0  -9    2.50    0.60
  -2   0   9    2.89    0.30
  -2   0   9    2.90    0.18
  -2   0   9    3.04    0.30
  -2   0   9    2.51    0.17
  -2   0   9    2.84    0.20
  -2   0   9    2.66    0.32
   1   0  -9   26.26    2.15
  -1   0   9   29.39    0.91
  -1   0   9   29.38    1.21
  -1   0   9   29.95    1.09
   0   0   9   38.28    1.77
   0   0   9   38.32    1.39
  -1   0  -9   10.91    0.96
   1   0   9   12.93    0.65
   1   0   9   13.53    0.74
   1   0   9   13.00    0.50
   2   0   9   29.72    1.41
   2   0   9   28.18    0.91
   2   0   9   29.41    1.45
   2   0   9   28.85    1.09
   3   0   9    4.59    0.35
   3   0   9    4.98    0.27
   3   0   9    4.38    0.22
   3   0   9    4.44    0.39
   3   0   9    4.19    0.41
   3   0   9    4.62    0.43
   3   0   9    4.40    0.24
   3   0   9    4.08    0.33
   3   0   9    4.43    0.33
   4   0   9   67.70    2.02
   4   0   9   67.39    2.51
   4   0   9   68.67    3.03
   4   0   9   67.59    2.19
   4   0   9   67.20    2.32
   4   0   9   69.81    2.54
   4   0   9   67.95    2.86
   4   0   9   71.55    2.14
   4   0   9   70.26    3.33
   4   0   9   68.35    2.77
   4   0   9   67.98    3.36
   5   0   9   42.51    1.94
   5   0   9   41.03    1.77
   5   0   9   41.41    1.49
   5   0   9   42.35    1.36
   5   0   9   41.14    1.83
   5   0   9   41.68    1.28
   5   0   9   39.37    1.39
   5   0   9   43.80    1.63
   5   0   9   41.16    1.61
   6   0   9    6.95    0.51
   6   0   9    6.75    0.31
   6   0   9    7.24    0.48
   6   0   9    6.21    0.40
   6   0   9    6.85    0.47
   6   0   9    6.57    0.41
   6   0   9    6.58    0.35
   6   0   9    6.78    0.34
   6   0   9    6.86    0.39
   7   0   9   43.30    1.56
   7   0   9   42.06    1.89
   7   0   9   43.37    1.40
   7   0   9   41.78    1.44
   6  -1  -9   18.95    0.80
  -6   1   9   17.48    0.70
  -6   1   9   18.28    0.63
  -5   1   9    8.45    0.48
  -5   1   9    8.36    0.46
  -5   1   9    9.12    0.40
  -5   1   9    9.57    0.41
  -5   1   9    9.50    0.48
  -5   1   9    9.31    0.36
  -5   1   9    9.03    0.57
  -5   1   9    9.44    0.51
  -4   1   9   26.73    1.12
  -4   1   9   28.02    1.13
  -4   1   9   27.45    1.13
  -4   1   9   27.30    0.88
  -4   1   9   28.29    1.19
  -4   1   9   28.54    0.95
  -4   1   9   27.37    1.14
  -4   1   9   26.68    0.97
  -4   1   9   25.44    1.25
  -3   1   9   11.66    0.48
  -3   1   9   11.56    0.64
  -3   1   9   11.40    0.46
  -3   1   9   10.99    0.43
  -3   1   9   10.63    0.60
  -3   1   9   11.70    0.55
  -3   1   9   12.28    0.55
  -3   1   9   11.34    0.67
  -2   1   9    2.41    0.30
  -2   1   9    1.58    0.22
  -2   1   9    2.24    0.17
  -2   1   9    1.84    0.25
  -2   1   9    2.21    0.18
  -2   1   9    2.49    0.18
  -2   1   9    2.12    0.31
  -2   1   9    2.38    0.18
  -2   1   9    2.36    0.21
  -1   1   9   54.54    2.01
  -1   1   9   54.35    2.43
  -1   1   9   53.98    2.11
  -1   1   9   54.83    1.69
   0   1   9    7.14    0.52
   0   1   9    6.97    0.33
   0   1   9    6.85    0.42
   0   1   9    7.12    0.28
  -1  -1  -9    0.32    0.19
   1   1   9    0.38    0.08
   1   1   9    0.25    0.09
   1   1   9    0.49    0.19
  -2  -1  -9   13.31    1.09
   2   1   9   15.56    0.61
   2   1   9   15.14    0.81
   2   1   9   14.00    0.50
   2   1   9   15.76    0.84
  -3  -1  -9    0.84    0.34
   3   1   9    1.13    0.19
   3   1   9    1.36    0.25
   3   1   9    1.16    0.22
   3   1   9    1.29    0.13
   3   1   9    1.14    0.14
   4   1   9   11.53    0.48
   4   1   9   11.71    0.67
   4   1   9   11.54    0.56
   4   1   9   12.56    0.71
   4   1   9   11.85    0.61
   4   1   9   11.56    0.46
   4   1   9   11.69    0.43
   4   1   9   11.78    0.55
   4   1   9   11.48    0.73
   4   1   9   11.41    0.71
   5   1   9   15.87    0.85
   5   1   9   15.50    0.57
   5   1   9   16.24    0.69
   5   1   9   14.53    0.73
   5   1   9   16.54    0.72
   5   1   9   16.11    0.60
   5   1   9   15.47    0.81
   5   1   9   14.83    0.61
   5   1   9   16.16    0.56
   5   1   9   15.81    0.89
   6   1   9    3.90    0.30
   6   1   9    3.67    0.35
   6   1   9    3.60    0.36
   6   1   9    3.51    0.26
   6   1   9    3.85    0.23
   6   1   9    3.89    0.39
   6   1   9    3.44    0.18
   6   1   9    3.16    0.31
   6   1   9    3.93    0.26
   6   1   9    3.35    0.29
   7   1   9   18.39    0.67
   7   1   9   16.76    0.82
   7   1   9   17.72    0.75
   7   1   9   17.43    0.62
   7   1   9   17.02    0.90
   7   1   9   17.89    0.69
  -5   2   9   26.05    1.12
  -5   2   9   30.40    1.23
  -5   2   9   28.24    1.07
  -5   2   9   28.38    0.96
  -4   2   9   34.08    1.45
  -4   2   9   39.38    1.15
  -4   2   9   36.42    1.42
  -4   2   9   39.13    1.61
  -4   2   9   35.13    1.50
  -4   2   9   36.47    1.49
  -4   2   9   36.74    1.26
  -4   2   9   38.12    1.23
   3  -2  -9   40.05    2.16
  -3   2   9   44.87    1.37
  -3   2   9   44.17    1.72
  -3   2   9   45.28    1.90
  -3   2   9   47.37    1.74
  -3   2   9   44.40    1.46
  -3   2   9   44.23    1.50
  -3   2   9   47.16    1.83
  -3   2   9   45.89    1.81
  -2   2   9   17.03    0.88
  -2   2   9   17.13    0.63
  -2   2   9   17.55    0.61
  -2   2   9   17.56    0.60
  -2   2   9   16.99    0.76
  -2   2   9   16.68    0.79
  -2   2   9   17.81    0.78
  -2   2   9   17.68    0.97
  -2   2   9   17.12    0.66
  -2   2   9   17.87    0.85
   1  -2  -9   26.36    2.36
  -1   2   9   32.32    1.29
  -1   2   9   33.54    1.36
  -1   2   9   32.71    1.09
  -1   2   9   32.45    1.55
  -1   2   9   32.17    1.31
  -1   2   9   32.95    1.26
  -1   2   9   33.78    1.43
  -1   2   9   32.75    1.06
   0   2   9  105.22    4.08
   0   2   9  103.54    5.08
   0   2   9  112.49    3.99
   0   2   9  106.20    4.54
   0   2   9  105.58    3.84
   0   2   9  106.95    3.24
  -1  -2  -9    0.97    0.29
   1   2   9    1.51    0.16
   1   2   9    1.13    0.18
   1   2   9    1.32    0.13
   1   2   9    1.50    0.28
   1   2   9    1.81    0.15
  -2  -2  -9   46.84    3.13
   2   2   9   52.35    1.92
   2   2   9   50.40    2.01
   2   2   9   53.40    2.32
   2   2   9   52.59    2.53
   2   2   9   52.29    1.61
   3   2   9   73.77    2.72
   3   2   9   72.50    3.60
   3   2   9   74.78    2.29
   3   2   9   74.56    3.22
   4   2   9    1.71    0.17
   4   2   9    2.35    0.29
   4   2   9    1.64    0.29
   4   2   9    1.87    0.28
   4   2   9    1.79    0.16
   4   2   9    1.58    0.25
   4   2   9    1.43    0.17
   4   2   9    1.67    0.16
   4   2   9    1.45    0.26
   4   2   9    2.09    0.25
   4   2   9    1.66    0.19
   5   2   9  133.67    5.34
   5   2   9  134.13    4.07
   5   2   9  135.40    4.84
   5   2   9  132.49    4.17
   5   2   9  134.86    3.85
   5   2   9  134.12    4.68
   5   2   9  132.43    4.40
   5   2   9  128.22    4.30
   5   2   9  130.68    5.61
   5   2   9  134.30    5.12
   6   2   9   28.94    1.07
   6   2   9   29.19    1.07
   6   2   9   29.32    1.33
   6   2   9   30.97    0.98
   6   2   9   31.05    1.25
   6   2   9   29.59    1.12
   6   2   9   31.09    1.42
   6   2   9   29.72    1.22
   6   2   9   31.25    1.05
   6   2   9   31.87    1.48
   7   2   9   22.74    1.15
   7   2   9   24.78    0.87
   7   2   9   22.41    0.82
   7   2   9   24.09    0.89
   7   2   9   24.88    0.79
   7   2   9   22.75    1.05
   8   2   9   32.84    1.33
   5  -3  -9   16.89    0.74
  -5   3   9   17.28    0.62
   4  -3  -9    0.18    0.18
  -4   3   9    0.29    0.11
  -4   3   9    0.52    0.17
  -4   3   9    0.32    0.14
   3  -3  -9   74.47    2.70
   3  -3  -9   78.48    3.56
  -3   3   9   81.29    3.17
  -3   3   9   82.83    2.50
  -3   3   9   82.49    2.35
  -3   3   9   77.62    2.86
  -3   3   9   82.81    3.01
  -3   3   9   78.43    2.56
  -3   3   9   81.59    2.97
  -3   3   9   78.18    2.65
  -3   3   9   79.42    3.14
  -2   3   9    9.40    0.52
  -2   3   9    9.73    0.44
  -2   3   9    9.93    0.41
  -2   3   9    9.84    0.39
  -2   3   9    8.73    0.48
  -2   3   9    9.16    0.59
  -2   3   9   10.22    0.52
  -2   3   9    8.87    0.56
  -2   3   9   10.91    0.53
  -2   3   9    9.94    0.43
  -1   3   9    9.56    0.40
  -1   3   9    8.89    0.41
  -1   3   9    9.36    0.56
  -1   3   9    9.48    0.65
  -1   3   9    9.38    0.48
  -1   3   9    9.27    0.40
  -1   3   9    9.34    0.49
  -1   3   9    9.07    0.49
  -1   3   9    9.12    0.54
  -1   3   9    8.87    0.51
  -1   3   9    9.11    0.57
  -1   3   9    9.28    0.37
   0   3   9   16.42    0.76
   0   3   9   17.33    0.75
   0   3   9   18.85    0.85
   0   3   9   16.98    0.65
   0   3   9   17.17    0.63
   0   3   9   16.71    0.78
   0   3   9   16.78    0.65
   0   3   9   17.37    0.99
   0   3   9   17.30    0.61
   0   3   9   17.46    0.78
   0   3   9   17.71    0.96
   0   3   9   17.45    0.81
   0   3   9   17.74    0.89
   1   3   9   13.46    0.82
   1   3   9   14.35    0.82
   1   3   9   14.58    0.53
   1   3   9   13.92    0.65
   1   3   9   13.91    0.63
   2   3   9   49.17    2.03
   2   3   9   51.91    1.62
   2   3   9   52.71    2.56
   2   3   9   50.13    2.30
   2   3   9   50.39    1.92
   3   3   9   16.95    0.61
   3   3   9   16.83    0.76
   3   3   9   16.10    0.91
   3   3   9   16.55    0.96
   3   3   9   16.49    0.73
   3   3   9   15.01    0.76
   4   3   9    4.92    0.35
   4   3   9    4.98    0.44
   4   3   9    5.18    0.40
   4   3   9    5.07    0.28
   4   3   9    5.53    0.43
   4   3   9    5.29    0.28
   4   3   9    5.06    0.30
   4   3   9    5.58    0.49
   4   3   9    5.06    0.37
   4   3   9    5.61    0.46
   4   3   9    5.02    0.30
   5   3   9    6.11    0.32
   5   3   9    6.17    0.32
   5   3   9    6.24    0.49
   5   3   9    6.36    0.41
   5   3   9    6.26    0.40
   5   3   9    6.04    0.44
   5   3   9    5.68    0.49
   5   3   9    6.11    0.34
   5   3   9    6.19    0.46
  -6  -3  -9    0.23    0.43
  -6  -3  -9    0.21    0.37
   6   3   9    1.10    0.20
   6   3   9    1.06    0.16
   6   3   9    1.44    0.22
   6   3   9    1.44    0.23
   6   3   9    1.43    0.16
   6   3   9    1.03    0.22
   6   3   9    0.75    0.22
   6   3   9    1.11    0.18
   6   3   9    1.05    0.14
   6   3   9    1.71    0.25
   7   3   9    9.29    0.55
   7   3   9    9.84    0.41
   7   3   9    9.45    0.61
   7   3   9   10.13    0.46
  -8  -3  -9    8.22    0.72
   8   3   9   10.82    0.52
  -4   4   9   18.34    0.78
  -4   4   9   16.92    0.73
   3  -4  -9    3.84    0.42
   3  -4  -9    3.57    0.32
  -3   4   9    3.90    0.34
  -3   4   9    3.16    0.27
  -3   4   9    3.65    0.19
  -3   4   9    3.69    0.31
  -3   4   9    3.31    0.25
   2  -4  -9   36.93    1.60
   2  -4  -9   36.28    1.94
  -2   4   9   38.37    1.39
  -2   4   9   39.95    1.34
  -2   4   9   39.87    1.55
  -2   4   9   38.52    1.63
  -2   4   9   40.09    1.21
  -2   4   9   40.86    1.66
  -2   4   9   39.19    1.58
  -2   4   9   39.69    1.37
  -2   4   9   38.53    1.49
  -2   4   9   40.37    1.30
  -1   4   9    1.17    0.20
  -1   4   9    1.48    0.20
  -1   4   9    0.94    0.16
  -1   4   9    1.02    0.18
  -1   4   9    1.28    0.19
  -1   4   9    1.01    0.21
  -1   4   9    1.17    0.20
  -1   4   9    1.39    0.16
  -1   4   9    1.24    0.15
  -1   4   9    1.00    0.12
  -1   4   9    1.33    0.22
   0   4   9   88.69    3.18
   0   4   9   84.61    2.89
   0   4   9   85.10    3.09
   0   4   9   87.46    2.52
   0   4   9   89.15    3.38
   0   4   9   80.70    4.19
   0   4   9   86.18    2.86
   0   4   9   86.07    3.37
   0   4   9   83.81    3.08
   0   4   9   85.13    3.23
   0   4   9   85.19    2.67
   0   4   9   82.95    2.73
   0   4   9   90.25    3.75
   1   4   9   74.00    2.63
   1   4   9   75.39    2.49
   1   4   9   77.98    2.43
   1   4   9   82.77    3.42
   1   4   9   76.89    2.89
   1   4   9   79.78    2.30
   1   4   9   78.43    3.22
   1   4   9   78.82    2.95
   1   4   9   79.29    2.83
   1   4   9   78.57    3.08
   1   4   9   75.96    3.07
   1   4   9   78.93    2.84
   1   4   9   80.66    2.63
   1   4   9   75.03    3.83
   2   4   9   51.52    2.59
   2   4   9   51.66    2.31
   2   4   9   51.20    1.78
   2   4   9   50.82    2.06
   2   4   9   50.86    1.68
   2   4   9   49.09    1.75
   2   4   9   51.76    1.64
   2   4   9   50.39    1.91
   2   4   9   50.35    1.94
   2   4   9   50.20    1.93
   2   4   9   53.15    1.54
   2   4   9   50.78    2.21
   2   4   9   48.71    2.08
   3   4   9   63.72    2.09
   3   4   9   63.68    2.85
   3   4   9   64.95    2.40
   3   4   9   67.67    2.74
   3   4   9   63.09    2.19
   3   4   9   63.27    3.22
   3   4   9   62.85    2.57
   3   4   9   67.05    2.58
   3   4   9   64.56    1.92
   3   4   9   63.62    2.42
   3   4   9   62.73    2.19
   3   4   9   65.84    2.04
   3   4   9   62.06    2.36
   4   4   9    1.25    0.23
   4   4   9    1.19    0.24
   4   4   9    1.39    0.17
   4   4   9    1.14    0.21
   4   4   9    1.52    0.20
   4   4   9    1.56    0.29
   4   4   9    1.58    0.29
   4   4   9    1.27    0.23
   4   4   9    1.18    0.15
   4   4   9    1.39    0.22
   4   4   9    1.25    0.19
   5   4   9  121.81    4.13
   5   4   9  126.66    5.00
   5   4   9  119.28    4.01
   5   4   9  121.37    4.75
   5   4   9  125.32    3.60
   5   4   9  126.31    5.24
   5   4   9  120.38    4.37
   5   4   9  122.52    3.81
   5   4   9  129.78    4.54
   6   4   9   33.58    1.05
   6   4   9   32.66    1.17
   6   4   9   32.66    1.43
   6   4   9   32.43    1.19
   6   4   9   33.62    1.52
  -7  -4  -9    0.01    0.29
   7   4   9    0.03    0.13
   7   4   9    0.20    0.09
  -8  -4  -9   16.95    1.07
   8   4   9   20.27    0.85
   8   4   9   19.84    0.68
   3  -5  -9    0.53    0.12
  -3   5   9    0.23    0.11
   2  -5  -9    2.85    0.30
   2  -5  -9    2.64    0.30
   2  -5  -9    2.95    0.39
  -2   5   9    2.39    0.25
  -2   5   9    2.94    0.30
  -2   5   9    3.03    0.28
  -2   5   9    2.54    0.19
   1  -5  -9    0.45    0.22
   1  -5  -9    0.57    0.29
  -1   5   9    0.57    0.13
  -1   5   9    0.86    0.19
  -1   5   9    0.53    0.16
  -1   5   9    0.53    0.15
  -1   5   9    0.49    0.14
  -1   5   9    0.82    0.14
  -1   5   9    0.46    0.15
  -1   5   9    0.51    0.11
   0   5   9    8.22    0.36
   0   5   9    8.76    0.51
   0   5   9    9.71    0.63
   0   5   9    8.34    0.49
   0   5   9    8.80    0.48
   0   5   9    8.20    0.42
   0   5   9    8.83    0.52
   0   5   9    8.96    0.47
   0   5   9    8.40    0.41
   0   5   9    8.23    0.53
   0   5   9    8.58    0.48
   0   5   9    9.23    0.41
   1   5   9    6.24    0.44
   1   5   9    6.94    0.42
   1   5   9    6.46    0.40
   1   5   9    5.70    0.34
   1   5   9    6.28    0.30
   1   5   9    6.59    0.34
   1   5   9    5.94    0.44
   1   5   9    6.66    0.41
   1   5   9    6.12    0.51
   1   5   9    6.17    0.49
   1   5   9    6.59    0.44
   1   5   9    6.22    0.40
   1   5   9    6.35    0.34
   2   5   9    1.00    0.21
   2   5   9    1.06    0.19
   2   5   9    1.50    0.22
   2   5   9    1.06    0.14
   2   5   9    1.65    0.22
   2   5   9    1.42    0.28
   2   5   9    1.24    0.23
   2   5   9    1.03    0.14
   2   5   9    1.15    0.19
   2   5   9    1.44    0.19
   2   5   9    1.00    0.23
   2   5   9    1.02    0.15
   2   5   9    1.00    0.25
   3   5   9    4.75    0.35
   3   5   9    4.40    0.30
   3   5   9    4.12    0.42
   3   5   9    4.16    0.45
   3   5   9    4.52    0.37
   3   5   9    4.28    0.42
   3   5   9    4.25    0.26
   3   5   9    3.95    0.34
   3   5   9    4.17    0.28
   3   5   9    4.51    0.34
   3   5   9    4.42    0.39
   3   5   9    4.49    0.34
   3   5   9    4.65    0.28
   4   5   9    2.77    0.36
   4   5   9    2.70    0.24
   4   5   9    3.07    0.31
   4   5   9    3.10    0.33
   4   5   9    2.88    0.36
   4   5   9    2.48    0.26
   4   5   9    2.85    0.29
   4   5   9    3.10    0.34
   4   5   9    2.93    0.24
   4   5   9    2.85    0.26
   4   5   9    3.11    0.21
   4   5   9    2.54    0.29
   5   5   9    5.26    0.37
   5   5   9    5.21    0.40
   5   5   9    5.18    0.47
   5   5   9    5.42    0.41
   5   5   9    5.29    0.27
   5   5   9    5.76    0.42
   5   5   9    5.26    0.32
   6   5   9   10.84    0.49
   6   5   9   10.22    0.53
   6   5   9   10.95    0.61
   6   5   9   11.00    0.61
   6   5   9   11.20    0.66
   7   5   9    1.18    0.14
   7   5   9    1.30    0.21
   8   5   9    0.30    0.11
   8   5   9    0.35    0.08
   2  -6  -9   49.87    1.81
   2  -6  -9   50.58    1.68
  -2   6   9   49.81    1.86
  -2   6   9   49.49    1.66
   1  -6  -9   44.03    1.70
   1  -6  -9   44.51    1.58
   1  -6  -9   41.98    2.03
  -1   6   9   43.10    1.69
  -1   6   9   44.51    1.51
   0  -6  -9    7.86    0.61
   0  -6  -9    8.27    0.71
   0   6   9    9.82    0.48
   0   6   9   10.03    0.44
   0   6   9    9.86    0.48
   0   6   9    9.36    0.53
   0   6   9    9.95    0.53
   1   6   9  108.73    3.91
   1   6   9  106.30    4.15
   1   6   9  109.27    3.46
   1   6   9  101.70    3.72
   1   6   9  102.97    3.55
   2   6   9   17.38    0.91
   2   6   9   17.45    0.87
   2   6   9   16.57    0.67
   2   6   9   15.35    0.76
   2   6   9   16.09    0.76
   2   6   9   15.34    0.56
   2   6   9   16.10    0.74
   2   6   9   16.86    0.80
   2   6   9   15.22    0.69
   3   6   9   28.30    1.18
   3   6   9   30.16    1.36
   3   6   9   29.75    1.29
   3   6   9   28.50    1.09
   3   6   9   28.32    1.08
   3   6   9   28.32    0.93
   3   6   9   30.10    1.18
   3   6   9   29.51    1.41
   4   6   9   80.35    2.78
   4   6   9   82.82    3.36
   4   6   9   81.67    2.94
   4   6   9   82.11    3.26
   4   6   9   81.06    2.94
   5   6   9    0.98    0.19
   5   6   9    0.97    0.17
   5   6   9    1.34    0.17
   5   6   9    0.69    0.19
   6   6   9   86.51    3.16
   6   6   9   89.01    3.02
   6   6   9   86.56    3.54
   6   6   9   94.75    3.61
   7   6   9   26.35    1.07
   7   6   9   29.09    1.03
   7   6   9   29.96    1.23
   8   6   9    8.87    0.35
   1  -7  -9    0.70    0.13
   1  -7  -9    0.55    0.12
  -1   7   9    0.55    0.07
  -1   7   9    0.60    0.11
   0  -7  -9    0.56    0.16
   0  -7  -9    0.50    0.20
   0  -7  -9    0.45    0.16
   0   7   9    0.48    0.13
   0   7   9    0.45    0.10
  -1  -7  -9    0.11    0.16
  -1  -7  -9   -0.05    0.20
  -1  -7  -9    0.17    0.19
  -1  -7  -9    0.10    0.19
   1   7   9    0.28    0.13
   1   7   9    0.06    0.12
   1   7   9    0.09    0.10
   1   7   9    0.24    0.11
   1   7   9    0.16    0.09
  -2  -7  -9    1.36    0.30
   2   7   9    2.01    0.19
   2   7   9    1.99    0.23
   2   7   9    1.78    0.23
   2   7   9    1.49    0.18
   2   7   9    1.75    0.19
  -3  -7  -9    0.89    0.31
   3   7   9    2.30    0.25
   3   7   9    2.30    0.21
   3   7   9    2.58    0.24
   3   7   9    1.66    0.23
   3   7   9    2.47    0.24
  -4  -7  -9   -0.04    0.24
   4   7   9    0.15    0.13
   4   7   9    0.19    0.12
   4   7   9    0.19    0.10
   4   7   9    0.16    0.13
  -5  -7  -9   -0.10    0.25
   5   7   9    0.57    0.15
   5   7   9    0.27    0.16
   5   7   9    0.59    0.12
   5   7   9    0.30    0.12
  -6  -7  -9   -0.04    0.22
   6   7   9    0.30    0.11
   6   7   9    0.45    0.11
   7   7   9    1.60    0.16
   7   7   9    1.50    0.14
   8   7   9    4.09    0.17
  -1  -8  -9   26.48    1.18
  -1  -8  -9   27.32    0.95
  -1  -8  -9   27.04    1.05
   1   8   9   26.77    1.05
   1   8   9   26.93    0.94
  -2  -8  -9   37.48    1.43
  -2  -8  -9   38.14    1.64
   2   8   9   37.67    1.28
   2   8   9   34.19    1.40
  -3  -8  -9    0.82    0.23
  -3  -8  -9    0.96    0.21
   3   8   9    0.91    0.12
   3   8   9    0.83    0.13
  -4  -8  -9   30.74    1.56
   4   8   9   35.54    1.27
   4   8   9   34.51    1.20
  -5  -8  -9   18.22    1.03
   5   8   9   21.27    0.82
   5   8   9   21.72    0.77
  -6  -8  -9    5.87    0.45
   6   8   9    6.78    0.30
   6   8   9    6.26    0.33
   7   8   9   46.42    1.64
   7   8   9   46.45    1.55
  -3  -9  -9    9.76    0.50
   3   9   9    9.32    0.36
  -4  -9  -9    1.00    0.17
   4   9   9    1.12    0.11
   5   9   9    3.13    0.19
   5   9   9    3.18    0.16
  -4  -6  10    5.19    0.21
  -4  -6  10    5.13    0.31
  -3  -6  10   40.32    1.18
  -3  -6  10   39.58    1.48
  -3  -6  10   40.03    1.24
  -2  -6  10   21.50    0.86
  -2  -6  10   21.56    0.66
  -2  -6  10   20.49    0.69
  -1  -6  10   10.98    0.52
  -1  -6  10   11.31    0.66
  -1  -6  10   11.89    0.39
   0  -6  10   63.14    2.16
   0  -6  10   62.65    1.79
   0  -6  10   58.79    1.88
   1  -6  10    3.34    0.16
  -5  -5  10    0.17    0.06
  -5  -5  10    0.18    0.06
  -5  -5  10   -0.08    0.10
  -5  -5  10    0.19    0.13
  -4  -5  10   15.57    0.50
  -4  -5  10   14.93    0.71
  -4  -5  10   15.65    0.70
  -4  -5  10   14.77    0.52
  -3  -5  10    0.12    0.07
  -3  -5  10    0.16    0.15
  -3  -5  10    0.01    0.14
  -3  -5  10    0.05    0.06
  -2  -5  10    0.05    0.18
  -2  -5  10    0.16    0.15
  -2  -5  10    0.45    0.08
  -1  -5  10    8.25    0.64
  -1  -5  10    8.25    0.35
  -1  -5  10    8.99    0.33
  -1  -5  10    8.70    0.49
  -1  -5  10    8.69    0.59
   0  -5  10    4.16    0.41
   0  -5  10    4.24    0.22
   0  -5  10    4.50    0.21
   0  -5  10    4.56    0.35
   0  -5  10    4.10    0.44
   1  -5  10   16.49    0.64
   1  -5  10   16.22    0.56
   1  -5  10   15.25    0.87
   1  -5  10   16.37    0.53
   1  -5  10   16.27    0.82
   2  -5  10    0.18    0.06
   2  -5  10    0.03    0.12
   2  -5  10    0.00    0.06
   3  -5  10    5.48    0.34
   3  -5  10    5.79    0.22
  -6  -4  10    1.32    0.16
  -6  -4  10    1.56    0.12
  -6  -4  10    1.38    0.17
  -5  -4  10   60.89    2.14
  -5  -4  10   57.79    2.23
  -5  -4  10   58.93    1.72
  -5  -4  10   58.07    1.81
  -5  -4  10   57.83    2.12
  -4  -4  10   43.93    1.63
  -4  -4  10   44.35    1.39
  -4  -4  10   44.18    1.69
  -4  -4  10   44.45    1.76
  -4  -4  10   43.83    1.32
  -3  -4  10    4.54    0.39
  -3  -4  10    4.69    0.22
  -3  -4  10    4.62    0.38
  -3  -4  10    4.55    0.24
  -2  -4  10   97.42    3.63
  -2  -4  10  103.51    3.63
  -2  -4  10  106.05    3.09
  -1  -4  10    0.98    0.20
  -1  -4  10    0.66    0.23
  -1  -4  10    0.89    0.10
  -1  -4  10    0.52    0.21
   0  -4  10   24.15    1.21
   0  -4  10   23.50    0.77
   0  -4  10   23.77    0.88
   0  -4  10   22.62    1.31
   1  -4  10   27.29    1.04
   1  -4  10   27.18    1.35
   1  -4  10   27.68    1.27
   1  -4  10   27.67    0.86
   1  -4  10   26.22    1.48
   2  -4  10    0.41    0.07
   2  -4  10    0.44    0.18
   2  -4  10    0.52    0.22
   2  -4  10    0.36    0.09
   2  -4  10    0.49    0.09
   2  -4  10    0.55    0.09
   3  -4  10   26.91    1.07
   3  -4  10   27.58    0.88
   3  -4  10   27.46    1.22
   3  -4  10   25.17    1.03
   3  -4  10   27.60    0.84
   3  -4  10   26.64    0.88
   4  -4  10    0.13    0.11
   4  -4  10    0.41    0.13
   4  -4  10    0.51    0.07
   4  -4  10    0.17    0.05
  -6  -3  10    3.27    0.26
  -6  -3  10    3.19    0.27
  -6  -3  10    3.37    0.26
  -6  -3  10    3.37    0.17
  -5  -3  10    3.07    0.17
  -5  -3  10    3.71    0.33
  -5  -3  10    2.74    0.21
  -5  -3  10    3.02    0.18
  -5  -3  10    2.52    0.28
  -5  -3  10    2.84    0.28
  -5  -3  10    3.15    0.19
  -4  -3  10    9.94    0.58
  -4  -3  10    9.41    0.36
  -4  -3  10    9.47    0.37
  -4  -3  10    9.66    0.44
  -4  -3  10    9.72    0.53
  -4  -3  10    9.36    0.56
  -4  -3  10    9.00    0.35
  -3  -3  10    4.67    0.40
  -3  -3  10    4.25    0.24
  -3  -3  10    4.03    0.20
  -3  -3  10    3.84    0.38
  -2  -3  10   25.38    1.15
  -2  -3  10   24.88    1.08
  -2  -3  10   25.38    0.80
  -2  -3  10   24.85    0.93
   0  -3  10    0.32    0.19
   0  -3  10    0.27    0.19
   1  -3  10   19.63    0.76
   1  -3  10   20.12    0.63
   1  -3  10   19.19    1.04
   1  -3  10   20.35    1.00
   1  -3  10   18.75    1.13
   2  -3  10   12.59    0.72
   2  -3  10   13.22    0.77
   2  -3  10   12.97    0.84
   2  -3  10   12.59    0.45
   2  -3  10   12.55    0.54
   2  -3  10   12.35    0.46
   2  -3  10   12.89    0.66
   3  -3  10   21.81    0.85
   3  -3  10   21.10    1.03
   3  -3  10   20.33    0.71
   3  -3  10   21.29    0.72
   3  -3  10   20.06    1.19
   3  -3  10   22.53    0.93
   3  -3  10   20.74    0.84
   3  -3  10   20.29    0.67
   4  -3  10   13.46    0.49
   4  -3  10   13.23    0.58
   4  -3  10   13.44    0.46
   4  -3  10   12.99    0.62
   4  -3  10   13.05    0.49
   4  -3  10   14.02    0.71
   4  -3  10   12.81    0.57
   5  -3  10    5.26    0.34
   5  -3  10    5.09    0.28
   5  -3  10    5.39    0.31
   5  -3  10    5.14    0.22
   5  -3  10    5.13    0.22
  -6  -2  10   31.82    1.24
  -6  -2  10   32.28    0.95
  -6  -2  10   32.42    1.21
  -6  -2  10   32.04    1.01
  -6  -2  10   30.86    1.17
  -6  -2  10   29.66    1.01
  -5  -2  10   35.89    1.14
  -5  -2  10   35.43    1.42
  -5  -2  10   34.76    1.13
  -5  -2  10   35.42    1.37
  -5  -2  10   32.68    1.33
  -5  -2  10   35.03    1.07
  -5  -2  10   35.00    1.37
  -4  -2  10  103.79    3.66
  -4  -2  10   98.16    2.95
  -4  -2  10  103.74    3.12
  -4  -2  10  104.84    3.81
  -4  -2  10  104.23    3.17
  -4  -2  10  100.11    3.64
  -4  -2  10  101.13    3.69
  -3  -2  10    0.52    0.18
  -3  -2  10    0.85    0.10
  -3  -2  10    1.02    0.22
  -3  -2  10    0.73    0.10
  -3  -2  10    0.94    0.12
  -3  -2  10    0.90    0.22
  -2  -2  10   41.11    1.51
  -2  -2  10   42.28    1.68
  -2  -2  10   41.23    1.28
   1  -2  10  116.54    4.71
   1  -2  10  113.76    5.38
   1  -2  10  116.68    4.88
   1  -2  10  116.14    4.10
   2  -2  10   23.56    1.19
   2  -2  10   22.80    0.77
   2  -2  10   23.69    1.31
   2  -2  10   23.44    0.91
   2  -2  10   23.36    1.14
   2  -2  10   22.98    0.94
   2  -2  10   24.10    0.77
   2  -2  10   23.66    1.02
   3  -2  10   14.77    0.55
   3  -2  10   16.01    0.66
   3  -2  10   15.14    0.56
   3  -2  10   16.81    0.70
   3  -2  10   15.75    0.90
   3  -2  10   15.07    0.52
   3  -2  10   16.13    0.75
   3  -2  10   14.79    0.96
   3  -2  10   15.52    0.83
   4  -2  10   79.46    2.34
   4  -2  10   79.28    2.52
   4  -2  10   80.75    2.67
   4  -2  10   83.38    2.90
   4  -2  10   75.31    3.80
   4  -2  10   80.28    3.28
   4  -2  10   78.07    2.92
   4  -2  10   80.80    3.48
   4  -2  10   83.43    2.48
   5  -2  10    1.87    0.16
   5  -2  10    2.04    0.19
   5  -2  10    1.89    0.24
   5  -2  10    2.29    0.16
   5  -2  10    1.78    0.21
   5  -2  10    2.16    0.28
   5  -2  10    2.28    0.15
   5  -2  10    2.01    0.21
   6  -2  10   22.06    0.85
   6  -2  10   22.39    0.73
   6  -2  10   22.11    0.79
  -6  -1  10   30.41    0.92
  -6  -1  10   30.73    0.98
  -6  -1  10   30.86    1.16
  -6  -1  10   30.23    1.12
  -5  -1  10   15.56    0.70
  -5  -1  10   16.75    0.78
  -5  -1  10   16.37    0.74
  -5  -1  10   16.41    0.60
  -5  -1  10   16.61    0.56
  -5  -1  10   16.57    0.81
  -5  -1  10   16.80    0.60
  -5  -1  10   17.32    0.76
  -4  -1  10    8.19    0.52
  -4  -1  10    8.32    0.51
  -4  -1  10    8.00    0.51
  -4  -1  10    8.27    0.35
  -4  -1  10    7.73    0.33
  -4  -1  10    7.43    0.56
  -4  -1  10    8.02    0.41
  -4  -1  10    8.17    0.35
  -3  -1  10   12.19    0.46
  -3  -1  10   12.09    0.46
  -3  -1  10   12.29    0.66
  -3  -1  10   12.56    0.54
  -3  -1  10   12.58    0.64
  -2  -1  10    0.17    0.07
  -2  -1  10    0.17    0.14
  -2  -1  10    0.16    0.06
  -2  -1  10    0.17    0.16
  -2  -1  10    0.15    0.06
  -1  -1  10   22.41    0.82
   1  -1  10   53.78    1.93
   2  -1  10    1.40    0.12
   2  -1  10    2.19    0.30
   2  -1  10    1.53    0.23
   2  -1  10    1.38    0.24
   2  -1  10    1.42    0.16
   2  -1  10    1.34    0.28
   2  -1  10    1.56    0.32
   2  -1  10    1.77    0.13
   2  -1  10    1.48    0.14
   3  -1  10    2.50    0.19
   3  -1  10    2.19    0.25
   3  -1  10    2.25    0.17
   3  -1  10    2.54    0.32
   3  -1  10    2.44    0.16
   3  -1  10    3.03    0.38
   3  -1  10    2.30    0.35
   3  -1  10    2.91    0.32
   4  -1  10    7.57    0.35
   4  -1  10    7.79    0.63
   4  -1  10    8.40    0.50
   4  -1  10    8.29    0.33
   4  -1  10    8.28    0.55
   4  -1  10    8.21    0.41
   4  -1  10    8.15    0.59
   4  -1  10    8.47    0.35
   4  -1  10    8.05    0.45
   5  -1  10    7.01    0.51
   5  -1  10    7.05    0.32
   5  -1  10    7.06    0.30
   5  -1  10    7.27    0.32
   5  -1  10    7.33    0.40
   5  -1  10    6.47    0.37
   5  -1  10    6.86    0.48
   6  -1  10    8.27    0.47
   6  -1  10    7.50    0.33
   6  -1  10    8.31    0.34
   6  -1  10    7.75    0.42
   6  -1  10    8.05    0.39
   6  -1  10    8.08    0.31
   6  -1  10    7.80    0.50
  -6   0  10   20.22    0.67
  -5   0  10    0.15    0.14
  -5   0  10   -0.02    0.08
  -5   0  10    0.26    0.16
  -5   0  10    0.21    0.08
  -5   0  10    0.16    0.09
  -5   0  10    0.14    0.10
  -5   0  10    0.42    0.14
  -5   0  10   -0.02    0.12
  -4   0  10    1.26    0.14
  -4   0  10    0.54    0.19
  -4   0  10    1.29    0.24
  -4   0  10    0.90    0.19
  -4   0  10    0.91    0.15
  -4   0  10    0.36    0.19
  -4   0  10    0.58    0.11
  -4   0  10    0.77    0.12
  -3   0  10   39.21    1.27
  -3   0  10   41.75    1.35
  -3   0  10   40.77    1.77
  -3   0  10   42.58    1.38
  -3   0  10   42.88    1.64
  -3   0  10   44.26    1.61
  -3   0  10   42.96    1.72
  -2   0  10    0.06    0.07
  -2   0  10    0.26    0.20
  -2   0  10    0.46    0.16
  -2   0  10    0.35    0.17
  -2   0  10    0.40    0.08
  -2   0  10    0.20    0.08
  -1   0  10   36.12    1.35
  -1   0  10   35.80    1.42
  -1   0  10   36.45    1.57
  -1   0  10   36.84    1.14
  -1   0  10   37.39    1.49
  -1   0  10   35.96    1.16
   0   0  10   10.57    0.43
   0   0  10   10.25    0.67
   1   0  10   28.25    1.42
   1   0  10   29.48    1.08
   1   0  10   28.99    1.20
   2   0  10   86.34    2.66
   2   0  10   87.73    3.60
   2   0  10   86.13    2.73
   2   0  10   91.24    4.18
   2   0  10   87.95    2.93
   2   0  10   89.36    3.17
   2   0  10   88.92    3.82
   2   0  10   86.96    3.17
   3   0  10    0.62    0.11
   3   0  10    0.56    0.17
   3   0  10    0.67    0.10
   3   0  10    0.80    0.11
   3   0  10    0.62    0.14
   3   0  10    0.93    0.25
   3   0  10    0.80    0.21
   3   0  10    0.26    0.16
   4   0  10   38.60    1.44
   4   0  10   39.25    1.22
   4   0  10   40.92    1.79
   4   0  10   42.08    1.54
   4   0  10   39.69    1.30
   4   0  10   41.59    1.90
   4   0  10   41.61    1.75
   4   0  10   39.08    1.32
   4   0  10   38.38    1.56
   5   0  10   24.57    0.82
   5   0  10   22.67    0.99
   5   0  10   24.73    0.98
   5   0  10   22.92    0.77
   5   0  10   23.51    0.93
   5   0  10   22.06    1.12
   5   0  10   25.15    1.22
   5   0  10   22.96    0.84
   5   0  10   23.28    1.11
   6   0  10    2.19    0.22
   6   0  10    2.62    0.32
   6   0  10    2.63    0.19
   6   0  10    1.89    0.23
   6   0  10    2.59    0.18
   6   0  10    2.29    0.19
   6   0  10    2.01    0.22
   6   0  10    2.68    0.29
   7   0  10   27.40    1.03
   7   0  10   27.83    0.92
   7   0  10   27.04    0.95
  -5   1  10   15.98    0.57
  -5   1  10   14.90    0.56
  -5   1  10   15.89    0.52
  -5   1  10   15.41    0.69
  -5   1  10   15.70    0.76
  -5   1  10   15.58    0.67
  -4   1  10   -0.02    0.08
  -4   1  10    0.04    0.14
  -4   1  10    0.19    0.08
  -4   1  10    0.18    0.11
  -4   1  10    0.17    0.09
  -4   1  10    0.17    0.16
  -4   1  10    0.17    0.13
  -3   1  10   79.94    2.90
  -3   1  10   79.48    2.53
  -3   1  10   79.28    2.48
  -3   1  10   82.77    3.05
  -3   1  10   78.04    3.16
  -3   1  10   83.58    2.95
  -3   1  10   76.95    2.34
  -2   1  10    0.06    0.07
  -2   1  10    0.11    0.08
  -2   1  10    0.22    0.08
  -2   1  10    0.08    0.14
  -2   1  10    0.21    0.19
  -2   1  10    0.63    0.12
  -2   1  10    0.16    0.17
  -1   1  10   45.51    1.80
  -1   1  10   43.87    1.41
  -1   1  10   43.87    1.67
  -1   1  10   46.09    1.72
  -1   1  10   44.27    1.44
  -1   1  10   45.46    2.06
  -1   1  10   44.47    1.88
   0   1  10   43.81    1.75
   0   1  10   45.27    1.45
   0   1  10   45.30    2.09
   0   1  10   47.56    1.69
   0   1  10   46.17    1.91
   0   1  10   45.51    1.42
   1   1  10    0.11    0.08
   1   1  10    0.30    0.08
   1   1  10   -0.03    0.17
   1   1  10    0.73    0.23
   1   1  10    0.19    0.08
   2   1  10   73.49    2.59
   2   1  10   71.07    2.40
   2   1  10   69.43    2.83
   2   1  10   69.71    3.41
   2   1  10   70.38    2.17
   2   1  10   69.68    2.60
   2   1  10   70.15    2.23
   2   1  10   73.26    3.13
   2   1  10   70.79    2.95
   3   1  10   32.51    1.06
   3   1  10   30.89    1.03
   3   1  10   32.16    1.46
   3   1  10   31.59    1.22
   3   1  10   31.87    1.19
   3   1  10   32.15    1.29
   3   1  10   31.90    1.42
   3   1  10   31.14    1.54
   3   1  10   30.30    1.61
   4   1  10   17.86    0.66
   4   1  10   16.75    0.60
   4   1  10   17.62    0.98
   4   1  10   18.00    0.92
   4   1  10   19.05    0.65
   4   1  10   17.49    0.93
   4   1  10   18.03    0.76
   4   1  10   17.51    0.76
   4   1  10   17.89    0.82
   5   1  10   53.84    2.24
   5   1  10   52.75    2.33
   5   1  10   53.74    2.04
   5   1  10   55.25    1.74
   5   1  10   57.24    2.08
   5   1  10   58.79    2.48
   5   1  10   53.22    1.89
   5   1  10   54.65    1.64
   5   1  10   51.35    1.77
   6   1  10    9.23    0.42
   6   1  10    9.16    0.47
   6   1  10    9.79    0.59
   6   1  10    8.85    0.54
   6   1  10    8.98    0.48
   6   1  10    9.59    0.51
   6   1  10    9.03    0.60
   6   1  10    9.60    0.41
   6   1  10   10.04    0.38
   7   1  10   20.84    1.04
   7   1  10   22.10    0.69
   7   1  10   20.78    0.93
   7   1  10   21.06    0.85
   7   1  10   22.44    0.80
   7   1  10   21.70    0.76
   5  -2 -10   21.14    0.93
  -5   2  10   22.13    0.74
  -5   2  10   22.40    0.94
  -4   2  10    2.48    0.19
  -4   2  10    2.21    0.26
  -4   2  10    2.81    0.18
  -4   2  10    2.69    0.24
  -4   2  10    2.51    0.26
  -4   2  10    2.07    0.22
  -4   2  10    2.71    0.20
   3  -2 -10   77.92    3.66
  -3   2  10   84.52    3.05
  -3   2  10   82.76    3.27
  -3   2  10   82.64    2.43
  -3   2  10   84.37    3.12
  -3   2  10   87.21    2.57
  -3   2  10   83.60    3.18
  -3   2  10   80.68    2.97
  -3   2  10   81.29    2.63
  -2   2  10   36.13    1.38
  -2   2  10   32.96    1.17
  -2   2  10   34.16    1.07
  -2   2  10   33.13    1.37
  -2   2  10   36.53    1.36
  -2   2  10   35.94    1.47
  -2   2  10   34.77    1.14
  -2   2  10   33.27    1.51
  -1   2  10   20.18    0.89
  -1   2  10   20.08    0.70
  -1   2  10   19.68    0.72
  -1   2  10   20.28    0.98
  -1   2  10   19.83    0.83
  -1   2  10   19.52    0.66
  -1   2  10   20.30    0.95
  -1   2  10   19.51    0.82
  -1   2  10   21.01    0.82
  -1   2  10   20.56    1.08
   0   2  10   41.70    1.52
   0   2  10   41.94    1.60
   0   2  10   41.73    1.78
   0   2  10   43.09    1.39
   0   2  10   43.08    1.35
   0   2  10   42.89    1.64
   0   2  10   44.21    1.98
   0   2  10   41.29    2.11
   0   2  10   42.67    1.65
   1   2  10   -0.20    0.16
   1   2  10    0.29    0.17
   1   2  10    0.17    0.08
   1   2  10    0.18    0.18
   1   2  10    0.12    0.19
   1   2  10    0.14    0.09
   1   2  10    0.09    0.09
   1   2  10    0.07    0.08
   1   2  10   -0.13    0.15
   2   2  10   11.67    0.63
   2   2  10   11.45    0.44
   2   2  10   11.68    0.66
   2   2  10   11.08    0.71
   2   2  10   11.26    0.57
   2   2  10   11.36    0.52
   2   2  10   10.69    0.70
   2   2  10   11.33    0.69
   2   2  10   11.43    0.45
   3   2  10   22.33    1.07
   3   2  10   21.83    0.91
   3   2  10   23.34    1.24
   3   2  10   23.27    0.93
   3   2  10   22.37    0.93
   3   2  10   21.43    0.79
   3   2  10   23.05    1.18
   3   2  10   22.30    0.78
   3   2  10   22.35    0.99
   3   2  10   22.04    0.73
   3   2  10   22.72    1.13
   4   2  10    0.27    0.11
   4   2  10    0.43    0.17
   4   2  10    0.70    0.22
   4   2  10    0.81    0.24
   4   2  10    0.28    0.10
   4   2  10    0.25    0.12
   4   2  10    0.40    0.10
   4   2  10    0.27    0.16
   4   2  10    0.61    0.19
   5   2  10   17.62    0.78
   5   2  10   16.68    0.92
   5   2  10   17.31    0.65
   5   2  10   17.80    0.88
   5   2  10   17.07    0.74
   5   2  10   17.04    0.60
   5   2  10   18.02    0.96
   5   2  10   16.43    0.66
   6   2  10   12.10    0.70
   6   2  10   12.61    0.72
   6   2  10   11.63    0.55
   6   2  10   11.85    0.46
   6   2  10   12.15    0.49
   6   2  10   10.74    0.50
   6   2  10   11.51    0.59
   6   2  10   11.52    0.65
   6   2  10   12.56    0.62
   7   2  10    7.27    0.46
   7   2  10    7.17    0.34
   7   2  10    7.78    0.38
   7   2  10    7.62    0.31
   7   2  10    6.74    0.48
   7   2  10    7.34    0.44
   7   2  10    7.32    0.41
   8   2  10   24.45    1.00
  -4   3  10    1.19    0.17
  -4   3  10    0.99    0.18
  -4   3  10    1.12    0.13
   3  -3 -10    5.27    0.52
  -3   3  10    6.47    0.31
  -3   3  10    7.26    0.46
  -3   3  10    5.47    0.35
  -3   3  10    5.99    0.38
  -3   3  10    6.19    0.28
  -3   3  10    5.73    0.39
  -3   3  10    5.41    0.31
  -3   3  10    6.09    0.31
   2  -3 -10    0.10    0.24
  -2   3  10    0.50    0.12
  -2   3  10    0.32    0.17
  -2   3  10    0.77    0.11
  -2   3  10    0.22    0.16
  -2   3  10    0.39    0.11
  -2   3  10    0.40    0.10
  -2   3  10    0.50    0.15
  -2   3  10    0.28    0.14
  -2   3  10    0.32    0.11
  -1   3  10    0.11    0.10
  -1   3  10    0.04    0.08
  -1   3  10    0.11    0.16
  -1   3  10    0.12    0.10
  -1   3  10    0.43    0.18
  -1   3  10    0.54    0.18
  -1   3  10    0.40    0.20
  -1   3  10    0.14    0.10
  -1   3  10    0.18    0.08
  -1   3  10    0.34    0.15
  -1   3  10    0.25    0.15
   0   3  10   92.54    2.95
   0   3  10   93.63    2.88
   0   3  10   94.76    3.10
   0   3  10   88.98    4.51
   0   3  10   93.54    3.50
   0   3  10   92.63    2.72
   0   3  10   94.18    3.42
   0   3  10   93.48    3.35
   0   3  10   92.46    3.65
   0   3  10   97.34    3.62
   0   3  10   94.45    3.35
   0   3  10   93.91    4.04
   1   3  10   36.50    1.72
   1   3  10   35.69    1.39
   1   3  10   34.79    1.10
   1   3  10   36.09    1.54
   1   3  10   34.82    1.41
   1   3  10   34.98    1.83
   1   3  10   36.69    1.44
   1   3  10   36.24    1.32
   1   3  10   34.74    1.62
   1   3  10   35.50    1.20
   1   3  10   36.51    1.44
   1   3  10   35.31    1.17
   2   3  10    6.95    0.54
   2   3  10    6.23    0.30
   2   3  10    7.08    0.38
   2   3  10    6.19    0.48
   2   3  10    6.40    0.33
   2   3  10    6.23    0.43
   2   3  10    6.48    0.36
   2   3  10    6.98    0.54
   2   3  10    6.51    0.45
   2   3  10    6.92    0.50
   2   3  10    6.54    0.32
   2   3  10    6.15    0.43
   3   3  10   75.43    3.03
   3   3  10   74.85    3.35
   3   3  10   78.33    2.39
   3   3  10   75.55    2.25
   3   3  10   76.25    2.83
   3   3  10   75.45    2.80
   3   3  10   75.93    3.75
   3   3  10   76.04    3.19
   3   3  10   74.78    2.44
   3   3  10   77.80    2.58
   3   3  10   79.19    2.99
   3   3  10   76.37    2.77
   4   3  10   19.74    0.84
   4   3  10   18.54    0.72
   4   3  10   20.76    0.87
   4   3  10   18.43    0.67
   4   3  10   19.74    0.89
   4   3  10   18.49    0.80
   4   3  10   18.43    1.01
   4   3  10   18.87    0.66
   4   3  10   19.03    0.71
   4   3  10   19.23    1.03
   4   3  10   19.40    0.95
   5   3  10    3.04    0.17
   5   3  10    3.00    0.36
   5   3  10    2.82    0.23
   5   3  10    2.75    0.27
   5   3  10    2.47    0.30
   5   3  10    3.03    0.23
   5   3  10    3.02    0.38
   5   3  10    2.10    0.27
   5   3  10    2.91    0.23
   5   3  10    2.91    0.29
   6   3  10    9.95    0.46
   6   3  10   10.95    0.66
   6   3  10   10.74    0.64
   6   3  10   10.02    0.41
   6   3  10    9.89    0.39
   6   3  10   10.40    0.56
   6   3  10   10.16    0.51
   6   3  10   10.89    0.55
   6   3  10   10.49    0.61
   7   3  10    4.72    0.35
   7   3  10    3.87    0.37
   7   3  10    4.54    0.38
   7   3  10    4.62    0.27
   8   3  10    9.33    0.38
   8   3  10    9.48    0.46
   3  -4 -10    3.32    0.36
   3  -4 -10    2.98    0.26
  -3   4  10    4.14    0.31
  -3   4  10    3.57    0.22
  -3   4  10    3.24    0.27
   2  -4 -10   12.71    0.71
   2  -4 -10   12.43    0.87
   2  -4 -10   12.91    0.66
  -2   4  10   14.79    0.68
  -2   4  10   14.92    0.72
  -2   4  10   13.41    0.62
  -2   4  10   13.06    0.63
  -2   4  10   13.60    0.54
  -2   4  10   13.13    0.63
  -2   4  10   14.01    0.53
  -2   4  10   14.40    0.49
  -1   4  10    0.16    0.11
  -1   4  10    0.46    0.17
  -1   4  10    0.12    0.06
  -1   4  10    0.32    0.16
  -1   4  10    0.03    0.14
  -1   4  10    0.25    0.08
  -1   4  10    0.34    0.11
  -1   4  10    0.06    0.13
  -1   4  10   -0.01    0.13
  -1   4  10   -0.05    0.08
  -1   4  10    0.18    0.11
   0   4  10    0.48    0.13
   0   4  10    0.43    0.21
   0   4  10    0.35    0.11
   0   4  10    0.16    0.10
   0   4  10    0.26    0.13
   0   4  10    0.57    0.11
   0   4  10    0.60    0.18
   0   4  10    0.29    0.16
   0   4  10    0.22    0.08
   0   4  10    0.45    0.17
   0   4  10    0.16    0.09
   0   4  10    0.60    0.17
   1   4  10   45.71    1.72
   1   4  10   45.11    1.58
   1   4  10   43.79    1.69
   1   4  10   46.29    1.80
   1   4  10   43.93    1.93
   1   4  10   43.47    1.71
   1   4  10   43.24    1.51
   1   4  10   42.88    1.84
   1   4  10   46.82    2.07
   1   4  10   44.19    1.44
   1   4  10   43.96    1.35
   1   4  10   42.61    1.47
   2   4  10    3.76    0.25
   2   4  10    3.77    0.34
   2   4  10    4.10    0.30
   2   4  10    4.07    0.38
   2   4  10    2.91    0.32
   2   4  10    3.92    0.29
   2   4  10    3.89    0.26
   2   4  10    4.07    0.24
   2   4  10    4.24    0.22
   2   4  10    4.80    0.44
   2   4  10    3.85    0.37
   2   4  10    4.24    0.43
   2   4  10    4.46    0.35
   3   4  10   28.68    1.33
   3   4  10   27.84    0.95
   3   4  10   26.40    1.06
   3   4  10   26.04    1.12
   3   4  10   27.03    0.89
   3   4  10   26.73    0.98
   3   4  10   26.40    0.97
   3   4  10   27.10    1.16
   3   4  10   29.02    1.18
   3   4  10   28.28    1.13
   3   4  10   27.65    1.37
   3   4  10   26.79    1.23
   4   4  10    0.11    0.11
   4   4  10    0.29    0.19
   4   4  10    0.15    0.11
   4   4  10    0.26    0.17
   4   4  10    0.18    0.08
   4   4  10    0.14    0.09
   4   4  10    0.34    0.18
   4   4  10   -0.02    0.15
   4   4  10    0.20    0.15
   4   4  10    0.22    0.12
   4   4  10    0.10    0.12
   4   4  10    0.01    0.13
   5   4  10   23.81    0.92
   5   4  10   26.58    1.12
   5   4  10   24.68    0.89
   5   4  10   25.04    0.83
   5   4  10   26.02    1.07
   5   4  10   24.57    1.15
   5   4  10   25.55    1.27
   5   4  10   25.65    1.23
   5   4  10   25.09    1.07
   5   4  10   24.76    0.90
   5   4  10   24.06    0.97
   6   4  10   30.20    1.11
   6   4  10   29.68    1.28
   6   4  10   30.93    1.07
   6   4  10   30.00    1.44
   6   4  10   30.28    1.39
   6   4  10   28.98    1.31
   6   4  10   30.65    1.04
   6   4  10   30.38    1.24
   6   4  10   29.80    1.21
   6   4  10   28.88    1.05
   7   4  10    1.10    0.16
   7   4  10    0.80    0.08
   7   4  10    0.92    0.17
   8   4  10   22.10    0.93
   3  -5 -10    1.54    0.15
   2  -5 -10   38.75    1.86
   2  -5 -10   38.42    1.52
   2  -5 -10   41.29    1.43
  -2   5  10   44.20    1.64
  -2   5  10   39.13    1.55
  -2   5  10   40.26    1.33
   1  -5 -10   10.14    0.80
   1  -5 -10   11.26    0.68
  -1   5  10   13.56    0.45
  -1   5  10   11.92    0.62
  -1   5  10   12.19    0.57
  -1   5  10   11.97    0.50
  -1   5  10   12.58    0.55
  -1   5  10   11.26    0.58
  -1   5  10   13.34    0.64
  -1   5  10   12.66    0.62
  -1   5  10   12.20    0.46
   0   5  10    2.08    0.23
   0   5  10    1.50    0.20
   0   5  10    1.32    0.19
   0   5  10    2.26    0.19
   0   5  10    1.92    0.25
   0   5  10    1.64    0.22
   0   5  10    1.68    0.16
   0   5  10    1.34    0.18
   0   5  10    2.21    0.26
   0   5  10    1.88    0.20
   0   5  10    1.73    0.15
   1   5  10   33.71    1.40
   1   5  10   33.78    1.43
   1   5  10   33.77    1.07
   1   5  10   34.56    1.26
   1   5  10   38.12    1.67
   1   5  10   32.58    1.34
   1   5  10   32.55    1.18
   1   5  10   35.02    1.37
   1   5  10   35.27    1.38
   1   5  10   34.93    1.15
   1   5  10   35.94    1.53
   1   5  10   33.17    1.20
   1   5  10   31.56    1.45
   2   5  10    0.70    0.19
   2   5  10    0.57    0.22
   2   5  10    0.58    0.17
   2   5  10    0.38    0.15
   2   5  10    0.73    0.11
   2   5  10    0.98    0.12
   2   5  10    0.55    0.18
   2   5  10    0.62    0.22
   2   5  10    0.47    0.14
   2   5  10    0.40    0.11
   2   5  10    0.35    0.12
   3   5  10   45.43    1.83
   3   5  10   45.86    1.74
   3   5  10   45.56    1.72
   3   5  10   43.28    1.49
   3   5  10   45.08    1.36
   3   5  10   44.16    1.57
   3   5  10   42.13    1.83
   3   5  10   44.61    1.94
   3   5  10   42.51    1.53
   3   5  10   44.58    2.04
   3   5  10   44.30    1.45
   3   5  10   43.20    1.69
   4   5  10   79.36    2.88
   4   5  10   81.99    2.97
   4   5  10   76.89    3.11
   4   5  10   83.43    3.46
   4   5  10   76.28    2.64
   4   5  10   78.03    2.67
   4   5  10   81.36    3.29
   4   5  10   76.30    2.55
   4   5  10   80.25    3.14
   4   5  10   78.23    2.86
   5   5  10    0.56    0.13
   5   5  10    0.58    0.14
   5   5  10    0.80    0.17
   5   5  10    0.85    0.23
   5   5  10    0.79    0.17
   5   5  10    0.80    0.20
   5   5  10    0.95    0.18
   5   5  10    0.56    0.16
   5   5  10    0.62    0.11
   5   5  10    0.73    0.22
   5   5  10    0.68    0.12
   5   5  10    0.85    0.20
   6   5  10   66.72    2.72
   6   5  10   66.62    2.21
   6   5  10   68.87    2.04
   6   5  10   72.05    2.83
   6   5  10   67.53    2.69
   6   5  10   68.19    2.30
   7   5  10   13.90    0.51
   7   5  10   14.23    0.67
   8   5  10   10.51    0.49
   2  -6 -10    3.55    0.22
   1  -6 -10    6.55    0.50
   1  -6 -10    6.98    0.42
   1  -6 -10    6.28    0.39
  -1   6  10    6.26    0.36
   0  -6 -10    0.60    0.26
   0  -6 -10    1.13    0.25
   0   6  10    1.00    0.17
   0   6  10    0.91    0.15
   0   6  10    0.76    0.13
   0   6  10    0.95    0.16
   0   6  10    0.84    0.11
   0   6  10    0.81    0.15
   1   6  10   22.14    1.03
   1   6  10   24.67    0.91
   1   6  10   23.50    1.01
   1   6  10   23.01    0.96
   1   6  10   23.61    0.75
   1   6  10   23.82    0.86
   1   6  10   24.27    0.99
   1   6  10   23.50    0.86
   2   6  10    3.02    0.36
   2   6  10    3.08    0.28
   2   6  10    3.08    0.20
   2   6  10    3.39    0.32
   2   6  10    2.72    0.21
   2   6  10    3.02    0.25
   2   6  10    3.22    0.28
   2   6  10    3.17    0.28
   3   6  10   18.59    0.84
   3   6  10   19.51    0.79
   3   6  10   19.86    0.66
   3   6  10   19.37    0.91
   3   6  10   20.46    0.87
   3   6  10   19.38    0.75
   3   6  10   19.09    0.75
   3   6  10   20.20    0.99
   3   6  10   21.28    1.04
   4   6  10   50.64    1.90
   4   6  10   51.50    1.91
   4   6  10   50.28    1.76
   4   6  10   49.71    1.70
   4   6  10   52.19    1.75
   4   6  10   51.28    1.53
   4   6  10   53.56    2.19
   4   6  10   49.48    2.08
   5   6  10    4.61    0.35
   5   6  10    5.29    0.28
   5   6  10    4.81    0.34
   5   6  10    5.77    0.37
   5   6  10    4.78    0.37
   6   6  10   16.88    0.72
   6   6  10   17.71    0.80
   6   6  10   18.09    0.66
   6   6  10   16.02    0.83
   6   6  10   18.25    0.86
   7   6  10    4.82    0.21
   7   6  10    4.82    0.31
   1  -7 -10   25.07    0.88
   0  -7 -10    5.20    0.34
   0  -7 -10    5.15    0.32
   0   7  10    4.89    0.29
  -1  -7 -10   43.14    1.79
  -1  -7 -10   38.07    1.89
  -1  -7 -10   39.68    1.47
  -1  -7 -10   39.39    1.61
   1   7  10   41.24    1.50
   1   7  10   41.94    1.58
   1   7  10   43.88    1.40
  -2  -7 -10   36.20    1.82
   2   7  10   39.21    1.56
   2   7  10   41.56    1.40
   2   7  10   42.08    1.51
   2   7  10   43.01    1.40
   3   7  10    3.77    0.22
   3   7  10    3.29    0.28
   3   7  10    3.50    0.26
   3   7  10    3.89    0.29
   3   7  10    3.40    0.28
   4   7  10   88.84    3.04
   4   7  10   80.20    3.38
   4   7  10   89.33    3.05
   4   7  10   86.47    2.88
   5   7  10   27.53    1.09
   5   7  10   28.68    1.00
   6   7  10   15.21    0.64
   6   7  10   15.29    0.56
   7   7  10   42.89    1.43
   7   7  10   43.50    1.53
  -1  -8 -10    0.06    0.09
  -2  -8 -10    1.39    0.16
  -2  -8 -10    1.24    0.18
  -2  -8 -10    1.29    0.20
   2   8  10    1.68    0.11
   2   8  10    1.54    0.16
  -3  -8 -10    1.74    0.22
  -3  -8 -10    1.84    0.27
   3   8  10    1.72    0.13
   3   8  10    1.62    0.16
  -4  -8 -10    6.44    0.49
   4   8  10    7.04    0.29
   4   8  10    7.30    0.35
  -5  -8 -10    0.24    0.17
   5   8  10    0.07    0.08
   5   8  10    0.00    0.06
  -6  -8 -10    1.67    0.23
   6   8  10    2.08    0.16
   6   8  10    2.04    0.11
  -4  -5  11   25.85    0.79
  -4  -5  11   26.91    1.01
  -3  -5  11    0.97    0.17
  -3  -5  11    1.02    0.09
  -2  -5  11   21.52    0.88
   0  -5  11   27.62    1.31
   0  -5  11   27.81    0.87
   0  -5  11   28.44    0.84
   1  -5  11   27.57    0.83
   1  -5  11   27.50    0.86
   2  -5  11    3.35    0.15
  -5  -4  11    0.33    0.12
  -5  -4  11    0.15    0.06
  -4  -4  11    6.16    0.39
  -4  -4  11    5.86    0.24
  -4  -4  11    6.15    0.24
  -4  -4  11    6.25    0.40
  -3  -4  11    6.18    0.24
  -3  -4  11    5.88    0.42
  -3  -4  11    5.77    0.40
  -2  -4  11    9.12    0.51
   0  -4  11    3.19    0.36
   1  -4  11    0.26    0.22
   1  -4  11    0.37    0.17
   1  -4  11    0.35    0.07
   2  -4  11    0.30    0.07
   2  -4  11    0.40    0.15
   2  -4  11    0.35    0.07
   3  -4  11    0.24    0.06
   3  -4  11    0.46    0.14
   3  -4  11    0.35    0.07
  -5  -3  11   11.54    0.58
  -5  -3  11   11.58    0.53
  -5  -3  11   12.20    0.55
  -5  -3  11   11.43    0.41
  -5  -3  11   12.01    0.40
  -4  -3  11   57.99    1.77
  -4  -3  11   56.21    2.10
  -4  -3  11   58.11    2.21
  -4  -3  11   57.64    1.68
  -4  -3  11   57.51    2.10
  -3  -3  11    0.76    0.19
  -3  -3  11    0.99    0.10
  -3  -3  11    1.12    0.22
   1  -3  11   15.25    0.83
   1  -3  11   14.61    0.91
   1  -3  11   14.68    0.49
   2  -3  11   39.05    1.18
   2  -3  11   38.70    2.00
   2  -3  11   39.98    1.45
   2  -3  11   39.29    1.24
   2  -3  11   40.51    1.73
   3  -3  11   18.09    0.77
   3  -3  11   16.69    0.59
   3  -3  11   16.69    0.68
   3  -3  11   17.19    0.56
   3  -3  11   17.49    0.56
   3  -3  11   17.51    0.86
   4  -3  11   53.38    1.56
   4  -3  11   54.42    1.78
   4  -3  11   53.55    2.19
   4  -3  11   51.88    1.64
   4  -3  11   53.88    1.93
   4  -3  11   53.03    1.64
  -5  -2  11    3.21    0.28
  -5  -2  11    3.12    0.17
  -5  -2  11    3.01    0.17
  -5  -2  11    3.04    0.26
  -5  -2  11    3.15    0.29
  -4  -2  11    0.49    0.09
  -4  -2  11    0.39    0.09
  -4  -2  11    0.65    0.11
  -4  -2  11    0.59    0.19
  -4  -2  11    0.65    0.17
  -4  -2  11    0.35    0.15
  -3  -2  11    0.03    0.15
  -3  -2  11    0.00    0.06
  -3  -2  11    0.27    0.08
  -3  -2  11    0.10    0.14
  -2  -2  11    7.87    0.29
  -2  -2  11    7.76    0.51
   2  -2  11   39.11    2.07
   2  -2  11   40.87    1.28
   2  -2  11   41.51    1.81
   2  -2  11   41.38    1.51
   2  -2  11   43.49    1.62
   3  -2  11    0.62    0.09
   3  -2  11    0.40    0.18
   3  -2  11    0.47    0.22
   3  -2  11    0.74    0.09
   3  -2  11    0.71    0.11
   3  -2  11    0.75    0.18
   3  -2  11    0.46    0.09
   3  -2  11    0.84    0.20
   4  -2  11    2.09    0.24
   4  -2  11    2.22    0.31
   4  -2  11    1.67    0.24
   4  -2  11    2.49    0.18
   4  -2  11    2.07    0.15
   4  -2  11    2.09    0.23
   4  -2  11    2.04    0.15
   4  -2  11    2.22    0.15
   5  -2  11    1.13    0.18
   5  -2  11    1.72    0.12
   5  -2  11    1.31    0.11
   5  -2  11    1.36    0.18
   5  -2  11    1.41    0.13
   5  -2  11    1.33    0.16
  -5  -1  11    1.94    0.14
  -5  -1  11    1.73    0.12
  -5  -1  11    1.52    0.20
  -5  -1  11    1.64    0.13
  -5  -1  11    1.37    0.18
  -4  -1  11   41.34    1.26
  -4  -1  11   42.97    1.69
  -4  -1  11   43.38    1.34
  -4  -1  11   42.57    1.62
  -4  -1  11   40.07    1.57
  -4  -1  11   42.18    1.34
  -3  -1  11   41.00    1.29
  -3  -1  11   43.57    1.68
  -3  -1  11   40.20    1.59
  -3  -1  11   41.85    1.30
  -3  -1  11   41.29    1.53
  -3  -1  11   38.05    1.23
  -2  -1  11   11.03    0.45
  -2  -1  11   10.41    0.39
  -2  -1  11   11.03    0.58
  -2  -1  11   11.05    0.62
   2  -1  11   93.54    2.88
   2  -1  11   97.10    3.17
   2  -1  11   97.32    3.44
   2  -1  11   91.39    3.88
   2  -1  11   97.24    3.42
   2  -1  11   95.75    4.13
   2  -1  11   96.24    2.92
   3  -1  11    0.17    0.07
   3  -1  11   -0.05    0.18
   3  -1  11    0.26    0.07
   3  -1  11    0.33    0.18
   3  -1  11    0.18    0.07
   3  -1  11    0.15    0.16
   3  -1  11    0.25    0.15
   3  -1  11    0.36    0.21
   4  -1  11   37.24    1.22
   4  -1  11   38.38    1.78
   4  -1  11   38.25    1.21
   4  -1  11   35.92    1.14
   4  -1  11   36.90    1.65
   4  -1  11   38.56    1.37
   4  -1  11   38.49    1.48
   4  -1  11   36.85    1.43
   5  -1  11   22.42    1.03
   5  -1  11   21.47    0.74
   5  -1  11   22.29    0.75
   5  -1  11   21.79    0.88
   5  -1  11   21.82    0.70
   5  -1  11   20.43    1.09
   5  -1  11   22.33    0.84
   5  -1  11   22.16    0.91
   6  -1  11    1.43    0.12
   6  -1  11    1.40    0.12
   6  -1  11    1.54    0.19
   6  -1  11    1.56    0.17
   6  -1  11    1.38    0.15
  -5   0  11    3.18    0.19
  -5   0  11    3.43    0.17
  -5   0  11    3.53    0.28
  -5   0  11    3.26    0.26
  -5   0  11    3.49    0.17
  -5   0  11    3.59    0.28
  -4   0  11    1.73    0.23
  -4   0  11    1.63    0.15
  -4   0  11    1.34    0.13
  -4   0  11    1.66    0.17
  -4   0  11    1.53    0.23
  -4   0  11    1.51    0.24
  -4   0  11    1.59    0.15
  -3   0  11    8.87    0.35
  -3   0  11    7.98    0.40
  -3   0  11    8.70    0.54
  -3   0  11    8.03    0.50
  -3   0  11    7.60    0.32
  -3   0  11    8.46    0.35
  -3   0  11    8.08    0.53
  -2   0  11    2.43    0.30
  -2   0  11    2.87    0.20
  -2   0  11    3.59    0.34
  -2   0  11    2.90    0.16
  -2   0  11    2.49    0.17
  -2   0  11    2.60    0.31
  -1   0  11    4.18    0.22
  -1   0  11    4.24    0.41
  -1   0  11    4.26    0.18
  -1   0  11    4.23    0.20
  -1   0  11    3.93    0.35
   0   0  11   12.64    0.50
   0   0  11   12.98    0.71
   1   0  11   14.40    0.72
   1   0  11   14.18    0.56
   1   0  11   13.61    0.81
   1   0  11   12.98    0.65
   1   0  11   14.17    0.85
   1   0  11   14.52    0.48
   2   0  11   18.39    0.99
   2   0  11   16.26    0.82
   2   0  11   17.36    0.92
   2   0  11   17.56    0.59
   2   0  11   18.13    0.70
   2   0  11   17.14    0.59
   2   0  11   17.32    0.76
   3   0  11    0.61    0.21
   3   0  11    0.60    0.11
   3   0  11    0.86    0.11
   3   0  11    0.55    0.21
   3   0  11    0.79    0.19
   3   0  11    0.87    0.11
   3   0  11    2.12    0.28
   4   0  11    0.90    0.21
   4   0  11    1.07    0.12
   4   0  11    1.31    0.13
   4   0  11    1.48    0.17
   4   0  11    1.30    0.27
   4   0  11    1.16    0.22
   4   0  11    1.06    0.12
   4   0  11    1.50    0.22
   5   0  11   21.41    0.91
   5   0  11   22.84    0.79
   5   0  11   22.03    0.73
   5   0  11   21.84    1.15
   5   0  11   23.59    0.89
   5   0  11   22.62    1.08
   5   0  11   22.94    0.78
   5   0  11   23.03    0.96
  -6   0 -11   -0.04    0.29
   6   0  11    0.95    0.12
   6   0  11    0.97    0.15
   6   0  11    0.98    0.20
   6   0  11    1.00    0.12
   6   0  11    0.98    0.16
   6   0  11    0.74    0.18
   6   0  11    0.98    0.11
   5  -1 -11   10.51    0.51
  -5   1  11   10.41    0.45
  -5   1  11   10.52    0.51
  -5   1  11   10.36    0.37
  -5   1  11   10.16    0.35
  -4   1  11    0.26    0.08
  -4   1  11    0.28    0.14
  -4   1  11    0.28    0.16
  -4   1  11    0.44    0.15
  -4   1  11    0.24    0.10
  -4   1  11    0.17    0.08
  -4   1  11    0.36    0.09
  -3   1  11   39.77    1.54
  -3   1  11   37.88    1.67
  -3   1  11   39.52    1.52
  -3   1  11   40.21    1.31
  -3   1  11   38.49    1.21
  -3   1  11   41.02    1.62
  -3   1  11   41.63    1.29
  -2   1  11   20.68    0.72
  -2   1  11   20.56    0.91
  -2   1  11   21.88    0.98
  -2   1  11   20.66    0.83
  -2   1  11   19.73    0.70
  -2   1  11   19.80    0.99
  -2   1  11   20.00    0.66
  -1   1  11   54.76    1.72
  -1   1  11   54.62    1.75
  -1   1  11   55.52    2.08
  -1   1  11   54.51    2.27
  -1   1  11   54.85    2.04
  -1   1  11   55.74    2.48
  -1   1  11   58.39    2.19
   0   1  11  112.63    4.02
   0   1  11  110.23    3.39
   0   1  11  110.06    3.45
   0   1  11  111.33    4.35
   0   1  11  113.09    3.99
   0   1  11  113.21    3.67
   0   1  11  115.06    4.79
   1   1  11    9.03    0.63
   1   1  11    8.20    0.33
   1   1  11    8.93    0.56
   1   1  11    8.59    0.39
   1   1  11    8.93    0.49
   1   1  11    8.18    0.54
   1   1  11    8.63    0.34
   1   1  11    8.17    0.47
   2   1  11   75.28    2.72
   2   1  11   72.07    2.33
   2   1  11   75.20    3.58
   2   1  11   75.02    2.98
   2   1  11   73.58    2.29
   2   1  11   73.88    2.52
   2   1  11   77.44    2.75
   2   1  11   74.56    3.11
   2   1  11   74.54    3.29
   3   1  11   66.92    2.93
   3   1  11   69.37    2.42
   3   1  11   64.59    2.03
   3   1  11   63.46    2.43
   3   1  11   65.40    2.24
   3   1  11   66.09    2.66
   3   1  11   64.44    2.07
   3   1  11   63.48    2.75
   4   1  11   15.46    0.54
   4   1  11   15.48    0.58
   4   1  11   15.16    0.70
   4   1  11   16.85    0.70
   4   1  11   15.54    0.76
   4   1  11   16.42    0.87
   4   1  11   15.39    0.59
   4   1  11   15.32    0.83
   4   1  11   17.12    0.93
   5   1  11   29.26    1.02
   5   1  11   29.51    1.21
   5   1  11   29.53    1.19
   5   1  11   29.54    1.37
   5   1  11   31.36    1.46
   5   1  11   30.19    1.00
   5   1  11   29.29    0.94
   5   1  11   29.58    1.12
   5   1  11   29.72    1.32
   6   1  11   25.61    1.03
   6   1  11   25.97    0.95
   6   1  11   26.36    0.82
   6   1  11   24.96    0.87
   6   1  11   26.65    0.89
   6   1  11   23.98    1.03
   6   1  11   27.41    1.19
   6   1  11   25.09    1.12
   6   1  11   24.40    1.23
   7   1  11   20.00    0.87
   7   1  11   19.73    0.63
   7   1  11   21.74    0.69
   7   1  11   19.90    0.78
   7   1  11   20.36    0.72
   7   1  11   19.21    0.91
  -4   2  11    1.00    0.10
  -4   2  11    1.02    0.16
  -4   2  11    0.96    0.11
  -4   2  11    0.79    0.17
  -4   2  11    1.13    0.17
  -4   2  11    1.05    0.11
  -3   2  11   26.52    1.05
  -3   2  11   27.02    0.89
  -3   2  11   23.95    1.02
  -3   2  11   26.17    0.82
  -3   2  11   24.89    0.87
  -3   2  11   25.88    1.15
  -3   2  11   25.57    1.10
  -2   2  11   25.03    1.17
  -2   2  11   27.18    1.14
  -2   2  11   25.78    0.87
  -2   2  11   25.77    1.03
  -2   2  11   24.39    0.81
  -2   2  11   26.17    0.89
  -2   2  11   25.41    1.07
  -1   2  11    1.92    0.26
  -1   2  11    1.92    0.16
  -1   2  11    1.65    0.15
  -1   2  11    2.01    0.16
  -1   2  11    1.51    0.27
  -1   2  11    1.76    0.19
  -1   2  11    2.12    0.27
  -1   2  11    1.74    0.27
  -1   2  11    2.22    0.25
   0   2  11    3.94    0.34
   0   2  11    4.13    0.42
   0   2  11    3.07    0.32
   0   2  11    3.62    0.25
   0   2  11    3.61    0.37
   0   2  11    3.83    0.35
   0   2  11    3.64    0.21
   0   2  11    3.60    0.21
   1   2  11   30.28    1.50
   1   2  11   30.73    1.01
   1   2  11   29.25    1.15
   1   2  11   29.53    1.25
   1   2  11   30.22    1.35
   1   2  11   30.31    0.99
   1   2  11   30.44    1.24
   1   2  11   30.95    1.18
   2   2  11    0.75    0.12
   2   2  11    0.71    0.22
   2   2  11    0.66    0.17
   2   2  11    0.75    0.21
   2   2  11    0.67    0.13
   2   2  11    1.35    0.14
   2   2  11    0.60    0.23
   2   2  11    0.82    0.22
   3   2  11   44.15    1.35
   3   2  11   44.84    1.98
   3   2  11   43.72    1.60
   3   2  11   42.45    1.73
   3   2  11   45.07    1.46
   3   2  11   43.89    2.08
   3   2  11   46.79    1.70
   3   2  11   45.03    1.43
   3   2  11   44.66    1.89
   4   2  11   12.47    0.60
   4   2  11   13.12    0.66
   4   2  11   12.27    0.46
   4   2  11   12.30    0.72
   4   2  11   13.15    0.78
   4   2  11   13.07    0.60
   4   2  11   12.12    0.75
   4   2  11   12.58    0.50
   4   2  11   12.56    0.50
   5   2  11    3.75    0.24
   5   2  11    4.17    0.41
   5   2  11    4.00    0.23
   5   2  11    3.71    0.29
   5   2  11    4.26    0.37
   5   2  11    4.09    0.41
   5   2  11    3.80    0.33
   5   2  11    4.02    0.39
   5   2  11    4.53    0.26
   6   2  11   14.42    0.62
   6   2  11   14.36    0.55
   6   2  11   14.06    0.73
   6   2  11   14.51    0.56
   6   2  11   14.44    0.67
   6   2  11   14.19    0.65
   6   2  11   14.44    0.77
   6   2  11   14.72    0.51
   6   2  11   14.11    0.80
   7   2  11    5.50    0.25
   7   2  11    5.15    0.22
   7   2  11    4.65    0.30
   7   2  11    4.99    0.28
   7   2  11    5.28    0.35
   7   2  11    5.22    0.33
  -4   3  11   22.41    0.91
  -4   3  11   21.01    0.72
   3  -3 -11    7.36    0.56
  -3   3  11    8.81    0.44
  -3   3  11    8.32    0.35
  -3   3  11    8.61    0.33
  -3   3  11    9.65    0.50
  -3   3  11    8.72    0.36
  -3   3  11    8.32    0.46
  -2   3  11   32.22    1.17
  -2   3  11   33.57    1.09
  -2   3  11   34.76    1.37
  -2   3  11   33.08    1.42
  -2   3  11   33.45    1.12
  -2   3  11   31.66    1.29
  -2   3  11   33.43    1.03
  -2   3  11   32.52    1.29
  -1   3  11   10.54    0.60
  -1   3  11   10.54    0.61
  -1   3  11   10.65    0.44
  -1   3  11   10.93    0.68
  -1   3  11   11.02    0.52
  -1   3  11   10.90    0.56
  -1   3  11   10.37    0.40
  -1   3  11   10.63    0.57
  -1   3  11   10.84    0.43
  -1   3  11   10.25    0.51
   0   3  11   42.02    1.56
   0   3  11   39.43    1.31
   0   3  11   40.44    1.58
   0   3  11   40.87    1.72
   0   3  11   38.72    1.56
   0   3  11   39.80    1.45
   0   3  11   40.12    1.34
   0   3  11   39.74    1.24
   0   3  11   41.07    1.64
   0   3  11   43.42    1.92
   1   3  11   20.73    0.69
   1   3  11   20.56    0.74
   1   3  11   22.24    0.88
   1   3  11   20.87    0.86
   1   3  11   21.25    0.75
   1   3  11   21.03    0.93
   1   3  11   21.44    0.95
   1   3  11   20.15    1.00
   1   3  11   21.83    1.13
   2   3  11    7.86    0.51
   2   3  11    7.35    0.35
   2   3  11    7.07    0.55
   2   3  11    7.41    0.51
   2   3  11    7.45    0.58
   2   3  11    7.61    0.33
   2   3  11    7.60    0.47
   2   3  11    7.28    0.46
   2   3  11    7.42    0.35
   2   3  11    8.17    0.41
   3   3  11  100.50    3.70
   3   3  11  101.91    3.67
   3   3  11  101.27    4.21
   3   3  11  104.27    3.94
   3   3  11  108.58    3.77
   3   3  11  101.98    3.17
   3   3  11  102.76    3.24
   3   3  11  103.85    3.41
   3   3  11  100.96    4.02
   3   3  11  100.05    3.00
   3   3  11  109.25    4.46
   4   3  11    7.86    0.46
   4   3  11    7.79    0.58
   4   3  11    8.31    0.52
   4   3  11    8.56    0.39
   4   3  11    8.43    0.61
   4   3  11    8.13    0.35
   4   3  11    9.00    0.56
   4   3  11    8.73    0.39
   4   3  11    8.62    0.45
   4   3  11    8.17    0.40
   5   3  11   52.35    2.17
   5   3  11   51.92    1.83
   5   3  11   55.76    1.71
   5   3  11   53.54    2.08
   5   3  11   53.73    2.03
   5   3  11   53.39    2.00
   5   3  11   52.12    1.60
   5   3  11   54.19    2.40
   5   3  11   51.18    1.74
   5   3  11   51.91    2.28
   6   3  11   60.10    1.94
   6   3  11   56.74    2.30
   6   3  11   64.25    2.58
   6   3  11   58.97    2.69
   6   3  11   63.08    2.26
   6   3  11   62.23    1.99
   6   3  11   63.91    1.83
   6   3  11   60.93    2.38
   6   3  11   64.09    2.07
   7   3  11    1.19    0.18
   7   3  11    0.78    0.17
   7   3  11    1.08    0.15
   7   3  11    1.02    0.13
   7   3  11    1.03    0.11
  -3   4  11    6.65    0.29
  -3   4  11    6.93    0.36
  -3   4  11    7.28    0.39
   2  -4 -11   16.20    0.69
   2  -4 -11   14.10    0.89
  -2   4  11   16.54    0.53
  -2   4  11   15.77    0.72
  -2   4  11   15.54    0.57
  -2   4  11   16.08    0.68
  -2   4  11   16.17    0.59
  -2   4  11   14.73    0.67
  -2   4  11   16.79    0.76
  -1   4  11   44.16    1.67
  -1   4  11   45.27    1.43
  -1   4  11   43.48    1.70
  -1   4  11   44.90    1.34
  -1   4  11   43.04    1.54
  -1   4  11   45.27    1.47
  -1   4  11   46.71    1.76
  -1   4  11   43.28    1.74
   0   4  11    0.34    0.10
   0   4  11    0.13    0.09
   0   4  11    0.25    0.14
   0   4  11    0.47    0.18
   0   4  11    0.20    0.08
   0   4  11    0.23    0.09
   0   4  11    0.20    0.17
   0   4  11    0.29    0.10
   0   4  11    0.08    0.14
   0   4  11    0.11    0.13
   0   4  11    0.76    0.18
   1   4  11   26.34    1.24
   1   4  11   25.34    1.01
   1   4  11   25.21    0.91
   1   4  11   25.54    1.08
   1   4  11   25.89    1.08
   1   4  11   26.53    1.07
   1   4  11   26.46    0.90
   1   4  11   26.14    1.10
   1   4  11   26.57    0.84
   1   4  11   26.85    1.32
   2   4  11    6.41    0.46
   2   4  11    6.04    0.30
   2   4  11    7.26    0.40
   2   4  11    6.81    0.36
   2   4  11    6.69    0.47
   2   4  11    6.90    0.44
   2   4  11    7.25    0.55
   2   4  11    6.88    0.33
   2   4  11    6.56    0.33
   2   4  11    6.84    0.42
   2   4  11    6.83    0.51
   3   4  11    7.20    0.45
   3   4  11    7.57    0.49
   3   4  11    8.39    0.59
   3   4  11    7.21    0.50
   3   4  11    7.36    0.37
   3   4  11    7.57    0.44
   3   4  11    8.72    0.44
   3   4  11    7.84    0.36
   3   4  11    6.95    0.55
   3   4  11    7.72    0.40
   3   4  11    7.61    0.34
   4   4  11   26.49    1.09
   4   4  11   25.94    0.91
   4   4  11   26.49    1.08
   4   4  11   26.00    1.18
   4   4  11   25.08    0.93
   4   4  11   28.35    1.33
   4   4  11   26.29    1.07
   4   4  11   26.27    0.85
   4   4  11   24.92    1.25
   4   4  11   25.90    1.11
   4   4  11   24.70    1.01
   5   4  11    0.52    0.14
   5   4  11   -0.09    0.15
   5   4  11    0.67    0.18
   5   4  11    0.22    0.10
   5   4  11    0.03    0.08
   5   4  11    0.16    0.17
   5   4  11   -0.05    0.09
   5   4  11   -0.06    0.15
   5   4  11   -0.26    0.12
   5   4  11    0.12    0.10
   6   4  11   57.75    2.35
   6   4  11   63.00    1.79
   6   4  11   60.42    1.95
   6   4  11   62.14    2.20
   6   4  11   63.59    2.52
   6   4  11   57.74    2.62
   6   4  11   61.45    2.40
   6   4  11   54.86    2.26
   6   4  11   61.12    2.02
   6   4  11   59.85    1.90
   7   4  11   11.64    0.57
   7   4  11   11.07    0.58
   7   4  11   12.01    0.46
   2  -5 -11   60.29    2.01
  -2   5  11   58.61    1.92
  -2   5  11   64.52    2.35
  -2   5  11   60.75    2.25
   1  -5 -11    1.50    0.31
   1  -5 -11    1.63    0.24
   1  -5 -11    1.41    0.24
  -1   5  11    1.54    0.18
  -1   5  11    1.84    0.21
  -1   5  11    1.91    0.22
  -1   5  11    1.34    0.14
  -1   5  11    1.69    0.14
  -1   5  11    1.69    0.18
  -1   5  11    1.92    0.17
  -1   5  11    1.81    0.19
   0   5  11   24.61    1.06
   0   5  11   23.95    1.04
   0   5  11   26.77    0.81
   0   5  11   25.40    1.02
   0   5  11   25.41    1.01
   0   5  11   25.32    0.86
   0   5  11   25.62    0.89
   0   5  11   26.26    1.12
   0   5  11   23.29    1.02
   0   5  11   26.59    0.95
   1   5  11   51.73    1.78
   1   5  11   49.93    2.07
   1   5  11   55.89    2.34
   1   5  11   52.02    1.93
   1   5  11   49.93    1.91
   1   5  11   50.90    1.54
   1   5  11   48.87    2.04
   1   5  11   51.37    1.69
   1   5  11   50.54    1.97
   1   5  11   53.34    1.65
   1   5  11   51.78    1.96
   2   5  11    9.14    0.49
   2   5  11    8.72    0.52
   2   5  11    8.54    0.45
   2   5  11    8.60    0.36
   2   5  11    8.38    0.56
   2   5  11    8.50    0.46
   2   5  11    8.41    0.40
   2   5  11    8.94    0.61
   2   5  11    8.89    0.39
   2   5  11    9.58    0.47
   2   5  11    9.03    0.52
   3   5  11   35.54    1.11
   3   5  11   34.95    1.41
   3   5  11   33.53    1.28
   3   5  11   34.73    1.51
   3   5  11   36.81    1.60
   3   5  11   35.01    1.46
   3   5  11   36.79    1.19
   3   5  11   35.53    1.39
   3   5  11   34.22    1.21
   3   5  11   36.63    1.42
   3   5  11   37.65    1.69
   4   5  11   14.92    0.63
   4   5  11   13.75    0.68
   4   5  11   14.40    0.81
   4   5  11   13.93    0.77
   4   5  11   13.96    0.57
   4   5  11   14.28    0.55
   4   5  11   13.54    0.51
   4   5  11   14.01    0.66
   4   5  11   14.06    0.66
   4   5  11   14.16    0.66
   4   5  11   13.86    0.72
   5   5  11    0.80    0.22
   5   5  11    0.58    0.13
   5   5  11    0.65    0.12
   5   5  11    0.60    0.18
   5   5  11    0.66    0.18
   5   5  11    0.57    0.11
   5   5  11    0.75    0.16
   5   5  11    0.57    0.12
   5   5  11    0.70    0.16
   5   5  11    0.80    0.21
   5   5  11    0.47    0.14
   6   5  11   17.13    0.56
   6   5  11   15.90    0.75
   6   5  11   17.34    0.64
   6   5  11   16.11    0.78
   6   5  11   16.86    0.83
   7   5  11    7.57    0.43
   7   5  11    8.24    0.42
   7   5  11    7.83    0.34
   1  -6 -11   22.06    0.88
   1  -6 -11   22.76    0.82
  -1   6  11   21.75    0.75
  -1   6  11   22.23    0.88
   0  -6 -11    0.11    0.15
   0  -6 -11    0.17    0.15
   0  -6 -11    0.18    0.22
   0   6  11    0.36    0.09
   0   6  11    0.34    0.11
   0   6  11    0.22    0.09
   0   6  11    0.19    0.11
  -1  -6 -11   50.78    2.56
   1   6  11   58.31    2.27
   1   6  11   62.21    1.79
   1   6  11   64.20    2.04
   1   6  11   65.23    2.22
   1   6  11   62.77    2.20
   1   6  11   63.32    1.97
   2   6  11   56.73    1.81
   2   6  11   53.14    2.21
   2   6  11   57.15    1.65
   2   6  11   58.87    2.06
   2   6  11   57.45    1.89
   2   6  11   51.55    2.10
   2   6  11   56.82    2.46
   2   6  11   53.07    2.20
   2   6  11   57.43    2.04
   3   6  11   15.89    0.57
   3   6  11   16.30    0.55
   3   6  11   14.85    0.72
   3   6  11   17.50    0.74
   3   6  11   16.91    0.67
   3   6  11   17.37    0.88
   3   6  11   16.55    0.63
   3   6  11   16.10    0.82
   3   6  11   15.96    0.76
   3   6  11   15.77    0.71
   3   6  11   15.83    0.73
   4   6  11   51.78    1.50
   4   6  11   51.13    1.70
   4   6  11   48.62    1.84
   4   6  11   53.03    1.86
   4   6  11   48.51    2.21
   4   6  11   49.12    2.00
   4   6  11   48.57    1.99
   4   6  11   53.41    2.12
   4   6  11   47.35    1.66
   4   6  11   49.12    1.64
   5   6  11   15.46    0.78
   5   6  11   15.10    0.66
   5   6  11   15.83    0.60
   5   6  11   15.69    0.67
   5   6  11   15.48    0.72
   5   6  11   14.26    0.72
   6   6  11   36.12    1.46
   6   6  11   33.03    1.25
   6   6  11   33.72    1.14
   6   6  11   33.47    1.38
   7   6  11   32.34    1.27
   0  -7 -11    0.60    0.11
   0  -7 -11    0.43    0.11
  -1  -7 -11   23.84    0.99
  -1  -7 -11   23.80    0.90
   1   7  11   23.97    0.94
   1   7  11   24.38    0.90
  -2  -7 -11   23.13    1.17
  -2  -7 -11   21.55    1.03
   2   7  11   25.29    0.87
   2   7  11   25.99    0.88
   2   7  11   26.53    0.95
  -3  -7 -11    0.09    0.19
   3   7  11    0.14    0.11
   3   7  11    0.01    0.09
   3   7  11   -0.12    0.08
   4   7  11   31.90    1.20
   4   7  11   31.75    1.20
   5   7  11    8.82    0.42
   6   7  11    4.76    0.26
  -3  -8 -11    7.19    0.43
   3   8  11    7.02    0.31
  -4  -8 -11    7.11    0.46
   4   8  11    7.45    0.33
  -5  -8 -11   14.40    0.77
   5   8  11   17.79    0.63
   2  -4  12    4.28    0.17
  -4  -3  12    0.29    0.15
  -4  -3  12    0.54    0.08
   2  -3  12    1.75    0.11
   2  -3  12    1.73    0.11
   2  -3  12    1.70    0.23
   3  -3  12    0.11    0.05
   3  -3  12    0.16    0.06
   3  -3  12    0.07    0.12
   4  -3  12    0.18    0.11
   4  -3  12    0.20    0.05
  -4  -2  12   49.50    1.46
  -4  -2  12   50.55    1.92
  -4  -2  12   49.55    1.83
  -4  -2  12   49.98    1.53
  -3  -2  12   46.29    1.75
  -3  -2  12   46.37    1.44
  -3  -2  12   48.33    1.85
   2  -2  12   38.48    1.20
   2  -2  12   39.34    1.70
   3  -2  12    0.34    0.16
   3  -2  12    0.17    0.06
   3  -2  12    0.24    0.16
   3  -2  12    0.14    0.06
   3  -2  12    0.27    0.07
   3  -2  12    0.08    0.14
   4  -2  12   46.52    1.47
   4  -2  12   48.78    1.75
   4  -2  12   48.55    1.61
   4  -2  12   46.55    1.40
   4  -2  12   48.20    1.98
   5  -2  12    8.17    0.45
  -4  -1  12    0.08    0.12
  -4  -1  12    0.05    0.06
  -4  -1  12    0.05    0.13
  -4  -1  12    0.04    0.06
  -3  -1  12    1.48    0.14
  -3  -1  12    1.48    0.13
  -3  -1  12    1.72    0.14
  -3  -1  12    1.30    0.24
  -3  -1  12    1.25    0.21
  -2  -1  12    2.73    0.32
  -2  -1  12    3.22    0.31
  -2  -1  12    3.04    0.16
   2  -1  12    0.76    0.09
   2  -1  12    0.77    0.21
   2  -1  12    0.89    0.22
   2  -1  12    0.96    0.19
   3  -1  12    0.68    0.21
   3  -1  12    0.85    0.23
   3  -1  12    0.66    0.17
   3  -1  12    0.61    0.09
   3  -1  12    0.75    0.20
   3  -1  12    0.76    0.09
   3  -1  12    0.71    0.11
   4  -1  12    1.34    0.12
   4  -1  12    0.77    0.19
   4  -1  12    1.33    0.14
   4  -1  12    1.33    0.21
   4  -1  12    1.27    0.24
   4  -1  12    1.25    0.10
   4  -1  12    1.46    0.20
   4  -1  12    1.35    0.12
   5  -1  12    0.07    0.10
   5  -1  12    0.08    0.05
   5  -1  12    0.36    0.07
   5  -1  12    0.14    0.11
   5  -1  12    0.10    0.06
   5  -1  12    0.33    0.13
  -4   0  12    6.16    0.39
  -4   0  12    6.20    0.40
  -4   0  12    7.13    0.37
  -4   0  12    6.17    0.27
  -4   0  12    6.05    0.25
  -3   0  12   40.94    1.26
  -3   0  12   41.60    1.33
  -3   0  12   41.09    1.73
  -3   0  12   43.59    1.62
  -3   0  12   43.61    1.32
  -3   0  12   41.72    1.57
  -3   0  12   44.01    1.70
  -2   0  12    1.52    0.14
  -2   0  12    1.61    0.26
  -2   0  12    1.24    0.12
  -2   0  12    1.05    0.21
  -2   0  12    1.57    0.24
  -1   0  12   46.34    1.94
  -1   0  12   46.67    1.45
  -1   0  12   48.09    1.70
  -1   0  12   47.36    1.79
   0   0  12   68.01    2.07
   0   0  12   68.66    2.74
   1   0  12   11.35    0.58
   1   0  12    9.92    0.69
   1   0  12   10.69    0.38
   2   0  12   78.49    2.41
   2   0  12   78.66    3.27
   2   0  12   79.51    2.84
   2   0  12   80.11    2.89
   2   0  12   79.22    3.47
   2   0  12   78.94    2.66
   3   0  12   25.80    0.86
   3   0  12   25.85    0.85
   3   0  12   26.79    1.25
   3   0  12   26.74    1.02
   3   0  12   25.66    1.11
   3   0  12   26.76    1.33
   3   0  12   26.26    1.03
   4   0  12    4.71    0.39
   4   0  12    4.73    0.44
   4   0  12    4.34    0.34
   4   0  12    5.00    0.42
   4   0  12    5.00    0.23
   4   0  12    4.92    0.23
   4   0  12    4.89    0.24
   4   0  12    4.88    0.28
   5   0  12   45.29    2.03
   5   0  12   46.72    1.56
   5   0  12   45.74    1.69
   5   0  12   43.18    1.68
   5   0  12   46.54    1.44
   5   0  12   44.66    1.42
   5   0  12   44.17    1.91
   5   0  12   45.01    1.35
   6   0  12    0.23    0.09
   6   0  12    0.17    0.10
   6   0  12    0.19    0.12
   6   0  12    0.28    0.06
   6   0  12    0.24    0.07
  -4   1  12   -0.04    0.05
  -4   1  12    0.14    0.05
  -4   1  12    0.11    0.10
  -4   1  12    0.05    0.12
  -4   1  12    0.00    0.06
  -4   1  12    0.08    0.11
  -3   1  12    1.20    0.11
  -3   1  12    1.00    0.11
  -3   1  12    1.15    0.20
  -3   1  12    1.15    0.14
  -3   1  12    0.78    0.19
  -3   1  12    1.01    0.11
  -3   1  12    0.83    0.17
  -2   1  12    0.48    0.09
  -2   1  12    0.48    0.16
  -2   1  12    0.51    0.11
  -2   1  12    0.53    0.19
  -2   1  12    0.68    0.20
  -2   1  12    0.47    0.09
  -2   1  12    0.47    0.08
  -1   1  12    1.60    0.14
  -1   1  12    1.88    0.26
  -1   1  12    1.54    0.12
  -1   1  12    1.96    0.28
  -1   1  12    1.52    0.15
   0   1  12    1.99    0.32
   0   1  12    2.14    0.13
   0   1  12    2.11    0.16
   0   1  12    1.96    0.25
   0   1  12    2.14    0.29
   0   1  12    1.94    0.14
   1   1  12    5.50    0.39
   1   1  12    5.70    0.28
   1   1  12    5.37    0.25
   1   1  12    6.14    0.46
   1   1  12    5.31    0.45
   1   1  12    6.09    0.51
   1   1  12    5.82    0.23
   2   1  12   11.46    0.41
   2   1  12   11.12    0.63
   2   1  12   11.93    0.68
   2   1  12   12.06    0.50
   2   1  12   11.12    0.74
   2   1  12   11.11    0.70
   2   1  12   12.02    0.59
   2   1  12   10.92    0.43
   3   1  12    1.09    0.26
   3   1  12    0.85    0.11
   3   1  12    1.03    0.27
   3   1  12    1.14    0.24
   3   1  12    0.71    0.19
   3   1  12    0.93    0.12
   3   1  12    0.44    0.19
   3   1  12    0.87    0.13
   3   1  12    0.90    0.11
   4   1  12    0.31    0.20
   4   1  12    0.28    0.09
   4   1  12    0.45    0.21
   4   1  12    0.36    0.18
   4   1  12    0.18    0.10
   4   1  12    0.26    0.08
   4   1  12    0.60    0.10
   4   1  12    0.19    0.14
   4   1  12    0.59    0.19
   5   1  12   16.66    0.92
   5   1  12   17.21    0.62
   5   1  12   17.44    0.83
   5   1  12   17.53    0.62
   5   1  12   17.80    0.78
   5   1  12   17.62    0.58
   5   1  12   17.54    0.72
   5   1  12   16.79    0.73
   5   1  12   17.73    0.89
   6   1  12   12.69    0.61
   6   1  12   13.03    0.53
   6   1  12   13.23    0.58
   6   1  12   13.43    0.45
   6   1  12   12.69    0.47
   6   1  12   12.85    0.67
   6   1  12   13.08    0.47
  -4   2  12    0.85    0.08
  -4   2  12    0.69    0.13
  -3   2  12   27.56    1.20
  -3   2  12   29.32    0.87
  -3   2  12   29.16    1.10
  -3   2  12   27.65    1.15
  -3   2  12   26.96    0.92
  -3   2  12   28.88    0.93
  -2   2  12   82.47    2.91
  -2   2  12   85.24    2.54
  -2   2  12   78.80    2.36
  -2   2  12   79.86    2.49
  -2   2  12   80.74    3.17
  -2   2  12   83.74    3.04
  -2   2  12   77.57    2.95
  -1   2  12    1.08    0.22
  -1   2  12    0.80    0.13
  -1   2  12    1.17    0.12
  -1   2  12    0.97    0.24
  -1   2  12    1.13    0.12
  -1   2  12    0.76    0.17
  -1   2  12    0.81    0.10
  -1   2  12    1.27    0.23
   0   2  12   62.47    2.27
   0   2  12   63.38    2.74
   0   2  12   62.18    2.29
   0   2  12   62.17    2.27
   0   2  12   61.15    2.09
   0   2  12   60.48    1.81
   0   2  12   60.85    1.91
   0   2  12   61.27    1.94
   0   2  12   60.38    2.48
   1   2  12   25.90    0.88
   1   2  12   25.78    1.12
   1   2  12   26.77    0.88
   1   2  12   25.52    1.02
   1   2  12   26.83    1.21
   1   2  12   27.89    1.35
   1   2  12   26.88    1.11
   1   2  12   27.07    1.04
   2   2  12   37.90    1.74
   2   2  12   35.79    1.16
   2   2  12   35.45    1.32
   2   2  12   35.25    1.17
   2   2  12   34.48    1.55
   2   2  12   36.75    1.37
   2   2  12   36.22    1.62
   2   2  12   34.92    1.44
   2   2  12   34.90    1.09
   3   2  12  164.37    6.15
   3   2  12  160.56    5.65
   3   2  12  157.84    5.19
   3   2  12  169.29    6.79
   3   2  12  157.31    6.41
   3   2  12  154.84    4.62
   3   2  12  160.26    4.87
   3   2  12  168.31    5.78
   3   2  12  159.55    4.97
   4   2  12    1.58    0.15
   4   2  12    1.36    0.17
   4   2  12    1.07    0.20
   4   2  12    0.89    0.13
   4   2  12    0.84    0.23
   4   2  12    0.76    0.19
   4   2  12    0.84    0.21
   4   2  12    0.99    0.13
   4   2  12    0.79    0.22
   5   2  12   44.91    1.80
   5   2  12   44.03    1.52
   5   2  12   42.93    1.39
   5   2  12   41.96    1.64
   5   2  12   43.77    1.65
   5   2  12   41.55    1.97
   5   2  12   42.80    1.31
   5   2  12   42.87    1.88
   5   2  12   43.65    1.41
   6   2  12   34.74    1.13
   6   2  12   34.21    1.57
   6   2  12   34.43    1.31
   6   2  12   35.13    1.05
   6   2  12   33.62    1.48
   6   2  12   33.92    1.42
   6   2  12   34.53    1.20
   6   2  12   33.65    1.11
   7   2  12    0.35    0.07
  -3   3  12    8.72    0.40
  -3   3  12    9.06    0.31
  -3   3  12    8.55    0.43
  -3   3  12    8.86    0.33
  -3   3  12    8.68    0.46
   2  -3 -12   29.07    1.66
  -2   3  12   35.42    1.40
  -2   3  12   34.18    1.34
  -2   3  12   38.36    1.16
  -2   3  12   37.72    1.07
  -2   3  12   37.45    1.35
  -2   3  12   34.47    1.13
  -1   3  12    2.40    0.17
  -1   3  12    2.32    0.16
  -1   3  12    1.83    0.22
  -1   3  12    2.21    0.20
  -1   3  12    2.26    0.22
  -1   3  12    2.19    0.26
  -1   3  12    2.30    0.17
  -1   3  12    2.62    0.29
   0   3  12    4.31    0.38
   0   3  12    4.32    0.24
   0   3  12    4.39    0.28
   0   3  12    4.71    0.23
   0   3  12    5.27    0.37
   0   3  12    5.36    0.35
   0   3  12    4.35    0.36
   0   3  12    4.46    0.43
   0   3  12    4.77    0.25
   1   3  12   14.38    0.55
   1   3  12   15.25    0.55
   1   3  12   14.37    0.51
   1   3  12   14.43    0.71
   1   3  12   14.98    0.64
   1   3  12   14.07    0.76
   1   3  12   14.76    0.70
   1   3  12   15.34    0.86
   1   3  12   14.92    0.66
   2   3  12    3.27    0.21
   2   3  12    3.15    0.24
   2   3  12    2.70    0.34
   2   3  12    2.69    0.19
   2   3  12    3.01    0.32
   2   3  12    3.02    0.20
   2   3  12    2.44    0.34
   2   3  12    2.52    0.30
   2   3  12    3.38    0.31
   2   3  12    3.30    0.32
   3   3  12    0.21    0.20
   3   3  12    0.41    0.12
   3   3  12    0.45    0.21
   3   3  12    0.01    0.16
   3   3  12    0.24    0.09
   3   3  12    0.14    0.14
   3   3  12    0.33    0.10
   3   3  12    0.21    0.09
   3   3  12    0.27    0.16
   4   3  12    0.93    0.25
   4   3  12    0.46    0.11
   4   3  12    0.53    0.16
   4   3  12    0.45    0.12
   4   3  12    0.25    0.17
   4   3  12    0.92    0.23
   4   3  12    0.48    0.10
   4   3  12    0.42    0.10
   4   3  12    0.31    0.18
   5   3  12    1.23    0.22
   5   3  12    1.43    0.15
   5   3  12    1.10    0.18
   5   3  12    1.50    0.15
   5   3  12    1.06    0.23
   5   3  12    1.10    0.21
   5   3  12    1.05    0.12
   5   3  12    1.23    0.17
   6   3  12    6.02    0.39
   6   3  12    6.28    0.43
   6   3  12    5.98    0.34
   6   3  12    6.01    0.37
   6   3  12    6.34    0.26
   6   3  12    6.15    0.45
   6   3  12    6.44    0.29
   6   3  12    5.79    0.29
   7   3  12    5.19    0.22
   7   3  12    4.67    0.31
   7   3  12    4.99    0.30
   2  -4 -12   35.86    1.31
  -2   4  12   40.36    1.15
  -2   4  12   39.27    1.24
  -2   4  12   38.88    1.40
  -2   4  12   38.29    1.47
  -2   4  12   39.70    1.55
  -2   4  12   37.36    1.22
   1  -4 -12   22.96    1.11
  -1   4  12   26.67    0.89
  -1   4  12   28.41    1.16
  -1   4  12   27.48    1.10
  -1   4  12   28.73    0.84
  -1   4  12   28.65    1.06
  -1   4  12   24.90    1.05
  -1   4  12   27.82    0.91
  -1   4  12   26.43    0.96
   0   4  12   20.39    0.89
   0   4  12   21.67    0.69
   0   4  12   20.91    0.92
   0   4  12   21.75    0.75
   0   4  12   20.28    0.87
   0   4  12   21.75    0.74
   0   4  12   21.67    0.83
   0   4  12   22.17    0.98
   0   4  12   21.84    0.89
   0   4  12   21.72    1.09
   1   4  12   47.27    1.79
   1   4  12   50.74    2.18
   1   4  12   47.46    1.79
   1   4  12   46.47    1.55
   1   4  12   49.58    1.52
   1   4  12   45.64    1.65
   1   4  12   47.13    1.95
   1   4  12   46.99    1.80
   1   4  12   47.23    1.43
   2   4  12    3.81    0.26
   2   4  12    3.54    0.34
   2   4  12    3.11    0.20
   2   4  12    3.56    0.34
   2   4  12    3.24    0.31
   2   4  12    3.39    0.21
   2   4  12    3.18    0.36
   2   4  12    3.19    0.39
   2   4  12    2.61    0.26
   2   4  12    3.64    0.22
   3   4  12    3.80    0.36
   3   4  12    4.03    0.34
   3   4  12    4.10    0.25
   3   4  12    4.24    0.37
   3   4  12    4.83    0.34
   3   4  12    4.21    0.29
   3   4  12    4.33    0.23
   3   4  12    4.30    0.24
   3   4  12    4.98    0.44
   3   4  12    4.81    0.41
   4   4  12    8.04    0.37
   4   4  12    8.37    0.58
   4   4  12    8.09    0.34
   4   4  12    7.63    0.43
   4   4  12    8.16    0.44
   4   4  12    8.66    0.37
   4   4  12    8.49    0.52
   4   4  12    7.74    0.46
   4   4  12    8.77    0.50
   4   4  12    7.46    0.54
   5   4  12    1.77    0.17
   5   4  12    1.14    0.21
   5   4  12    1.41    0.26
   5   4  12    1.13    0.14
   5   4  12    1.15    0.13
   5   4  12    1.40    0.19
   5   4  12    1.46    0.26
   5   4  12    1.21    0.20
   5   4  12    1.40    0.18
   6   4  12   38.64    1.24
   6   4  12   36.48    1.69
   6   4  12   36.23    1.22
   6   4  12   38.84    1.54
   6   4  12   38.10    1.41
   6   4  12   37.20    1.61
   6   4  12   38.15    1.30
   6   4  12   38.62    1.14
   7   4  12   13.19    0.62
   7   4  12   13.46    0.49
   7   4  12   14.35    0.62
   1  -5 -12    2.67    0.25
   1  -5 -12    3.27    0.26
  -1   5  12    2.90    0.15
  -1   5  12    2.55    0.21
  -1   5  12    2.65    0.17
  -1   5  12    2.29    0.22
  -1   5  12    3.06    0.24
   0  -5 -12    0.39    0.25
   0   5  12    0.89    0.12
   0   5  12    0.24    0.11
   0   5  12    0.51    0.10
   0   5  12    0.76    0.15
   0   5  12    0.50    0.08
   0   5  12    0.41    0.13
   0   5  12    0.39    0.13
   0   5  12    0.41    0.12
   1   5  12   40.16    1.35
   1   5  12   38.12    1.45
   1   5  12   38.79    1.27
   1   5  12   38.57    1.76
   1   5  12   35.55    1.47
   1   5  12   38.35    1.24
   1   5  12   38.29    1.46
   1   5  12   39.90    1.17
   1   5  12   38.49    1.58
   2   5  12   19.65    0.67
   2   5  12   20.98    0.74
   2   5  12   20.28    0.93
   2   5  12   21.22    1.05
   2   5  12   20.65    0.88
   2   5  12   20.05    0.96
   2   5  12   20.90    0.72
   2   5  12   21.43    0.81
   2   5  12   20.39    0.86
   2   5  12   19.15    0.85
   3   5  12    1.14    0.14
   3   5  12    0.97    0.20
   3   5  12    1.03    0.11
   3   5  12    1.53    0.20
   3   5  12    1.10    0.20
   3   5  12    1.18    0.14
   3   5  12    1.09    0.23
   3   5  12    0.96    0.10
   3   5  12    1.52    0.20
   3   5  12    0.98    0.15
   3   5  12    0.97    0.20
   4   5  12   41.30    1.86
   4   5  12   42.46    1.24
   4   5  12   40.64    1.53
   4   5  12   41.91    1.68
   4   5  12   41.04    1.43
   4   5  12   41.83    1.35
   4   5  12   38.17    1.57
   4   5  12   42.72    1.56
   4   5  12   40.44    1.32
   4   5  12   38.99    1.59
   5   5  12    6.27    0.47
   5   5  12    7.07    0.37
   5   5  12    6.51    0.37
   5   5  12    7.16    0.40
   5   5  12    7.63    0.47
   5   5  12    6.87    0.37
   5   5  12    6.92    0.29
   5   5  12    7.75    0.43
   5   5  12    6.71    0.31
   5   5  12    7.37    0.33
   6   5  12   14.01    0.52
   6   5  12   13.74    0.65
   6   5  12   13.81    0.46
   6   5  12   15.17    0.69
   6   5  12   13.51    0.59
   7   5  12   13.97    0.61
   7   5  12   14.21    0.50
   0  -6 -12    0.54    0.14
   0  -6 -12    0.24    0.12
   0   6  12    0.22    0.09
   0   6  12    0.16    0.06
   1   6  12   14.37    0.56
   1   6  12   14.68    0.60
   1   6  12   14.13    0.52
   1   6  12   14.16    0.47
   2   6  12   56.13    2.22
   2   6  12   58.40    1.83
   2   6  12   59.28    1.68
   2   6  12   53.33    1.78
   2   6  12   56.71    2.05
   2   6  12   57.13    2.06
   2   6  12   58.86    1.90
   3   6  12    5.04    0.31
   3   6  12    4.77    0.32
   3   6  12    4.33    0.24
   3   6  12    4.65    0.28
   3   6  12    5.31    0.26
   3   6  12    4.98    0.32
   3   6  12    4.35    0.38
   3   6  12    4.98    0.22
   3   6  12    4.09    0.32
   4   6  12   38.10    1.22
   4   6  12   37.43    1.38
   4   6  12   36.27    1.48
   4   6  12   37.48    1.11
   4   6  12   34.29    1.20
   4   6  12   38.32    1.57
   4   6  12   37.31    1.37
   4   6  12   36.42    1.25
   4   6  12   35.52    1.64
   5   6  12    8.07    0.43
   5   6  12    7.92    0.36
   5   6  12    8.00    0.39
   5   6  12    8.03    0.40
   5   6  12    8.59    0.47
   5   6  12    8.98    0.35
   6   6  12    3.87    0.25
   6   6  12    4.32    0.28
   6   6  12    4.68    0.22
  -1  -7 -12    0.40    0.12
  -2  -7 -12   27.94    1.13
  -2  -7 -12   28.42    1.26
  -2  -7 -12   28.04    1.04
   2   7  12   30.57    1.07
   2   7  12   30.47    0.99
   2   7  12   29.24    0.95
  -3  -7 -12    0.25    0.16
   3   7  12    0.68    0.10
   3   7  12    0.48    0.10
   3   7  12    0.48    0.09
   4   7  12   10.61    0.40
   4   7  12   10.19    0.45
   4   7  12   10.05    0.42
   4   7  12   10.76    0.45
   5   7  12   16.63    0.64
   5   7  12   16.23    0.57
   3  -2  13    0.30    0.06
   3  -2  13    0.40    0.15
   3  -2  13    0.32    0.14
   4  -2  13   15.03    0.46
   4  -2  13   14.52    0.69
  -3  -1  13   49.40    1.86
  -3  -1  13   49.40    1.78
  -3  -1  13   47.66    1.42
  -3  -1  13   47.92    1.47
  -2  -1  13   22.20    0.94
   2  -1  13   12.98    0.71
   3  -1  13   37.43    1.39
   3  -1  13   35.54    1.12
   3  -1  13   33.99    1.06
   3  -1  13   35.95    1.56
   3  -1  13   37.37    1.28
   4  -1  13   10.47    0.57
   4  -1  13   10.63    0.37
   4  -1  13   10.41    0.35
   4  -1  13   10.70    0.51
   4  -1  13   10.33    0.46
  -3   0  13    7.28    0.27
  -3   0  13    6.73    0.26
  -3   0  13    7.26    0.41
  -3   0  13    6.69    0.39
  -2   0  13   11.01    0.55
  -2   0  13   11.20    0.38
  -2   0  13   10.23    0.37
  -1   0  13    0.56    0.07
  -1   0  13    0.43    0.17
   2   0  13    0.43    0.21
   2   0  13    0.45    0.21
   2   0  13    0.53    0.08
   2   0  13    0.51    0.17
   2   0  13    0.55    0.20
   3   0  13    6.95    0.28
   3   0  13    7.02    0.44
   3   0  13    6.67    0.48
   3   0  13    6.44    0.29
   3   0  13    7.27    0.41
   3   0  13    6.48    0.26
   3   0  13    6.83    0.52
   4   0  13    2.17    0.25
   4   0  13    1.94    0.14
   4   0  13    2.49    0.29
   4   0  13    1.90    0.14
   4   0  13    1.66    0.27
   4   0  13    1.86    0.21
   5   0  13    0.32    0.07
   5   0  13    0.28    0.10
   5   0  13    0.24    0.07
   5   0  13    0.13    0.12
   5   0  13    0.12    0.13
  -3   1  13   57.83    1.80
  -3   1  13   59.65    2.19
  -3   1  13   58.79    2.29
  -3   1  13   59.29    1.71
  -3   1  13   59.05    2.11
  -2   1  13   33.58    1.35
  -2   1  13   34.29    1.25
  -2   1  13   33.11    1.40
  -2   1  13   32.75    1.01
  -2   1  13   33.16    1.07
  -2   1  13   35.74    1.31
  -1   1  13   14.10    0.48
  -1   1  13   13.35    0.46
  -1   1  13   13.79    0.71
  -1   1  13   14.16    0.66
  -1   1  13   13.85    0.55
   0   1  13   41.56    1.54
   0   1  13   38.04    1.43
   0   1  13   39.37    1.23
   0   1  13   39.57    1.66
   1   1  13   35.54    1.67
   1   1  13   35.73    1.39
   1   1  13   35.66    1.51
   1   1  13   35.44    1.28
   1   1  13   34.93    1.29
   1   1  13   34.95    1.11
   2   1  13   17.21    0.81
   2   1  13   17.00    0.89
   2   1  13   17.48    0.96
   2   1  13   16.82    0.67
   2   1  13   17.30    0.86
   2   1  13   18.26    0.60
   2   1  13   17.79    0.75
   3   1  13   79.91    3.00
   3   1  13   84.02    3.26
   3   1  13   80.53    3.40
   3   1  13   86.08    3.01
   3   1  13   84.52    2.77
   3   1  13   84.64    3.61
   3   1  13   82.89    2.42
   3   1  13   84.87    2.55
   4   1  13   13.02    0.58
   4   1  13   12.56    0.62
   4   1  13   12.26    0.46
   4   1  13   12.81    0.70
   4   1  13   12.28    0.65
   4   1  13   12.63    0.74
   4   1  13   12.41    0.53
   4   1  13   12.39    0.44
   4   1  13   12.90    0.43
   5   1  13   30.36    0.92
   5   1  13   29.62    0.96
   5   1  13   29.64    1.24
   5   1  13   31.03    1.07
   5   1  13   30.17    1.16
   5   1  13   30.82    0.95
   5   1  13   29.36    1.32
   5   1  13   29.01    1.39
   6   1  13   27.43    0.93
   6   1  13   26.42    1.14
   6   1  13   27.11    0.81
  -3   2  13   12.52    0.59
  -3   2  13   13.16    0.55
  -3   2  13   13.21    0.42
  -2   2  13    4.39    0.31
  -2   2  13    4.68    0.34
  -2   2  13    4.59    0.18
  -2   2  13    4.49    0.30
  -2   2  13    4.27    0.20
  -2   2  13    4.45    0.21
  -1   2  13    1.55    0.23
  -1   2  13    1.26    0.11
  -1   2  13    1.42    0.11
  -1   2  13    1.49    0.13
  -1   2  13    1.11    0.18
  -1   2  13    1.29    0.14
   0   2  13    0.51    0.10
   0   2  13    0.54    0.19
   0   2  13    0.69    0.09
   0   2  13    0.60    0.08
   0   2  13    0.72    0.16
   0   2  13    0.60    0.09
   0   2  13    0.86    0.20
   0   2  13    0.48    0.16
   1   2  13    3.66    0.40
   1   2  13    3.49    0.34
   1   2  13    3.15    0.16
   1   2  13    3.47    0.21
   1   2  13    3.59    0.34
   1   2  13    3.98    0.20
   1   2  13    3.52    0.34
   1   2  13    3.38    0.31
   1   2  13    3.54    0.19
   2   2  13    3.91    0.36
   2   2  13    3.65    0.20
   2   2  13    3.73    0.17
   2   2  13    3.55    0.20
   2   2  13    3.65    0.41
   2   2  13    3.59    0.32
   2   2  13    3.26    0.38
   2   2  13    3.81    0.36
   2   2  13    3.53    0.22
   3   2  13    0.32    0.09
   3   2  13    0.37    0.07
   3   2  13    0.35    0.09
   3   2  13    0.12    0.14
   3   2  13    0.20    0.16
   3   2  13    0.16    0.17
   3   2  13    0.29    0.08
   3   2  13    0.45    0.21
   3   2  13    0.33    0.19
   4   2  13    1.12    0.23
   4   2  13    0.99    0.11
   4   2  13    1.01    0.24
   4   2  13    0.88    0.13
   4   2  13    0.87    0.19
   4   2  13    0.83    0.10
   4   2  13    1.11    0.12
   4   2  13    0.73    0.20
   4   2  13    0.86    0.18
   5   2  13   25.06    1.23
   5   2  13   25.90    1.16
   5   2  13   26.97    0.85
   5   2  13   25.67    1.03
   5   2  13   25.68    0.80
   5   2  13   26.98    1.11
   5   2  13   24.44    1.02
   5   2  13   24.63    0.84
   5   2  13   25.57    0.94
   6   2  13    0.14    0.10
   6   2  13    0.18    0.05
   6   2  13    0.18    0.10
   6   2  13    0.09    0.06
   6   2  13    0.13    0.12
   6   2  13    0.12    0.08
  -2   3  13   40.15    1.19
  -2   3  13   40.31    1.47
  -2   3  13   40.24    1.61
  -2   3  13   39.37    1.26
  -2   3  13   40.43    1.27
  -2   3  13   42.25    1.54
  -1   3  13   43.06    1.24
  -1   3  13   41.68    1.60
  -1   3  13   40.56    1.30
  -1   3  13   43.04    1.55
  -1   3  13   42.24    1.32
  -1   3  13   43.63    1.69
  -1   3  13   39.66    1.39
  -1   3  13   38.79    1.54
   0   3  13   14.10    0.63
   0   3  13   13.34    0.46
   0   3  13   13.21    0.57
   0   3  13   13.27    0.75
   0   3  13   13.78    0.49
   0   3  13   13.61    0.61
   0   3  13   13.50    0.69
   0   3  13   12.56    0.57
   0   3  13   13.96    0.49
   1   3  13   63.39    2.32
   1   3  13   64.02    2.80
   1   3  13   65.51    1.98
   1   3  13   62.68    1.87
   1   3  13   62.28    2.34
   1   3  13   64.97    2.54
   1   3  13   63.48    2.00
   1   3  13   64.90    2.33
   1   3  13   63.79    2.14
   2   3  13    1.12    0.20
   2   3  13    0.91    0.20
   2   3  13    1.15    0.24
   2   3  13    0.82    0.22
   2   3  13    0.92    0.11
   2   3  13    1.05    0.12
   2   3  13    0.95    0.11
   2   3  13    1.06    0.14
   2   3  13    0.80    0.20
   2   3  13    1.08    0.19
   3   3  13   75.74    3.39
   3   3  13   77.18    2.29
   3   3  13   77.00    3.20
   3   3  13   77.90    2.45
   3   3  13   77.76    2.86
   3   3  13   79.81    2.41
   3   3  13   79.31    2.61
   3   3  13   81.33    3.08
   3   3  13   79.47    2.83
   4   3  13   22.85    0.95
   4   3  13   22.59    0.76
   4   3  13   22.91    0.87
   4   3  13   23.16    1.03
   4   3  13   22.07    0.72
   4   3  13   22.67    0.76
   4   3  13   22.29    1.07
   4   3  13   21.35    0.89
   4   3  13   21.91    1.13
   5   3  13   36.87    1.15
   5   3  13   36.17    1.35
   5   3  13   36.13    1.08
   5   3  13   35.63    1.24
   5   3  13   33.39    1.61
   5   3  13   36.41    1.54
   5   3  13   34.12    1.14
   5   3  13   34.93    1.35
   5   3  13   35.71    1.47
   6   3  13   40.32    1.48
   6   3  13   41.26    1.21
   6   3  13   40.87    1.29
   6   3  13   39.60    1.69
   6   3  13   41.43    1.37
   6   3  13   41.55    1.62
   1  -4 -13    6.32    0.37
  -1   4  13    7.43    0.40
  -1   4  13    6.89    0.27
  -1   4  13    6.68    0.37
  -1   4  13    7.07    0.26
  -1   4  13    6.79    0.28
  -1   4  13    7.20    0.35
   0   4  13    3.32    0.17
   0   4  13    3.19    0.18
   0   4  13    3.26    0.26
   0   4  13    2.97    0.23
   0   4  13    3.30    0.25
   0   4  13    3.14    0.18
   0   4  13    2.96    0.28
   0   4  13    2.99    0.21
   1   4  13    2.70    0.17
   1   4  13    2.41    0.17
   1   4  13    2.53    0.20
   1   4  13    2.66    0.24
   1   4  13    2.56    0.16
   1   4  13    2.72    0.28
   1   4  13    2.28    0.24
   1   4  13    2.45    0.24
   1   4  13    2.48    0.31
   2   4  13    7.13    0.31
   2   4  13    6.60    0.50
   2   4  13    7.27    0.31
   2   4  13    6.63    0.40
   2   4  13    7.08    0.37
   2   4  13    6.93    0.45
   2   4  13    7.88    0.46
   2   4  13    7.55    0.40
   2   4  13    6.98    0.43
   2   4  13    7.34    0.29
   3   4  13    0.04    0.08
   3   4  13    0.15    0.17
   3   4  13    0.36    0.14
   3   4  13    0.08    0.07
   3   4  13    0.00    0.14
   3   4  13    0.04    0.13
   3   4  13    0.04    0.16
   3   4  13    0.09    0.07
   3   4  13    0.15    0.08
   3   4  13    0.19    0.12
   4   4  13   11.97    0.57
   4   4  13   11.77    0.41
   4   4  13   10.75    0.66
   4   4  13   11.55    0.44
   4   4  13   11.25    0.52
   4   4  13   12.27    0.61
   4   4  13   10.61    0.63
   4   4  13   11.78    0.44
   4   4  13   11.74    0.51
   5   4  13    2.32    0.15
   5   4  13    1.79    0.15
   5   4  13    2.46    0.25
   5   4  13    2.44    0.16
   5   4  13    2.37    0.28
   5   4  13    1.78    0.20
   5   4  13    2.39    0.21
   5   4  13    2.08    0.24
   6   4  13    1.22    0.11
   6   4  13    1.07    0.14
   6   4  13    1.09    0.12
   6   4  13    0.94    0.15
   6   4  13    1.13    0.10
   6   4  13    1.47    0.17
   0  -5 -13    2.91    0.29
   0   5  13    3.76    0.26
   0   5  13    3.59    0.23
   0   5  13    3.69    0.21
   0   5  13    3.86    0.17
   0   5  13    4.10    0.18
   1   5  13   44.01    1.59
   1   5  13   43.05    1.58
   1   5  13   43.38    1.46
   1   5  13   44.29    1.29
   1   5  13   41.60    1.36
   1   5  13   44.35    1.39
   1   5  13   43.47    1.72
   2   5  13   13.48    0.55
   2   5  13   13.63    0.45
   2   5  13   12.33    0.56
   2   5  13   13.32    0.59
   2   5  13   13.36    0.72
   2   5  13   13.37    0.59
   2   5  13   13.22    0.63
   2   5  13   12.27    0.47
   2   5  13   13.20    0.48
   3   5  13   10.10    0.60
   3   5  13   10.69    0.54
   3   5  13   10.40    0.50
   3   5  13   10.00    0.47
   3   5  13   10.99    0.47
   3   5  13   10.37    0.37
   3   5  13   10.08    0.40
   3   5  13   10.89    0.41
   3   5  13    9.67    0.54
   3   5  13   10.00    0.48
   4   5  13   70.80    2.01
   4   5  13   68.44    2.67
   4   5  13   70.55    2.26
   4   5  13   67.50    2.95
   4   5  13   66.71    2.13
   4   5  13   67.78    2.78
   4   5  13   67.65    2.44
   4   5  13   71.31    2.17
   4   5  13   71.32    2.46
   5   5  13    9.61    0.48
   5   5  13    9.72    0.37
   5   5  13   10.35    0.38
   5   5  13    9.47    0.41
   5   5  13    9.34    0.44
   5   5  13   10.09    0.34
   5   5  13    9.36    0.51
   6   5  13   16.95    0.77
   6   5  13   17.69    0.74
   6   5  13   18.43    0.60
  -1  -6 -13    4.64    0.32
  -1  -6 -13    4.67    0.29
   1   6  13    5.28    0.26
   1   6  13    5.42    0.24
   1   6  13    4.93    0.22
  -2  -6 -13    9.65    0.60
   2   6  13   11.29    0.48
   2   6  13   11.06    0.51
   2   6  13   11.99    0.42
   2   6  13   11.53    0.37
   2   6  13   11.31    0.48
   2   6  13   11.73    0.45
  -3  -6 -13    0.10    0.17
   3   6  13    0.34    0.06
   3   6  13    0.27    0.07
   3   6  13    0.40    0.09
   3   6  13    0.38    0.10
   3   6  13    0.28    0.10
   3   6  13    0.38    0.11
   4   6  13   16.30    0.65
   4   6  13   16.55    0.60
   4   6  13   15.64    0.69
   4   6  13   16.67    0.57
   4   6  13   16.21    0.65
   4   6  13   16.23    0.51
   5   6  13   23.75    0.98
   5   6  13   22.37    0.93
   5   6  13   22.91    0.76
   3  -1  14    2.02    0.12
   3  -1  14    1.90    0.22
  -2   0  14   29.34    1.10
  -2   0  14   28.72    0.86
   2   0  14    2.26    0.23
   3   0  14   55.11    1.98
   3   0  14   53.27    1.58
   3   0  14   55.33    1.82
   3   0  14   53.85    2.24
   3   0  14   54.71    1.64
   4   0  14    4.92    0.33
   4   0  14    4.80    0.31
   4   0  14    4.68    0.19
   4   0  14    4.73    0.27
  -2   1  14    5.65    0.32
  -2   1  14    5.63    0.34
  -2   1  14    5.37    0.21
  -1   1  14    3.18    0.14
  -1   1  14    2.90    0.15
  -1   1  14    3.08    0.28
  -1   1  14    2.79    0.26
   0   1  14    8.24    0.46
   0   1  14    7.43    0.27
   1   1  14    0.36    0.16
   1   1  14    0.30    0.06
   2   1  14    5.66    0.22
   2   1  14    5.60    0.38
   2   1  14    5.67    0.35
   2   1  14    5.35    0.44
   2   1  14    5.62    0.39
   3   1  14    5.74    0.23
   3   1  14    5.82    0.23
   3   1  14    5.87    0.41
   3   1  14    5.66    0.39
   3   1  14    5.95    0.35
   3   1  14    5.81    0.44
   3   1  14    5.61    0.38
   4   1  14    6.26    0.24
   4   1  14    5.97    0.36
   4   1  14    6.47    0.34
   4   1  14    6.11    0.24
   4   1  14    5.78    0.40
   5   1  14    1.86    0.11
   5   1  14    1.92    0.19
   5   1  14    1.82    0.17
   5   1  14    1.69    0.20
  -2   2  14   44.21    1.31
  -2   2  14   45.14    1.75
  -2   2  14   45.73    1.61
  -1   2  14   10.36    0.53
  -1   2  14   10.19    0.36
  -1   2  14   10.06    0.35
  -1   2  14   10.73    0.48
   0   2  14   22.98    0.69
   0   2  14   23.60    0.91
   0   2  14   22.52    0.98
   0   2  14   20.42    1.10
   0   2  14   21.80    0.72
   1   2  14   38.70    1.50
   1   2  14   41.77    1.87
   1   2  14   42.27    1.54
   1   2  14   41.58    1.23
   1   2  14   43.56    1.43
   1   2  14   43.30    1.70
   1   2  14   41.22    1.29
   1   2  14   40.53    1.56
   2   2  14    0.86    0.19
   2   2  14    1.16    0.18
   2   2  14    1.12    0.10
   2   2  14    1.11    0.10
   2   2  14    1.08    0.10
   2   2  14    1.16    0.23
   2   2  14    1.28    0.20
   3   2  14   99.92    3.17
   3   2  14   95.73    4.13
   3   2  14   97.56    2.95
   3   2  14   96.21    2.81
   3   2  14   99.55    3.44
   3   2  14  100.55    3.75
   3   2  14   94.67    3.89
   4   2  14   13.70    0.65
   4   2  14   13.57    0.45
   4   2  14   14.04    0.70
   4   2  14   13.68    0.48
   4   2  14   13.88    0.62
   4   2  14   14.39    0.57
   4   2  14   13.60    0.74
   5   2  14   18.22    0.57
   5   2  14   17.78    0.82
   5   2  14   17.46    0.67
   5   2  14   19.37    0.78
   5   2  14   18.42    0.73
  -1   3  14    5.63    0.31
  -1   3  14    5.99    0.34
  -1   3  14    6.20    0.22
   0   3  14   21.68    0.84
   0   3  14   20.96    0.65
   0   3  14   22.19    0.93
   0   3  14   20.58    0.69
   0   3  14   20.57    0.76
   1   3  14    1.63    0.21
   1   3  14    1.56    0.12
   1   3  14    1.24    0.16
   1   3  14    1.81    0.19
   1   3  14    1.52    0.12
   1   3  14    1.52    0.23
   1   3  14    1.62    0.19
   1   3  14    1.57    0.09
   2   3  14    5.76    0.24
   2   3  14    6.03    0.40
   2   3  14    5.80    0.22
   2   3  14    6.32    0.35
   2   3  14    5.42    0.43
   2   3  14    5.99    0.34
   2   3  14    6.36    0.38
   2   3  14    5.83    0.28
   2   3  14    6.16    0.25
   3   3  14    1.83    0.22
   3   3  14    1.81    0.25
   3   3  14    2.05    0.16
   3   3  14    2.17    0.11
   3   3  14    2.34    0.25
   3   3  14    2.14    0.14
   3   3  14    2.02    0.14
   3   3  14    1.85    0.24
   3   3  14    1.75    0.19
   4   3  14    8.74    0.33
   4   3  14    9.23    0.48
   4   3  14    8.80    0.45
   4   3  14    8.01    0.49
   4   3  14    8.06    0.53
   4   3  14    9.10    0.31
   4   3  14    8.63    0.41
   4   3  14    8.97    0.32
   5   3  14    1.62    0.17
   5   3  14    1.55    0.15
   5   3  14    1.76    0.11
   5   3  14    1.58    0.17
   5   3  14    1.21    0.17
   5   3  14    1.41    0.08
   0   4  14    5.51    0.32
   0   4  14    5.43    0.20
   0   4  14    5.46    0.26
   0   4  14    5.67    0.21
   0   4  14    5.25    0.29
   1   4  14   39.85    1.26
   1   4  14   39.67    1.35
   1   4  14   40.48    1.19
   1   4  14   40.06    1.46
   1   4  14   40.23    1.26
   1   4  14   41.29    1.48
   1   4  14   40.78    1.61
   2   4  14   22.35    0.94
   2   4  14   20.41    1.02
   2   4  14   21.48    0.71
   2   4  14   21.35    0.70
   2   4  14   21.95    0.67
   2   4  14   21.14    0.78
   2   4  14   21.44    0.85
   2   4  14   21.46    0.85
   3   4  14   10.65    0.36
   3   4  14    9.87    0.46
   3   4  14   10.06    0.58
   3   4  14   10.65    0.38
   3   4  14   10.32    0.45
   3   4  14   10.22    0.36
   3   4  14    9.84    0.48
   3   4  14    9.83    0.53
   3   4  14   10.83    0.53
   4   4  14   67.72    2.87
   4   4  14   72.24    2.33
   4   4  14   73.78    2.22
   4   4  14   74.48    2.77
   4   4  14   73.66    2.08
   4   4  14   71.18    2.53
   4   4  14   71.02    2.19
   5   4  14    0.51    0.11
   5   4  14    0.40    0.11
   5   4  14    0.28    0.09
   5   4  14    0.34    0.05
   5   4  14    0.31    0.06
   5   4  14    0.33    0.11
   1   5  14    3.50    0.15
   1   5  14    3.22    0.18
   1   5  14    3.20    0.14
   1   5  14    3.35    0.20
   1   5  14    3.33    0.23
   2   5  14    1.70    0.11
   2   5  14    1.71    0.17
   2   5  14    2.02    0.17
   2   5  14    1.91    0.16
   2   5  14    1.84    0.11
   2   5  14    1.94    0.19
  -3  -5 -14   -0.11    0.16
   3   5  14    0.25    0.06
   3   5  14    0.20    0.09
   3   5  14    0.27    0.09
   3   5  14    0.17    0.09
   3   5  14    0.17    0.05
   3   5  14    0.22    0.06
   3   5  14    0.14    0.09
   4   5  14    0.55    0.07
   4   5  14    0.51    0.11
   4   5  14    0.65    0.11
   4   5  14    0.41    0.06
   4   5  14    0.33    0.09
   4   5  14    0.54    0.11
   5   5  14    0.32    0.09
   5   5  14    0.17    0.05
   5   5  14    0.10    0.08
   2   1  15    1.94    0.18
   3   1  15   20.17    0.61
   3   1  15   20.52    0.72
   0   2  15    2.50    0.22
   0   2  15    2.46    0.12
   1   2  15    6.08    0.35
   1   2  15    5.74    0.21
   2   2  15    2.13    0.22
   2   2  15    2.06    0.12
   2   2  15    2.04    0.20
   2   2  15    2.01    0.18
   3   2  15   22.07    0.89
   3   2  15   20.80    0.75
   3   2  15   20.75    0.64
   3   2  15   20.72    0.81
   4   2  15    0.56    0.06
   4   2  15    0.60    0.09
   0   3  15    5.67    0.21
   1   3  15   21.97    0.78
   1   3  15   23.02    0.94
   1   3  15   22.91    0.68
   2   3  15   37.37    1.26
   2   3  15   38.29    1.50
   2   3  15   37.95    1.10
   2   3  15   37.26    1.36
   3   3  15    0.40    0.09
   3   3  15    0.42    0.11
   3   3  15    0.51    0.06
   3   3  15    0.31    0.11
   4   3  15   24.93    0.75
   4   3  15   25.59    1.03
   4   3  15   25.44    0.86
   2   4  15    0.10    0.08
   2   4  15    0.08    0.04
   2   4  15    0.13    0.07
   3   4  15    1.71    0.14
   3   4  15    1.72    0.10
   3   4  15    1.85    0.17
   0   0   0    0.00    0.00
;
_shelx_hkl_checksum              95044
#END Tags that were not found in dictionaries
loop_
_space_group_symop_operation_xyz
'x, y, z'
'-x, -y, -z'
loop_
_atom_site_label
_atom_site_type_symbol
_atom_site_fract_x
_atom_site_fract_y
_atom_site_fract_z
_atom_site_U_iso_or_equiv
_atom_site_adp_type
_atom_site_occupancy
_atom_site_site_symmetry_order
_atom_site_calc_flag
_atom_site_refinement_flags_posn
_atom_site_refinement_flags_adp
Se1 Se 0.30874(3) 0.29649(3) 0.32645(2) 0.01014(10) Uani 1 1 d . .
Zn1 Zn 0.68800(4) 0.17679(4) 0.25373(2) 0.00875(11) Uani 1 1 d . .
O1 O 0.6118(2) 0.3600(2) 0.09185(14) 0.0130(4) Uani 1 1 d . .
O2 O 0.8967(2) 0.1940(2) 0.12164(14) 0.0148(4) Uani 1 1 d . .
O3 O 0.8388(3) 0.3551(3) -0.03000(15) 0.0218(4) Uani 1 1 d . .
O4 O 0.7142(3) 0.0250(2) 0.44644(16) 0.0203(4) Uani 1 1 d . .
O5 O 0.9308(3) -0.0088(2) 0.31324(14) 0.0161(4) Uani 1 1 d . .
O6 O 0.9964(3) -0.1731(2) 0.46209(15) 0.0191(4) Uani 1 1 d . .
N1 N 0.6465(3) 0.4027(3) 0.31832(15) 0.0085(4) Uani 1 1 d . .
N2 N 0.6152(3) 0.0113(3) 0.18215(16) 0.0099(4) Uani 1 1 d . .
N3 N 0.7832(3) 0.3047(3) 0.05855(17) 0.0115(4) Uani 1 1 d . .
N4 N 0.8807(3) -0.0540(3) 0.41060(17) 0.0121(4) Uani 1 1 d . .
C1 C 0.7922(3) 0.4133(3) 0.35371(19) 0.0107(5) Uani 1 1 d . .
H1 H 0.9109 0.3162 0.3472 0.013 Uiso 1 1 calc R U
C2 C 0.7765(3) 0.5601(3) 0.39922(19) 0.0127(5) Uani 1 1 d . .
H2 H 0.8828 0.5645 0.4223 0.015 Uiso 1 1 calc R U
C3 C 0.6034(4) 0.7002(3) 0.4105(2) 0.0130(5) Uani 1 1 d . .
H3 H 0.5886 0.8023 0.4419 0.016 Uiso 1 1 calc R U
C4 C 0.4508(3) 0.6898(3) 0.37520(19) 0.0111(5) Uani 1 1 d . .
H4 H 0.3303 0.7842 0.3830 0.013 Uiso 1 1 calc R U
C5 C 0.4769(3) 0.5395(3) 0.32839(18) 0.0097(5) Uani 1 1 d . .
C6 C 0.3167(3) 0.5286(3) 0.2852(2) 0.0121(5) Uani 1 1 d . .
H6A H 0.3306 0.5488 0.2063 0.014 Uiso 1 1 calc R U
H6B H 0.1975 0.6220 0.3131 0.014 Uiso 1 1 calc R U
C7 C 0.2903(3) 0.2313(3) 0.18742(19) 0.0119(5) Uani 1 1 d . .
H7A H 0.1646 0.2326 0.1873 0.014 Uiso 1 1 calc R U
H7B H 0.3052 0.3193 0.1303 0.014 Uiso 1 1 calc R U
C8 C 0.4379(3) 0.0510(3) 0.16460(18) 0.0099(5) Uani 1 1 d . .
C9 C 0.3919(4) -0.0669(3) 0.12203(19) 0.0123(5) Uani 1 1 d . .
H9 H 0.2655 -0.0385 0.1125 0.015 Uiso 1 1 calc R U
C10 C 0.5329(4) -0.2274(3) 0.0934(2) 0.0136(5) Uani 1 1 d . .
H10 H 0.5038 -0.3100 0.0644 0.016 Uiso 1 1 calc R U
C11 C 0.7162(4) -0.2653(3) 0.1077(2) 0.0144(5) Uani 1 1 d . .
H11 H 0.8154 -0.3727 0.0870 0.017 Uiso 1 1 calc R U
C12 C 0.7515(4) -0.1431(3) 0.1528(2) 0.0127(5) Uani 1 1 d . .
H12 H 0.8769 -0.1692 0.1634 0.015 Uiso 1 1 calc R U
loop_
_atom_site_aniso_label
_atom_site_aniso_U_11
_atom_site_aniso_U_22
_atom_site_aniso_U_33
_atom_site_aniso_U_23
_atom_site_aniso_U_13
_atom_site_aniso_U_12
Se1 0.00817(15) 0.01280(16) 0.01025(16) -0.00169(10) 0.00072(9) -0.00543(11)
Zn1 0.00692(18) 0.00786(18) 0.01121(19) -0.00185(12) -0.00070(12) -0.00254(13)
O1 0.0094(9) 0.0136(8) 0.0153(9) -0.0016(7) 0.0004(6) -0.0044(7)
O2 0.0104(9) 0.0164(9) 0.0156(9) 0.0020(7) -0.0035(7) -0.0040(7)
O3 0.0204(10) 0.0256(10) 0.0149(10) 0.0042(8) 0.0049(7) -0.0091(8)
O4 0.0089(9) 0.0134(9) 0.0354(12) -0.0037(8) 0.0020(8) -0.0025(7)
O5 0.0178(9) 0.0145(9) 0.0124(9) 0.0006(7) -0.0034(7) -0.0028(7)
O6 0.0153(9) 0.0164(9) 0.0192(10) 0.0059(7) -0.0056(7) -0.0012(8)
N1 0.0074(10) 0.0093(9) 0.0086(10) -0.0003(7) -0.0007(7) -0.0036(8)
N2 0.0104(10) 0.0105(10) 0.0096(10) -0.0003(7) -0.0004(7) -0.0053(8)
N3 0.0121(11) 0.0104(10) 0.0125(11) -0.0022(8) -0.0009(8) -0.0050(8)
N4 0.0116(11) 0.0102(10) 0.0160(11) -0.0019(8) -0.0021(8) -0.0054(8)
C1 0.0072(11) 0.0131(11) 0.0102(12) 0.0010(9) 0.0001(8) -0.0037(9)
C2 0.0123(12) 0.0169(12) 0.0118(12) 0.0003(9) -0.0025(9) -0.0088(10)
C3 0.0177(13) 0.0129(12) 0.0109(12) -0.0026(9) 0.0001(9) -0.0085(10)
C4 0.0106(12) 0.0102(11) 0.0105(12) -0.0010(9) 0.0022(9) -0.0035(9)
C5 0.0085(11) 0.0112(11) 0.0080(11) -0.0015(9) 0.0016(8) -0.0034(9)
C6 0.0082(12) 0.0102(11) 0.0165(12) -0.0027(9) -0.0020(9) -0.0018(9)
C7 0.0098(12) 0.0148(12) 0.0124(12) -0.0035(9) -0.0026(9) -0.0049(10)
C8 0.0119(12) 0.0117(11) 0.0064(11) 0.0030(9) -0.0005(8) -0.0064(10)
C9 0.0147(12) 0.0129(12) 0.0115(12) 0.0021(9) -0.0030(9) -0.0080(10)
C10 0.0218(14) 0.0120(12) 0.0106(12) 0.0004(9) -0.0015(9) -0.0108(10)
C11 0.0176(13) 0.0112(12) 0.0126(12) -0.0009(9) 0.0004(9) -0.0050(10)
C12 0.0122(12) 0.0121(12) 0.0127(12) -0.0008(9) -0.0001(9) -0.0044(10)
loop_
_atom_type_symbol
_atom_type_description
_atom_type_scat_dispersion_real
_atom_type_scat_dispersion_imag
_atom_type_scat_source
C C 0.0181 0.0091 'International Tables Vol C Tables 4.2.6.8 and 6.1.1.4'
H H 0.0000 0.0000 'International Tables Vol C Tables 4.2.6.8 and 6.1.1.4'
N N 0.0311 0.0180 'International Tables Vol C Tables 4.2.6.8 and 6.1.1.4'
O O 0.0492 0.0322 'International Tables Vol C Tables 4.2.6.8 and 6.1.1.4'
Zn Zn -1.5491 0.6778 'International Tables Vol C Tables 4.2.6.8 and 6.1.1.4'
Se Se -0.7943 1.1372 'International Tables Vol C Tables 4.2.6.8 and 6.1.1.4'
loop_
_geom_angle_atom_site_label_1
_geom_angle_atom_site_label_2
_geom_angle_atom_site_label_3
_geom_angle
C7 Se1 C6 100.90(10)
C7 Se1 Zn1 83.51(7)
C6 Se1 Zn1 82.50(7)
N1 Zn1 O5 103.31(8)
N1 Zn1 N2 156.41(8)
O5 Zn1 N2 99.05(8)
N1 Zn1 O2 96.13(7)
O5 Zn1 O2 80.08(7)
N2 Zn1 O2 95.02(7)
N1 Zn1 O1 85.52(7)
O5 Zn1 O1 135.99(7)
N2 Zn1 O1 83.61(7)
O2 Zn1 O1 55.99(6)
N1 Zn1 O4 86.96(7)
O5 Zn1 O4 53.92(6)
N2 Zn1 O4 100.38(7)
O2 Zn1 O4 133.07(6)
O1 Zn1 O4 168.98(6)
N1 Zn1 Se1 79.48(6)
O5 Zn1 Se1 134.36(5)
N2 Zn1 Se1 79.55(6)
O2 Zn1 Se1 145.51(5)
O1 Zn1 Se1 89.51(4)
O4 Zn1 Se1 81.19(4)
N3 O1 Zn1 89.52(13)
N3 O2 Zn1 97.78(14)
N4 O4 Zn1 82.63(14)
N4 O5 Zn1 105.93(14)
C1 N1 C5 119.0(2)
C1 N1 Zn1 118.75(16)
C5 N1 Zn1 122.20(16)
C12 N2 C8 118.9(2)
C12 N2 Zn1 118.23(17)
C8 N2 Zn1 122.83(16)
O3 N3 O1 121.7(2)
O3 N3 O2 121.6(2)
O1 N3 O2 116.7(2)
O6 N4 O4 123.3(2)
O6 N4 O5 119.3(2)
O4 N4 O5 117.4(2)
N1 C1 C2 122.6(2)
N1 C1 H1 118.7
C2 C1 H1 118.7
C3 C2 C1 118.8(2)
C3 C2 H2 120.6
C1 C2 H2 120.6
C2 C3 C4 119.1(2)
C2 C3 H3 120.5
C4 C3 H3 120.5
C3 C4 C5 119.2(2)
C3 C4 H4 120.4
C5 C4 H4 120.4
N1 C5 C4 121.2(2)
N1 C5 C6 118.5(2)
C4 C5 C6 120.2(2)
C5 C6 Se1 110.94(16)
C5 C6 H6A 109.5
Se1 C6 H6A 109.5
C5 C6 H6B 109.5
Se1 C6 H6B 109.5
H6A C6 H6B 108.0
C8 C7 Se1 111.23(16)
C8 C7 H7A 109.4
Se1 C7 H7A 109.4
C8 C7 H7B 109.4
Se1 C7 H7B 109.4
H7A C7 H7B 108.0
N2 C8 C9 121.4(2)
N2 C8 C7 118.4(2)
C9 C8 C7 120.1(2)
C8 C9 C10 119.3(2)
C8 C9 H9 120.4
C10 C9 H9 120.4
C11 C10 C9 119.2(2)
C11 C10 H10 120.4
C9 C10 H10 120.4
C12 C11 C10 118.4(2)
C12 C11 H11 120.8
C10 C11 H11 120.8
N2 C12 C11 122.6(2)
N2 C12 H12 118.7
C11 C12 H12 118.7
loop_
_geom_bond_atom_site_label_1
_geom_bond_atom_site_label_2
_geom_bond_distance
Se1 C7 1.966(2)
Se1 C6 1.968(2)
Se1 Zn1 2.7778(4)
Zn1 N1 2.049(2)
Zn1 O5 2.0731(18)
Zn1 N2 2.069(2)
Zn1 O2 2.1956(18)
Zn1 O1 2.3834(18)
Zn1 O4 2.593(2)
O1 N3 1.256(3)
O2 N3 1.276(3)
O3 N3 1.226(3)
O4 N4 1.242(3)
O5 N4 1.292(3)
O6 N4 1.225(3)
N1 C1 1.342(3)
N1 C5 1.351(3)
N2 C12 1.346(3)
N2 C8 1.347(3)
C1 C2 1.384(4)
C1 H1 0.9500
C2 C3 1.381(4)
C2 H2 0.9500
C3 C4 1.392(4)
C3 H3 0.9500
C4 C5 1.393(3)
C4 H4 0.9500
C5 C6 1.499(3)
C6 H6A 0.9900
C6 H6B 0.9900
C7 C8 1.505(3)
C7 H7A 0.9900
C7 H7B 0.9900
C8 C9 1.385(4)
C9 C10 1.390(4)
C9 H9 0.9500
C10 C11 1.385(4)
C10 H10 0.9500
C11 C12 1.383(4)
C11 H11 0.9500
C12 H12 0.9500
loop_
_geom_torsion_atom_site_label_1
_geom_torsion_atom_site_label_2
_geom_torsion_atom_site_label_3
_geom_torsion_atom_site_label_4
_geom_torsion
Zn1 O1 N3 O3 179.4(2)
Zn1 O1 N3 O2 -0.94(19)
Zn1 O2 N3 O3 -179.30(19)
Zn1 O2 N3 O1 1.0(2)
Zn1 O4 N4 O6 -175.5(2)
Zn1 O4 N4 O5 3.17(19)
Zn1 O5 N4 O6 174.59(18)
Zn1 O5 N4 O4 -4.1(2)
C5 N1 C1 C2 -0.8(3)
Zn1 N1 C1 C2 -179.45(18)
N1 C1 C2 C3 1.2(4)
C1 C2 C3 C4 -0.4(4)
C2 C3 C4 C5 -0.7(4)
C1 N1 C5 C4 -0.4(3)
Zn1 N1 C5 C4 178.22(17)
C1 N1 C5 C6 178.0(2)
Zn1 N1 C5 C6 -3.4(3)
C3 C4 C5 N1 1.1(3)
C3 C4 C5 C6 -177.2(2)
N1 C5 C6 Se1 45.5(3)
C4 C5 C6 Se1 -136.09(19)
C12 N2 C8 C9 3.2(3)
Zn1 N2 C8 C9 -176.29(17)
C12 N2 C8 C7 -173.9(2)
Zn1 N2 C8 C7 6.6(3)
Se1 C7 C8 N2 -46.0(3)
Se1 C7 C8 C9 136.9(2)
N2 C8 C9 C10 -2.2(3)
C7 C8 C9 C10 174.8(2)
C8 C9 C10 C11 -0.3(3)
C9 C10 C11 C12 1.7(4)
C8 N2 C12 C11 -1.8(3)
Zn1 N2 C12 C11 177.77(19)
C10 C11 C12 N2 -0.7(4)
