#------------------------------------------------------------------------------
#$Date: 2016-03-24 14:49:32 +0200 (Thu, 24 Mar 2016) $
#$Revision: 179675 $
#$URL: svn://www.crystallography.net/cod/cif/4/51/27/4512768.cif $
#------------------------------------------------------------------------------
#
# This file is available in the Crystallography Open Database (COD),
# http://www.crystallography.net/
#
# All data on this site have been placed in the public domain by the
# contributors.
#
data_4512768
loop_
_publ_author_name
'Bosch, Eric'
'Bowling, Nathan P.'
'Darko, Jeffery'
_publ_section_title
;
 The Power of Nonconventional Phenyl C--H&#x00B7;&#x00B7;&#x00B7;N
 Hydrogen Bonds: Supportive Crystal-Packing Force and Dominant
 Supramolecular Engineering Force
;
_journal_issue                   4
_journal_name_full               'Crystal Growth &amp; Design'
_journal_page_first              1634
_journal_paper_doi               10.1021/cg5014076
_journal_volume                  15
_journal_year                    2015
_chemical_formula_sum            'C13 H5 F4 N'
_chemical_formula_weight         251.18
_chemical_name_systematic
;
3-[(2,3,4,5-tetrafluorophenyl)ethynyl]pyridine
;
_space_group_crystal_system      triclinic
_space_group_IT_number           2
_space_group_name_Hall           '-P 1'
_space_group_name_H-M_alt        'P -1'
_symmetry_space_group_name_Hall  '-P 1'
_symmetry_space_group_name_H-M   'P -1'
_atom_sites_solution_hydrogens   geom
_audit_creation_method           SHELXL-2013
_cell_angle_alpha                63.113(3)
_cell_angle_beta                 74.909(3)
_cell_angle_gamma                77.066(3)
_cell_formula_units_Z            2
_cell_length_a                   5.9023(11)
_cell_length_b                   9.8718(19)
_cell_length_c                   10.399(2)
_cell_measurement_reflns_used    2153
_cell_measurement_temperature    100(2)
_cell_measurement_theta_max      26.43
_cell_measurement_theta_min      3.49
_cell_volume                     517.80(17)
_computing_cell_refinement       'Bruker SAINT'
_computing_data_collection       'Bruker APEX2'
_computing_data_reduction        'Bruker SAINT'
_computing_molecular_graphics    'XSeed (Barbour, 2003)'
_computing_publication_material  'XSeed (Barbour, 2003)'
_computing_structure_refinement  'SHELXL-2013 (Sheldrick, 2013)'
_computing_structure_solution    'SHELXS-2013 (Sheldrick, 2013)'
_diffrn_ambient_temperature      100(2)
_diffrn_detector_area_resol_mean 8.3660
_diffrn_measured_fraction_theta_full 0.998
_diffrn_measured_fraction_theta_max 0.999
_diffrn_measurement_device_type  'Bruker APEX-I CCD'
_diffrn_measurement_method       'phi and omega scans'
_diffrn_radiation_monochromator  graphite
_diffrn_radiation_source         'fine-focus sealed tube'
_diffrn_radiation_type           MoK\a
_diffrn_radiation_wavelength     0.71073
_diffrn_reflns_av_R_equivalents  0.0158
_diffrn_reflns_av_unetI/netI     0.0172
_diffrn_reflns_Laue_measured_fraction_full 0.998
_diffrn_reflns_Laue_measured_fraction_max 0.999
_diffrn_reflns_limit_h_max       7
_diffrn_reflns_limit_h_min       -7
_diffrn_reflns_limit_k_max       12
_diffrn_reflns_limit_k_min       -12
_diffrn_reflns_limit_l_max       13
_diffrn_reflns_limit_l_min       -13
_diffrn_reflns_number            6464
_diffrn_reflns_point_group_measured_fraction_full 0.998
_diffrn_reflns_point_group_measured_fraction_max 0.999
_diffrn_reflns_theta_full        25.000
_diffrn_reflns_theta_max         27.217
_diffrn_reflns_theta_min         2.234
_exptl_absorpt_coefficient_mu    0.146
_exptl_absorpt_correction_T_max  0.7455
_exptl_absorpt_correction_T_min  0.6673
_exptl_absorpt_correction_type   multi-scan
_exptl_absorpt_process_details   'SADABS V2008/1 (Bruker AXS)'
_exptl_crystal_colour            colourless
_exptl_crystal_density_diffrn    1.611
_exptl_crystal_description       irregular
_exptl_crystal_F_000             252
_exptl_crystal_size_max          0.400
_exptl_crystal_size_mid          0.300
_exptl_crystal_size_min          0.200
_refine_diff_density_max         0.355
_refine_diff_density_min         -0.239
_refine_diff_density_rms         0.048
_refine_ls_extinction_method     none
_refine_ls_goodness_of_fit_ref   1.071
_refine_ls_hydrogen_treatment    constr
_refine_ls_matrix_type           full
_refine_ls_number_parameters     163
_refine_ls_number_reflns         2316
_refine_ls_number_restraints     0
_refine_ls_restrained_S_all      1.071
_refine_ls_R_factor_all          0.0396
_refine_ls_R_factor_gt           0.0344
_refine_ls_shift/su_max          0.000
_refine_ls_shift/su_mean         0.000
_refine_ls_structure_factor_coef Fsqd
_refine_ls_weighting_details
;
 w=1/[\s^2^(Fo^2^)+(0.0528P)^2^+0.2005P]
 where P=(Fo^2^+2Fc^2^)/3
;
_refine_ls_weighting_scheme      calc
_refine_ls_wR_factor_gt          0.0953
_refine_ls_wR_factor_ref         0.0992
_reflns_Friedel_coverage         0.000
_reflns_number_gt                2026
_reflns_number_total             2316
_reflns_threshold_expression     'I > 2\s(I)'
_cod_data_source_file            cg5014076_si_003.cif
_cod_data_source_block           eb357
_cod_depositor_comments
'Adding full bibliography for 4512766--4512773.cif.'
_cod_original_cell_volume        517.78(17)
_cod_database_code               4512768
#BEGIN Tags that were not found in dictionaries:
_shelx_space_group_comment
;
The symmetry employed for this shelxl refinement is uniquely defined
by the following loop, which should always be used as a source of
symmetry information in preference to the above space-group names.
They are only intended as comments.
;
_shelx_estimated_absorpt_t_min   0.944
_shelx_estimated_absorpt_t_max   0.971
_shelxl_version_number           2013-2
_shelx_res_file
;
TITL eb357 in P-1
CELL 0.71073 5.9023 9.8718 10.3985 63.113 74.909 77.066
ZERR 2.0000 0.0011 0.0019 0.0021 0.003 0.003 0.003
LATT 1
SFAC C H N F
UNIT 26 10 2 8
MERG 2
FMAP 2
GRID
PLAN 20
TEMP -173
SIZE 0.4 0.3 0.2
BOND
L.S. 20
ACTA 50
WGHT    0.052800    0.200500
FVAR       0.18686
F1    4    0.432930    0.434989   -0.127987    11.00000    0.01230    0.02378 =
         0.02581   -0.00836   -0.00427    0.00265
N1    3   -0.018872    0.105311    0.631307    11.00000    0.01656    0.02086 =
         0.01868   -0.00811   -0.00146   -0.00171
C1    1    0.158457    0.120441    0.517715    11.00000    0.01387    0.01837 =
         0.02149   -0.00921   -0.00314   -0.00040
AFIX  43
H1    2    0.310687    0.069665    0.537553    11.00000   -1.20000
AFIX   0
F2    4    0.787426    0.484443   -0.362529    11.00000    0.02365    0.02219 =
         0.01488   -0.00252   -0.00551   -0.00092
C2    1   -0.232727    0.178794    0.601648    11.00000    0.01498    0.02254 =
         0.02259   -0.01222    0.00140   -0.00188
AFIX  43
H2    2   -0.360890    0.168600    0.681438    11.00000   -1.20000
AFIX   0
F3    4    1.229064    0.333856   -0.328083    11.00000    0.01733    0.02900 =
         0.01676   -0.00843    0.00548   -0.00437
C3    1   -0.276012    0.269095    0.459947    11.00000    0.01276    0.02194 =
         0.02905   -0.01342   -0.00431    0.00167
AFIX  43
H3    2   -0.429620    0.320259    0.443898    11.00000   -1.20000
AFIX   0
F4    4    1.310911    0.124007   -0.061083    11.00000    0.01252    0.02760 =
         0.02562   -0.00983   -0.00334    0.00347
C4    1   -0.090940    0.283026    0.342665    11.00000    0.01882    0.01967 =
         0.02030   -0.00818   -0.00501   -0.00147
AFIX  43
H4    2   -0.115794    0.343254    0.244774    11.00000   -1.20000
AFIX   0
C5    1    0.133510    0.206733    0.370967    11.00000    0.01475    0.01748 =
         0.01957   -0.00965    0.00052   -0.00371
C6    1    0.331813    0.217543    0.254068    11.00000    0.01616    0.02048 =
         0.01892   -0.00766   -0.00226   -0.00321
C7    1    0.496004    0.229554    0.154943    11.00000    0.01547    0.02098 =
         0.01990   -0.00876   -0.00295   -0.00192
C8    1    0.687016    0.252019    0.032430    11.00000    0.01492    0.01790 =
         0.01743   -0.00825   -0.00030   -0.00371
C9    1    0.649005    0.357436   -0.107458    11.00000    0.01164    0.01735 =
         0.02162   -0.00890   -0.00394    0.00058
C10   1    0.829015    0.384562   -0.228524    11.00000    0.01790    0.01655 =
         0.01423   -0.00461   -0.00357   -0.00245
C11   1    1.052636    0.306777   -0.211623    11.00000    0.01414    0.01937 =
         0.01588   -0.00886    0.00240   -0.00380
C12   1    1.092044    0.200309   -0.073403    11.00000    0.01230    0.01826 =
         0.02200   -0.00962   -0.00385    0.00027
C13   1    0.914654    0.171811    0.048451    11.00000    0.01674    0.01873 =
         0.01476   -0.00598   -0.00293   -0.00220
AFIX  43
H13   2    0.945701    0.098810    0.142252    11.00000   -1.20000
AFIX   0
HKLF 4

REM  eb357 in P-1
REM R1 =  0.0344 for    2026 Fo > 4sig(Fo)  and  0.0396 for all    2316 data
REM    163 parameters refined using      0 restraints

END

WGHT      0.0528      0.2005

REM Highest difference peak  0.355,  deepest hole -0.239,  1-sigma level  0.048
Q1    1   1.0562  0.2424 -0.1414  11.00000  0.05    0.36
Q2    1  -0.2235  0.2212  0.5199  11.00000  0.05    0.33
Q3    1   0.9478  0.3542 -0.2190  11.00000  0.05    0.32
Q4    1   0.1577  0.1571  0.4382  11.00000  0.05    0.31
Q5    1   0.7886  0.2046  0.0355  11.00000  0.05    0.30
Q6    1   0.6632  0.2834 -0.0419  11.00000  0.05    0.29
Q7    1   0.6814  0.3121 -0.0332  11.00000  0.05    0.28
Q8    1   0.0497  0.0293  0.7027  11.00000  0.05    0.28
Q9    1   0.7433  0.3747 -0.1640  11.00000  0.05    0.28
Q10   1   0.9855  0.1810 -0.0211  11.00000  0.05    0.26
Q11   1   0.0391  0.2594  0.3651  11.00000  0.05    0.26
Q12   1  -0.1868  0.2787  0.4015  11.00000  0.05    0.26
Q13   1   0.2190  0.2269  0.3075  11.00000  0.05    0.24
Q14   1   0.0482  0.1247  0.5601  11.00000  0.05    0.18
Q15   1   0.5939  0.2287  0.0966  11.00000  0.05    0.18
Q16   1  -0.1213  0.1363  0.6119  11.00000  0.05    0.18
Q17   1   0.5469  0.3963 -0.1155  11.00000  0.05    0.17
Q18   1   1.1241  0.3195 -0.2577  11.00000  0.05    0.17
Q19   1   0.8099  0.4216 -0.2807  11.00000  0.05    0.17
Q20   1   0.4967  0.2049  0.2427  11.00000  0.05    0.17
;
_shelx_res_checksum              68174
_shelx_hkl_file
;
   2   0   1   25.31    0.41
   2   0   1   25.22    0.39
  -2   0  -1   25.00    0.39
  -2   0  -1   25.32    0.39
   4   0   2    1.01    0.05
  -4   0  -2    0.90    0.04
  -4   0  -2    0.95    0.04
   6   0   3    9.96    0.23
  -6   0  -3    9.77    0.20
  -6   0  -3    9.74    0.20
  -7   1  -3    0.80    0.06
  -7   1  -3    0.82    0.07
   7  -1   3    0.82    0.08
  -5   1  -2    0.80    0.05
  -5   1  -2    0.81    0.05
   5  -1   2    0.55    0.06
  -3   1  -1    6.15    0.12
  -3   1  -1    6.40    0.12
   3  -1   1    6.05    0.13
  -1   1   0   18.53    0.30
   1  -1   0   19.22    0.31
   1  -1   0   19.47    0.29
   1   1   1   21.57    0.32
   1   1   1   20.34    0.33
  -1  -1  -1   20.99    0.32
  -1  -1  -1   20.94    0.32
   3   1   2    2.91    0.07
   3   1   2    2.91    0.07
  -3  -1  -2    2.88    0.07
  -3  -1  -2    2.88    0.07
   5   1   3    0.62    0.05
   5   1   3    0.58    0.04
  -5  -1  -3    0.74    0.04
  -5  -1  -3    0.73    0.05
   7   1   4    0.22    0.05
  -7  -1  -4    0.24    0.04
  -7  -1  -4    0.30    0.05
  -6   2  -2    0.46    0.05
  -6   2  -2    0.44    0.05
   6  -2   2    0.49    0.06
  -4   2  -1    1.63    0.06
  -4   2  -1    1.62    0.06
   4  -2   1    1.51    0.07
  -2   2   0    0.20    0.02
   2  -2   0    0.16    0.02
   2  -2   0    0.17    0.02
   0   2   1   43.75    0.65
   0  -2  -1   43.13    0.65
   0  -2  -1   42.04    0.67
   0  -2  -1   42.12    0.66
   2   2   2   14.71    0.24
   2   2   2   14.45    0.24
  -2  -2  -2   14.56    0.24
  -2  -2  -2   14.67    0.23
   4   2   3    1.48    0.06
   4   2   3    1.46    0.05
  -4  -2  -3    1.51    0.05
  -4  -2  -3    1.53    0.05
   6   2   4    0.87    0.06
   6   2   4    1.07    0.07
  -6  -2  -4    1.06    0.06
  -6  -2  -4    1.16    0.06
  -5   3  -1   12.23    0.24
  -5   3  -1   12.50    0.24
   5  -3   1   12.40    0.26
  -3   3   0    0.06    0.02
   3  -3   0    0.04    0.02
   3  -3   0    0.06    0.02
  -1   3   1   20.89    0.33
   1  -3  -1   21.00    0.33
   1  -3  -1   20.67    0.34
   1   3   2 1000.00   15.79
  -1  -3  -2  931.50   15.56
  -1  -3  -2  952.60   15.24
   3   3   3    7.81    0.14
   3   3   3    7.96    0.15
  -3  -3  -3    7.95    0.15
  -3  -3  -3    7.63    0.14
   5   3   4    1.70    0.07
   5   3   4    1.70    0.07
  -5  -3  -4    1.74    0.06
  -5  -3  -4    1.72    0.07
   7   3   5    5.47    0.16
  -7  -3  -5    5.33    0.15
  -6   4  -1    0.51    0.06
  -6   4  -1    0.57    0.06
   6  -4   1    0.48    0.07
  -4   4   0    0.22    0.04
   4  -4   0    0.17    0.04
  -2   4   1    9.15    0.17
   2  -4  -1    8.78    0.17
   2  -4  -1    9.13    0.17
   0   4   2    6.49    0.11
   0  -4  -2    6.32    0.11
   0  -4  -2    6.23    0.12
   0  -4  -2    6.28    0.12
   2   4   3    2.12    0.06
  -2  -4  -3    2.03    0.05
  -2  -4  -3    2.09    0.06
   4   4   4    3.20    0.08
   4   4   4    3.32    0.09
  -4  -4  -4    3.26    0.08
  -4  -4  -4    3.24    0.09
   6   4   5   -0.02    0.03
   6   4   5   -0.04    0.04
  -6  -4  -5   -0.01    0.03
  -5   5   0    0.64    0.06
  -5   5   0    0.66    0.06
   5  -5   0    0.64    0.07
  -3   5   1    0.60    0.05
   3  -5  -1    0.63    0.05
   3  -5  -1    0.50    0.05
  -1   5   2    0.80    0.04
   1  -5  -2    0.79    0.04
   1  -5  -2    0.75    0.04
   1   5   3   25.88    0.41
  -1  -5  -3   26.13    0.42
  -1  -5  -3   26.04    0.41
   3   5   4    3.47    0.09
  -3  -5  -4    3.46    0.09
  -3  -5  -4    3.48    0.08
   5   5   5    0.15    0.03
   5   5   5    0.18    0.04
  -5  -5  -5    0.22    0.04
  -5  -5  -5    0.21    0.03
   7   5   6    0.57    0.07
  -7  -5  -6    0.74    0.07
  -4   6   1    9.65    0.21
   4  -6  -1    9.52    0.22
   4  -6  -1    9.34    0.21
  -2   6   2   -0.01    0.03
   2  -6  -2    0.03    0.02
   2  -6  -2    0.02    0.02
   0   6   3    6.14    0.12
   0  -6  -3    6.21    0.12
   0  -6  -3    6.11    0.13
   2   6   4  212.62    3.20
  -2  -6  -4  212.15    3.22
  -2  -6  -4  207.85    3.15
   4   6   5    2.01    0.08
  -4  -6  -5    2.14    0.07
  -4  -6  -5    2.06    0.08
   6   6   6    0.84    0.07
  -6  -6  -6    1.00    0.06
  -6  -6  -6    1.01    0.07
  -5   7   1    0.29    0.06
  -5   7   1    0.26    0.05
   5  -7  -1    0.24    0.06
  -3   7   2    0.03    0.03
   3  -7  -2    0.03    0.03
   3  -7  -2   -0.05    0.03
  -1   7   3    6.89    0.15
   1  -7  -3    6.85    0.15
   1  -7  -3    7.05    0.14
   1   7   4    0.51    0.04
  -1  -7  -4    0.40    0.04
  -1  -7  -4    0.44    0.04
   3   7   5    0.29    0.04
  -3  -7  -5    0.29    0.04
  -3  -7  -5    0.28    0.04
   5   7   6    1.87    0.09
  -5  -7  -6    1.84    0.08
  -5  -7  -6    1.85    0.07
  -4   8   2    0.69    0.07
   4  -8  -2    0.63    0.07
   4  -8  -2    0.64    0.07
  -2   8   3   -0.02    0.03
   2  -8  -3    0.05    0.03
   2  -8  -3   -0.01    0.03
   0   8   4    1.05    0.06
   0   8   4    0.91    0.05
   0  -8  -4    1.05    0.04
   0  -8  -4    1.04    0.06
   2   8   5   10.90    0.22
  -2  -8  -5   10.98    0.22
  -2  -8  -5   11.14    0.21
   4   8   6    0.48    0.06
  -4  -8  -6    0.48    0.06
  -4  -8  -6    0.54    0.05
   6   8   7   -0.06    0.04
  -6  -8  -7    0.03    0.04
  -3   9   3    4.52    0.14
   3  -9  -3    4.44    0.14
   3  -9  -3    4.46    0.14
  -1   9   4    0.02    0.04
   1  -9  -4    0.01    0.03
   1   9   5    1.37    0.07
  -1  -9  -5    1.32    0.07
  -1  -9  -5    1.23    0.07
   3   9   6   44.18    0.71
  -3  -9  -6   43.38    0.70
  -3  -9  -6   42.70    0.71
   5   9   7    0.71    0.07
  -5  -9  -7    0.72    0.06
  -5  -9  -7    0.65    0.07
  -2  10   4    0.07    0.05
   2 -10  -4    0.07    0.05
   0  10   5    4.35    0.13
   0 -10  -5    4.25    0.13
   2  10   6    0.05    0.04
  -2 -10  -6    0.00    0.04
  -2 -10  -6    0.06    0.05
   4  10   7    0.19    0.06
  -4 -10  -7    0.21    0.05
  -4 -10  -7    0.18    0.06
  -1  11   5    0.02    0.05
   1 -11  -5    0.04    0.04
   1  11   6    0.73    0.07
  -1 -11  -6    0.73    0.07
   3  11   7    4.60    0.14
  -3 -11  -7    4.59    0.14
  -3 -11  -7    4.52    0.14
   5  11   8    0.02    0.06
  -5 -11  -8    0.07    0.05
   0  12   6    0.07    0.06
   0 -12  -6    0.07    0.05
   2  12   7    0.22    0.06
  -2 -12  -7    0.17    0.07
  -2 -12  -7    0.24    0.06
  -3 -12  -8    0.53    0.07
  -3 -12  -8    0.63    0.09
   3  12   8    0.54    0.08
  -1 -12  -7    1.66    0.10
   1  12   7    1.61    0.10
  -4 -11  -8    0.58    0.07
  -4 -11  -8    0.55    0.06
   4  11   8    0.61    0.07
  -2 -11  -7    1.02    0.08
  -2 -11  -7    0.93    0.07
   2  11   7    0.86    0.08
   0 -11  -6    2.03    0.10
   0  11   6    2.16    0.10
   2 -11  -5    0.73    0.08
  -2  11   5    0.77    0.08
  -5 -10  -8    2.83    0.11
  -5 -10  -8    2.54    0.10
   5  10   8    2.74    0.12
  -3 -10  -7    1.17    0.08
  -3 -10  -7    1.22    0.07
   3  10   7    1.20    0.08
  -1 -10  -6    0.37    0.05
   1  10   6    0.33    0.05
   1  10   6    0.39    0.06
   1 -10  -5    0.09    0.04
  -1  10   5    0.03    0.04
   3 -10  -4    0.31    0.07
  -3  10   4    0.44    0.07
  -6  -9  -8    1.17    0.08
   6   9   8    1.17    0.09
  -4  -9  -7    0.20    0.04
  -4  -9  -7    0.31    0.05
   4   9   7    0.29    0.06
  -2  -9  -6    3.55    0.11
  -2  -9  -6    3.55    0.11
   2   9   6    3.56    0.11
   0  -9  -5    5.55    0.14
   0   9   5    5.71    0.13
   0   9   5    5.53    0.14
   2  -9  -4    0.10    0.04
   2  -9  -4    0.16    0.04
  -2   9   4    0.20    0.05
   4  -9  -3    0.70    0.08
   4  -9  -3    0.54    0.07
  -4   9   3    0.81    0.09
  -5  -8  -7    1.24    0.07
  -5  -8  -7    1.31    0.07
   5   8   7    1.33    0.08
  -3  -8  -6    1.17    0.06
  -3  -8  -6    1.14    0.07
   3   8   6    1.21    0.07
  -1  -8  -5    3.57    0.10
  -1  -8  -5    3.45    0.10
   1   8   5    3.60    0.09
   1  -8  -4    4.57    0.12
   1  -8  -4    4.70    0.11
  -1   8   4    4.57    0.12
   3  -8  -3    1.04    0.07
   3  -8  -3    1.02    0.07
  -3   8   3    1.07    0.07
  -6  -7  -7   -0.01    0.03
  -6  -7  -7    0.01    0.04
   6   7   7   -0.01    0.04
  -4  -7  -6    5.25    0.12
  -4  -7  -6    5.41    0.13
   4   7   6    5.22    0.14
  -2  -7  -5    0.23    0.04
  -2  -7  -5    0.22    0.03
   2   7   5    0.30    0.04
   0  -7  -4    1.12    0.05
   0  -7  -4    1.09    0.04
   0   7   4    1.03    0.05
   0   7   4    1.08    0.05
   2  -7  -3    0.61    0.05
   2  -7  -3    0.70    0.05
  -2   7   3    0.51    0.05
   4  -7  -2    0.38    0.06
   4  -7  -2    0.35    0.05
  -4   7   2    0.35    0.06
  -7  -6  -7    0.84    0.07
   7   6   7    0.79    0.08
  -5  -6  -6    3.86    0.11
  -5  -6  -6    3.77    0.10
   5   6   6    3.78    0.12
  -3  -6  -5    1.61    0.06
  -3  -6  -5    1.52    0.06
   3   6   5    1.40    0.06
  -1  -6  -4   13.99    0.24
  -1  -6  -4   13.85    0.25
   1   6   4   14.02    0.24
   1  -6  -3   17.50    0.30
   1  -6  -3   17.36    0.30
  -1   6   3   17.44    0.30
   3  -6  -2    0.04    0.03
   3  -6  -2    0.04    0.03
  -3   6   2    0.09    0.04
   5  -6  -1    0.87    0.08
  -5   6   1    1.00    0.07
  -5   6   1    0.88    0.07
  -6  -5  -6    4.01    0.12
  -6  -5  -6    3.99    0.11
   6   5   6    3.99    0.13
  -4  -5  -5    1.07    0.05
  -4  -5  -5    1.04    0.05
   4   5   5    0.99    0.04
   4   5   5    1.02    0.06
  -2  -5  -4    1.73    0.05
  -2  -5  -4    1.73    0.06
   2   5   4    1.66    0.06
   0  -5  -3   11.96    0.21
   0  -5  -3   11.95    0.20
   0   5   3   11.98    0.20
   2  -5  -2    7.43    0.15
   2  -5  -2    7.26    0.15
  -2   5   2    7.06    0.15
   4  -5  -1    0.45    0.05
   4  -5  -1    0.42    0.05
  -4   5   1    0.48    0.05
   6  -5   0    0.04    0.05
  -6   5   0    0.10    0.04
  -6   5   0    0.11    0.05
  -7  -4  -6    1.67    0.08
   7   4   6    1.65    0.09
  -5  -4  -5    0.35    0.04
  -5  -4  -5    0.36    0.04
   5   4   5    0.34    0.04
   5   4   5    0.39    0.05
  -3  -4  -4    9.00    0.16
  -3  -4  -4    9.08    0.17
   3   4   4    9.15    0.17
   3   4   4    9.04    0.16
  -1  -4  -3    1.32    0.04
  -1  -4  -3    1.37    0.04
   1   4   3    1.27    0.04
   1  -4  -2    2.98    0.07
   1  -4  -2    3.03    0.07
  -1   4   2    3.02    0.07
   3  -4  -1    0.82    0.05
   3  -4  -1    0.78    0.05
  -3   4   1    0.83    0.05
   5  -4   0    0.13    0.04
  -5   4   0    0.13    0.03
  -5   4   0    0.13    0.04
  -6  -3  -5    1.28    0.07
  -6  -3  -5    1.45    0.07
   6   3   5    1.40    0.07
   6   3   5    1.32    0.07
  -4  -3  -4   11.03    0.20
  -4  -3  -4   11.10    0.20
   4   3   4   10.89    0.20
   4   3   4   10.84    0.20
  -2  -3  -3    9.47    0.16
  -2  -3  -3    9.62    0.17
   2   3   3    9.70    0.17
   0  -3  -2   35.40    0.55
   0  -3  -2   35.14    0.56
   0  -3  -2   35.28    0.54
   0   3   2   35.88    0.54
   2  -3  -1   42.14    0.68
   2  -3  -1   42.33    0.65
  -2   3   1   41.65    0.66
   4  -3   0    0.06    0.03
  -4   3   0    0.11    0.03
   6  -3   1    0.55    0.07
  -6   3  -1    0.68    0.06
  -6   3  -1    0.64    0.06
  -7  -2  -5    0.19    0.04
  -7  -2  -5    0.19    0.05
   7   2   5    0.19    0.05
  -5  -2  -4   13.53    0.25
  -5  -2  -4   13.16    0.24
   5   2   4   13.71    0.26
   5   2   4   13.46    0.25
  -3  -2  -3    0.09    0.02
  -3  -2  -3    0.10    0.02
   3   2   3    0.09    0.02
   3   2   3    0.09    0.02
  -1  -2  -2    0.47    0.02
  -1  -2  -2    0.46    0.02
   1   2   2    0.49    0.02
   1  -2  -1   20.49    0.32
   1  -2  -1   20.76    0.33
  -1   2   1   20.11    0.32
   3  -2   0    4.34    0.10
   3  -2   0    4.41    0.11
  -3   2   0    4.43    0.10
   5  -2   1    0.00    0.03
  -5   2  -1    0.03    0.02
  -5   2  -1    0.04    0.03
   7  -2   2    0.02    0.05
  -7   2  -2    0.02    0.03
  -7   2  -2    0.06    0.04
  -6  -1  -4    4.40    0.12
  -6  -1  -4    4.49    0.12
   6   1   4    4.51    0.14
  -4  -1  -3    5.24    0.11
  -4  -1  -3    5.23    0.11
   4   1   3    5.30    0.12
   4   1   3    5.18    0.11
  -2  -1  -2   11.67    0.19
  -2  -1  -2   11.63    0.19
   2   1   2   11.80    0.19
   2   1   2   11.65    0.20
   0  -1  -1    9.02    0.15
   0  -1  -1    9.61    0.15
   0   1   1    9.67    0.15
   2  -1   0    4.54    0.09
   2  -1   0    4.51    0.09
  -2   1   0    4.54    0.09
   4  -1   1    0.15    0.03
  -4   1  -1    0.17    0.03
  -4   1  -1    0.19    0.03
   6  -1   2    0.07    0.04
  -6   1  -2    0.02    0.03
  -6   1  -2    0.04    0.03
  -7   0  -4    0.07    0.03
   7   0   4    0.04    0.04
  -5   0  -3    0.23    0.04
  -5   0  -3    0.33    0.04
   5   0   3    0.17    0.04
  -3   0  -2   19.26    0.32
  -3   0  -2   19.26    0.32
   3   0   2   19.69    0.33
   3   0   2   19.48    0.31
  -1   0  -1   54.12    0.83
  -1   0  -1   53.85    0.83
   1   0   1   55.13    0.84
   1   0   1   55.91    0.89
   1   0   0   23.25    0.37
  -1   0   0   22.22    0.36
   3   0   1   44.52    0.71
  -3   0  -1   43.74    0.67
  -3   0  -1   44.08    0.69
   5   0   2    0.22    0.04
  -5   0  -2    0.26    0.03
  -5   0  -2    0.32    0.04
   7   0   3    0.07    0.04
  -7   0  -3    0.14    0.04
  -7   0  -3    0.07    0.03
  -6   1  -3    0.27    0.05
  -6   1  -3    0.16    0.04
   6  -1   3    0.13    0.04
  -4   1  -2   26.46    0.43
  -4   1  -2   26.13    0.43
   4  -1   2   26.34    0.46
  -2   1  -1    1.36    0.04
  -2   1  -1    1.36    0.04
   2  -1   1    1.40    0.04
   0  -1   0    4.42    0.07
   0  -1   0    4.20    0.07
   0  -1   0    4.29    0.07
   0  -1   0    4.42    0.08
   2   1   1    8.27    0.14
   2   1   1    8.02    0.14
  -2  -1  -1    8.11    0.13
  -2  -1  -1    8.05    0.14
   4   1   2    0.99    0.05
   4   1   2    1.05    0.04
  -4  -1  -2    1.03    0.05
  -4  -1  -2    1.04    0.04
   6   1   3    0.65    0.06
  -6  -1  -3    0.70    0.05
  -6  -1  -3    0.61    0.05
  -5   2  -2    7.19    0.16
  -5   2  -2    7.28    0.16
   5  -2   2    7.65    0.18
  -3   2  -1   19.81    0.33
  -3   2  -1   20.16    0.33
   3  -2   1   19.68    0.35
  -1   2   0    3.08    0.06
   1  -2   0    2.82    0.06
   1  -2   0    3.20    0.06
   1   2   1   14.52    0.24
   1   2   1   15.75    0.24
  -1  -2  -1   15.52    0.24
  -1  -2  -1   15.45    0.23
   3   2   2    1.82    0.06
   3   2   2    1.94    0.06
  -3  -2  -2    1.97    0.06
  -3  -2  -2    1.95    0.05
   5   2   3    0.08    0.03
   5   2   3    0.15    0.03
  -5  -2  -3    0.20    0.03
  -5  -2  -3    0.16    0.03
   7   2   4    0.04    0.04
  -7  -2  -4    0.00    0.03
  -6   3  -2    0.62    0.06
  -6   3  -2    0.56    0.05
   6  -3   2    0.61    0.07
  -4   3  -1    0.10    0.03
  -4   3  -1    0.14    0.03
   4  -3   1    0.11    0.03
  -2   3   0   11.13    0.19
   2  -3   0   11.30    0.21
   2  -3   0   11.17    0.20
   0   3   1   76.10    1.15
   0  -3  -1   75.38    1.13
   0  -3  -1   75.64    1.19
   0  -3  -1   74.42    1.17
   2   3   2    0.02    0.02
   2   3   2    0.04    0.01
  -2  -3  -2    0.04    0.01
  -2  -3  -2    0.04    0.01
   4   3   3   20.44    0.34
   4   3   3   19.99    0.35
  -4  -3  -3   20.15    0.33
  -4  -3  -3   20.18    0.34
   6   3   4    0.14    0.04
   6   3   4    0.08    0.04
  -6  -3  -4    0.16    0.04
  -6  -3  -4    0.08    0.03
  -5   4  -1    0.08    0.04
  -5   4  -1    0.10    0.03
   5  -4   1    0.08    0.03
  -3   4   0   22.36    0.37
   3  -4   0   22.09    0.38
   3  -4   0   22.10    0.39
  -1   4   1    3.81    0.08
   1  -4  -1    3.93    0.09
   1  -4  -1    3.78    0.08
   1   4   2   15.67    0.26
  -1  -4  -2   15.63    0.25
  -1  -4  -2   15.54    0.26
   3   4   3    0.35    0.03
   3   4   3    0.35    0.02
  -3  -4  -3    0.32    0.03
  -3  -4  -3    0.35    0.02
   5   4   4    0.08    0.04
   5   4   4    0.11    0.03
  -5  -4  -4    0.08    0.03
  -5  -4  -4    0.09    0.03
   7   4   5    1.22    0.08
  -7  -4  -5    1.18    0.08
  -6   5  -1    0.67    0.07
  -6   5  -1    0.55    0.07
   6  -5   1    0.60    0.08
  -4   5   0    7.21    0.16
   4  -5   0    7.10    0.17
  -2   5   1   21.03    0.35
   2  -5  -1   20.77    0.35
   2  -5  -1   20.85    0.36
   0   5   2    0.20    0.02
   0  -5  -2    0.17    0.03
   0  -5  -2    0.14    0.03
   0  -5  -2    0.16    0.02
   2   5   3    5.26    0.11
  -2  -5  -3    5.20    0.11
  -2  -5  -3    5.20    0.10
   4   5   4    0.53    0.04
   4   5   4    0.62    0.05
  -4  -5  -4    0.60    0.04
  -4  -5  -4    0.63    0.05
   6   5   5    0.45    0.07
  -6  -5  -5    0.51    0.05
  -6  -5  -5    0.53    0.06
  -5   6   0    1.50    0.08
  -5   6   0    1.47    0.08
   5  -6   0    1.47    0.09
  -3   6   1    0.46    0.05
   3  -6  -1    0.40    0.05
   3  -6  -1    0.36    0.05
  -1   6   2    1.37    0.06
   1  -6  -2    1.39    0.06
   1  -6  -2    1.29    0.05
   1   6   3   39.81    0.63
  -1  -6  -3   40.08    0.63
  -1  -6  -3   40.12    0.62
   3   6   4    1.32    0.06
  -3  -6  -4    1.38    0.06
  -3  -6  -4    1.33    0.05
   5   6   5    7.20    0.17
  -5  -6  -5    6.95    0.15
  -5  -6  -5    7.01    0.16
   7   6   6    0.10    0.05
  -7  -6  -6    0.20    0.05
  -4   7   1    0.02    0.04
   4  -7  -1    0.05    0.04
   4  -7  -1    0.01    0.03
  -2   7   2    7.58    0.17
   2  -7  -2    7.32    0.17
   2  -7  -2    7.83    0.17
   0   7   3    2.19    0.06
   0  -7  -3    2.20    0.06
   0  -7  -3    2.20    0.07
   2   7   4    9.80    0.19
  -2  -7  -4    9.54    0.19
  -2  -7  -4    9.78    0.18
   4   7   5    0.39    0.05
  -4  -7  -5    0.31    0.04
  -4  -7  -5    0.34    0.05
   6   7   6   -0.01    0.04
  -6  -7  -6   -0.01    0.04
  -3   8   2    4.47    0.13
   3  -8  -2    4.56    0.13
   3  -8  -2    4.61    0.14
  -1   8   3   11.08    0.22
   1  -8  -3   10.79    0.22
   1  -8  -3   10.92    0.21
   1   8   4    0.61    0.05
  -1  -8  -4    0.64    0.05
  -1  -8  -4    0.55    0.05
   3   8   5    0.71    0.06
  -3  -8  -5    0.72    0.05
  -3  -8  -5    0.73    0.06
   5   8   6    0.37    0.06
  -5  -8  -6    0.41    0.05
  -5  -8  -6    0.41    0.06
  -4   9   2    1.59    0.09
   4  -9  -2    1.54    0.09
  -2   9   3    0.26    0.05
   2  -9  -3    0.27    0.05
   2  -9  -3    0.26    0.04
   0   9   4   -0.01    0.03
   0   9   4    0.03    0.03
   0  -9  -4    0.02    0.03
   2   9   5   18.37    0.33
  -2  -9  -5   18.21    0.32
  -2  -9  -5   17.80    0.33
   4   9   6    0.99    0.07
  -4  -9  -6    1.05    0.07
  -4  -9  -6    1.23    0.06
   6   9   7    2.31    0.11
  -6  -9  -7    2.25    0.11
  -3  10   3   -0.02    0.05
   3 -10  -3    0.01    0.04
   3 -10  -3    0.08    0.05
  -1  10   4    1.39    0.08
   1 -10  -4    1.43    0.08
   1  10   5    0.53    0.05
  -1 -10  -5    0.58    0.06
  -1 -10  -5    0.57    0.06
   3  10   6    4.24    0.13
  -3 -10  -6    4.07    0.12
  -3 -10  -6    3.99    0.13
   5  10   7    0.51    0.07
  -5 -10  -7    0.59    0.07
  -2  11   4    2.10    0.11
   2 -11  -4    2.12    0.11
   0  11   5    3.92    0.13
   0 -11  -5    3.89    0.13
   2  11   6    0.40    0.06
  -2 -11  -6    0.48    0.06
  -2 -11  -6    0.42    0.06
   4  11   7    0.11    0.05
  -4 -11  -7    0.08    0.04
  -4 -11  -7    0.04    0.05
   1  12   6    0.15    0.06
  -1 -12  -6    0.11    0.05
   3  12   7    8.71    0.22
  -3 -12  -7    8.38    0.21
  -3 -12  -7    8.09    0.20
  -2 -12  -8    0.02    0.04
   2  12   8    0.00    0.05
   2  12   8    0.06    0.05
   0 -12  -7    0.10    0.05
   0  12   7   -0.01    0.05
  -3 -11  -8    5.53    0.16
  -3 -11  -8    5.76    0.16
   3  11   8    5.82    0.17
  -1 -11  -7    0.02    0.04
   1  11   7   -0.07    0.04
   1 -11  -6    0.34    0.06
  -1  11   6    0.32    0.07
  -4 -10  -8    0.22    0.06
  -4 -10  -8    0.14    0.04
   4  10   8    0.15    0.05
  -2 -10  -7    0.24    0.05
  -2 -10  -7    0.17    0.05
   2  10   7    0.31    0.05
   0 -10  -6    1.39    0.08
   0  10   6    1.32    0.08
   2 -10  -5    0.31    0.06
  -2  10   5    0.43    0.07
  -5  -9  -8    0.33    0.06
  -5  -9  -8    0.31    0.05
   5   9   8    0.25    0.06
  -3  -9  -7    8.08    0.18
  -3  -9  -7    8.16    0.18
   3   9   7    8.24    0.19
  -1  -9  -6    0.05    0.03
   1   9   6    0.06    0.04
   1  -9  -5    0.01    0.03
  -1   9   5   -0.02    0.04
   3  -9  -4    5.33    0.16
   3  -9  -4    5.38    0.15
  -3   9   4    5.49    0.16
  -6  -8  -8   -0.06    0.03
  -6  -8  -8   -0.01    0.04
   6   8   8   -0.01    0.05
  -4  -8  -7    0.14    0.04
  -4  -8  -7    0.13    0.04
   4   8   7    0.23    0.05
  -2  -8  -6   11.45    0.22
  -2  -8  -6   11.20    0.22
   2   8   6   11.23    0.22
   0  -8  -5    0.46    0.05
   0   8   5    0.44    0.04
   0   8   5    0.50    0.05
   2  -8  -4    1.50    0.07
   2  -8  -4    1.52    0.08
  -2   8   4    1.51    0.08
   4  -8  -3    0.02    0.04
   4  -8  -3   -0.04    0.04
  -4   8   3    0.01    0.04
  -5  -7  -7    5.29    0.14
  -5  -7  -7    5.31    0.13
   5   7   7    5.21    0.15
  -3  -7  -6    0.86    0.05
  -3  -7  -6    0.80    0.05
   3   7   6    0.83    0.06
  -1  -7  -5    2.02    0.07
  -1  -7  -5    1.89    0.07
   1   7   5    2.01    0.07
   1  -7  -4    4.19    0.10
   1  -7  -4    4.06    0.11
  -1   7   4    4.12    0.11
   3  -7  -3    0.21    0.04
   3  -7  -3    0.11    0.04
  -3   7   3    0.26    0.05
   5  -7  -2    0.61    0.07
   5  -7  -2    0.50    0.07
  -5   7   2    0.55    0.07
  -6  -6  -7    0.93    0.07
  -6  -6  -7    1.01    0.06
   6   6   7    1.04    0.08
  -4  -6  -6    0.22    0.04
  -4  -6  -6    0.18    0.04
   4   6   6    0.20    0.04
  -2  -6  -5   14.82    0.26
  -2  -6  -5   15.11    0.26
   2   6   5   14.87    0.26
   0  -6  -4    2.69    0.08
   0   6   4    2.58    0.07
   0   6   4    2.61    0.07
   2  -6  -3    0.11    0.03
   2  -6  -3    0.10    0.03
  -2   6   3    0.04    0.03
   4  -6  -2    5.10    0.14
   4  -6  -2    5.28    0.15
  -4   6   2    5.17    0.14
   7   5   7    2.52    0.11
  -5  -5  -6    0.04    0.03
  -5  -5  -6    0.07    0.03
   5   5   6    0.05    0.04
  -3  -5  -5    0.41    0.04
  -3  -5  -5    0.44    0.03
   3   5   5    0.44    0.04
  -1  -5  -4   20.32    0.33
  -1  -5  -4   20.25    0.33
   1   5   4   20.12    0.33
   1  -5  -3    2.36    0.07
   1  -5  -3    2.39    0.06
  -1   5   3    2.32    0.07
   3  -5  -2    4.13    0.11
   3  -5  -2    4.03    0.11
  -3   5   2    4.00    0.11
   5  -5  -1    0.73    0.07
  -5   5   1    0.83    0.07
  -5   5   1    0.83    0.06
  -6  -4  -6    0.22    0.04
  -6  -4  -6    0.27    0.05
   6   4   6    0.19    0.05
   6   4   6    0.23    0.04
  -4  -4  -5   21.53    0.36
  -4  -4  -5   21.69    0.36
   4   4   5   21.65    0.36
   4   4   5   21.62    0.37
  -2  -4  -4    8.24    0.15
  -2  -4  -4    7.94    0.15
   2   4   4    8.21    0.15
   0  -4  -3    5.78    0.10
   0  -4  -3    5.96    0.11
   0   4   3    5.77    0.11
   0   4   3    5.90    0.11
   2  -4  -2   10.66    0.20
   2  -4  -2   10.78    0.20
  -2   4   2   10.70    0.20
   4  -4  -1    3.09    0.10
   4  -4  -1    3.23    0.10
  -4   4   1    3.22    0.10
   6  -4   0    0.76    0.08
  -6   4   0    0.61    0.06
  -6   4   0    0.72    0.07
  -7  -3  -6    0.13    0.04
   7   3   6    0.09    0.04
  -5  -3  -5    3.57    0.10
  -5  -3  -5    3.64    0.10
   5   3   5    3.60    0.10
   5   3   5    3.61    0.10
  -3  -3  -4    0.01    0.01
  -3  -3  -4    0.01    0.02
   3   3   4    0.01    0.02
   3   3   4    0.00    0.01
  -1  -3  -3   16.77    0.27
  -1  -3  -3   16.78    0.27
   1   3   3   16.82    0.27
   1  -3  -2   13.58    0.22
   1  -3  -2   13.33    0.23
  -1   3   2   13.26    0.22
   3  -3  -1    0.62    0.04
   3  -3  -1    0.63    0.04
  -3   3   1    0.62    0.04
   5  -3   0    2.43    0.10
  -5   3   0    2.43    0.08
  -5   3   0    2.41    0.09
  -6  -2  -5    3.33    0.11
  -6  -2  -5    3.57    0.10
   6   2   5    3.42    0.11
   6   2   5    3.42    0.10
  -4  -2  -4    0.39    0.04
  -4  -2  -4    0.50    0.04
   4   2   4    0.51    0.04
   4   2   4    0.50    0.04
  -2  -2  -3    0.21    0.02
  -2  -2  -3    0.23    0.02
   2   2   3    0.24    0.02
   2   2   3    0.21    0.02
   0  -2  -2   31.84    0.48
   0  -2  -2   31.46    0.50
   0   2   2   32.17    0.48
   0   2   2   31.46    0.49
   2  -2  -1    3.00    0.07
   2  -2  -1    3.07    0.07
  -2   2   1    3.04    0.07
   4  -2   0    4.24    0.12
  -4   2   0    4.50    0.11
  -4   2   0    4.44    0.11
   6  -2   1    1.77    0.09
  -6   2  -1    1.86    0.08
  -6   2  -1    1.85    0.08
  -7  -1  -5    0.16    0.04
   7   1   5    0.07    0.04
  -5  -1  -4    0.69    0.05
  -5  -1  -4    0.76    0.05
   5   1   4    0.78    0.06
   5   1   4    0.71    0.05
  -3  -1  -3   60.79    0.93
  -3  -1  -3   59.90    0.92
   3   1   3   61.85    0.97
   3   1   3   60.84    0.93
  -1  -1  -2   76.97    1.18
  -1  -1  -2   77.37    1.19
   1   1   2   78.40    1.23
   1   1   2   78.60    1.19
   1  -1  -1    6.22    0.11
   1  -1  -1    6.21    0.10
  -1   1   1    6.03    0.11
   3  -1   0   17.32    0.30
  -3   1   0   16.98    0.29
   5  -1   1    8.58    0.19
  -5   1  -1    8.65    0.18
  -5   1  -1    8.36    0.17
   7  -1   2    0.69    0.08
  -7   1  -2    0.76    0.07
  -6   0  -4    0.55    0.05
  -6   0  -4    0.48    0.05
   6   0   4    0.50    0.06
  -4   0  -3    6.90    0.14
  -4   0  -3    6.71    0.14
   4   0   3    6.89    0.13
   4   0   3    7.17    0.15
  -2   0  -2    1.38    0.04
  -2   0  -2    1.43    0.04
   2   0   2    1.36    0.04
   2   0   2    1.46    0.04
   0   0  -1    0.25    0.01
   0   0   1    0.24    0.01
   0   0   1    0.27    0.01
   2   0   0   25.47    0.42
  -2   0   0   25.07    0.40
  -2   0   0   26.16    0.39
   4   0   1    1.16    0.06
  -4   0  -1    1.06    0.05
  -4   0  -1    1.11    0.04
   6   0   2    0.37    0.05
  -6   0  -2    0.41    0.05
  -6   0  -2    0.43    0.04
  -7   1  -4    0.01    0.03
   7  -1   4    0.00    0.04
  -5   1  -3    4.11    0.11
  -5   1  -3    4.18    0.11
   5  -1   3    4.36    0.12
  -3   1  -2    2.88    0.07
  -3   1  -2    2.92    0.07
   3  -1   2    2.88    0.08
  -1   1  -1    0.08    0.01
  -1   1  -1    0.08    0.01
   1  -1   1    0.09    0.01
   1   1   0   11.50    0.19
  -1  -1   0   12.09    0.19
  -1  -1   0   11.95    0.19
   3   1   1    0.83    0.03
   3   1   1    0.86    0.04
  -3  -1  -1    0.85    0.03
  -3  -1  -1    0.81    0.04
   5   1   2    1.74    0.06
   5   1   2    1.77    0.08
  -5  -1  -2    1.87    0.06
  -5  -1  -2    1.87    0.07
   7   1   3    1.55    0.09
  -7  -1  -3    1.47    0.08
  -6   2  -3    0.47    0.05
  -6   2  -3    0.56    0.05
   6  -2   3    0.49    0.06
  -4   2  -2    1.84    0.06
  -4   2  -2    1.90    0.07
   4  -2   2    1.96    0.08
  -2   2  -1   71.28    1.09
   2  -2   1   72.29    1.16
   0  -2   0  125.94    1.91
   0  -2   0  127.83    2.01
   0  -2   0  129.77    1.95
   0  -2   0  125.30    1.92
   2   2   1    0.55    0.02
   2   2   1    0.49    0.03
  -2  -2  -1    0.61    0.03
   4   2   2   11.43    0.20
   4   2   2   11.32    0.21
  -4  -2  -2   11.12    0.21
  -4  -2  -2   11.11    0.19
   6   2   3    9.08    0.19
   6   2   3    9.31    0.21
  -6  -2  -3    9.32    0.18
  -6  -2  -3    9.27    0.20
  -5   3  -2    0.85    0.05
  -5   3  -2    0.83    0.06
   5  -3   2    0.82    0.07
  -3   3  -1    5.07    0.12
  -3   3  -1    5.17    0.11
   3  -3   1    5.01    0.12
  -1   3   0    3.29    0.07
   1  -3   0    3.21    0.07
   1  -3   0    3.06    0.07
   3   3   2   13.96    0.24
   3   3   2   13.54    0.24
  -3  -3  -2   13.56    0.24
  -3  -3  -2   13.48    0.22
   5   3   3    0.57    0.05
   5   3   3    0.64    0.05
  -5  -3  -3    0.62    0.05
  -5  -3  -3    0.61    0.04
   7   3   4    0.02    0.03
  -7  -3  -4    0.01    0.04
  -6   4  -2    0.07    0.04
   6  -4   2    0.07    0.04
  -4   4  -1    3.44    0.10
  -4   4  -1    3.57    0.10
   4  -4   1    3.71    0.11
  -2   4   0    5.17    0.11
   2  -4   0    4.96    0.11
   2  -4   0    5.15    0.11
   0  -4  -1    0.37    0.02
   0  -4  -1    0.36    0.03
   0  -4  -1    0.35    0.03
   2   4   2    0.21    0.03
   2   4   2    0.16    0.02
  -2  -4  -2    0.20    0.02
  -2  -4  -2    0.19    0.02
   4   4   3    0.01    0.02
   4   4   3    0.02    0.02
  -4  -4  -3    0.02    0.02
  -4  -4  -3    0.03    0.02
   6   4   4    0.46    0.05
   6   4   4    0.44    0.06
  -6  -4  -4    0.57    0.06
  -5   5  -1    0.90    0.06
  -5   5  -1    0.79    0.06
   5  -5   1    0.78    0.07
  -3   5   0    2.02    0.07
   3  -5   0    1.98    0.08
   3  -5   0    1.97    0.07
  -1   5   1   24.63    0.40
   1  -5  -1   25.14    0.41
   1  -5  -1   25.12    0.42
   1   5   2   48.73    0.74
  -1  -5  -2   47.08    0.74
  -1  -5  -2   47.70    0.73
   3   5   3    0.06    0.02
   3   5   3    0.04    0.03
  -3  -5  -3    0.07    0.02
  -3  -5  -3    0.09    0.03
   5   5   4    4.34    0.12
   5   5   4    4.42    0.11
  -5  -5  -4    4.46    0.12
  -5  -5  -4    4.29    0.10
   7   5   5    5.92    0.16
  -7  -5  -5    5.96    0.16
  -4   6   0    0.90    0.06
   4  -6   0    0.71    0.07
  -2   6   1    0.96    0.05
   2  -6  -1    0.85    0.05
   2  -6  -1    0.95    0.05
   0   6   2    1.17    0.04
   0  -6  -2    1.14    0.05
   0  -6  -2    1.18    0.04
   0  -6  -2    1.15    0.05
   2   6   3    8.05    0.16
  -2  -6  -3    8.18    0.16
  -2  -6  -3    8.24    0.15
   4   6   4    4.55    0.12
  -4  -6  -4    4.47    0.12
  -4  -6  -4    4.41    0.10
   6   6   5    0.13    0.05
  -6  -6  -5    0.26    0.05
  -5   7   0    0.10    0.04
  -5   7   0    0.01    0.04
   5  -7   0    0.00    0.04
  -3   7   1    2.48    0.09
   3  -7  -1    2.38    0.09
   3  -7  -1    2.34    0.09
  -1   7   2    3.32    0.09
   1  -7  -2    3.36    0.10
   1  -7  -2    3.36    0.09
   1   7   3    0.28    0.03
  -1  -7  -3    0.29    0.04
  -1  -7  -3    0.32    0.04
   3   7   4    0.06    0.03
  -3  -7  -4    0.05    0.03
  -3  -7  -4    0.03    0.02
   5   7   5   -0.01    0.04
  -5  -7  -5   -0.01    0.03
  -5  -7  -5    0.00    0.02
   7   7   6    0.14    0.06
  -7  -7  -6    0.16    0.05
  -4   8   1    0.57    0.07
   4  -8  -1    0.50    0.06
   4  -8  -1    0.59    0.07
  -2   8   2    0.97    0.06
   2  -8  -2    0.93    0.06
   2  -8  -2    0.89    0.06
   0   8   3    4.55    0.12
   0   8   3    4.60    0.11
   0  -8  -3    4.59    0.10
   0  -8  -3    4.57    0.12
   2   8   4   16.29    0.29
  -2  -8  -4   15.96    0.30
  -2  -8  -4   16.59    0.29
   4   8   5   -0.01    0.04
  -4  -8  -5    0.03    0.03
  -4  -8  -5    0.04    0.04
   6   8   6    1.43    0.09
  -6  -8  -6    1.40    0.08
  -3   9   2    0.63    0.07
   3  -9  -2    0.65    0.07
   3  -9  -2    0.54    0.07
  -1   9   3    0.00    0.04
   1  -9  -3   -0.04    0.02
   1  -9  -3   -0.01    0.03
   1   9   4    0.02    0.03
  -1  -9  -4    0.02    0.04
  -1  -9  -4   -0.02    0.03
   3   9   5    3.43    0.11
  -3  -9  -5    3.44    0.10
  -3  -9  -5    3.32    0.11
   5   9   6    1.39    0.09
  -5  -9  -6    1.52    0.09
  -2  10   3    1.21    0.08
   2 -10  -3    1.26    0.08
   0  10   4    1.20    0.07
   0 -10  -4    1.33    0.08
   2  10   5    0.03    0.04
  -2 -10  -5   -0.04    0.03
  -2 -10  -5    0.06    0.04
   4  10   6    0.05    0.05
  -4 -10  -6    0.07    0.04
  -4 -10  -6    0.04    0.04
  -1  11   4    0.24    0.06
   1 -11  -4    0.21    0.05
   1  11   5    0.65    0.06
  -1 -11  -5    0.76    0.07
   3  11   6    6.58    0.17
  -3 -11  -6    6.31    0.16
  -3 -11  -6    6.36    0.17
   5  11   7    0.04    0.06
  -5 -11  -7    0.02    0.05
   0  12   5    0.10    0.06
   0 -12  -5    0.13    0.05
   2  12   6    0.14    0.05
  -2 -12  -6    0.20    0.06
  -2 -12  -6    0.05    0.05
   4  12   7    1.19    0.09
  -4 -12  -7    1.22    0.09
  -3 -12  -9    0.82    0.09
  -3 -12  -9    0.89    0.08
   3  12   9    0.78    0.09
  -1 -12  -8    0.17    0.06
   1  12   8    0.18    0.06
  -4 -11  -9    0.33    0.06
  -4 -11  -9    0.44    0.07
   4  11   9    0.35    0.07
  -2 -11  -8    0.06    0.04
   2  11   8    0.03    0.05
   0 -11  -7    1.28    0.08
   0  11   7    1.22    0.09
   2 -11  -6    0.05    0.05
  -2  11   6    0.09    0.06
  -5 -10  -9    0.39    0.06
  -5 -10  -9    0.39    0.07
   5  10   9    0.40    0.07
  -3 -10  -8    1.52    0.08
  -3 -10  -8    1.57    0.08
   3  10   8    1.52    0.09
  -1 -10  -7    0.76    0.06
   1  10   7    0.76    0.06
   1  10   7    0.86    0.06
   1 -10  -6    0.93    0.07
  -1  10   6    0.91    0.07
   3 -10  -5    0.51    0.08
  -3  10   5    0.63    0.08
  -4  -9  -8    0.03    0.04
  -4  -9  -8    0.03    0.04
   4   9   8    0.02    0.04
  -2  -9  -7    0.49    0.06
  -2  -9  -7    0.62    0.06
   2   9   7    0.53    0.06
   0  -9  -6    0.48    0.05
   0   9   6    0.45    0.05
   2  -9  -5    0.02    0.04
  -2   9   5    0.01    0.04
  -5  -8  -8    0.43    0.06
  -5  -8  -8    0.44    0.05
   5   8   8    0.45    0.07
  -3  -8  -7    0.17    0.04
  -3  -8  -7    0.19    0.04
   3   8   7    0.11    0.04
  -1  -8  -6    0.60    0.05
   1   8   6    0.67    0.05
   1  -8  -5    1.79    0.08
   1  -8  -5    2.10    0.07
  -1   8   5    1.88    0.08
   3  -8  -4    0.12    0.05
   3  -8  -4    0.02    0.03
  -3   8   4    0.03    0.04
  -6  -7  -8    0.36    0.05
  -6  -7  -8    0.35    0.06
   6   7   8    0.35    0.06
  -4  -7  -7    2.81    0.09
  -4  -7  -7    2.68    0.09
   4   7   7    2.85    0.10
  -2  -7  -6    7.61    0.16
  -2  -7  -6    7.63    0.16
   2   7   6    7.76    0.16
   0  -7  -5    6.61    0.14
   0   7   5    6.43    0.14
   0   7   5    6.51    0.13
   2  -7  -4    1.99    0.07
   2  -7  -4    1.99    0.08
  -2   7   4    1.95    0.08
   4  -7  -3    0.10    0.04
   4  -7  -3    0.11    0.04
  -4   7   3    0.14    0.05
  -5  -6  -7    3.70    0.11
  -5  -6  -7    3.79    0.11
   5   6   7    3.57    0.12
  -3  -6  -6    0.38    0.04
  -3  -6  -6    0.37    0.04
   3   6   6    0.41    0.04
  -1  -6  -5    0.01    0.03
  -1  -6  -5    0.16    0.03
   1   6   5   -0.01    0.03
   1  -6  -4    1.05    0.04
   1  -6  -4    1.02    0.05
  -1   6   4    1.04    0.05
   3  -6  -3    0.05    0.03
   3  -6  -3    0.02    0.03
  -3   6   3    0.12    0.04
   5  -6  -2    3.02    0.11
   5  -6  -2    2.95    0.12
  -5   6   2    2.96    0.11
  -6  -5  -7    0.91    0.06
  -6  -5  -7    0.93    0.06
   6   5   7    0.85    0.07
  -4  -5  -6    0.13    0.03
  -4  -5  -6    0.09    0.03
   4   5   6    0.11    0.03
  -2  -5  -5    0.20    0.03
  -2  -5  -5    0.23    0.03
   2   5   5    0.16    0.03
   0  -5  -4    1.01    0.04
   0   5   4    0.95    0.04
   0   5   4    0.96    0.04
   2  -5  -3    3.90    0.10
   2  -5  -3    3.90    0.10
  -2   5   3    3.80    0.10
   4  -5  -2    0.22    0.04
   4  -5  -2    0.16    0.04
  -4   5   2    0.27    0.05
   6  -5  -1    1.48    0.10
  -6   5   1    1.54    0.08
  -6   5   1    1.66    0.09
  -7  -4  -7    0.74    0.06
   7   4   7    0.66    0.07
  -5  -4  -6    0.83    0.05
  -5  -4  -6    0.84    0.05
   5   4   6    0.89    0.05
   5   4   6    0.90    0.06
  -3  -4  -5    8.87    0.16
  -3  -4  -5    8.68    0.17
   3   4   5    8.98    0.17
   3   4   5    8.77    0.16
  -1  -4  -4   30.22    0.47
  -1  -4  -4   30.02    0.47
   1   4   4   29.85    0.47
   1  -4  -3   31.61    0.51
   1  -4  -3   31.58    0.50
  -1   4   3   31.26    0.50
   3  -4  -2    2.73    0.08
   3  -4  -2    2.74    0.09
  -3   4   2    2.72    0.08
   5  -4  -1    0.05    0.03
  -5   4   1   -0.01    0.03
  -5   4   1   -0.02    0.03
  -6  -3  -6    1.39    0.07
  -6  -3  -6    1.34    0.07
   6   3   6    1.45    0.07
   6   3   6    1.40    0.07
  -4  -3  -5    7.91    0.16
  -4  -3  -5    7.71    0.15
   4   3   5    7.81    0.16
   4   3   5    7.58    0.15
  -2  -3  -4    2.99    0.07
  -2  -3  -4    2.90    0.06
   2   3   4    2.92    0.07
   0  -3  -3    8.83    0.15
   0  -3  -3    8.43    0.14
   0   3   3    8.53    0.15
   0   3   3    8.48    0.14
   2  -3  -2    0.37    0.03
   2  -3  -2    0.35    0.03
  -2   3   2    0.31    0.03
   4  -3  -1    0.12    0.03
   4  -3  -1    0.12    0.04
  -4   3   1    0.20    0.04
   6  -3   0    4.11    0.14
  -6   3   0    4.05    0.13
  -6   3   0    3.95    0.12
  -7  -2  -6    0.09    0.04
   7   2   6    0.10    0.04
  -5  -2  -5    1.47    0.06
  -5  -2  -5    1.50    0.06
   5   2   5    1.46    0.07
   5   2   5    1.50    0.07
  -3  -2  -4   -0.02    0.01
  -3  -2  -4   -0.03    0.01
   3   2   4   -0.01    0.01
   3   2   4    0.01    0.02
  -1  -2  -3    3.93    0.08
  -1  -2  -3    4.04    0.07
   1   2   3    3.94    0.08
   1  -2  -2    0.02    0.01
   1  -2  -2    0.02    0.01
   3  -2  -1    5.97    0.12
   3  -2  -1    6.15    0.13
  -3   2   1    5.95    0.13
   5  -2   0    0.23    0.04
  -5   2   0    0.38    0.05
  -5   2   0    0.33    0.04
   7  -2   1    1.83    0.11
  -7   2  -1    1.85    0.09
  -6  -1  -5    1.43    0.07
  -6  -1  -5    1.29    0.07
   6   1   5    1.34    0.08
  -4  -1  -4    1.54    0.05
  -4  -1  -4    1.49    0.06
   4   1   4    1.59    0.06
   4   1   4    1.56    0.06
  -2  -1  -3   14.30    0.24
  -2  -1  -3   14.57    0.23
   2   1   3   14.12    0.24
   2   1   3   14.68    0.24
   0  -1  -2   72.40    1.19
   0  -1  -2   78.05    1.15
   0   1   2   75.55    1.16
   0   1   2   76.37    1.15
   2  -1  -1   60.61    0.93
   2  -1  -1   62.53    0.99
  -2   1   1   60.26    0.95
   4  -1   0    1.58    0.07
  -4   1   0    1.69    0.05
  -4   1   0    1.65    0.06
   6  -1   1    0.07    0.04
  -6   1  -1    0.06    0.04
  -6   1  -1    0.05    0.03
  -7   0  -5    0.06    0.04
   7   0   5    0.06    0.04
  -5   0  -4    2.62    0.09
  -5   0  -4    2.69    0.08
   5   0   4    2.51    0.07
   5   0   4    2.65    0.09
  -3   0  -3    9.04    0.16
  -3   0  -3    8.98    0.17
   3   0   3    9.27    0.17
   3   0   3    8.85    0.16
  -1   0  -2   16.99    0.27
   1   0   2   17.17    0.28
   1   0   2   17.14    0.27
   1   0  -1   30.63    0.49
  -1   0   1   30.90    0.47
  -1   0   1   30.63    0.47
   3   0   0    0.06    0.02
  -3   0   0    0.05    0.01
  -3   0   0    0.08    0.02
   5   0   1   -0.03    0.03
  -5   0  -1    0.04    0.03
  -5   0  -1    0.04    0.02
   7   0   2    2.90    0.12
  -7   0  -2    2.82    0.11
  -6   1  -4    0.03    0.03
   6  -1   4    0.07    0.04
  -4   1  -3    0.87    0.04
  -4   1  -3    0.86    0.05
   4  -1   3    0.86    0.05
  -2   1  -2    0.09    0.02
  -2   1  -2    0.13    0.02
   2  -1   2    0.12    0.02
   2  -1   2    0.10    0.02
   0   1  -1   12.93    0.20
   0  -1   1   12.38    0.20
   0  -1   1   12.72    0.21
   0  -1   1   12.83    0.20
   2   1   0    2.66    0.06
  -2  -1   0    2.66    0.06
   4   1   1    3.06    0.09
   4   1   1    3.06    0.07
  -4  -1  -1    2.97    0.08
  -4  -1  -1    2.98    0.07
   6   1   2    0.05    0.04
  -6  -1  -2    0.10    0.04
  -6  -1  -2    0.09    0.03
  -5   2  -3    2.17    0.08
  -5   2  -3    2.13    0.07
   5  -2   3    2.15    0.09
  -3   2  -2    1.16    0.04
  -3   2  -2    1.19    0.05
   3  -2   2    1.21    0.05
  -1   2  -1    6.06    0.10
   1  -2   1    5.98    0.11
   1  -2   1    6.01    0.11
   1   2   0   42.47    0.69
  -1  -2   0   44.10    0.66
  -1  -2   0   43.52    0.67
   3   2   1   36.42    0.59
   3   2   1   35.97    0.56
  -3  -2  -1   35.92    0.57
   5   2   2    0.39    0.05
   5   2   2    0.43    0.05
  -5  -2  -2    0.33    0.03
  -5  -2  -2    0.36    0.04
   7   2   3    0.20    0.05
  -7  -2  -3    0.10    0.04
  -6   3  -3    0.07    0.03
   6  -3   3    0.07    0.04
  -4   3  -2    1.58    0.07
  -4   3  -2    1.60    0.06
   4  -3   2    1.59    0.07
  -2   3  -1    3.48    0.08
   2  -3   1    3.57    0.08
   2  -3   1    3.50    0.09
   0  -3   0   30.30    0.49
   0  -3   0   29.99    0.47
   0  -3   0   31.07    0.47
   0  -3   0   30.43    0.47
   2   3   1   19.44    0.32
   2   3   1   19.70    0.32
  -2  -3  -1   19.88    0.32
   4   3   2    0.36    0.04
   4   3   2    0.36    0.04
  -4  -3  -2    0.40    0.03
  -4  -3  -2    0.34    0.04
   6   3   3   -0.02    0.03
   6   3   3   -0.07    0.03
  -6  -3  -3    0.01    0.03
  -5   4  -2    0.07    0.03
  -5   4  -2    0.05    0.03
   5  -4   2    0.05    0.03
  -3   4  -1    0.03    0.02
   3  -4   1   -0.01    0.02
  -1   4   0    0.69    0.03
   1  -4   0    0.68    0.04
   1  -4   0    0.67    0.04
   1   4   1    7.29    0.13
  -1  -4  -1    7.29    0.13
  -1  -4  -1    7.16    0.13
   3   4   2    2.83    0.07
   3   4   2    2.85    0.08
  -3  -4  -2    2.83    0.07
  -3  -4  -2    2.81    0.06
   5   4   3    0.60    0.05
   5   4   3    0.73    0.05
  -5  -4  -3    0.69    0.04
  -5  -4  -3    0.68    0.05
   7   4   4   -0.01    0.03
   7   4   4   -0.03    0.03
  -7  -4  -4   -0.03    0.04
  -4   5  -1    2.52    0.09
  -4   5  -1    2.52    0.08
   4  -5   1    2.47    0.10
  -2   5   0    0.21    0.03
   2  -5   0    0.23    0.03
   2  -5   0    0.20    0.03
   0  -5  -1    0.35    0.03
   0  -5  -1    0.24    0.02
   0  -5  -1    0.33    0.03
   2   5   2    7.17    0.13
   2   5   2    7.61    0.15
  -2  -5  -2    7.64    0.13
  -2  -5  -2    7.56    0.15
   4   5   3    9.14    0.18
   4   5   3    8.83    0.17
  -4  -5  -3    9.00    0.18
  -4  -5  -3    8.98    0.16
   6   5   4   -0.01    0.03
  -6  -5  -4   -0.05    0.03
  -5   6  -1    0.76    0.07
   5  -6   1    0.71    0.07
  -3   6   0    0.52    0.05
   3  -6   0    0.44    0.05
   3  -6   0    0.49    0.05
  -1   6   1    0.46    0.04
   1  -6  -1    0.42    0.04
   1  -6  -1    0.43    0.04
   1   6   2   20.12    0.33
  -1  -6  -2   19.76    0.32
  -1  -6  -2   19.80    0.33
  -1  -6  -2   19.02    0.32
   3   6   3    4.62    0.11
  -3  -6  -3    4.55    0.11
  -3  -6  -3    4.66    0.10
   5   6   4    0.05    0.04
  -5  -6  -4    0.06    0.03
  -5  -6  -4    0.07    0.04
   7   6   5    0.04    0.05
  -7  -6  -5    0.12    0.05
  -4   7   0    0.21    0.05
   4  -7   0    0.25    0.05
  -2   7   1    0.36    0.05
   2  -7  -1    0.21    0.04
   2  -7  -1    0.29    0.05
   0   7   2    1.11    0.05
   0  -7  -2    1.16    0.05
   0  -7  -2    1.11    0.05
   0  -7  -2    1.13    0.05
   2   7   3    2.43    0.08
  -2  -7  -3    2.42    0.07
  -2  -7  -3    2.40    0.08
   4   7   4    0.87    0.06
  -4  -7  -4    0.81    0.06
  -4  -7  -4    0.82    0.04
   6   7   5    0.09    0.05
  -6  -7  -5    0.07    0.04
  -3   8   1    1.57    0.08
   3  -8  -1    1.68    0.08
   3  -8  -1    1.62    0.08
  -1   8   2    0.26    0.04
   1  -8  -2    0.22    0.04
   1  -8  -2    0.35    0.05
   1   8   3    0.49    0.04
  -1  -8  -3    0.38    0.05
  -1  -8  -3    0.53    0.05
  -1  -8  -3    0.54    0.03
   3   8   4    1.16    0.07
  -3  -8  -4    1.25    0.07
  -3  -8  -4    1.24    0.06
   5   8   5    1.47    0.08
  -5  -8  -5    1.39    0.08
  -2   9   2    0.07    0.04
   2  -9  -2    0.09    0.04
   2  -9  -2    0.04    0.03
   0   9   3    0.09    0.03
   0   9   3    0.16    0.04
   0  -9  -3    0.09    0.04
   2   9   4    9.61    0.20
  -2  -9  -4    9.14    0.20
  -2  -9  -4    9.29    0.19
   4   9   5    0.54    0.06
  -4  -9  -5    0.57    0.07
  -4  -9  -5    0.52    0.05
   6   9   6   -0.01    0.05
  -6  -9  -6   -0.04    0.04
  -3  10   2    0.61    0.08
   3 -10  -2    0.57    0.08
   3 -10  -2    0.49    0.07
  -1  10   3    0.33    0.06
   1 -10  -3    0.35    0.06
   1  10   4    0.70    0.06
  -1 -10  -4    0.80    0.06
  -1 -10  -4    0.85    0.07
   3  10   5    0.58    0.06
  -3 -10  -5    0.71    0.06
  -3 -10  -5    0.65    0.07
   5  10   6    0.03    0.05
  -5 -10  -6    0.00    0.05
  -2  11   3    0.68    0.08
   2 -11  -3    0.71    0.08
   0  11   4    0.66    0.08
   0 -11  -4    0.56    0.07
   2  11   5    0.64    0.07
  -2 -11  -5    0.80    0.07
  -2 -11  -5    0.88    0.07
   4  11   6    0.22    0.06
  -4 -11  -6    0.27    0.07
   1  12   5    0.12    0.06
  -1 -12  -5    0.08    0.05
   3  12   6    4.15    0.14
  -3 -12  -6    4.06    0.13
  -3 -12  -6    4.04    0.14
  -2 -12  -9    0.23    0.06
   2  12   9    0.23    0.06
   2  12   9    0.30    0.07
   0 -12  -8    0.33    0.07
   0  12   8    0.23    0.07
  -3 -11  -9    0.06    0.05
  -3 -11  -9   -0.05    0.04
   3  11   9   -0.12    0.05
  -1 -11  -8    0.49    0.07
   1  11   8    0.51    0.07
   1 -11  -7    1.59    0.10
  -1  11   7    1.72    0.10
  -4 -10  -9    0.05    0.05
  -4 -10  -9    0.12    0.05
   4  10   9    0.05    0.05
  -2 -10  -8    0.04    0.04
  -2 -10  -8    0.12    0.05
   2  10   8    0.10    0.05
   0 -10  -7    0.07    0.04
   0  10   7    0.09    0.05
   2 -10  -6    5.35    0.16
  -2  10   6    5.59    0.16
  -5  -9  -9    1.30    0.08
  -5  -9  -9    1.29    0.08
   5   9   9    1.29    0.09
  -3  -9  -8    0.86    0.06
  -3  -9  -8    0.81    0.06
   3   9   8    0.59    0.07
  -1  -9  -7    0.45    0.05
   1   9   7    0.46    0.05
   1   9   7    0.42    0.06
   1  -9  -6    0.94    0.07
  -1   9   6    0.90    0.07
   3  -9  -5    0.04    0.03
   3  -9  -5   -0.02    0.04
  -3   9   5    0.04    0.05
  -6  -8  -9    0.08    0.05
  -6  -8  -9    0.07    0.04
   6   8   9    0.04    0.05
  -4  -8  -8    1.45    0.07
  -4  -8  -8    1.41    0.07
   4   8   8    1.47    0.08
  -2  -8  -7    0.36    0.05
  -2  -8  -7    0.42    0.05
   2   8   7    0.33    0.05
   0  -8  -6    0.03    0.03
   0   8   6    0.06    0.03
   0   8   6    0.06    0.03
   2  -8  -5    4.27    0.12
   2  -8  -5    4.35    0.13
  -2   8   5    4.12    0.12
   4  -8  -4    2.21    0.10
   4  -8  -4    2.15    0.10
  -4   8   4    2.12    0.11
  -5  -7  -8    2.21    0.09
  -5  -7  -8    2.18    0.09
   5   7   8    2.30    0.10
  -3  -7  -7    0.01    0.03
  -3  -7  -7   -0.02    0.03
   3   7   7    0.01    0.03
  -1  -7  -6    0.00    0.03
  -1  -7  -6    0.01    0.03
   1   7   6    0.03    0.03
   1  -7  -5    0.04    0.02
   1  -7  -5    0.01    0.03
  -1   7   5    0.07    0.03
   3  -7  -4    8.88    0.20
   3  -7  -4    8.90    0.20
  -3   7   4    8.86    0.20
   5  -7  -3    1.33    0.09
   5  -7  -3    1.41    0.09
  -5   7   3    1.38    0.09
  -6  -6  -8    0.02    0.04
  -6  -6  -8   -0.01    0.04
   6   6   8    0.01    0.04
  -4  -6  -7    6.08    0.14
  -4  -6  -7    6.12    0.14
   4   6   7    6.07    0.15
  -2  -6  -6    1.50    0.06
  -2  -6  -6    1.47    0.06
   2   6   6    1.46    0.06
   0  -6  -5    1.36    0.05
   0   6   5    1.27    0.06
   0   6   5    1.30    0.05
   2  -6  -4    2.15    0.08
   2  -6  -4    2.15    0.07
  -2   6   4    1.98    0.08
   4  -6  -3    0.09    0.04
   4  -6  -3    0.03    0.04
  -4   6   3    0.07    0.04
  -7  -5  -8    0.27    0.05
   7   5   8    0.26    0.06
  -5  -5  -7    0.29    0.04
  -5  -5  -7    0.24    0.04
   5   5   7    0.23    0.05
  -3  -5  -6    3.06    0.08
  -3  -5  -6    3.09    0.08
   3   5   6    3.17    0.09
  -1  -5  -5    2.70    0.07
  -1  -5  -5    2.78    0.07
   1   5   5    2.74    0.07
   1  -5  -4    1.55    0.06
   1  -5  -4    1.50    0.05
  -1   5   4    1.52    0.06
   3  -5  -3    7.65    0.16
   3  -5  -3    7.65    0.17
  -3   5   3    7.61    0.17
   5  -5  -2    2.61    0.10
   5  -5  -2    2.62    0.11
  -5   5   2    2.65    0.10
  -6  -4  -7    0.04    0.03
   6   4   7    0.02    0.04
  -4  -4  -6    0.95    0.05
  -4  -4  -6    0.88    0.05
   4   4   6    0.89    0.06
   4   4   6    0.82    0.04
  -2  -4  -5    0.89    0.04
  -2  -4  -5    0.92    0.04
   2   4   5    0.98    0.04
   0  -4  -4    0.18    0.02
   0  -4  -4    0.26    0.03
   0   4   4    0.22    0.03
   0   4   4    0.19    0.02
   2  -4  -3    1.87    0.06
   2  -4  -3    1.96    0.06
  -2   4   3    2.17    0.07
   4  -4  -2    9.84    0.20
   4  -4  -2    9.84    0.22
  -4   4   2   10.01    0.21
   6  -4  -1    1.10    0.08
  -6   4   1    1.01    0.07
  -6   4   1    1.08    0.08
  -7  -3  -7   -0.01    0.04
  -5  -3  -6   -0.01    0.03
  -5  -3  -6   -0.02    0.02
   5   3   6    0.00    0.02
   5   3   6    0.02    0.03
  -3  -3  -5   25.39    0.41
  -3  -3  -5   25.31    0.40
   3   3   5   24.96    0.41
   3   3   5   25.48    0.42
  -1  -3  -4    0.64    0.03
  -1  -3  -4    0.64    0.03
   1   3   4    0.70    0.03
   1  -3  -3    8.09    0.14
   1  -3  -3    7.33    0.14
  -1   3   3    7.39    0.14
   3  -3  -2    2.80    0.08
   3  -3  -2    2.74    0.08
  -3   3   2    2.73    0.08
   5  -3  -1    0.17    0.04
  -5   3   1    0.21    0.04
  -5   3   1    0.17    0.04
  -6  -2  -6    0.45    0.05
   6   2   6    0.42    0.05
   6   2   6    0.42    0.05
  -4  -2  -5    4.40    0.10
  -4  -2  -5    4.45    0.11
   4   2   5    4.51    0.11
   4   2   5    4.32    0.11
  -2  -2  -4    1.70    0.05
  -2  -2  -4    1.69    0.04
   2   2   4    1.72    0.04
   2   2   4    1.66    0.05
   0  -2  -3    8.64    0.15
   0  -2  -3    9.02    0.15
   0   2   3    8.79    0.15
   0   2   3    8.97    0.15
   2  -2  -2    8.30    0.16
   2  -2  -2    8.04    0.14
  -2   2   2    8.02    0.15
   4  -2  -1    9.05    0.19
  -4   2   1    9.13    0.19
   6  -2   0    1.71    0.09
  -6   2   0    1.77    0.07
  -6   2   0    1.63    0.08
  -7  -1  -6    0.49    0.06
   7   1   6    0.43    0.06
  -5  -1  -5    0.01    0.02
  -5  -1  -5    0.00    0.03
   5   1   5    0.02    0.03
   5   1   5   -0.04    0.03
  -3  -1  -4    0.58    0.03
  -3  -1  -4    0.60    0.04
   3   1   4    0.52    0.03
   3   1   4    0.56    0.03
  -1  -1  -3    5.94    0.11
   1   1   3    5.90    0.10
   1   1   3    5.82    0.11
   1  -1  -2    1.58    0.04
   1  -1  -2    1.52    0.04
  -1   1   2    1.56    0.03
  -1   1   2    1.51    0.04
   3  -1  -1    6.89    0.14
   3  -1  -1    6.63    0.12
  -3   1   1    6.59    0.13
   5  -1   0    5.93    0.15
  -5   1   0    5.89    0.13
  -5   1   0    5.99    0.14
   7  -1   1    0.67    0.08
  -7   1  -1    0.71    0.07
  -6   0  -5    0.06    0.03
   6   0   5    0.04    0.03
  -4   0  -4    0.06    0.02
  -4   0  -4    0.06    0.02
   4   0   4    0.03    0.02
   4   0   4    0.03    0.02
  -2   0  -3   56.71    0.86
   2   0   3   55.34    0.86
   2   0   3   57.15    0.90
   0   0  -2    2.30    0.04
   0   0   2    2.24    0.05
   2   0  -1   17.43    0.30
  -2   0   1   17.64    0.29
  -2   0   1   17.87    0.28
   4   0   0    0.84    0.05
  -4   0   0    0.83    0.04
  -4   0   0    0.82    0.05
   6   0   1    0.25    0.05
  -6   0  -1    0.28    0.05
  -6   0  -1    0.32    0.04
  -5   1  -4    0.87    0.05
  -5   1  -4    0.90    0.05
   5  -1   4    0.75    0.06
  -3   1  -3   16.28    0.26
  -3   1  -3   16.11    0.28
   3  -1   3   15.81    0.26
   3  -1   3   16.51    0.29
  -1   1  -2    0.03    0.01
   1  -1   2    0.03    0.01
   1  -1   2    0.04    0.01
   1   1  -1    8.09    0.14
  -1  -1   1    8.24    0.14
  -1  -1   1    7.97    0.14
   3   1   0    6.82    0.13
   3   1   0    7.13    0.14
  -3  -1   0    7.17    0.14
   5   1   1    6.17    0.13
   5   1   1    6.09    0.15
  -5  -1  -1    6.10    0.14
  -5  -1  -1    6.17    0.13
   7   1   2    0.67    0.07
  -7  -1  -2    0.62    0.07
  -6   2  -4    0.61    0.06
   6  -2   4    0.60    0.07
  -4   2  -3    0.04    0.02
  -4   2  -3    0.06    0.02
   4  -2   3    0.07    0.03
  -2   2  -2   10.53    0.18
  -2   2  -2   10.45    0.19
   2  -2   2   10.62    0.20
   0  -2   1   13.81    0.21
   0  -2   1   13.50    0.23
   0  -2   1   13.60    0.21
   0  -2   1   13.03    0.21
   2   2   0    1.36    0.04
  -2  -2   0    1.43    0.04
  -2  -2   0    1.39    0.04
   4   2   1    6.02    0.12
   4   2   1    5.89    0.13
  -4  -2  -1    5.69    0.13
  -4  -2  -1    5.72    0.11
   6   2   2    2.10    0.09
   6   2   2    2.09    0.08
  -6  -2  -2    2.23    0.09
  -5   3  -3    0.22    0.04
   5  -3   3    0.15    0.04
  -3   3  -2    0.31    0.03
  -3   3  -2    0.33    0.03
   3  -3   2    0.31    0.04
  -1   3  -1   43.22    0.66
   1  -3   1   41.73    0.66
   1  -3   1   44.41    0.70
   1  -3   1   44.37    0.67
   1   3   0    8.80    0.15
  -1  -3   0    8.70    0.15
  -1  -3   0    8.60    0.15
  -1  -3   0    8.93    0.14
   3   3   1   15.30    0.27
   3   3   1   15.72    0.27
  -3  -3  -1   15.87    0.27
   5   3   2    0.02    0.03
   5   3   2    0.01    0.03
  -5  -3  -2    0.03    0.03
  -5  -3  -2   -0.01    0.02
   7   3   3    0.35    0.06
  -7  -3  -3    0.31    0.06
  -6   4  -3    0.22    0.05
   6  -4   3    0.20    0.05
  -4   4  -2    2.32    0.08
  -4   4  -2    2.23    0.08
   4  -4   2    2.38    0.09
  -2   4  -1   19.19    0.31
   2  -4   1   19.07    0.34
   2  -4   1   18.95    0.32
   0  -4   0    1.21    0.04
   0  -4   0    1.19    0.04
   0  -4   0    1.26    0.04
   0  -4   0    1.22    0.04
   2   4   1    1.34    0.05
   2   4   1    1.31    0.04
  -2  -4  -1    1.34    0.04
  -2  -4  -1    1.28    0.05
   4   4   2    1.26    0.06
   4   4   2    1.14    0.05
  -4  -4  -2    1.22    0.06
   6   4   3    2.47    0.09
   6   4   3    2.44    0.10
  -6  -4  -3    2.70    0.10
  -5   5  -2    0.46    0.06
   5  -5   2    0.33    0.05
  -3   5  -1    0.38    0.04
   3  -5   1    0.27    0.04
  -1   5   0   15.93    0.27
   1  -5   0   15.69    0.27
   1  -5   0   15.79    0.28
  -1  -5  -1    8.10    0.14
  -1  -5  -1    8.02    0.15
   3   5   2    0.35    0.03
   3   5   2    0.35    0.04
  -3  -5  -2    0.43    0.04
   5   5   3    2.15    0.08
   5   5   3    2.22    0.08
  -5  -5  -3    2.19    0.08
   7   5   4    0.34    0.06
  -7  -5  -4    0.41    0.06
  -4   6  -1    0.19    0.04
  -4   6  -1    0.22    0.04
   4  -6   1    0.20    0.04
  -2   6   0    0.33    0.04
   2  -6   0    0.34    0.04
   2  -6   0    0.27    0.04
   0  -6  -1   12.95    0.23
   0  -6  -1   12.84    0.23
   0  -6  -1   12.50    0.23
   4   6   3    7.09    0.16
   4   6   3    7.04    0.14
  -4  -6  -3    7.18    0.13
  -4  -6  -3    7.16    0.16
   6   6   4    0.58    0.07
  -6  -6  -4    0.62    0.06
  -5   7  -1    0.07    0.04
   5  -7   1   -0.03    0.04
  -3   7   0    1.66    0.07
   3  -7   0    1.85    0.08
   3  -7   0    1.72    0.08
  -1   7   1    9.50    0.19
   1  -7  -1    9.39    0.19
   1  -7  -1    9.74    0.19
   1   7   2    0.49    0.04
  -1  -7  -2    0.50    0.04
  -1  -7  -2    0.48    0.03
  -1  -7  -2    0.46    0.04
   3   7   3    0.12    0.04
  -3  -7  -3    0.11    0.03
  -3  -7  -3    0.16    0.03
   5   7   4   -0.04    0.03
  -5  -7  -4   -0.01    0.04
   7   7   5    0.69    0.08
  -7  -7  -5    0.73    0.08
  -4   8   0    0.09    0.04
  -4   8   0    0.09    0.04
   4  -8   0    0.11    0.05
  -2   8   1    0.58    0.06
   2  -8  -1    0.64    0.06
   2  -8  -1    0.70    0.06
   0   8   2    8.38    0.16
   0  -8  -2    8.09    0.17
   0  -8  -2    8.35    0.17
   2   8   3    3.49    0.10
  -2  -8  -3    3.44    0.09
  -2  -8  -3    3.30    0.10
   4   8   4    0.01    0.04
  -4  -8  -4    0.07    0.03
  -4  -8  -4    0.03    0.03
   6   8   5    0.36    0.07
  -6  -8  -5    0.48    0.07
  -3   9   1    0.12    0.05
   3  -9  -1    0.12    0.05
   3  -9  -1    0.10    0.04
  -1   9   2    0.07    0.04
   1  -9  -2    0.08    0.04
   1  -9  -2    0.07    0.03
   1   9   3    2.65    0.09
  -1  -9  -3    2.53    0.09
  -1  -9  -3    2.59    0.09
   3   9   4    2.25    0.09
  -3  -9  -4    2.30    0.09
  -3  -9  -4    2.52    0.08
   5   9   5    2.21    0.10
  -5  -9  -5    2.21    0.10
  -2  10   2    0.89    0.08
   2 -10  -2    0.97    0.07
   2 -10  -2    0.95    0.08
   0  10   3    3.78    0.12
   0 -10  -3    3.59    0.12
   2  10   4   -0.01    0.03
  -2 -10  -4    0.01    0.04
  -2 -10  -4   -0.01    0.03
   4  10   5   -0.06    0.04
  -4 -10  -5   -0.01    0.04
  -1  11   3    0.85    0.08
   1 -11  -3    0.84    0.08
   1  11   4    2.34    0.09
  -1 -11  -4    2.32    0.10
  -1 -11  -4    2.28    0.10
   3  11   5    1.68    0.09
  -3 -11  -5    1.73    0.08
  -3 -11  -5    1.68    0.09
   5  11   6   -0.06    0.05
  -5 -11  -6    0.05    0.05
   0  12   4   -0.07    0.04
   0 -12  -4   -0.01    0.04
   2  12   5    0.67    0.07
  -2 -12  -5    0.79    0.08
  -2 -12  -5    0.64    0.07
   4  12   6    0.72    0.08
  -4 -12  -6    0.75    0.09
  -1 -12  -9    0.03    0.05
   1  12   9    0.00    0.05
  -4 -11 -10    0.23    0.06
  -4 -11 -10    0.31    0.07
   4  11  10    0.15    0.06
  -2 -11  -9    0.27    0.06
   2  11   9    0.26    0.06
   2  11   9    0.38    0.07
   0 -11  -8    0.03    0.05
   0  11   8    0.03    0.05
  -5 -10 -10   -0.03    0.04
  -5 -10 -10   -0.07    0.04
   5  10  10   -0.01    0.05
  -3 -10  -9    0.59    0.07
  -3 -10  -9    0.64    0.07
   3  10   9    0.60    0.07
  -1 -10  -8    0.04    0.04
   1  10   8   -0.01    0.03
   1  10   8    0.05    0.04
   1 -10  -7    1.84    0.09
  -1  10   7    1.97    0.09
  -4  -9  -9    2.14    0.09
  -4  -9  -9    2.21    0.09
   4   9   9    2.28    0.10
  -2  -9  -8    1.65    0.08
  -2  -9  -8    1.59    0.08
   2   9   8    1.50    0.08
   0  -9  -7    0.11    0.04
   0   9   7    0.12    0.04
   2  -9  -6    0.30    0.06
  -2   9   6    0.32    0.06
  -5  -8  -9    0.67    0.06
  -5  -8  -9    0.66    0.06
   5   8   9    0.74    0.07
  -3  -8  -8    1.14    0.07
  -3  -8  -8    1.23    0.07
   3   8   8    1.04    0.07
  -1  -8  -7    0.90    0.06
   1   8   7    0.90    0.06
   1   8   7    0.94    0.06
   1  -8  -6    0.12    0.04
  -1   8   6    0.16    0.04
   3  -8  -5    1.37    0.08
   3  -8  -5    1.59    0.08
  -3   8   5    1.60    0.09
  -6  -7  -9    2.24    0.10
   6   7   9    2.25    0.11
  -4  -7  -8    0.67    0.06
  -4  -7  -8    0.74    0.06
   4   7   8    0.69    0.06
  -2  -7  -7    1.46    0.06
  -2  -7  -7    1.41    0.06
   2   7   7    1.36    0.07
   0  -7  -6    0.16    0.03
   0   7   6    0.23    0.04
   0   7   6    0.17    0.03
   2  -7  -5    5.60    0.14
   2  -7  -5    5.66    0.13
  -2   7   5    5.35    0.14
   4  -7  -4    0.61    0.06
   4  -7  -4    0.51    0.06
  -4   7   4    0.67    0.08
  -5  -6  -8    1.29    0.07
  -5  -6  -8    1.23    0.07
   5   6   8    1.30    0.08
  -3  -6  -7    8.17    0.17
  -3  -6  -7    8.19    0.17
   3   6   7    8.27    0.18
  -1  -6  -6    6.68    0.14
   1   6   6    6.49    0.14
   1  -6  -5    0.53    0.04
   1  -6  -5    0.52    0.04
  -1   6   5    0.49    0.04
   3  -6  -4    0.53    0.05
   3  -6  -4    0.55    0.06
  -3   6   4    0.68    0.06
   5  -6  -3    0.05    0.04
   5  -6  -3    0.11    0.04
  -5   6   3    0.14    0.05
  -6  -5  -8   -0.03    0.03
   6   5   8    0.05    0.04
  -4  -5  -7    1.62    0.07
  -4  -5  -7    1.65    0.06
   4   5   7    1.66    0.08
  -2  -5  -6    5.72    0.12
  -2  -5  -6    5.65    0.12
   2   5   6    5.67    0.13
   0  -5  -5    1.84    0.06
   0  -5  -5    1.86    0.05
   0   5   5    1.98    0.05
   0   5   5    2.01    0.06
   2  -5  -4    0.52    0.04
   2  -5  -4    0.55    0.04
  -2   5   4    0.51    0.04
   4  -5  -3    1.33    0.07
   4  -5  -3    1.21    0.07
  -4   5   3    1.24    0.07
   6  -5  -2    2.66    0.12
  -6   5   2    2.69    0.12
  -6   5   2    2.69    0.10
  -7  -4  -8   -0.01    0.04
   7   4   8   -0.04    0.04
  -5  -4  -7    2.95    0.09
  -5  -4  -7    2.96    0.10
   5   4   7    2.99    0.10
   5   4   7    3.06    0.10
  -3  -4  -6    7.10    0.15
  -3  -4  -6    7.13    0.14
   3   4   6    6.78    0.13
   3   4   6    7.26    0.15
  -1  -4  -5    4.02    0.09
  -1  -4  -5    4.14    0.09
   1   4   5    4.02    0.09
   1  -4  -4    0.23    0.03
   1  -4  -4    0.22    0.02
  -1   4   4    0.22    0.03
   3  -4  -3   10.07    0.19
   3  -4  -3    9.99    0.20
  -3   4   3   10.13    0.20
   5  -4  -2    0.02    0.03
   5  -4  -2    0.00    0.02
  -5   4   2   -0.01    0.03
  -6  -3  -7   -0.06    0.03
   6   3   7   -0.02    0.04
   6   3   7    0.01    0.03
  -4  -3  -6    1.48    0.05
  -4  -3  -6    1.55    0.06
   4   3   6    1.52    0.07
   4   3   6    1.46    0.06
  -2  -3  -5   35.10    0.54
  -2  -3  -5   34.52    0.55
   2   3   5   35.37    0.55
   2   3   5   35.16    0.56
   0  -3  -4   19.75    0.33
   0  -3  -4   21.15    0.33
   0   3   4   20.45    0.33
   0   3   4   20.83    0.33
   2  -3  -3    1.94    0.06
   2  -3  -3    1.98    0.06
  -2   3   3    1.99    0.06
   4  -3  -2    1.08    0.05
   4  -3  -2    0.98    0.07
  -4   3   2    1.21    0.06
   6  -3  -1    0.76    0.07
  -6   3   1    0.77    0.06
  -6   3   1    0.75    0.07
  -7  -2  -7    2.42    0.10
   7   2   7    2.41    0.10
  -5  -2  -6    0.09    0.03
  -5  -2  -6    0.06    0.03
   5   2   6    0.06    0.03
   5   2   6    0.07    0.03
  -3  -2  -5    5.79    0.11
  -3  -2  -5    5.95    0.12
   3   2   5    5.76    0.12
   3   2   5    5.98    0.12
  -1  -2  -4   18.11    0.29
  -1  -2  -4   17.60    0.28
   1   2   4   17.71    0.29
   1   2   4   17.73    0.29
   1  -2  -3    1.83    0.05
   1  -2  -3    1.95    0.05
  -1   2   3    2.07    0.04
  -1   2   3    1.92    0.05
   3  -2  -2    0.63    0.03
   3  -2  -2    0.64    0.04
  -3   2   2    0.55    0.04
   5  -2  -1    0.76    0.06
  -5   2   1    0.74    0.05
  -5   2   1    0.78    0.06
   7  -2   0    3.98    0.15
  -7   2   0    3.88    0.13
  -6  -1  -6    0.07    0.03
   6   1   6    0.06    0.04
  -4  -1  -5    2.62    0.08
  -4  -1  -5    2.51    0.07
   4   1   5    2.57    0.08
   4   1   5    2.63    0.08
  -2  -1  -4   22.33    0.36
   2   1   4   22.07    0.36
   2   1   4   23.12    0.37
   0  -1  -3    9.49    0.15
   0  -1  -3    9.19    0.16
   0   1   3    8.96    0.15
   0   1   3    9.52    0.16
   2  -1  -2    0.20    0.02
   2  -1  -2    0.17    0.02
  -2   1   2    0.18    0.02
   4  -1  -1    8.59    0.18
  -4   1   1    8.77    0.16
  -4   1   1    8.57    0.18
   6  -1   0    0.54    0.06
  -6   1   0    0.58    0.05
  -6   1   0    0.55    0.06
  -5   0  -5    0.23    0.04
   5   0   5    0.17    0.03
   5   0   5    0.24    0.04
  -3   0  -4    1.77    0.06
   3   0   4    1.84    0.05
   3   0   4    1.74    0.06
  -1   0  -3  101.81    1.53
   1   0   3   99.99    1.53
   1   0   3  100.89    1.62
   1   0  -2   34.71    0.55
  -1   0   2   35.04    0.53
  -1   0   2   34.36    0.53
   3   0  -1    1.95    0.06
  -3   0   1    1.93    0.06
   5   0   0    1.67    0.08
  -5   0   0    1.85    0.07
  -5   0   0    1.75    0.06
   7   0   1    2.15    0.11
  -7   0  -1    2.06    0.10
  -6   1  -5    3.51    0.12
   6  -1   5    3.63    0.12
  -4   1  -4    0.65    0.05
  -4   1  -4    0.64    0.04
   4  -1   4    0.69    0.04
   4  -1   4    0.66    0.05
  -2   1  -3   13.94    0.24
   2  -1   3   14.25    0.25
   2  -1   3   13.71    0.23
   0   1  -2   20.35    0.31
   0  -1   2   20.75    0.33
   0  -1   2   20.32    0.32
   2   1  -1    1.91    0.05
  -2  -1   1    1.88    0.05
  -2  -1   1    1.68    0.05
   4   1   0    0.17    0.03
   4   1   0    0.22    0.03
  -4  -1   0    0.15    0.03
   6   1   1    0.42    0.06
  -6  -1  -1    0.47    0.06
  -5   2  -4    0.47    0.05
   5  -2   4    0.37    0.05
  -3   2  -3    0.99    0.05
  -3   2  -3    1.04    0.04
   3  -2   3    1.07    0.05
  -1   2  -2   19.79    0.32
   1  -2   2   19.41    0.31
   1  -2   2   20.05    0.33
   1   2  -1    5.98    0.11
  -1  -2   1    6.06    0.11
  -1  -2   1    6.08    0.11
   3   2   0    1.43    0.05
  -3  -2   0    1.40    0.05
   5   2   1    2.28    0.08
   5   2   1    2.44    0.09
  -5  -2  -1    2.44    0.09
   7   2   2    0.78    0.07
  -7  -2  -2    0.80    0.07
  -6   3  -4    0.07    0.04
   6  -3   4    0.07    0.04
  -4   3  -3    1.42    0.06
  -4   3  -3    1.35    0.06
   4  -3   3    1.50    0.07
  -2   3  -2    2.44    0.07
  -2   3  -2    2.32    0.06
   2  -3   2    2.42    0.07
   0  -3   1   78.99    1.22
   0  -3   1   80.17    1.29
   0  -3   1   83.21    1.25
   0  -3   1   82.83    1.21
   2   3   0   17.67    0.30
  -2  -3   0   17.74    0.29
  -2  -3   0   17.89    0.29
   4   3   1    0.45    0.04
   4   3   1    0.43    0.04
  -4  -3  -1    0.44    0.04
   6   3   2    1.85    0.09
   6   3   2    1.80    0.08
  -6  -3  -2    2.00    0.09
  -5   4  -3    3.10    0.11
   5  -4   3    3.17    0.12
  -3   4  -2    1.73    0.07
  -3   4  -2    1.73    0.06
   3  -4   2    1.81    0.07
  -1   4  -1   12.13    0.20
   1  -4   1   12.04    0.21
   1  -4   1   12.06    0.22
   1  -4   1   11.63    0.20
   1   4   0    4.86    0.10
  -1  -4   0    4.75    0.09
  -1  -4   0    4.73    0.10
  -1  -4   0    4.79    0.10
   3   4   1    1.36    0.05
   3   4   1    1.35    0.05
  -3  -4  -1    1.27    0.05
   5   4   2    0.09    0.03
   5   4   2    0.00    0.03
  -5  -4  -2    0.00    0.03
   7   4   3    0.14    0.04
   7   4   3    0.13    0.04
  -7  -4  -3    0.19    0.05
  -4   5  -2    0.72    0.06
  -4   5  -2    0.65    0.05
   4  -5   2    0.68    0.06
  -2   5  -1    0.02    0.02
   2  -5   1    0.04    0.02
   2  -5   1    0.05    0.03
   0  -5   0    2.49    0.06
   0  -5   0    2.45    0.06
   0  -5   0    2.48    0.07
   0  -5   0    2.47    0.06
   2   5   1    1.40    0.04
  -2  -5  -1    1.47    0.05
  -2  -5  -1    1.44    0.04
   4   5   2    1.42    0.06
   4   5   2    1.39    0.06
  -4  -5  -2    1.47    0.06
   6   5   3   -0.03    0.04
   6   5   3   -0.06    0.03
  -6  -5  -3    0.06    0.04
  -5   6  -2    0.03    0.04
   5  -6   2    0.07    0.04
  -3   6  -1    2.30    0.08
   3  -6   1    2.20    0.09
  -1   6   0    2.44    0.07
   1  -6   0    2.54    0.08
   1  -6   0    2.54    0.08
  -1  -6  -1   24.86    0.39
  -1  -6  -1   24.13    0.40
  -1  -6  -1   24.24    0.40
   3   6   2    5.37    0.11
   3   6   2    5.41    0.13
  -3  -6  -2    5.48    0.13
  -3  -6  -2    5.68    0.11
   5   6   3    0.07    0.03
   5   6   3    0.11    0.04
  -5  -6  -3    0.12    0.04
   7   6   4    1.37    0.09
  -7  -6  -4    1.34    0.09
  -4   7  -1    1.45    0.08
   4  -7   1    1.50    0.09
  -2   7   0    1.63    0.07
   2  -7   0    1.68    0.07
   2  -7   0    1.66    0.07
   0  -7  -1    4.42    0.11
   0  -7  -1    4.47    0.11
   0  -7  -1    4.64    0.11
   2   7   2    0.16    0.02
   2   7   2    0.15    0.03
  -2  -7  -2    0.16    0.04
  -2  -7  -2    0.21    0.03
   4   7   3    0.49    0.06
  -4  -7  -3    0.43    0.05
   6   7   4    0.16    0.05
  -6  -7  -4    0.12    0.05
  -3   8   0    0.44    0.06
   3  -8   0    0.50    0.06
   3  -8   0    0.40    0.05
  -1   8   1    0.38    0.05
   1  -8  -1    0.32    0.04
   1  -8  -1    0.32    0.04
   1   8   2    0.48    0.05
  -1  -8  -2    0.48    0.05
  -1  -8  -2    0.46    0.05
  -1  -8  -2    0.59    0.04
   3   8   3    0.16    0.04
  -3  -8  -3    0.21    0.04
  -3  -8  -3    0.20    0.03
   5   8   4    0.51    0.06
  -5  -8  -4    0.54    0.06
  -2   9   1    2.05    0.09
   2  -9  -1    2.03    0.09
   2  -9  -1    2.02    0.09
   0   9   2    1.88    0.07
   0  -9  -2    1.83    0.07
   0  -9  -2    1.83    0.08
   2   9   3    4.92    0.13
  -2  -9  -3    4.80    0.13
  -2  -9  -3    5.10    0.12
   4   9   4    1.76    0.09
  -4  -9  -4    1.71    0.09
   6   9   5   -0.03    0.05
  -6  -9  -5   -0.02    0.05
  -1  10   2    0.78    0.07
   1 -10  -2    0.89    0.07
   1  10   3    0.76    0.06
  -1 -10  -3    0.78    0.06
  -1 -10  -3    0.78    0.07
   3  10   4    0.09    0.04
  -3 -10  -4    0.23    0.04
  -3 -10  -4    0.18    0.05
   5  10   5    0.06    0.05
  -5 -10  -5    0.02    0.05
   0  11   3    0.80    0.07
   0 -11  -3    0.74    0.07
   2  11   4    2.29    0.10
  -2 -11  -4    2.42    0.10
  -2 -11  -4    2.50    0.10
   4  11   5   -0.09    0.04
  -4 -11  -5   -0.02    0.05
   1  12   4    1.01    0.08
  -1 -12  -4    0.96    0.08
   3  12   5    0.71    0.07
  -3 -12  -5    0.72    0.08
  -3 -11 -10    0.07    0.05
   3  11  10   -0.01    0.05
  -1 -11  -9    3.06    0.12
   1  11   9    3.03    0.12
   1 -11  -8    0.64    0.08
  -1  11   8    0.72    0.08
  -4 -10 -10    3.90    0.13
  -4 -10 -10    3.82    0.13
   4  10  10    3.99    0.14
  -2 -10  -9    0.49    0.06
   2  10   9    0.50    0.07
   2  10   9    0.50    0.06
   0 -10  -8    0.24    0.05
   0  10   8    0.24    0.06
   2 -10  -7   16.86    0.35
  -2  10   7   18.05    0.35
  -5  -9 -10    0.06    0.05
  -5  -9 -10    0.03    0.05
   5   9  10    0.07    0.05
  -3  -9  -9    1.30    0.07
  -3  -9  -9    1.34    0.08
   3   9   9    1.25    0.08
  -1  -9  -8    1.85    0.08
   1   9   8    1.99    0.09
   1   9   8    2.07    0.08
   1  -9  -7    0.07    0.04
  -1   9   7    0.10    0.04
   3  -9  -6   -0.03    0.04
  -3   9   6    0.03    0.05
  -4  -8  -9    0.60    0.06
  -4  -8  -9    0.67    0.06
   4   8   9    0.73    0.07
  -2  -8  -8    0.45    0.05
  -2  -8  -8    0.48    0.05
   2   8   8    0.53    0.06
   0  -8  -7    8.61    0.19
   0   8   7    8.59    0.19
   0   8   7    8.75    0.17
   2  -8  -6    2.06    0.09
   2  -8  -6    1.96    0.08
  -2   8   6    2.01    0.09
   4  -8  -5    0.41    0.06
   4  -8  -5    0.41    0.06
  -4   8   5    0.40    0.08
  -5  -7  -9    3.27    0.11
  -5  -7  -9    3.42    0.11
   5   7   9    3.32    0.12
  -3  -7  -8    9.37    0.19
  -3  -7  -8    9.38    0.19
   3   7   8    9.16    0.20
  -1  -7  -7    2.12    0.08
   1   7   7    2.20    0.07
   1   7   7    2.07    0.07
   1  -7  -6    0.81    0.04
   1  -7  -6    0.76    0.05
  -1   7   6    0.74    0.05
   3  -7  -5   27.37    0.48
   3  -7  -5   27.91    0.49
  -3   7   5   26.88    0.48
   5  -7  -4    2.48    0.11
   5  -7  -4    2.33    0.10
  -5   7   4    2.36    0.11
  -6  -6  -9    2.49    0.10
   6   6   9    2.14    0.11
  -4  -6  -8    0.43    0.05
  -4  -6  -8    0.50    0.05
   4   6   8    0.50    0.06
  -2  -6  -7    5.80    0.13
  -2  -6  -7    5.65    0.12
   2   6   7    5.75    0.13
   0  -6  -6    4.61    0.11
   0   6   6    4.55    0.10
   0   6   6    4.44    0.11
   2  -6  -5    0.57    0.05
   2  -6  -5    0.60    0.05
  -2   6   5    0.53    0.05
   4  -6  -4    0.04    0.04
   4  -6  -4    0.05    0.03
  -4   6   4    0.04    0.04
  -5  -5  -8    0.82    0.06
   5   5   8    0.92    0.07
  -3  -5  -7    3.50    0.09
  -3  -5  -7    3.41    0.09
   3   5   7    3.45    0.10
  -1  -5  -6    2.80    0.08
   1   5   6    2.75    0.08
   1  -5  -5   17.28    0.29
   1  -5  -5   17.16    0.29
  -1   5   5   16.77    0.30
   3  -5  -4    5.20    0.13
   3  -5  -4    4.97    0.13
  -3   5   4    5.07    0.13
   5  -5  -3    0.65    0.06
   5  -5  -3    0.59    0.06
  -5   5   3    0.52    0.07
  -6  -4  -8    0.17    0.04
   6   4   8    0.15    0.05
  -4  -4  -7    3.06    0.08
  -4  -4  -7    3.11    0.09
   4   4   7    2.94    0.08
   4   4   7    2.96    0.10
  -2  -4  -6   19.24    0.32
  -2  -4  -6   19.54    0.33
   2   4   6   19.54    0.33
   0  -4  -5    8.84    0.16
   0  -4  -5    8.46    0.15
   0   4   5    8.52    0.16
   0   4   5    8.81    0.15
   2  -4  -4    2.82    0.08
   2  -4  -4    2.81    0.08
  -2   4   4    2.66    0.08
   4  -4  -3   30.24    0.54
   4  -4  -3   30.65    0.50
  -4   4   3   30.34    0.52
   6  -4  -2    2.40    0.11
  -6   4   2    2.47    0.09
  -6   4   2    2.38    0.11
  -5  -3  -7    7.19    0.17
   5   3   7    7.17    0.16
   5   3   7    7.18    0.16
  -3  -3  -6    0.99    0.05
  -3  -3  -6    1.04    0.04
   3   3   6    0.99    0.04
   3   3   6    0.95    0.05
  -1  -3  -5   18.46    0.30
  -1  -3  -5   17.44    0.29
   1   3   5   18.26    0.30
   1  -3  -4    9.23    0.17
   1  -3  -4    9.74    0.17
  -1   3   4    9.34    0.17
  -1   3   4    9.56    0.16
   3  -3  -3    3.98    0.11
   3  -3  -3    3.94    0.09
  -3   3   3    3.92    0.10
   5  -3  -2    0.06    0.03
  -5   3   2    0.05    0.04
  -6  -2  -7    0.21    0.05
   6   2   7    0.21    0.04
   6   2   7    0.26    0.05
  -4  -2  -6    1.30    0.05
  -4  -2  -6    1.43    0.06
   4   2   6    1.43    0.06
   4   2   6    1.39    0.06
  -2  -2  -5   12.81    0.22
   2   2   5   12.41    0.21
   2   2   5   12.10    0.22
   0  -2  -4    7.78    0.14
   0  -2  -4    8.05    0.14
   0   2   4    7.99    0.14
   0   2   4    7.76    0.14
   2  -2  -3   14.53    0.26
   2  -2  -3   14.50    0.24
  -2   2   3   14.19    0.25
   4  -2  -2    7.04    0.14
   4  -2  -2    7.13    0.17
  -4   2   2    7.15    0.16
   6  -2  -1    0.61    0.07
  -6   2   1    0.58    0.06
  -5  -1  -6    1.06    0.06
   5   1   6    1.11    0.06
   5   1   6    1.09    0.06
  -3  -1  -5    1.60    0.06
   3   1   5    1.57    0.05
   3   1   5    1.61    0.06
  -1  -1  -4   28.60    0.44
   1   1   4   28.10    0.45
   1   1   4   27.20    0.44
   1  -1  -3   22.24    0.37
   1  -1  -3   23.27    0.35
  -1   1   3   22.24    0.36
  -1   1   3   22.57    0.35
   3  -1  -2    4.12    0.08
   3  -1  -2    4.24    0.10
  -3   1   2    4.19    0.10
   5  -1  -1   19.75    0.37
  -5   1   1   19.44    0.36
  -5   1   1   19.70    0.33
   7  -1   0    1.17    0.09
  -7   1   0    1.31    0.08
  -6   0  -6    0.18    0.04
   6   0   6    0.17    0.04
  -4   0  -5   16.25    0.29
   4   0   5   16.33    0.28
   4   0   5   16.59    0.31
  -2   0  -4    0.38    0.03
   2   0   4    0.44    0.03
   2   0   4    0.45    0.03
   0   0  -3   23.71    0.38
   0   0  -3   23.67    0.36
   0   0   3   23.07    0.37
   2   0  -2    9.95    0.18
  -2   0   2    9.87    0.18
  -2   0   2   10.00    0.17
   4   0  -1   11.10    0.22
  -4   0   1   11.01    0.21
  -4   0   1   10.95    0.19
   6   0   0    0.04    0.03
  -6   0   0    0.05    0.04
  -5   1  -5    1.45    0.07
   5  -1   5    1.43    0.08
  -3   1  -4    1.61    0.06
   3  -1   4    1.60    0.05
   3  -1   4    1.68    0.06
  -1   1  -3   18.65    0.30
   1  -1   3   18.79    0.31
   1  -1   3   18.15    0.30
   1   1  -2    9.44    0.17
  -1  -1   2    9.41    0.16
  -1  -1   2    9.27    0.16
   3   1  -1    2.49    0.07
  -3  -1   1    2.50    0.07
  -3  -1   1    2.48    0.06
   5   1   0    4.23    0.12
   5   1   0    4.11    0.10
  -5  -1   0    4.27    0.12
   7   1   1    0.18    0.05
  -7  -1  -1    0.22    0.06
  -6   2  -5    1.29    0.08
   6  -2   5    1.20    0.08
  -4   2  -4    3.85    0.11
   4  -2   4    4.10    0.12
  -2   2  -3    0.12    0.02
   2  -2   3    0.12    0.02
   2  -2   3    0.08    0.02
   0   2  -2    9.43    0.15
   0  -2   2    9.39    0.17
   0  -2   2    9.43    0.15
   0  -2   2    8.78    0.16
   2   2  -1   21.53    0.36
  -2  -2   1   21.51    0.34
  -2  -2   1   21.48    0.35
   4   2   0    1.25    0.06
   4   2   0    1.28    0.05
  -4  -2   0    1.19    0.06
   6   2   1    7.78    0.16
   6   2   1    7.66    0.19
  -6  -2  -1    7.56    0.18
  -5   3  -4    0.21    0.04
   5  -3   4    0.14    0.04
  -3   3  -3   23.00    0.39
  -3   3  -3   22.84    0.37
   3  -3   3   23.19    0.41
  -1   3  -2    0.09    0.02
  -1   3  -2    0.00    0.02
   1  -3   2    0.10    0.02
   1  -3   2    0.04    0.02
   1   3  -1    6.09    0.12
  -1  -3   1    5.98    0.11
  -1  -3   1    5.99    0.11
   3   3   0    3.52    0.09
  -3  -3   0    3.56    0.09
  -3  -3   0    3.58    0.09
   5   3   1   12.15    0.24
   5   3   1   11.96    0.23
  -5  -3  -1   11.30    0.23
   7   3   2    0.27    0.05
  -7  -3  -2    0.24    0.05
  -6   4  -4    0.11    0.04
   6  -4   4    0.10    0.05
  -4   4  -3    2.28    0.08
   4  -4   3    2.24    0.09
  -2   4  -2    0.69    0.03
  -2   4  -2    0.63    0.04
   2  -4   2    0.52    0.04
   0  -4   1    6.53    0.12
   0  -4   1    6.35    0.12
   0  -4   1    6.45    0.13
   0  -4   1    6.57    0.12
   2   4   0    4.66    0.10
  -2  -4   0    4.81    0.10
  -2  -4   0    4.69    0.10
   4   4   1    0.00    0.02
   4   4   1    0.00    0.02
  -4  -4  -1    0.01    0.02
   6   4   2    1.11    0.08
   6   4   2    1.16    0.07
  -6  -4  -2    1.21    0.08
  -5   5  -3    1.39    0.08
   5  -5   3    1.26    0.08
  -3   5  -2    8.13    0.16
  -3   5  -2    8.19    0.18
   3  -5   2    7.97    0.18
  -1   5  -1    0.37    0.03
   1  -5   1    0.35    0.03
   1  -5   1    0.42    0.03
   1  -5   1    0.39    0.04
  -1  -5   0    0.08    0.02
  -1  -5   0    0.07    0.02
  -1  -5   0    0.06    0.02
   3   5   1    9.66    0.19
   3   5   1    9.65    0.18
  -3  -5  -1    9.73    0.19
   5   5   2    0.01    0.03
   5   5   2   -0.01    0.03
  -5  -5  -2   -0.08    0.03
   7   5   3    2.08    0.09
  -7  -5  -3    2.00    0.10
  -4   6  -2    0.05    0.03
   4  -6   2   -0.01    0.03
  -2   6  -1   16.71    0.29
   2  -6   1   16.17    0.30
   2  -6   1   15.88    0.30
   0  -6   0    0.34    0.04
   0  -6   0    0.50    0.04
   0  -6   0    0.39    0.03
   0  -6   0    0.45    0.04
   2   6   1    0.54    0.03
  -2  -6  -1    0.39    0.04
  -2  -6  -1    0.56    0.03
   4   6   2    1.64    0.06
   4   6   2    1.55    0.07
  -4  -6  -2    1.53    0.07
   6   6   3    6.60    0.17
  -6  -6  -3    6.40    0.17
  -3   7  -1    1.48    0.07
   3  -7   1    1.86    0.08
  -1   7   0    0.01    0.03
   1  -7   0   -0.02    0.03
   1  -7   0    0.01    0.02
  -1  -7  -1    0.84    0.04
  -1  -7  -1    0.76    0.05
  -1  -7  -1    0.81    0.04
   3   7   2    2.08    0.06
   3   7   2    2.05    0.08
  -3  -7  -2    2.07    0.08
  -3  -7  -2    2.17    0.06
   5   7   3    0.17    0.05
  -5  -7  -3    0.17    0.05
   7   7   4    0.19    0.06
  -7  -7  -4    0.18    0.06
  -4   8  -1    0.86    0.07
   4  -8   1    0.78    0.08
  -2   8   0    8.94    0.19
   2  -8   0    8.95    0.20
   2  -8   0    8.78    0.20
   0   8   1    0.82    0.05
   0  -8  -1    0.84    0.05
   0  -8  -1    0.75    0.06
   0  -8  -1    0.81    0.05
   2   8   2    0.51    0.05
  -2  -8  -2    0.47    0.05
  -2  -8  -2    0.54    0.04
   4   8   3    4.03    0.12
  -4  -8  -3    4.04    0.12
   6   8   4    0.25    0.06
  -6  -8  -4    0.29    0.06
  -3   9   0    0.01    0.05
   3  -9   0    0.01    0.04
   3  -9   0    0.07    0.05
  -1   9   1    7.20    0.17
   1  -9  -1    7.31    0.18
   1  -9  -1    7.46    0.17
   1   9   2    0.25    0.04
  -1  -9  -2    0.17    0.04
  -1  -9  -2    0.27    0.05
  -3  -9  -3    0.71    0.07
   5   9   4    0.89    0.08
  -5  -9  -4    0.85    0.07
  -2  10   1    0.09    0.05
   2 -10  -1    0.14    0.04
   2 -10  -1    0.13    0.05
   0  10   2    0.25    0.05
   0 -10  -2    0.22    0.05
   2  10   3    0.03    0.04
  -2 -10  -3   -0.01    0.04
  -2 -10  -3    0.07    0.03
   4  10   4    1.03    0.08
  -4 -10  -4    1.09    0.08
  -1  11   2    6.08    0.17
   1 -11  -2    6.01    0.17
   1  11   3    0.56    0.06
  -1 -11  -3    0.54    0.07
  -1 -11  -3    0.59    0.07
   3  11   4    0.42    0.06
  -3 -11  -4    0.51    0.07
   5  11   5    1.59    0.10
  -5 -11  -5    1.51    0.10
   0  12   3    2.48    0.11
   0 -12  -3    2.43    0.11
   2  12   4    0.03    0.05
  -2 -12  -4    0.11    0.06
  -2 -12  -4    0.06    0.05
  -2 -11 -10    1.82    0.10
   2  11  10    2.02    0.10
   2  11  10    1.92    0.10
   0 -11  -9    0.39    0.07
   0  11   9    0.43    0.07
  -3 -10 -10    0.00    0.04
   3  10  10    0.06    0.05
  -1 -10  -9    0.72    0.07
   1  10   9    0.75    0.07
   1  10   9    0.67    0.06
   1 -10  -8    1.93    0.10
  -1  10   8    1.97    0.10
  -4  -9 -10    0.31    0.06
  -4  -9 -10    0.23    0.05
   4   9  10    0.26    0.06
  -2  -9  -9    1.00    0.07
   2   9   9    1.00    0.07
   2   9   9    0.98    0.07
   0  -9  -8   -0.01    0.03
   0   9   8    0.03    0.04
   2  -9  -7    6.75    0.18
  -2   9   7    6.80    0.18
  -5  -8 -10    1.09    0.08
   5   8  10    1.16    0.09
  -3  -8  -9    2.26    0.08
  -3  -8  -9    2.26    0.09
   3   8   9    2.36    0.09
  -1  -8  -8    5.95    0.15
   1   8   8    5.74    0.14
   1   8   8    5.81    0.14
   1  -8  -7    0.08    0.04
  -1   8   7    0.10    0.04
   3  -8  -6    0.35    0.05
   3  -8  -6    0.28    0.06
  -3   8   6    0.35    0.07
  -6  -7 -10    1.11    0.09
   6   7  10    1.04    0.09
  -4  -7  -9   -0.08    0.03
  -4  -7  -9   -0.04    0.03
   4   7   9    0.00    0.04
  -2  -7  -8    1.46    0.07
  -2  -7  -8    1.49    0.07
   2   7   8    1.39    0.07
   0  -7  -7    1.63    0.07
   0   7   7    1.68    0.06
   0   7   7    1.63    0.07
   2  -7  -6    8.63    0.19
   2  -7  -6    8.91    0.18
  -2   7   6    8.67    0.19
   4  -7  -5    0.18    0.05
   4  -7  -5    0.23    0.05
  -4   7   5    0.28    0.06
  -5  -6  -9    0.62    0.07
   5   6   9    0.82    0.07
  -3  -6  -8    1.77    0.07
  -3  -6  -8    1.89    0.08
   3   6   8    1.76    0.08
  -1  -6  -7    2.48    0.08
   1   6   7    2.41    0.07
   1   6   7    2.42    0.08
   1  -6  -6    0.02    0.03
   1  -6  -6    0.00    0.02
  -1   6   6    0.02    0.03
   3  -6  -5   17.70    0.33
   3  -6  -5   17.72    0.32
  -3   6   5   17.44    0.33
   5  -6  -4    1.08    0.07
   5  -6  -4    1.06    0.08
  -5   6   4    0.96    0.08
  -6  -5  -9    4.59    0.14
   6   5   9    4.69    0.15
  -4  -5  -8    1.31    0.06
  -4  -5  -8    1.31    0.07
   4   5   8    1.36    0.07
  -2  -5  -7    3.55    0.09
  -2  -5  -7    3.49    0.08
   2   5   7    3.52    0.10
   0  -5  -6   18.02    0.30
   0  -5  -6   17.14    0.29
   0   5   6   17.27    0.30
   0   5   6   17.45    0.29
   2  -5  -5    0.70    0.05
   2  -5  -5    0.69    0.05
  -2   5   5    0.67    0.05
   4  -5  -4    1.11    0.07
   4  -5  -4    0.97    0.06
  -4   5   4    0.99    0.07
  -5  -4  -8    3.31    0.11
   5   4   8    3.46    0.11
  -3  -4  -7    1.26    0.05
  -3  -4  -7    1.21    0.06
   3   4   7    1.24    0.06
   3   4   7    1.21    0.04
  -1  -4  -6   11.33    0.20
  -1  -4  -6   10.26    0.18
   1   4   6   10.74    0.19
   1   4   6   11.02    0.20
   1  -4  -5    3.87    0.09
   1  -4  -5    3.87    0.09
  -1   4   5    3.95    0.08
  -1   4   5    3.72    0.09
   3  -4  -4   30.13    0.52
   3  -4  -4   30.36    0.49
  -3   4   4   30.05    0.50
   5  -4  -3    1.20    0.06
   5  -4  -3    1.25    0.08
  -5   4   3    1.21    0.07
  -6  -3  -8    0.03    0.03
   6   3   8    0.04    0.04
  -4  -3  -7    0.97    0.06
  -4  -3  -7    0.98    0.05
   4   3   7    0.99    0.06
   4   3   7    1.07    0.05
  -2  -3  -6    8.95    0.17
  -2  -3  -6    8.72    0.15
   2   3   6    8.99    0.17
   2   3   6    8.69    0.16
   0  -3  -5    4.07    0.09
   0  -3  -5    3.99    0.08
   0   3   5    3.97    0.08
   0   3   5    4.06    0.09
   2  -3  -4    0.00    0.01
   2  -3  -4    0.00    0.02
  -2   3   4    0.01    0.02
   4  -3  -3   30.54    0.53
   4  -3  -3   30.22    0.49
  -4   3   3   30.20    0.51
   6  -3  -2    0.89    0.08
  -6   3   2    0.87    0.07
  -5  -2  -7    8.56    0.19
   5   2   7    8.72    0.18
   5   2   7    8.63    0.19
  -3  -2  -6    1.57    0.06
   3   2   6    1.53    0.06
   3   2   6    1.49    0.05
  -1  -2  -5    1.45    0.05
   1   2   5    1.45    0.05
   1  -2  -4   41.25    0.62
   1  -2  -4   39.24    0.65
  -1   2   4   39.91    0.63
  -1   2   4   41.59    0.62
   3  -2  -3    3.09    0.09
   3  -2  -3    3.23    0.08
  -3   2   3    3.09    0.09
   5  -2  -2    2.39    0.10
  -5   2   2    2.38    0.09
  -5   2   2    2.47    0.08
  -6  -1  -7    0.33    0.05
   6   1   7    0.31    0.05
  -4  -1  -6    7.26    0.16
   4   1   6    7.48    0.16
   4   1   6    7.60    0.16
  -2  -1  -5   13.93    0.24
   2   1   5   13.36    0.23
   2   1   5   13.86    0.24
   0  -1  -4   29.95    0.48
   0  -1  -4   30.63    0.46
   0   1   4   30.00    0.47
   0   1   4   29.49    0.46
   2  -1  -3    4.19    0.08
   2  -1  -3    4.15    0.10
  -2   1   3    4.16    0.09
  -2   1   3    4.25    0.08
   4  -1  -2   59.44    0.92
   4  -1  -2   60.62    0.99
  -4   1   2   60.92    0.95
   6  -1  -1    2.72    0.11
  -6   1   1    2.81    0.11
  -5   0  -6    0.08    0.03
   5   0   6    0.05    0.03
   5   0   6    0.05    0.03
  -3   0  -5    1.67    0.06
   3   0   5    1.63    0.06
   3   0   5    1.65    0.06
  -1   0  -4   23.66    0.37
   1   0   4   23.60    0.39
   1   0   4   23.07    0.37
   1   0  -3    3.46    0.08
   1   0  -3    3.58    0.06
  -1   0   3    3.35    0.07
  -1   0   3    3.48    0.07
   3   0  -2    0.15    0.03
  -3   0   2    0.12    0.02
  -3   0   2    0.15    0.03
   5   0  -1   28.90    0.51
  -5   0   1   28.14    0.49
   7   0   0    0.46    0.07
  -7   0   0    0.62    0.08
  -6   1  -6    1.63    0.08
   6  -1   6    1.58    0.09
  -4   1  -5    8.70    0.18
   4  -1   5    8.82    0.17
   4  -1   5    8.85    0.19
  -2   1  -4    1.90    0.06
   2  -1   4    1.88    0.05
   2  -1   4    1.95    0.06
   0   1  -3    1.17    0.03
   0  -1   3    1.21    0.04
   0  -1   3    1.10    0.04
   2   1  -2   32.80    0.54
  -2  -1   2   33.36    0.51
  -2  -1   2   32.53    0.52
   4   1  -1    3.00    0.09
   4   1  -1    3.02    0.08
  -4  -1   1    2.96    0.09
   6   1   0    2.53    0.10
  -6  -1   0    2.61    0.10
  -5   2  -5    0.51    0.05
   5  -2   5    0.41    0.05
  -3   2  -4   11.62    0.22
   3  -2   4   11.81    0.23
   3  -2   4   11.36    0.20
  -1   2  -3   44.34    0.67
   1  -2   3   44.17    0.71
   1  -2   3   42.68    0.67
   1   2  -2   23.44    0.38
  -1  -2   2   22.40    0.36
  -1  -2   2   22.97    0.36
   3   2  -1    1.08    0.05
  -3  -2   1    1.08    0.05
  -3  -2   1    1.03    0.04
   5   2   0   67.16    1.04
   5   2   0   67.68    1.10
  -5  -2   0   66.37    1.06
   7   2   1    3.30    0.13
  -7  -2  -1    3.35    0.12
  -6   3  -5    0.81    0.07
   6  -3   5    0.77    0.08
  -4   3  -4    0.11    0.03
   4  -3   4    0.15    0.04
  -2   3  -3    2.07    0.06
   2  -3   3    1.95    0.06
   2  -3   3    2.03    0.07
   0   3  -2   20.93    0.33
   0  -3   2   20.62    0.35
   0  -3   2   20.23    0.33
   0  -3   2   20.71    0.32
   2   3  -1    1.00    0.04
  -2  -3   1    0.89    0.04
  -2  -3   1    1.00    0.04
   4   3   0    0.12    0.03
   4   3   0    0.15    0.03
  -4  -3   0    0.14    0.03
   6   3   1   16.39    0.30
   6   3   1   16.70    0.33
  -6  -3  -1   16.86    0.32
  -5   4  -4    1.50    0.08
   5  -4   4    1.38    0.08
  -3   4  -3    3.25    0.10
  -3   4  -3    3.32    0.08
   3  -4   3    3.23    0.10
  -1   4  -2    1.17    0.04
  -1   4  -2    1.23    0.05
   1  -4   2    1.19    0.05
   1  -4   2    1.14    0.04
   1   4  -1    6.68    0.13
  -1  -4   1    6.49    0.13
  -1  -4   1    6.48    0.12
  -1  -4   1    6.73    0.12
   3   4   0    8.19    0.16
  -3  -4   0    8.23    0.16
  -3  -4   0    8.35    0.16
   5   4   1    0.71    0.06
   5   4   1    0.67    0.06
  -5  -4  -1    0.66    0.07
   7   4   2    1.58    0.09
   7   4   2    1.65    0.08
  -7  -4  -2    1.65    0.09
  -4   5  -3    0.21    0.04
   4  -5   3    0.24    0.04
  -2   5  -2   10.69    0.20
  -2   5  -2   10.43    0.19
   2  -5   2    9.91    0.21
   0  -5   1   37.21    0.59
   0  -5   1   37.47    0.59
   0  -5   1   37.74    0.62
   0  -5   1   37.97    0.59
   2   5   0    5.64    0.12
  -2  -5   0    5.69    0.12
  -2  -5   0    5.87    0.12
   4   5   1    0.03    0.02
   4   5   1    0.01    0.03
  -4  -5  -1    0.01    0.03
   6   5   2   46.80    0.77
   6   5   2   46.86    0.79
  -6  -5  -2   46.37    0.78
  -5   6  -3    0.55    0.06
   5  -6   3    0.56    0.07
  -3   6  -2    0.40    0.05
  -3   6  -2    0.36    0.05
   3  -6   2    0.31    0.05
  -1   6  -1    1.31    0.05
   1  -6   1    1.35    0.06
   1  -6   1    1.32    0.05
   1  -6   1    1.31    0.06
  -1  -6   0    7.63    0.15
  -1  -6   0    7.57    0.15
  -1  -6   0    7.60    0.14
   3   6   1    0.34    0.04
   3   6   1    0.32    0.03
  -3  -6  -1    0.32    0.04
   5   6   2    0.00    0.03
   5   6   2    0.06    0.04
  -5  -6  -2    0.03    0.04
   7   6   3    7.06    0.19
  -7  -6  -3    7.21    0.19
  -4   7  -2    0.94    0.07
   4  -7   2    0.97    0.08
  -2   7  -1    0.08    0.04
   2  -7   1    0.08    0.03
   2  -7   1    0.07    0.04
   0  -7   0    0.60    0.04
   0  -7   0    0.54    0.04
   0  -7   0    0.54    0.04
   0  -7   0    0.54    0.04
   2   7   1    4.14    0.11
   2   7   1    3.95    0.10
  -2  -7  -1    4.21    0.11
  -2  -7  -1    4.11    0.09
   4   7   2    1.29    0.06
   4   7   2    1.47    0.07
  -4  -7  -2    1.28    0.07
   6   7   3    0.01    0.04
  -6  -7  -3   -0.06    0.04
  -3   8  -1    0.01    0.03
   3  -8   1    0.01    0.04
  -1   8   0    5.61    0.13
   1  -8   0    5.48    0.14
   1  -8   0    5.77    0.14
   1   8   1   18.46    0.32
  -1  -8  -1   18.36    0.32
  -1  -8  -1   18.36    0.33
   3   8   2    0.74    0.06
  -3  -8  -2    0.60    0.06
  -3  -8  -2    0.81    0.05
   5   8   3    0.07    0.05
  -5  -8  -3   -0.01    0.04
  -2   9   0    0.60    0.07
   2  -9   0    0.88    0.07
   2  -9   0    0.87    0.07
   0   9   1    0.67    0.05
   0  -9  -1    0.63    0.06
   0  -9  -1    0.73    0.05
   2   9   2    2.07    0.08
  -2  -9  -2    2.12    0.07
  -2  -9  -2    2.07    0.09
   4   9   3    0.23    0.05
  -4  -9  -3    0.28    0.06
   6   9   4    0.08    0.06
  -6  -9  -4    0.01    0.05
  -1  10   1    0.80    0.07
   1 -10  -1    0.84    0.07
   1 -10  -1    0.95    0.07
   1  10   2    0.41    0.05
  -1 -10  -2    0.50    0.06
  -1 -10  -2    0.50    0.06
   3  10   3    1.22    0.08
  -3 -10  -3    1.22    0.08
   5  10   4    0.03    0.05
  -5 -10  -4    0.16    0.06
   0  11   2    2.36    0.10
   0 -11  -2    2.24    0.10
   2  11   3    6.92    0.18
  -2 -11  -3    6.81    0.18
  -2 -11  -3    6.88    0.17
   4  11   4    0.01    0.05
  -4 -11  -4    0.02    0.05
  -1 -12  -3    0.38    0.06
   3  12   4    0.68    0.08
  -3 -12  -4    0.64    0.08
  -3 -11 -11    0.01    0.05
   3  11  11    0.03    0.05
  -1 -11 -10    2.48    0.11
   1  11  10    2.54    0.11
  -4 -10 -11    0.03    0.05
  -4 -10 -11    0.09    0.05
   4  10  11   -0.04    0.05
  -2 -10 -10    0.63    0.07
   2  10  10    0.63    0.07
   2  10  10    0.58    0.07
   0 -10  -9    0.43    0.06
   0  10   9    0.57    0.07
   2 -10  -8    0.48    0.07
  -2  10   8    0.55    0.08
  -5  -9 -11    0.09    0.05
   5   9  11    0.07    0.06
  -3  -9 -10    0.50    0.06
   3   9  10    0.45    0.07
  -1  -9  -9    1.92    0.09
   1   9   9    1.95    0.09
   1   9   9    1.98    0.08
   1  -9  -8    0.27    0.05
  -1   9   8    0.26    0.06
   3  -9  -7    0.59    0.07
  -3   9   7    0.76    0.09
  -4  -8 -10    1.58    0.08
  -4  -8 -10    1.64    0.08
   4   8  10    1.64    0.09
  -2  -8  -9    0.28    0.05
   2   8   9    0.35    0.05
   2   8   9    0.40    0.05
   0  -8  -8    6.28    0.15
   0   8   8    6.67    0.14
   0   8   8    6.36    0.15
   2  -8  -7   17.66    0.34
  -2   8   7   18.19    0.34
   4  -8  -6    0.00    0.04
   4  -8  -6    0.00    0.04
  -4   8   6    0.00    0.05
  -5  -7 -10    0.80    0.07
   5   7  10    1.03    0.08
  -3  -7  -9    0.66    0.06
  -3  -7  -9    0.65    0.05
   3   7   9    0.73    0.06
  -1  -7  -8    3.04    0.10
   1   7   8    2.96    0.09
   1   7   8    2.79    0.09
   1  -7  -7    1.41    0.06
   1  -7  -7    1.31    0.07
  -1   7   7    1.35    0.07
   3  -7  -6    0.21    0.04
   3  -7  -6    0.14    0.04
  -3   7   6    0.10    0.05
  -6  -6 -10   12.29    0.26
   6   6  10   12.05    0.27
  -4  -6  -9    0.48    0.06
  -4  -6  -9    0.57    0.05
   4   6   9    0.66    0.06
  -2  -6  -8    1.75    0.07
   2   6   8    1.74    0.07
   0  -6  -7    4.26    0.11
   0  -6  -7    4.04    0.09
   0   6   7    4.10    0.10
   0   6   7    4.13    0.10
   2  -6  -6    0.82    0.05
   2  -6  -6    0.81    0.05
  -2   6   6    0.73    0.06
   4  -6  -5    0.85    0.06
   4  -6  -5    0.93    0.07
  -4   6   5    0.87    0.07
  -5  -5  -9   27.15    0.47
   5   5   9   27.03    0.48
  -3  -5  -8    2.76    0.08
  -3  -5  -8    2.85    0.09
   3   5   8    2.84    0.09
  -1  -5  -7    2.69    0.08
   1   5   7    2.76    0.08
   1   5   7    2.57    0.07
   1  -5  -6   13.55    0.24
   1  -5  -6   13.73    0.24
  -1   5   6   13.54    0.23
  -1   5   6   13.49    0.25
   3  -5  -5   28.49    0.48
   3  -5  -5   29.14    0.50
  -3   5   5   28.87    0.49
   5  -5  -4   -0.01    0.03
   5  -5  -4    0.01    0.03
  -5   5   4    0.03    0.04
  -6  -4  -9    0.90    0.07
   6   4   9    0.96    0.08
  -4  -4  -8    2.38    0.09
   4   4   8    2.61    0.09
  -2  -4  -7    5.05    0.10
  -2  -4  -7    5.21    0.10
  -2  -4  -7    5.22    0.12
   2   4   7    5.19    0.12
   0  -4  -6   16.33    0.27
   0  -4  -6   15.62    0.27
   0   4   6   16.24    0.27
   0   4   6   15.80    0.27
   2  -4  -5    3.46    0.09
   2  -4  -5    3.50    0.09
  -2   4   5    3.46    0.09
   4  -4  -4    2.29    0.08
   4  -4  -4    2.24    0.09
  -4   4   4    2.03    0.09
   6  -4  -3    2.04    0.11
  -6   4   3    2.17    0.10
  -5  -3  -8   24.73    0.44
   5   3   8   25.28    0.44
   5   3   8   25.40    0.44
  -3  -3  -7    1.91    0.07
   3   3   7    1.87    0.06
   3   3   7    1.81    0.07
  -1  -3  -6   10.86    0.19
  -1  -3  -6   10.36    0.18
   1   3   6   10.21    0.18
   1   3   6   10.50    0.19
   1  -3  -5    6.63    0.13
   1  -3  -5    6.25    0.13
  -1   3   5    6.30    0.13
  -1   3   5    6.43    0.12
   3  -3  -4    1.07    0.05
   3  -3  -4    1.11    0.06
  -3   3   4    1.08    0.06
   5  -3  -3    1.05    0.05
   5  -3  -3    1.05    0.07
  -5   3   3    1.02    0.07
  -6  -2  -8    1.66    0.09
   6   2   8    1.73    0.08
   6   2   8    1.53    0.08
  -4  -2  -7   36.33    0.60
   4   2   7   36.56    0.59
   4   2   7   36.56    0.61
  -2  -2  -6    2.87    0.08
   2   2   6    2.73    0.08
   2   2   6    2.94    0.07
   0  -2  -5    7.73    0.14
   0  -2  -5    7.30    0.14
   0   2   5    7.38    0.13
   0   2   5    7.67    0.14
   2  -2  -4   17.61    0.31
   2  -2  -4   17.73    0.29
  -2   2   4   17.70    0.30
  -2   2   4   17.58    0.28
   4  -2  -3   26.96    0.47
   4  -2  -3   26.14    0.43
  -4   2   3   26.46    0.45
   6  -2  -2    0.08    0.04
  -6   2   2    0.06    0.04
  -5  -1  -7    2.68    0.10
   5   1   7    2.83    0.09
   5   1   7    2.78    0.10
  -3  -1  -6    3.68    0.10
   3   1   6    3.66    0.09
   3   1   6    3.67    0.09
  -1  -1  -5   19.73    0.32
   1   1   5   19.30    0.32
   1   1   5   19.23    0.32
   1  -1  -4   59.26    0.87
   1  -1  -4   56.65    0.91
  -1   1   4   57.11    0.87
  -1   1   4   56.92    0.88
   3  -1  -3    4.09    0.08
   3  -1  -3    4.08    0.10
  -3   1   3    3.97    0.10
   5  -1  -2    4.24    0.13
  -5   1   2    4.40    0.12
   7  -1  -1    3.41    0.14
  -7   1   1    3.22    0.13
  -6   0  -7    0.02    0.04
   6   0   7    0.02    0.03
  -4   0  -6   38.15    0.62
   4   0   6   38.24    0.64
   4   0   6   38.10    0.61
  -2   0  -5    3.31    0.08
   2   0   5    3.23    0.08
   2   0   5    3.37    0.08
   0   0  -4   35.67    0.54
   0   0  -4   36.32    0.58
   0   0   4   35.04    0.55
   2   0  -3    4.37    0.10
  -2   0   3    4.58    0.09
  -2   0   3    4.42    0.10
   4   0  -2    0.54    0.05
  -4   0   2    0.48    0.05
  -4   0   2    0.53    0.03
   6   0  -1    1.06    0.08
  -6   0   1    1.02    0.07
  -5   1  -6    1.06    0.07
   5  -1   6    1.03    0.07
  -3   1  -5   32.78    0.53
   3  -1   5   33.10    0.55
   3  -1   5   32.16    0.52
  -1   1  -4    0.75    0.04
   1  -1   4    0.78    0.04
   1  -1   4    0.77    0.04
   1   1  -3    4.76    0.10
  -1  -1   3    4.75    0.10
  -1  -1   3    4.71    0.09
   3   1  -2    7.97    0.17
  -3  -1   2    8.21    0.15
  -3  -1   2    8.23    0.16
   5   1  -1   14.61    0.26
   5   1  -1   15.06    0.29
  -5  -1   1   14.49    0.28
   7   1   0    0.01    0.04
  -7  -1   0    0.03    0.04
  -6   2  -6    1.23    0.08
   6  -2   6    1.16    0.08
  -4   2  -5    6.66    0.16
   4  -2   5    6.68    0.14
   4  -2   5    6.57    0.16
  -2   2  -4    1.82    0.06
   2  -2   4    1.77    0.06
   2  -2   4    1.76    0.05
   0   2  -3   22.97    0.36
   0  -2   3   22.79    0.38
   0  -2   3   22.61    0.37
   2   2  -2   64.61    1.03
  -2  -2   2   64.47    0.99
  -2  -2   2   64.89    0.99
   4   2  -1    2.59    0.08
  -4  -2   1    2.52    0.08
   6   2   0    3.08    0.11
   6   2   0    2.93    0.09
  -6  -2   0    3.01    0.11
  -5   3  -5    0.26    0.05
   5  -3   5    0.20    0.05
  -3   3  -4   35.36    0.57
   3  -3   4   34.85    0.59
   3  -3   4   33.95    0.55
  -1   3  -3    2.39    0.06
   1  -3   3    2.45    0.07
   1  -3   3    2.34    0.06
   1   3  -2   36.37    0.59
  -1  -3   2   35.74    0.57
  -1  -3   2   36.52    0.56
   3   3  -1    1.10    0.05
  -3  -3   1    1.08    0.05
  -3  -3   1    1.07    0.05
   5   3   0    0.11    0.03
   5   3   0    0.10    0.03
  -5  -3   0   -0.01    0.04
   7   3   1    0.71    0.07
  -7  -3  -1    0.72    0.07
  -4   4  -4    0.10    0.04
   4  -4   4    0.11    0.03
  -2   4  -3   18.05    0.31
   2  -4   3   17.59    0.32
   2  -4   3   17.35    0.29
   0   4  -2    0.00    0.01
   0  -4   2    0.04    0.02
   0  -4   2    0.03    0.02
   0  -4   2    0.02    0.02
   2   4  -1    0.22    0.03
  -2  -4   1    0.27    0.03
  -2  -4   1    0.29    0.03
   4   4   0    1.45    0.06
   4   4   0    1.40    0.06
  -4  -4   0    1.40    0.06
   6   4   1    5.70    0.16
   6   4   1    5.76    0.15
  -6  -4  -1    5.81    0.16
  -5   5  -4    1.34    0.08
   5  -5   4    1.24    0.09
  -3   5  -3    8.81    0.19
   3  -5   3    8.71    0.20
  -1   5  -2    0.02    0.02
   1  -5   2    0.01    0.02
   1  -5   2    0.01    0.02
   1   5  -1    7.81    0.15
  -1  -5   1    7.92    0.14
  -1  -5   1    7.72    0.15
  -1  -5   1    7.64    0.15
   3   5   0   30.40    0.50
  -3  -5   0   29.82    0.49
  -3  -5   0   29.34    0.49
   5   5   1    1.31    0.07
   5   5   1    1.29    0.07
  -5  -5  -1    1.22    0.07
   7   5   2    0.84    0.07
   7   5   2    0.95    0.08
  -7  -5  -2    0.85    0.08
  -4   6  -3    0.83    0.06
   4  -6   3    0.78    0.07
  -2   6  -2   17.16    0.31
  -2   6  -2   17.18    0.29
   2  -6   2   16.88    0.32
   0  -6   1    0.67    0.04
   0  -6   1    0.67    0.04
   0  -6   1    0.70    0.04
   0  -6   1    0.62    0.04
   2   6   0   15.78    0.28
  -2  -6   0   16.44    0.29
  -2  -6   0   16.12    0.28
   4   6   1    0.06    0.03
   4   6   1    0.11    0.04
  -4  -6  -1    0.08    0.04
   6   6   2    0.56    0.07
   6   6   2    0.54    0.06
  -6  -6  -2    0.55    0.07
  -3   7  -2    0.30    0.05
   3  -7   2    0.26    0.05
  -1   7  -1    6.14    0.14
   1  -7   1    6.19    0.13
   1  -7   1    6.07    0.15
   1  -7   1    6.04    0.14
  -1  -7   0    0.35    0.04
  -1  -7   0    0.30    0.04
  -1  -7   0    0.28    0.04
   3   7   1    0.60    0.04
   3   7   1    0.56    0.05
  -3  -7  -1    0.58    0.05
   5   7   2    0.11    0.04
  -5  -7  -2    0.06    0.04
  -2   8  -1    6.43    0.15
   2  -8   1    6.55    0.16
   0  -8   0    0.48    0.05
   0  -8   0    0.50    0.05
   0  -8   0    0.55    0.05
   0  -8   0    0.54    0.05
   2   8   1    1.43    0.06
   2   8   1    1.49    0.07
  -2  -8  -1    1.60    0.07
  -2  -8  -1    1.64    0.06
   4   8   2    9.50    0.21
  -4  -8  -2    9.54    0.21
   6   8   3    0.76    0.08
  -6  -8  -3    0.76    0.08
  -3   9  -1    0.90    0.07
   3  -9   1    0.99    0.08
  -1   9   0    5.37    0.14
   1  -9   0    5.53    0.15
   1  -9   0    5.35    0.15
   1   9   1    0.08    0.03
  -1  -9  -1    0.07    0.04
  -1  -9  -1    0.10    0.03
   3   9   2    4.58    0.13
  -3  -9  -2    4.48    0.13
   5   9   3   -0.06    0.04
  -5  -9  -3   -0.01    0.04
   2 -10   0    1.26    0.08
   2 -10   0    1.06    0.09
   0  10   1    1.79    0.08
   0 -10  -1    1.83    0.09
   2  10   2    0.21    0.05
  -2 -10  -2    0.29    0.04
  -2 -10  -2    0.29    0.06
   4  10   3    1.12    0.08
  -4 -10  -3    1.11    0.08
  -1  11   1    2.99    0.12
   1 -11  -1    2.96    0.12
   1  11   2    0.75    0.07
  -1 -11  -2    0.81    0.07
  -1 -11  -2    0.86    0.07
   3  11   3    0.32    0.06
  -3 -11  -3    0.41    0.07
   2  12   3   -0.06    0.04
  -2 -12  -3   -0.02    0.05
  -2 -11 -11    0.23    0.06
   2  11  11    0.31    0.06
   2  11  11    0.33    0.07
   0 -11 -10    0.20    0.06
   0  11  10    0.22    0.06
  -3 -10 -11    0.12    0.05
   3  10  11    0.03    0.05
   3  10  11    0.06    0.05
  -1 -10 -10    0.14    0.05
   1  10  10    0.11    0.05
   1  10  10    0.11    0.04
   1 -10  -9    2.88    0.12
  -1  10   9    3.01    0.12
  -4  -9 -11    3.04    0.12
   4   9  11    2.85    0.12
  -2  -9 -10    0.00    0.04
   2   9  10   -0.01    0.04
   2   9  10   -0.02    0.04
   0  -9  -9   -0.02    0.04
   0   9   9    0.04    0.04
   2  -9  -8   10.76    0.24
  -2   9   8   10.73    0.24
  -5  -8 -11   -0.08    0.05
   5   8  11   -0.01    0.05
  -3  -8 -10    1.66    0.08
   3   8  10    1.57    0.09
  -1  -8  -9   -0.01    0.03
   1   8   9   -0.01    0.03
   1   8   9    0.03    0.04
   1  -8  -8    0.53    0.06
  -1   8   8    0.47    0.06
   3  -8  -7    1.08    0.08
   3  -8  -7    1.18    0.07
  -3   8   7    0.99    0.08
  -4  -7 -10    0.32    0.05
   4   7  10    0.37    0.06
  -2  -7  -9    0.22    0.04
   2   7   9    0.28    0.05
   2   7   9    0.37    0.05
   0  -7  -8    1.09    0.06
   0   7   8    1.14    0.06
   0   7   8    1.12    0.06
   2  -7  -7    7.02    0.16
   2  -7  -7    6.55    0.16
  -2   7   7    6.67    0.16
   4  -7  -6    1.92    0.09
   4  -7  -6    1.98    0.09
  -4   7   6    1.74    0.10
  -5  -6 -10    0.05    0.05
   5   6  10    0.04    0.05
  -3  -6  -9    8.31    0.18
  -3  -6  -9    8.54    0.17
   3   6   9    8.43    0.19
  -1  -6  -8    0.67    0.05
   1   6   8    0.59    0.05
   1   6   8    0.67    0.05
   1  -6  -7   -0.02    0.02
   1  -6  -7   -0.03    0.02
  -1   6   7   -0.01    0.03
  -1   6   7    0.00    0.02
   3  -6  -6   18.80    0.35
   3  -6  -6   18.57    0.34
  -3   6   6   18.48    0.35
   5  -6  -5    0.01    0.03
   5  -6  -5    0.03    0.04
  -5   6   5    0.01    0.05
  -6  -5 -10    4.65    0.15
   6   5  10    4.61    0.15
  -4  -5  -9    0.31    0.05
   4   5   9    0.34    0.05
  -2  -5  -8    2.09    0.07
   2   5   8    2.06    0.08
   0  -5  -7    1.17    0.04
   0  -5  -7    1.12    0.05
   0   5   7    1.13    0.05
   0   5   7    1.13    0.05
   2  -5  -6    0.25    0.04
   2  -5  -6    0.25    0.04
  -2   5   6    0.28    0.04
   4  -5  -5    0.41    0.05
   4  -5  -5    0.42    0.05
  -4   5   5    0.40    0.06
  -5  -4  -9    0.95    0.08
   5   4   9    1.10    0.08
  -3  -4  -8    0.28    0.03
  -3  -4  -8    0.30    0.04
   3   4   8    0.27    0.04
   3   4   8    0.24    0.03
  -1  -4  -7    0.19    0.02
  -1  -4  -7    0.27    0.03
   1   4   7    0.32    0.03
   1   4   7    0.30    0.04
   1  -4  -6    4.78    0.11
   1  -4  -6    4.88    0.11
  -1   4   6    4.84    0.10
  -1   4   6    4.64    0.11
   3  -4  -5   11.94    0.24
   3  -4  -5   11.59    0.22
  -3   4   5   11.80    0.23
   5  -4  -4    1.56    0.09
  -5   4   4    1.46    0.08
  -6  -3  -9    0.29    0.06
   6   3   9    0.29    0.06
   4   3   8    0.07    0.03
   4   3   8    0.11    0.04
  -2  -3  -7   22.36    0.37
   2   3   7   22.17    0.37
   2   3   7   21.85    0.37
   0  -3  -6    5.37    0.11
   0  -3  -6    5.03    0.11
   0   3   6    5.10    0.10
   0   3   6    5.24    0.11
   2  -3  -5    0.04    0.02
   2  -3  -5    0.07    0.02
  -2   3   5    0.08    0.03
   4  -3  -4   18.75    0.32
   4  -3  -4   18.74    0.35
  -4   3   4   18.37    0.34
   6  -3  -3    0.06    0.04
  -6   3   3    0.14    0.05
  -5  -2  -8   17.82    0.34
   5   2   8   18.55    0.34
   5   2   8   18.00    0.33
  -3  -2  -7    1.58    0.07
   3   2   7    1.49    0.06
   3   2   7    1.56    0.06
  -1  -2  -6    2.20    0.06
  -1  -2  -6    2.17    0.06
   1   2   6    2.18    0.06
   1  -2  -5   12.00    0.20
   1  -2  -5   11.59    0.22
  -1   2   5   11.88    0.21
  -1   2   5   12.22    0.21
   3  -2  -4    0.37    0.04
   3  -2  -4    0.40    0.03
  -3   2   4    0.25    0.04
   5  -2  -3   -0.03    0.03
  -5   2   3    0.02    0.04
  -6  -1  -8   -0.06    0.03
   6   1   8   -0.01    0.03
  -4  -1  -7    2.30    0.09
   4   1   7    2.52    0.09
   4   1   7    2.48    0.09
  -2  -1  -6    0.00    0.02
   2   1   6    0.01    0.01
   2   1   6   -0.01    0.02
   0  -1  -5    0.16    0.02
   0  -1  -5    0.17    0.02
   0   1   5    0.13    0.02
   0   1   5    0.15    0.02
   2  -1  -4    9.39    0.18
   2  -1  -4    9.65    0.16
  -2   1   4    9.29    0.17
  -2   1   4    9.37    0.17
   4  -1  -3   13.11    0.26
  -4   1   3   12.83    0.25
   6  -1  -2    0.40    0.06
  -6   1   2    0.48    0.07
  -5   0  -7    0.17    0.04
   5   0   7    0.20    0.04
   5   0   7    0.17    0.04
  -3   0  -6    1.66    0.07
   3   0   6    1.70    0.07
   3   0   6    1.76    0.06
  -1   0  -5   42.04    0.65
   1   0   5   42.32    0.68
   1   0   5   41.52    0.65
   1   0  -4   12.87    0.21
   1   0  -4   13.09    0.23
  -1   0   4   12.44    0.21
  -1   0   4   12.94    0.22
   3   0  -3    0.18    0.03
  -3   0   3    0.17    0.03
  -3   0   3    0.19    0.03
   5   0  -2    9.47    0.21
  -5   0   2    9.25    0.20
   7   0  -1    0.06    0.05
  -7   0   1    0.08    0.05
  -6   1  -7    0.92    0.07
   6  -1   7    0.91    0.08
  -4   1  -6   43.98    0.71
   4  -1   6   44.67    0.74
   4  -1   6   43.75    0.70
  -2   1  -5    2.63    0.07
   2  -1   5    2.75    0.08
   2  -1   5    2.58    0.07
   0   1  -4    2.13    0.05
   0  -1   4    2.15    0.06
   2   1  -3   28.86    0.48
  -2  -1   3   28.34    0.46
  -2  -1   3   28.23    0.45
   4   1  -2    3.60    0.10
  -4  -1   2    3.46    0.09
  -4  -1   2    3.43    0.10
   6   1  -1    0.13    0.04
  -6  -1   1    0.14    0.04
  -5   2  -6    0.03    0.03
   5  -2   6    0.01    0.03
  -3   2  -5    2.69    0.09
   3  -2   5    2.63    0.08
   3  -2   5    2.56    0.09
  -1   2  -4    1.10    0.04
   1  -2   4    1.08    0.04
   1  -2   4    1.05    0.04
   1   2  -3    1.37    0.05
  -1  -2   3    1.38    0.04
  -1  -2   3    1.45    0.05
   3   2  -2    6.05    0.13
  -3  -2   2    5.94    0.12
  -3  -2   2    5.88    0.13
   5   2  -1    7.77    0.18
   5   2  -1    7.54    0.16
  -5  -2   1    7.49    0.17
   7   2   0   -0.01    0.04
  -7  -2   0   -0.02    0.04
  -4   3  -5    0.20    0.04
   4  -3   5    0.17    0.04
  -2   3  -4    4.98    0.11
   2  -3   4    4.82    0.12
   2  -3   4    4.79    0.11
   0   3  -3   31.88    0.49
   0  -3   3   30.57    0.50
   0  -3   3   31.27    0.52
   2   3  -2    7.44    0.15
  -2  -3   2    7.27    0.14
  -2  -3   2    7.35    0.15
   4   3  -1    0.15    0.03
  -4  -3   1    0.19    0.03
  -4  -3   1    0.19    0.04
   6   3   0    2.53    0.11
   6   3   0    2.49    0.09
  -6  -3   0    2.49    0.10
  -5   4  -5    1.24    0.08
   5  -4   5    1.23    0.09
  -3   4  -4   64.39    1.01
   3  -4   4   63.64    1.05
   3  -4   4   64.30    0.99
  -1   4  -3    1.40    0.05
   1  -4   3    1.41    0.05
   1  -4   3    1.27    0.06
   1   4  -2    1.92    0.06
   1   4  -2    1.87    0.05
  -1  -4   2    1.93    0.06
  -1  -4   2    1.98    0.05
   3   4  -1   21.70    0.37
  -3  -4   1   20.20    0.36
  -3  -4   1   21.35    0.36
   5   4   0    8.03    0.18
   5   4   0    7.71    0.17
  -5  -4   0    7.87    0.18
   7   4   1    0.17    0.05
   7   4   1    0.12    0.05
  -7  -4  -1    0.13    0.05
  -4   5  -4    0.14    0.04
   4  -5   4    0.06    0.04
  -2   5  -3    1.15    0.06
  -2   5  -3    1.23    0.05
   2  -5   3    1.00    0.06
   2  -5   3    1.08    0.05
   0  -5   2    2.24    0.06
   0  -5   2    2.19    0.07
   0  -5   2    2.32    0.07
   2   5  -1    0.92    0.05
  -2  -5   1    0.99    0.05
  -2  -5   1    0.97    0.05
   4   5   0    1.51    0.07
   4   5   0    1.48    0.07
  -4  -5   0    1.51    0.07
   6   5   1    2.81    0.11
   6   5   1    2.84    0.11
  -6  -5  -1    2.81    0.11
  -3   6  -3    0.36    0.05
   3  -6   3    0.33    0.05
  -1   6  -2    3.99    0.10
  -1   6  -2    4.05    0.10
   1  -6   2    4.04    0.10
   1  -6   2    3.93    0.11
   1   6  -1   10.90    0.21
  -1  -6   1   11.23    0.20
  -1  -6   1   10.77    0.21
  -1  -6   1   11.05    0.19
   3   6   0    1.55    0.06
  -3  -6   0    1.53    0.07
  -3  -6   0    1.55    0.07
   5   6   1    0.18    0.04
   5   6   1    0.16    0.04
  -5  -6  -1    0.19    0.05
   7   6   2    0.26    0.06
  -7  -6  -2    0.38    0.07
  -4   7  -3    1.09    0.07
   4  -7   3    1.08    0.08
  -2   7  -2   52.40    0.84
   2  -7   2   51.93    0.87
   0  -7   1    0.46    0.05
   0  -7   1    0.46    0.04
   0  -7   1    0.55    0.05
   0  -7   1    0.52    0.05
   2   7   0    1.22    0.06
  -2  -7   0    1.28    0.05
  -2  -7   0    1.21    0.06
  -2  -7   0    1.26    0.06
   4   7   1    9.01    0.19
   4   7   1    9.12    0.20
  -4  -7  -1    9.09    0.20
   6   7   2    8.10    0.20
  -6  -7  -2    8.36    0.20
  -3   8  -2    0.06    0.04
   3  -8   2    0.06    0.04
  -1   8  -1    0.20    0.04
   1  -8   1    0.18    0.04
   1  -8   1    0.23    0.05
   1  -8   1    0.14    0.04
   1   8   0    1.66    0.07
  -1  -8   0    1.62    0.06
  -1  -8   0    1.66    0.07
  -1  -8   0    1.56    0.07
   3   8   1    0.22    0.04
   3   8   1    0.23    0.03
  -3  -8  -1    0.17    0.04
   5   8   2    0.30    0.06
  -5  -8  -2    0.26    0.06
   2  -9   1    0.75    0.07
   0  -9   0    1.67    0.08
   0  -9   0    1.67    0.08
   2   9   1    3.02    0.10
  -2  -9  -1    3.14    0.09
  -2  -9  -1    3.05    0.10
   4   9   2    0.20    0.05
  -4  -9  -2    0.22    0.05
   6   9   3    0.06    0.06
  -6  -9  -3    0.09    0.06
  -1  10   0   28.76    0.50
   1 -10   0   28.06    0.51
   1 -10   0   29.48    0.52
   1  10   1    0.32    0.05
  -1 -10  -1    0.34    0.06
  -1 -10  -1    0.31    0.05
   3  10   2    0.56    0.06
  -3 -10  -2    0.64    0.07
   5  10   3    3.07    0.13
  -5 -10  -3    3.22    0.12
   0  11   1    0.06    0.05
   0 -11  -1    0.06    0.04
   2  11   2    0.60    0.07
  -2 -11  -2    0.76    0.07
   4  11   3   -0.08    0.05
  -4 -11  -3    0.00    0.05
  -1 -12  -2    0.48    0.07
   3  12   3    0.66    0.08
  -3 -12  -3    0.74    0.08
  -2 -10 -11    0.75    0.07
   2  10  11    0.57    0.07
   2  10  11    0.74    0.07
   0 -10 -10   -0.06    0.04
   0  10  10    0.05    0.05
  -3  -9 -11    0.09    0.05
   3   9  11    0.15    0.05
   3   9  11    0.23    0.06
  -1  -9 -10    2.07    0.10
   1   9  10    2.22    0.09
   1   9  10    2.01    0.09
   1  -9  -9    0.63    0.06
  -1   9   9    0.75    0.07
  -4  -8 -11    0.52    0.07
   4   8  11    0.51    0.07
  -2  -8 -10    1.27    0.07
   2   8  10    1.33    0.07
   2   8  10    1.29    0.08
   0  -8  -9    0.44    0.06
   0   8   9    0.53    0.06
   0   8   9    0.41    0.05
   2  -8  -8    0.11    0.04
  -2   8   8    0.01    0.04
  -5  -7 -11    0.21    0.06
   5   7  11    0.25    0.06
  -3  -7 -10    1.03    0.07
   3   7  10    1.10    0.07
  -1  -7  -9    3.00    0.10
   1   7   9    3.00    0.09
   1   7   9    2.99    0.09
   1  -7  -8    0.36    0.05
  -1   7   8    0.34    0.05
   3  -7  -7    0.97    0.07
   3  -7  -7    1.01    0.07
  -3   7   7    0.80    0.08
  -4  -6 -10    0.01    0.04
   4   6  10    0.06    0.04
  -2  -6  -9    0.00    0.03
   2   6   9    0.01    0.03
   2   6   9   -0.01    0.03
   0  -6  -8    5.73    0.12
   0  -6  -8    5.86    0.14
   0   6   8    5.75    0.13
   0   6   8    5.69    0.13
   2  -6  -7    0.67    0.05
   2  -6  -7    0.69    0.05
  -2   6   7    0.74    0.06
   4  -6  -6    0.12    0.04
   4  -6  -6    0.13    0.04
  -4   6   6    0.10    0.05
  -5  -5 -10    0.61    0.07
   5   5  10    0.64    0.07
  -3  -5  -9    2.11    0.08
   3   5   9    2.06    0.08
  -1  -5  -8    3.36    0.08
  -1  -5  -8    3.61    0.10
   1   5   8    3.42    0.09
   1   5   8    3.39    0.09
   1  -5  -7    6.17    0.14
   1  -5  -7    6.02    0.13
  -1   5   7    5.82    0.13
  -1   5   7    6.01    0.12
   3  -5  -6    2.45    0.08
   3  -5  -6    2.49    0.09
  -3   5   6    2.45    0.09
   5  -5  -5    0.03    0.04
  -5   5   5    0.00    0.04
  -6  -4 -10    1.44    0.09
   6   4  10    1.41    0.09
  -4  -4  -9    0.56    0.06
   4   4   9    0.58    0.06
  -2  -4  -8    3.59    0.10
  -2  -4  -8    3.37    0.08
   2   4   8    3.56    0.08
   2   4   8    3.62    0.10
   0  -4  -7   10.70    0.19
   0  -4  -7   10.85    0.20
   0   4   7   10.72    0.20
   0   4   7   10.44    0.19
   2  -4  -6    0.84    0.05
   2  -4  -6    0.88    0.05
  -2   4   6    0.82    0.05
   4  -4  -5    0.46    0.06
   4  -4  -5    0.52    0.04
  -4   4   5    0.47    0.06
   6  -4  -4    0.81    0.08
  -6   4   4    0.78    0.08
  -5  -3  -9    6.51    0.17
   5   3   9    6.80    0.17
  -3  -3  -8    0.47    0.05
   3   3   8    0.48    0.05
   3   3   8    0.50    0.04
  -1  -3  -7    0.19    0.03
  -1  -3  -7    0.17    0.02
   1   3   7    0.18    0.02
   1   3   7    0.17    0.03
   1  -3  -6    9.19    0.18
   1  -3  -6    9.38    0.17
  -1   3   6    9.35    0.17
  -1   3   6    9.38    0.17
   3  -3  -5    0.59    0.04
   3  -3  -5    0.61    0.05
  -3   3   5    0.59    0.05
   5  -3  -4   -0.03    0.03
  -5   3   4    0.01    0.04
  -6  -2  -9    0.03    0.04
   6   2   9    0.06    0.04
   6   2   9    0.00    0.03
  -4  -2  -8    3.38    0.11
   4   2   8    3.63    0.10
   4   2   8    3.54    0.11
  -2  -2  -7    6.15    0.13
   2   2   7    5.98    0.13
   2   2   7    6.07    0.13
   0  -2  -6    3.77    0.08
   0  -2  -6    3.76    0.09
   0   2   6    3.61    0.08
   0   2   6    3.74    0.09
   2  -2  -5   17.93    0.29
   2  -2  -5   17.28    0.31
  -2   2   5   17.63    0.30
  -2   2   5   17.83    0.29
   4  -2  -4    8.74    0.20
   4  -2  -4    8.72    0.17
  -4   2   4    8.40    0.19
   6  -2  -3    0.04    0.04
  -6   2   3    0.07    0.04
  -5  -1  -8    2.72    0.10
   5   1   8    2.75    0.10
   5   1   8    2.71    0.09
  -3  -1  -7    1.60    0.07
   3   1   7    1.61    0.06
   3   1   7    1.57    0.06
  -1  -1  -6    7.31    0.14
   1   1   6    7.19    0.14
   1   1   6    7.08    0.14
   1  -1  -5   20.21    0.32
   1  -1  -5   19.90    0.34
  -1   1   5   19.66    0.32
  -1   1   5   19.77    0.33
   3  -1  -4    1.39    0.06
  -3   1   4    1.48    0.06
  -3   1   4    1.53    0.05
   5  -1  -3   -0.02    0.03
  -5   1   3   -0.04    0.03
  -6   0  -8    1.85    0.09
   6   0   8    1.75    0.09
  -4   0  -7    5.76    0.15
   4   0   7    5.91    0.14
   4   0   7    6.08    0.15
  -2   0  -6    1.20    0.05
   2   0   6    1.20    0.05
   2   0   6    1.21    0.05
   0   0  -5    0.58    0.03
   0   0  -5    0.58    0.03
   0   0   5    0.59    0.03
   2   0  -4    7.15    0.15
  -2   0   4    6.97    0.14
  -2   0   4    7.20    0.14
   4   0  -3    0.39    0.05
  -4   0   3    0.44    0.05
  -4   0   3    0.37    0.03
   6   0  -2    0.11    0.05
  -6   0   2    0.16    0.05
  -5   1  -7    0.47    0.06
   5  -1   7    0.42    0.06
  -3   1  -6    7.67    0.17
   3  -1   6    7.60    0.16
   3  -1   6    8.02    0.17
  -1   1  -5   11.07    0.19
   1  -1   5   10.46    0.19
   1  -1   5   10.85    0.20
   1   1  -4    0.82    0.04
  -1  -1   4    0.78    0.03
  -1  -1   4    0.81    0.04
   3   1  -3   15.95    0.30
  -3  -1   3   16.16    0.28
  -3  -1   3   16.27    0.28
   5   1  -2   12.04    0.25
   5   1  -2   11.94    0.22
  -5  -1   2   11.89    0.24
   7   1  -1    0.35    0.06
  -7  -1   1    0.41    0.07
  -4   2  -6    3.78    0.11
   4  -2   6    3.88    0.10
   4  -2   6    3.84    0.12
  -2   2  -5    2.48    0.07
   2  -2   5    2.46    0.07
   2  -2   5    2.37    0.08
   0   2  -4    7.01    0.13
   0  -2   4    6.71    0.14
   0  -2   4    6.66    0.14
   2   2  -3   11.76    0.22
  -2  -2   3   11.84    0.21
  -2  -2   3   12.05    0.21
   4   2  -2    0.74    0.05
  -4  -2   2    0.77    0.05
  -4  -2   2    0.76    0.05
   6   2  -1    0.40    0.05
   6   2  -1    0.40    0.06
  -6  -2   1    0.51    0.07
  -5   3  -6    1.23    0.08
   5  -3   6    1.27    0.08
  -3   3  -5    3.17    0.10
   3  -3   5    3.26    0.09
   3  -3   5    3.11    0.11
  -1   3  -4    1.08    0.05
   1  -3   4    1.06    0.05
   1  -3   4    1.03    0.05
   1   3  -3    0.50    0.04
  -1  -3   3    0.46    0.03
  -1  -3   3    0.42    0.03
   3   3  -2    1.93    0.07
  -3  -3   2    1.85    0.06
  -3  -3   2    1.83    0.06
   5   3  -1    0.38    0.05
   5   3  -1    0.38    0.05
  -5  -3   1    0.37    0.05
   7   3   0    0.05    0.05
  -7  -3   0    0.05    0.05
  -4   4  -5    1.27    0.07
   4  -4   5    1.19    0.08
  -2   4  -4    7.29    0.15
   2  -4   4    7.08    0.14
   2  -4   4    6.87    0.16
   0   4  -3    9.36    0.16
   0  -4   3    8.86    0.18
   0  -4   3    8.80    0.16
   0  -4   3    8.77    0.17
   2   4  -2    0.02    0.02
  -2  -4   2    0.01    0.02
  -2  -4   2    0.06    0.02
   4   4  -1    5.05    0.13
  -4  -4   1    5.08    0.13
  -4  -4   1    5.06    0.12
   6   4   0    9.16    0.22
   6   4   0    8.80    0.20
  -6  -4   0    9.00    0.21
  -5   5  -5    0.08    0.04
   5  -5   5    0.04    0.04
  -3   5  -4    3.21    0.11
   3  -5   4    3.58    0.11
  -1   5  -3    1.26    0.05
  -1   5  -3    1.24    0.05
   1  -5   3    1.22    0.06
   1  -5   3    1.32    0.05
   1   5  -2    2.65    0.08
   1   5  -2    2.63    0.06
  -1  -5   2    2.67    0.07
  -1  -5   2    2.52    0.08
   3   5  -1    2.72    0.08
  -3  -5   1    2.61    0.08
  -3  -5   1    2.71    0.09
   5   5   0    0.45    0.05
   5   5   0    0.47    0.05
  -5  -5   0    0.48    0.06
   7   5   1    0.47    0.07
   7   5   1    0.51    0.07
  -7  -5  -1    0.52    0.07
  -4   6  -4    0.50    0.06
   4  -6   4    0.63    0.07
  -2   6  -3    1.34    0.07
   2  -6   3    1.26    0.07
   2  -6   3    1.37    0.06
   0  -6   2    0.34    0.04
   0  -6   2    0.31    0.03
   0  -6   2    0.34    0.04
   2   6  -1    0.03    0.02
  -2  -6   1    0.05    0.03
  -2  -6   1    0.03    0.03
   4   6   0    0.54    0.05
   4   6   0    0.50    0.05
  -4  -6   0    0.41    0.05
   6   6   1    0.51    0.07
   6   6   1    0.50    0.06
  -6  -6  -1    0.50    0.07
  -3   7  -3    1.96    0.09
   3  -7   3    2.00    0.09
  -1   7  -2    3.07    0.09
  -1   7  -2    3.05    0.09
   1  -7   2    3.16    0.10
   1  -7   2    3.18    0.09
   1   7  -1    5.20    0.13
  -1  -7   1    5.20    0.12
  -1  -7   1    5.31    0.13
  -1  -7   1    5.32    0.12
   3   7   0    0.11    0.03
  -3  -7   0    0.12    0.04
  -3  -7   0    0.07    0.04
   5   7   1    0.52    0.06
   5   7   1    0.55    0.06
  -5  -7  -1    0.64    0.06
  -2   8  -2    1.98    0.09
   2  -8   2    2.14    0.10
   0  -8   1    0.13    0.04
   0  -8   1    0.14    0.04
   0  -8   1    0.09    0.03
   0  -8   1    0.17    0.04
   2   8   0    0.48    0.05
  -2  -8   0    0.53    0.05
  -2  -8   0    0.59    0.06
   4   8   1    0.35    0.06
  -4  -8  -1    0.33    0.05
   6   8   2    0.40    0.07
  -6  -8  -2    0.28    0.06
  -1   9  -1    0.56    0.06
   1  -9   1    0.54    0.07
   1  -9   1    0.57    0.07
   1   9   0    0.07    0.03
  -1  -9   0    0.10    0.04
  -1  -9   0    0.04    0.03
   3   9   1    0.04    0.04
  -3  -9  -1    0.03    0.04
   5   9   2    0.30    0.06
  -5  -9  -2    0.21    0.06
  -2  10  -1    1.82    0.10
   2 -10   1    2.08    0.10
   0  10   0    0.83    0.07
   0 -10   0    0.83    0.07
   0 -10   0    0.77    0.07
   2  10   1    2.77    0.10
  -2 -10  -1    2.73    0.10
   4  10   2    0.04    0.05
  -4 -10  -2    0.00    0.05
   1  11   1    0.14    0.05
  -1 -11  -1    0.20    0.06
  -1 -11  -1    0.11    0.04
   3  11   2    0.04    0.05
  -3 -11  -2    0.02    0.05
  -1 -10 -11    0.02    0.05
   1  10  11    0.02    0.04
   1  10  11    0.09    0.05
   1 -10 -10    0.58    0.07
  -1  10  10    0.69    0.09
  -4  -9 -12    0.28    0.06
   4   9  12    0.20    0.06
  -2  -9 -11    2.52    0.11
   2   9  11    2.52    0.09
   2   9  11    2.44    0.10
   0  -9 -10    0.86    0.07
   0   9  10    0.86    0.07
   2  -9  -9    0.04    0.04
  -2   9   9    0.02    0.05
  -3  -8 -11    0.27    0.05
   3   8  11    0.24    0.05
   3   8  11    0.31    0.05
  -1  -8 -10    1.72    0.08
   1   8  10    1.90    0.08
   1   8  10    1.89    0.08
   1  -8  -9    0.34    0.05
  -1   8   9    0.38    0.06
   3  -8  -8    0.08    0.04
  -3   8   8    0.01    0.05
  -4  -7 -11    0.53    0.06
   4   7  11    0.56    0.07
  -2  -7 -10    0.11    0.04
   2   7  10    0.12    0.04
   2   7  10    0.07    0.04
   0  -7  -9    0.00    0.03
   0   7   9   -0.05    0.03
   0   7   9    0.00    0.03
   2  -7  -8    0.80    0.06
   2  -7  -8    0.86    0.06
  -2   7   8    0.87    0.07
   4  -7  -7    0.21    0.05
   4  -7  -7    0.12    0.04
  -4   7   7    0.17    0.06
  -5  -6 -11   -0.02    0.04
   5   6  11    0.02    0.05
  -3  -6 -10    0.57    0.06
   3   6  10    0.58    0.07
  -1  -6  -9    4.34    0.12
   1   6   9    4.25    0.11
   1   6   9    4.28    0.11
   1  -6  -8    2.43    0.08
   1  -6  -8    2.27    0.08
  -1   6   8    2.46    0.09
  -1   6   8    2.46    0.07
   3  -6  -7    0.03    0.03
   3  -6  -7    0.02    0.03
  -3   6   7    0.03    0.04
  -4  -5 -10   -0.01    0.03
   4   5  10   -0.03    0.04
  -2  -5  -9    0.57    0.05
   2   5   9    0.50    0.04
   2   5   9    0.49    0.05
   0  -5  -8    3.93    0.10
   0  -5  -8    3.84    0.09
   0   5   8    3.86    0.10
   0   5   8    3.83    0.10
   2  -5  -7    0.07    0.03
   2  -5  -7    0.03    0.03
  -2   5   7    0.06    0.03
   4  -5  -6    0.47    0.05
   4  -5  -6    0.52    0.06
  -4   5   6    0.62    0.07
  -5  -4 -10    3.24    0.12
   5   4  10    3.18    0.12
  -3  -4  -9    2.81    0.09
   3   4   9    2.85    0.10
  -1  -4  -8    0.52    0.04
  -1  -4  -8    0.53    0.03
   1   4   8    0.59    0.04
   1   4   8    0.51    0.05
   1  -4  -7    0.62    0.04
   1  -4  -7    0.60    0.04
  -1   4   7    0.66    0.04
  -1   4   7    0.66    0.04
   3  -4  -6    0.82    0.05
   3  -4  -6    0.84    0.06
  -3   4   6    0.90    0.06
   5  -4  -5   -0.02    0.04
  -5   4   5    0.01    0.04
  -6  -3 -10    0.60    0.07
   6   3  10    0.74    0.07
  -4  -3  -9    0.46    0.05
   4   3   9    0.46    0.05
   4   3   9    0.55    0.06
  -2  -3  -8    1.17    0.06
   2   3   8    1.10    0.06
   0  -3  -7    3.57    0.09
   0  -3  -7    3.53    0.09
   0   3   7    3.58    0.09
   0   3   7    3.57    0.08
   2  -3  -6    5.05    0.11
   2  -3  -6    4.95    0.12
  -2   3   6    5.00    0.11
  -2   3   6    5.07    0.12
   4  -3  -5    0.37    0.05
   4  -3  -5    0.32    0.04
  -4   3   5    0.32    0.05
   6  -3  -4    0.70    0.08
  -6   3   4    0.77    0.08
  -5  -2  -9    0.08    0.04
   5   2   9    0.08    0.04
   5   2   9    0.09    0.04
  -3  -2  -8    0.30    0.04
   3   2   8    0.29    0.04
   3   2   8    0.32    0.04
  -1  -2  -7    1.10    0.05
  -1  -2  -7    1.16    0.05
   1   2   7    1.10    0.05
   1  -2  -6    5.24    0.12
   1  -2  -6    5.13    0.11
  -1   2   6    5.13    0.11
  -1   2   6    5.16    0.11
   3  -2  -5    0.43    0.05
   3  -2  -5    0.48    0.03
  -3   2   5    0.41    0.04
   5  -2  -4    0.74    0.07
  -5   2   4    0.76    0.06
  -6  -1  -9   -0.02    0.04
   6   1   9    0.01    0.04
   6   1   9    0.07    0.04
  -4  -1  -8    4.56    0.13
   4   1   8    4.48    0.12
   4   1   8    4.53    0.12
  -2  -1  -7    7.65    0.16
   2   1   7    7.17    0.15
   2   1   7    7.51    0.16
   0  -1  -6    1.54    0.05
   0  -1  -6    1.51    0.05
   0   1   6    1.56    0.05
   2  -1  -5    6.10    0.14
   2  -1  -5    6.02    0.11
  -2   1   5    6.10    0.12
  -2   1   5    5.94    0.13
   4  -1  -4    0.38    0.05
  -4   1   4    0.51    0.05
   6  -1  -3   -0.05    0.03
  -6   1   3    0.02    0.04
  -5   0  -8    0.62    0.06
   5   0   8    0.53    0.06
   5   0   8    0.61    0.05
  -3   0  -7    2.24    0.08
   3   0   7    2.17    0.08
   3   0   7    2.15    0.08
  -1   0  -6    1.83    0.06
   1   0   6    1.73    0.06
   1   0   6    1.79    0.06
   1   0  -5    0.17    0.03
   1   0  -5    0.19    0.02
  -1   0   5    0.20    0.03
  -1   0   5    0.17    0.02
   3   0  -4    4.83    0.12
  -3   0   4    4.76    0.11
  -3   0   4    4.88    0.11
   5   0  -3    0.47    0.06
  -5   0   3    0.54    0.05
  -4   1  -7    0.00    0.03
   4  -1   7    0.01    0.03
   4  -1   7    0.05    0.03
  -2   1  -6    2.92    0.08
   2  -1   6    2.78    0.08
   2  -1   6    2.80    0.08
   0   1  -5    1.30    0.04
   0   1  -5    1.34    0.05
   0  -1   5    1.32    0.05
   2   1  -4    2.43    0.07
  -2  -1   4    2.40    0.07
  -2  -1   4    2.41    0.07
   4   1  -3    2.41    0.09
  -4  -1   3    2.32    0.08
  -4  -1   3    2.20    0.07
   6   1  -2    0.50    0.06
  -6  -1   2    0.48    0.06
  -5   2  -7    0.04    0.04
   5  -2   7    0.03    0.04
  -3   2  -6    3.40    0.11
   3  -2   6    3.73    0.10
   3  -2   6    3.40    0.11
  -1   2  -5    6.64    0.13
   1  -2   5    6.30    0.13
   1  -2   5    6.45    0.14
   1   2  -4    1.51    0.06
  -1  -2   4    1.54    0.05
  -1  -2   4    1.50    0.05
   3   2  -3   11.88    0.23
  -3  -2   3   11.67    0.22
  -3  -2   3   11.98    0.22
   5   2  -2    0.01    0.03
  -5  -2   2    0.04    0.04
   7   2  -1   -0.01    0.04
  -7  -2   1    0.01    0.04
  -4   3  -6    0.16    0.04
   4  -3   6    0.19    0.04
  -2   3  -5    2.67    0.08
   2  -3   5    2.62    0.08
   2  -3   5    2.58    0.09
   0   3  -4    1.64    0.05
   0  -3   4    1.59    0.06
   0  -3   4    1.68    0.06
   2   3  -3    1.67    0.06
  -2  -3   3    1.64    0.06
  -2  -3   3    1.70    0.06
   4   3  -2    1.92    0.08
  -4  -3   2    2.02    0.07
  -4  -3   2    1.90    0.07
   6   3  -1    0.45    0.06
   6   3  -1    0.39    0.05
  -6  -3   1    0.46    0.06
  -5   4  -6    0.57    0.06
   5  -4   6    0.55    0.07
  -3   4  -5    0.57    0.05
   3  -4   5    0.66    0.05
   3  -4   5    0.59    0.06
  -1   4  -4    5.42    0.12
   1  -4   4    5.44    0.12
   1  -4   4    5.29    0.13
   1   4  -3    0.56    0.03
   1   4  -3    0.60    0.04
  -1  -4   3    0.53    0.04
  -1  -4   3    0.57    0.03
   3   4  -2    0.10    0.03
  -3  -4   2    0.13    0.03
  -3  -4   2    0.08    0.03
   5   4  -1    3.31    0.11
   5   4  -1    3.22    0.10
  -5  -4   1    3.26    0.11
   7   4   0    0.20    0.05
  -7  -4   0    0.24    0.06
  -4   5  -5    0.03    0.03
   4  -5   5    0.03    0.04
  -2   5  -4    1.50    0.07
   2  -5   4    1.49    0.06
   2  -5   4    1.30    0.07
   0   5  -3    1.37    0.05
   0  -5   3    1.32    0.06
   0  -5   3    1.34    0.05
   0  -5   3    1.29    0.06
   2   5  -2    0.90    0.05
  -2  -5   2    0.92    0.05
  -2  -5   2    0.98    0.05
   4   5  -1    8.48    0.18
  -4  -5   1    8.19    0.18
  -4  -5   1    8.32    0.18
   6   5   0    0.11    0.04
   6   5   0    0.04    0.04
  -6  -5   0    0.08    0.04
  -3   6  -4   -0.02    0.03
   3  -6   4    0.06    0.04
  -1   6  -3    1.14    0.06
   1  -6   3    1.15    0.06
   1  -6   3    1.05    0.06
   1   6  -2    0.98    0.06
   1   6  -2    0.96    0.04
  -1  -6   2    1.02    0.05
  -1  -6   2    1.00    0.06
   3   6  -1    3.07    0.09
  -3  -6   1    2.93    0.09
  -3  -6   1    2.97    0.10
   5   6   0    0.55    0.06
   5   6   0    0.61    0.06
  -5  -6   0    0.54    0.06
  -4   7  -4    0.70    0.07
   4  -7   4    0.66    0.08
  -2   7  -3    1.45    0.07
   2  -7   3    1.50    0.08
   0   7  -2    4.01    0.11
   0  -7   2    4.24    0.12
   0  -7   2    4.22    0.11
   0  -7   2    4.17    0.10
   2   7  -1    0.09    0.03
  -2  -7   1    0.13    0.04
  -2  -7   1    0.08    0.04
   4   7   0    0.17    0.04
   4   7   0    0.26    0.05
  -4  -7   0    0.19    0.05
   6   7   1    2.72    0.11
  -6  -7  -1    2.75    0.11
  -3   8  -3   -0.01    0.04
   3  -8   3    0.00    0.04
  -1   8  -2    0.42    0.05
   1  -8   2    0.37    0.05
   1  -8   2    0.44    0.05
   1   8  -1    0.01    0.03
  -1  -8   1   -0.01    0.03
  -1  -8   1    0.02    0.03
  -1  -8   1    0.02    0.04
   3   8   0    0.59    0.05
  -3  -8   0    0.58    0.06
   5   8   1    3.28    0.12
  -5  -8  -1    3.25    0.12
  -2   9  -2    0.32    0.06
   2  -9   2    0.32    0.05
   0  -9   1    0.18    0.04
   0  -9   1    0.28    0.05
   0  -9   1    0.28    0.05
   2   9   0    0.52    0.05
  -2  -9   0    0.60    0.07
   4   9   1    1.98    0.10
  -4  -9  -1    2.07    0.09
   1 -10   1    1.76    0.10
   1  10   0    2.00    0.09
  -1 -10   0    2.01    0.09
  -1 -10   0    1.92    0.08
   3  10   1   -0.03    0.04
  -3 -10  -1   -0.01    0.04
   5  10   2    0.31    0.07
  -5 -10  -2    0.30    0.07
   0  11   0    0.05    0.05
   0 -11   0    0.07    0.05
   2  11   1    0.11    0.05
  -2 -11  -1    0.13    0.06
   4  11   2    0.33    0.07
  -4 -11  -2    0.46    0.07
  -2 -10 -12    0.00    0.05
   2  10  12   -0.03    0.04
   2  10  12    0.02    0.05
   0 -10 -11    0.78    0.08
   0  10  11    0.98    0.08
  -3  -9 -12    0.12    0.05
   3   9  12    0.11    0.06
  -1  -9 -11    3.65    0.13
   1   9  11    3.89    0.12
   1   9  11    3.95    0.12
   1  -9 -10    0.82    0.07
  -1   9  10    0.86    0.08
  -4  -8 -12    0.47    0.06
   4   8  12    0.43    0.07
  -2  -8 -11    0.77    0.07
   2   8  11    0.77    0.07
   2   8  11    0.87    0.06
   0  -8 -10    0.98    0.07
   0   8  10    1.06    0.06
   0   8  10    0.98    0.07
   2  -8  -9    1.02    0.07
  -2   8   9    1.05    0.08
  -3  -7 -11    1.00    0.07
   3   7  11    0.94    0.07
  -1  -7 -10   -0.04    0.03
   1   7  10    0.06    0.03
   1   7  10    0.06    0.04
   1  -7  -9    1.28    0.07
  -1   7   9    1.37    0.07
   3  -7  -8    0.01    0.03
   3  -7  -8    0.02    0.04
  -3   7   8   -0.06    0.04
  -4  -6 -11    0.20    0.05
   4   6  11    0.21    0.05
  -2  -6 -10    0.50    0.05
   2   6  10    0.44    0.05
   2   6  10    0.42    0.04
   0  -6  -9    3.31    0.10
   0   6   9    3.45    0.10
   0   6   9    3.45    0.10
   2  -6  -8    1.91    0.08
   2  -6  -8    2.01    0.08
  -2   6   8    2.07    0.09
   4  -6  -7    1.57    0.08
   4  -6  -7    1.70    0.09
  -4   6   7    1.60    0.09
  -5  -5 -11    0.31    0.06
   5   5  11    0.20    0.06
  -3  -5 -10    1.67    0.08
   3   5  10    1.70    0.08
  -1  -5  -9    1.37    0.05
  -1  -5  -9    1.33    0.07
   1   5   9    1.31    0.05
   1   5   9    1.36    0.06
   1  -5  -8    0.26    0.04
   1  -5  -8    0.25    0.04
  -1   5   8    0.27    0.04
  -1   5   8    0.29    0.04
   3  -5  -7    0.88    0.06
   3  -5  -7    0.86    0.05
  -3   5   7    0.87    0.07
   5  -5  -6    0.34    0.06
  -5   5   6    0.38    0.07
  -4  -4 -10    0.04    0.04
   4   4  10   -0.02    0.04
  -2  -4  -9    2.26    0.08
  -2  -4  -9    2.21    0.07
   2   4   9    2.20    0.08
   0  -4  -8    0.35    0.04
   0  -4  -8    0.31    0.04
   0   4   8    0.33    0.04
   0   4   8    0.37    0.04
   2  -4  -7    1.31    0.06
   2  -4  -7    1.42    0.07
  -2   4   7    1.36    0.05
  -2   4   7    1.38    0.07
   4  -4  -6    0.01    0.03
  -4   4   6    0.04    0.04
  -5  -3 -10    0.10    0.04
   5   3  10    0.13    0.05
  -3  -3  -9    1.60    0.07
   3   3   9    1.53    0.07
   3   3   9    1.52    0.06
  -1  -3  -8    1.01    0.05
  -1  -3  -8    0.99    0.05
   1   3   8    0.99    0.05
   1  -3  -7    1.50    0.06
   1  -3  -7    1.57    0.06
  -1   3   7    1.40    0.06
  -1   3   7    1.51    0.06
   3  -3  -6    3.87    0.10
   3  -3  -6    3.91    0.12
  -3   3   6    4.05    0.11
   5  -3  -5    2.24    0.10
  -5   3   5    2.19    0.10
  -4  -2  -9    0.02    0.03
   4   2   9   -0.02    0.04
   4   2   9   -0.04    0.03
  -2  -2  -8    4.28    0.11
   2   2   8    4.12    0.11
   2   2   8    4.23    0.10
   0  -2  -7    1.79    0.06
   0  -2  -7    1.76    0.06
   0   2   7    1.78    0.06
   0   2   7    1.69    0.05
   2  -2  -6    0.52    0.04
   2  -2  -6    0.51    0.03
  -2   2   6    0.51    0.04
  -2   2   6    0.49    0.04
   4  -2  -5    0.44    0.05
  -4   2   5    0.45    0.05
   6  -2  -4    0.61    0.08
  -6   2   4    0.59    0.07
  -5  -1  -9    0.08    0.04
   5   1   9    0.08    0.04
   5   1   9    0.06    0.04
  -3  -1  -8   -0.04    0.03
   3   1   8    0.00    0.02
   3   1   8    0.00    0.03
  -1  -1  -7    5.52    0.12
  -1  -1  -7    5.70    0.12
   1   1   7    5.56    0.12
   1  -1  -6    0.50    0.04
   1  -1  -6    0.53    0.03
  -1   1   6    0.50    0.04
  -1   1   6    0.50    0.03
   3  -1  -5    1.39    0.06
  -3   1   5    1.36    0.05
  -3   1   5    1.41    0.06
   5  -1  -4   -0.04    0.03
  -5   1   4    0.03    0.04
  -4   0  -8    0.46    0.05
   4   0   8    0.50    0.05
   4   0   8    0.52    0.05
  -2   0  -7    6.45    0.14
   2   0   7    6.32    0.14
   2   0   7    6.39    0.14
   0   0  -6    0.60    0.03
   0   0  -6    0.62    0.04
   0   0   6    0.59    0.04
   2   0  -5    0.16    0.03
  -2   0   5    0.20    0.03
  -2   0   5    0.23    0.03
   4   0  -4    5.20    0.14
  -4   0   4    4.95    0.13
  -4   0   4    4.92    0.11
   6   0  -3    1.60    0.10
  -6   0   3    1.73    0.09
  -5   1  -8   -0.02    0.03
   5  -1   8    0.05    0.03
   5  -1   8    0.01    0.04
  -3   1  -7    0.17    0.04
   3  -1   7    0.22    0.04
   3  -1   7    0.26    0.04
  -1   1  -6    4.95    0.11
   1  -1   6    4.57    0.11
   1  -1   6    4.80    0.11
   1   1  -5    1.81    0.06
  -1  -1   5    1.78    0.05
  -1  -1   5    1.84    0.06
   3   1  -4    2.99    0.09
  -3  -1   4    2.98    0.08
  -3  -1   4    3.01    0.09
   5   1  -3    0.08    0.04
  -5  -1   3    0.15    0.04
  -5  -1   3    0.10    0.03
  -4   2  -7    0.05    0.03
   4  -2   7    0.03    0.03
   4  -2   7    0.04    0.03
  -2   2  -6   -0.02    0.02
   2  -2   6    0.00    0.02
   2  -2   6   -0.02    0.02
   0   2  -5    7.24    0.13
   0   2  -5    6.74    0.15
   0  -2   5    6.99    0.15
   2   2  -4    0.55    0.04
  -2  -2   4    0.55    0.04
  -2  -2   4    0.58    0.04
   4   2  -3    2.38    0.09
  -4  -2   3    2.25    0.08
  -4  -2   3    2.33    0.08
   6   2  -2   -0.07    0.04
  -6  -2   2    0.01    0.04
  -5   3  -7    2.94    0.11
   5  -3   7    2.94    0.12
  -3   3  -6    0.76    0.06
   3  -3   6    0.90    0.06
   3  -3   6    0.93    0.05
  -1   3  -5   11.29    0.21
   1  -3   5   10.89    0.22
   1  -3   5   11.04    0.21
   1   3  -4    0.02    0.02
  -1  -3   4    0.03    0.02
  -1  -3   4    0.01    0.02
   3   3  -3   -0.02    0.02
  -3  -3   3   -0.03    0.02
  -3  -3   3    0.01    0.03
   5   3  -2    3.52    0.12
  -5  -3   2    3.53    0.11
   7   3  -1    0.87    0.09
  -7  -3   1    0.82    0.08
  -4   4  -6    0.01    0.03
   4  -4   6    0.00    0.03
  -2   4  -5    1.32    0.06
   2  -4   5    1.24    0.06
   2  -4   5    1.16    0.07
   0   4  -4    1.61    0.05
   0  -4   4    1.66    0.06
   0  -4   4    1.67    0.07
   2   4  -3    1.12    0.06
  -2  -4   3    1.12    0.05
  -2  -4   3    1.11    0.06
   4   4  -2    2.86    0.10
  -4  -4   2    2.64    0.09
  -4  -4   2    2.67    0.09
   6   4  -1   -0.02    0.03
   6   4  -1   -0.01    0.04
  -6  -4   1   -0.01    0.04
  -3   5  -5    0.01    0.03
   3  -5   5    0.01    0.03
  -1   5  -4    0.08    0.03
   1  -5   4    0.07    0.03
   1  -5   4    0.03    0.03
   1   5  -3    3.24    0.07
   1   5  -3    3.14    0.09
  -1  -5   3    3.08    0.09
  -1  -5   3    3.26    0.08
   3   5  -2    0.70    0.05
  -3  -5   2    0.68    0.05
  -3  -5   2    0.45    0.05
   5   5  -1    2.40    0.09
   5   5  -1    2.62    0.10
  -5  -5   1    2.49    0.10
  -4   6  -5    1.72    0.09
   4  -6   5    1.63    0.10
  -2   6  -4    0.91    0.06
   2  -6   4    0.84    0.07
   2  -6   4    0.98    0.06
   0   6  -3    7.62    0.16
   0  -6   3    7.65    0.15
   0  -6   3    7.80    0.17
   0  -6   3    7.90    0.17
   2   6  -2    0.84    0.06
  -2  -6   2    0.87    0.06
  -2  -6   2    0.84    0.05
   4   6  -1    0.00    0.03
  -4  -6   1    0.01    0.03
  -4  -6   1    0.01    0.04
   6   6   0    1.26    0.08
   6   6   0    1.32    0.08
  -6  -6   0    1.34    0.09
  -3   7  -4    0.48    0.06
   3  -7   4    0.42    0.06
  -1   7  -3    1.54    0.07
   1  -7   3    1.65    0.07
   1  -7   3    1.38    0.08
   1   7  -2    0.14    0.03
   1   7  -2    0.14    0.03
  -1  -7   2    0.06    0.03
  -1  -7   2    0.18    0.04
   3   7  -1    0.52    0.05
  -3  -7   1    0.49    0.05
  -3  -7   1    0.47    0.06
   5   7   0    0.87    0.07
   5   7   0    0.80    0.07
  -5  -7   0    0.83    0.07
  -2   8  -3    0.00    0.03
   2  -8   3    0.09    0.04
   0   8  -2    0.03    0.03
   0  -8   2    0.05    0.03
   0  -8   2    0.06    0.04
   0  -8   2    0.03    0.03
   2   8  -1    0.50    0.05
  -2  -8   1    0.53    0.06
  -2  -8   1    0.44    0.05
   4   8   0    0.72    0.06
   4   8   0    0.64    0.06
  -4  -8   0    0.82    0.07
   6   8   1    1.82    0.10
  -6  -8  -1    1.98    0.10
  -1   9  -2    0.69    0.06
   1  -9   2    0.81    0.07
   1   9  -1    2.57    0.10
  -1  -9   1    2.67    0.09
  -1  -9   1    2.70    0.10
   3   9   0    1.33    0.08
  -3  -9   0    1.29    0.08
   5   9   1    0.02    0.05
  -5  -9  -1    0.05    0.05
   0 -10   1    0.87    0.08
   2  10   0   -0.07    0.03
  -2 -10   0   -0.07    0.04
   4  10   1    0.12    0.06
  -4 -10  -1    0.07    0.06
   1  11   0    0.09    0.04
  -1 -11   0    0.00    0.05
   3  11   1    0.00    0.05
  -3 -11  -1   -0.05    0.05
  -2  -9 -12    1.58    0.09
   2   9  12    1.53    0.09
   2   9  12    1.56    0.09
   0  -9 -11    0.10    0.05
   0   9  11    0.09    0.05
  -3  -8 -12    0.12    0.05
   3   8  12    0.06    0.05
  -1  -8 -11    1.50    0.08
   1   8  11    1.60    0.08
   1   8  11    1.61    0.08
   1  -8 -10    5.36    0.15
  -1   8  10    5.64    0.15
   3  -8  -9    0.07    0.04
  -3   8   9    0.05    0.05
  -4  -7 -12    0.37    0.06
   4   7  12    0.41    0.07
  -2  -7 -11    0.22    0.05
   2   7  11    0.21    0.05
   0  -7 -10    1.63    0.08
   0   7  10    1.88    0.08
   0   7  10    1.94    0.08
   2  -7  -9    0.43    0.05
  -2   7   9    0.45    0.06
  -5  -6 -12    0.24    0.06
   5   6  12    0.10    0.06
  -3  -6 -11    0.74    0.06
   3   6  11    0.68    0.07
  -1  -6 -10    3.31    0.11
   1   6  10    3.47    0.09
   1   6  10    3.41    0.10
   1  -6  -9    0.60    0.05
   1  -6  -9    0.59    0.05
  -1   6   9    0.59    0.05
  -1   6   9    0.59    0.06
   3  -6  -8    1.22    0.07
   3  -6  -8    1.19    0.07
  -3   6   8    1.21    0.08
  -4  -5 -11    0.87    0.07
   4   5  11    0.83    0.07
  -2  -5 -10    0.44    0.05
   2   5  10    0.43    0.05
   0  -5  -9    1.27    0.06
   0  -5  -9    1.21    0.06
   0   5   9    1.30    0.06
   0   5   9    1.25    0.06
   2  -5  -8   12.76    0.25
   2  -5  -8   12.12    0.24
  -2   5   8   12.53    0.25
   4  -5  -7   -0.03    0.04
  -4   5   7    0.03    0.05
  -5  -4 -11    0.06    0.04
   5   4  11    0.09    0.05
  -3  -4 -10    0.20    0.04
   3   4  10    0.18    0.04
  -1  -4  -9    1.01    0.05
  -1  -4  -9    1.03    0.06
   1   4   9    1.09    0.05
   1   4   9    1.02    0.06
   1  -4  -8    5.17    0.12
   1  -4  -8    5.09    0.12
  -1   4   8    5.23    0.12
  -1   4   8    5.24    0.12
   3  -4  -7    0.19    0.03
   3  -4  -7    0.20    0.04
  -3   4   7    0.26    0.05
   5  -4  -6    1.65    0.10
  -5   4   6    1.73    0.09
  -4  -3 -10    0.66    0.06
   4   3  10    0.53    0.06
  -2  -3  -9    1.07    0.05
  -2  -3  -9    1.15    0.06
   2   3   9    1.06    0.06
   0  -3  -8    5.16    0.12
   0  -3  -8    5.24    0.12
   0   3   8    5.23    0.11
   0   3   8    5.27    0.12
   2  -3  -7    0.63    0.04
   2  -3  -7    0.58    0.05
  -2   3   7    0.67    0.05
  -2   3   7    0.63    0.04
   4  -3  -6    2.39    0.10
  -4   3   6    2.46    0.09
  -5  -2 -10    1.89    0.09
   5   2  10    2.00    0.09
   5   2  10    2.00    0.09
  -3  -2  -9    0.99    0.06
   3   2   9    1.05    0.06
   3   2   9    1.02    0.06
  -1  -2  -8    1.56    0.06
  -1  -2  -8    1.49    0.06
   1   2   8    1.48    0.06
   1  -2  -7    0.52    0.04
   1  -2  -7    0.54    0.04
  -1   2   7    0.50    0.04
  -1   2   7    0.57    0.04
   3  -2  -6   17.55    0.33
   3  -2  -6   16.95    0.30
  -3   2   6   17.48    0.31
  -3   2   6   17.41    0.30
   5  -2  -5    0.07    0.04
  -5   2   5    0.06    0.04
  -4  -1  -9    0.07    0.04
   4   1   9    0.05    0.03
   4   1   9   -0.03    0.03
  -2  -1  -8    0.09    0.03
   2   1   8    0.08    0.03
   2   1   8    0.08    0.03
   0  -1  -7    3.63    0.09
   0  -1  -7    3.58    0.09
   0   1   7    3.52    0.09
   2  -1  -6    8.23    0.15
   2  -1  -6    8.06    0.17
  -2   1   6    7.99    0.16
  -2   1   6    8.06    0.16
   4  -1  -5    0.00    0.03
  -4   1   5    0.01    0.03
  -4   1   5   -0.01    0.02
   6  -1  -4    1.60    0.10
  -6   1   4    1.62    0.09
  -5   0  -9    1.85    0.09
   5   0   9    1.97    0.09
   5   0   9    1.98    0.09
  -3   0  -8    0.93    0.06
   3   0   8    0.95    0.06
   3   0   8    0.90    0.06
  -1   0  -7    0.93    0.05
   1   0   7    0.94    0.05
   1   0   7    0.96    0.05
   1   0  -6    4.14    0.09
   1   0  -6    4.21    0.11
  -1   0   6    3.96    0.09
  -1   0   6    4.09    0.10
   3   0  -5    0.06    0.03
  -3   0   5    0.05    0.03
  -3   0   5    0.09    0.03
   5   0  -4    2.58    0.11
  -5   0   4    2.64    0.10
  -4   1  -8    0.86    0.06
   4  -1   8    0.84    0.06
   4  -1   8    0.78    0.06
  -2   1  -7    1.32    0.06
   2  -1   7    1.27    0.06
   2  -1   7    1.33    0.06
   0   1  -6    2.97    0.07
   0   1  -6    2.98    0.09
   0  -1   6    3.03    0.09
   2   1  -5    0.18    0.03
  -2  -1   5    0.14    0.03
  -2  -1   5    0.19    0.03
   4   1  -4   14.27    0.28
  -4  -1   4   14.09    0.27
  -4  -1   4   14.13    0.26
   6   1  -3    0.22    0.06
  -6  -1   3    0.22    0.06
  -5   2  -8   -0.01    0.04
   5  -2   8    0.04    0.04
  -3   2  -7   -0.05    0.03
   3  -2   7   -0.01    0.03
   3  -2   7    0.00    0.03
  -1   2  -6    1.01    0.05
   1  -2   6    1.03    0.05
   1  -2   6    1.04    0.05
   1   2  -5    8.34    0.17
  -1  -2   5    7.92    0.16
  -1  -2   5    8.13    0.15
   3   2  -4    4.85    0.13
  -3  -2   4    4.64    0.12
  -3  -2   4    4.65    0.11
   5   2  -3    0.06    0.04
  -5  -2   3    0.07    0.04
  -5  -2   3    0.06    0.03
  -4   3  -7    3.63    0.12
   4  -3   7    3.55    0.12
  -2   3  -6    1.02    0.06
   2  -3   6    0.88    0.06
   2  -3   6    0.94    0.06
   0   3  -5    0.26    0.03
   0  -3   5    0.24    0.04
   2   3  -4    0.82    0.05
  -2  -3   4    0.72    0.05
  -2  -3   4    0.81    0.04
   4   3  -3    0.31    0.05
  -4  -3   3    0.33    0.05
  -4  -3   3    0.26    0.05
   6   3  -2    1.59    0.09
   6   3  -2    1.56    0.08
  -6  -3   2    1.60    0.09
  -3   4  -6   -0.02    0.03
   3  -4   6   -0.01    0.03
   3  -4   6   -0.03    0.03
  -1   4  -5    1.69    0.06
   1  -4   5    1.82    0.07
   1  -4   5    1.68    0.07
   1   4  -4    1.60    0.07
  -1  -4   4    1.65    0.07
  -1  -4   4    1.52    0.06
   3   4  -3    0.03    0.03
  -3  -4   3    0.00    0.03
  -3  -4   3    0.08    0.03
   5   4  -2    6.70    0.17
  -5  -4   2    6.63    0.17
  -4   5  -6    0.42    0.06
   4  -5   6    0.39    0.06
  -2   5  -5    0.06    0.03
   2  -5   5    0.07    0.03
   2  -5   5    0.02    0.03
   0   5  -4    0.97    0.05
   0  -5   4    0.99    0.06
   0  -5   4    1.06    0.06
   0  -5   4    1.03    0.04
   2   5  -3    9.30    0.20
  -2  -5   3    9.23    0.19
  -2  -5   3    9.35    0.18
   4   5  -2    0.94    0.06
  -4  -5   2    0.90    0.06
  -4  -5   2    1.01    0.06
   6   5  -1    0.02    0.04
   6   5  -1    0.03    0.04
  -6  -5   1    0.04    0.04
  -3   6  -5    4.36    0.13
   3  -6   5    4.41    0.14
  -1   6  -4    0.67    0.05
   1  -6   4    0.67    0.05
   1  -6   4    0.55    0.06
   1   6  -3   -0.02    0.02
   1   6  -3    0.00    0.03
  -1  -6   3   -0.04    0.02
  -1  -6   3    0.01    0.03
   3   6  -2    0.02    0.03
  -3  -6   2   -0.05    0.04
  -3  -6   2    0.06    0.03
   5   6  -1    0.61    0.06
   5   6  -1    0.63    0.06
  -5  -6   1    0.65    0.07
  -2   7  -4    0.49    0.05
   2  -7   4    0.50    0.06
   0   7  -3    1.61    0.06
   0  -7   3    1.74    0.08
   0  -7   3    1.72    0.06
   0  -7   3    1.71    0.08
   2   7  -2    0.09    0.03
  -2  -7   2    0.08    0.04
  -2  -7   2    0.15    0.04
   4   7  -1   -0.04    0.03
  -4  -7   1   -0.03    0.04
  -4  -7   1    0.00    0.04
   6   7   0    1.59    0.10
  -6  -7   0    1.55    0.09
  -1   8  -3    0.10    0.03
   1  -8   3    0.18    0.04
   1  -8   3    0.07    0.04
   1   8  -2    0.27    0.04
  -1  -8   2    0.23    0.04
  -1  -8   2    0.33    0.05
   3   8  -1    6.72    0.16
  -3  -8   1    6.52    0.17
  -3  -8   1    6.65    0.16
   5   8   0    0.09    0.05
  -5  -8   0    0.06    0.05
  -2   9  -3    3.41    0.12
   2  -9   3    3.53    0.13
   0   9  -2    0.31    0.05
   0  -9   2    0.27    0.05
   0  -9   2    0.35    0.05
   2   9  -1    0.05    0.03
  -2  -9   1    0.06    0.04
  -2  -9   1   -0.02    0.04
   4   9   0    0.47    0.07
  -4  -9   0    0.50    0.07
  -1  10  -2    0.86    0.07
   1 -10   2    1.08    0.09
   1  10  -1    0.99    0.08
  -1 -10   1    1.06    0.08
  -1 -10   1    1.10    0.07
   3  10   0    0.29    0.05
  -3 -10   0    0.29    0.07
   2  11   0    0.07    0.04
  -2 -11   0   -0.10    0.04
  -1  -9 -12    4.97    0.16
   1   9  12    5.12    0.15
   1   9  12    5.20    0.15
   1  -9 -11    0.07    0.05
  -1   9  11    0.12    0.06
  -2  -8 -12    2.03    0.10
   2   8  12    2.07    0.10
   0  -8 -11    0.52    0.06
   0   8  11    0.63    0.07
   0   8  11    0.70    0.06
   2  -8 -10    1.06    0.07
  -2   8  10    1.02    0.08
  -3  -7 -12    0.05    0.04
   3   7  12    0.06    0.05
  -1  -7 -11    0.06    0.04
   1   7  11    0.16    0.05
   1   7  11    0.13    0.04
   1  -7 -10    0.34    0.05
  -1   7  10    0.48    0.06
   3  -7  -9    0.99    0.07
   3  -7  -9    0.98    0.08
  -3   7   9    1.02    0.08
  -4  -6 -12    0.40    0.06
   4   6  12    0.47    0.07
  -2  -6 -11    2.20    0.09
   2   6  11    2.15    0.09
   0  -6 -10    6.25    0.16
   0   6  10    6.43    0.15
   0   6  10    6.47    0.15
   2  -6  -9    0.57    0.05
   2  -6  -9    0.57    0.06
  -2   6   9    0.64    0.06
   4  -6  -8    1.74    0.09
  -4   6   8    1.73    0.10
  -3  -5 -11   -0.01    0.03
   3   5  11   -0.03    0.04
  -1  -5 -10    4.37    0.12
   1   5  10    4.48    0.10
   1   5  10    4.44    0.12
   1  -5  -9    1.02    0.06
   1  -5  -9    1.14    0.06
  -1   5   9    1.08    0.06
  -1   5   9    1.09    0.06
   3  -5  -8    0.51    0.06
   3  -5  -8    0.50    0.05
  -3   5   8    0.52    0.06
  -4  -4 -11    1.17    0.08
   4   4  11    1.15    0.08
  -2  -4 -10    0.04    0.02
  -2  -4 -10    0.06    0.03
   2   4  10    0.03    0.03
   0  -4  -9   -0.05    0.03
   0  -4  -9    0.02    0.03
   0   4   9    0.06    0.04
   0   4   9    0.09    0.03
   2  -4  -8    0.12    0.03
   2  -4  -8    0.13    0.04
  -2   4   8    0.15    0.04
  -2   4   8    0.19    0.03
   4  -4  -7    1.49    0.09
  -4   4   7    1.58    0.08
  -5  -3 -11    0.08    0.05
   5   3  11    0.10    0.05
  -3  -3 -10    0.36    0.05
   3   3  10    0.34    0.05
   3   3  10    0.31    0.04
  -1  -3  -9    8.97    0.18
  -1  -3  -9    9.01    0.18
   1   3   9    8.70    0.18
   1  -3  -8    5.12    0.12
   1  -3  -8    5.18    0.13
  -1   3   8    5.25    0.12
  -1   3   8    5.22    0.12
   3  -3  -7    1.57    0.08
  -3   3   7    1.38    0.07
   5  -3  -6    2.70    0.12
  -5   3   6    2.90    0.11
  -4  -2 -10    1.42    0.08
   4   2  10    1.30    0.08
   4   2  10    1.45    0.07
  -2  -2  -9    0.02    0.03
   2   2   9    0.00    0.03
   0  -2  -8    7.36    0.16
   0  -2  -8    7.63    0.15
   0   2   8    7.59    0.14
   0   2   8    7.54    0.16
   2  -2  -7    0.98    0.05
   2  -2  -7    0.98    0.06
  -2   2   7    1.00    0.05
  -2   2   7    1.07    0.05
   4  -2  -6    0.00    0.03
  -4   2   6   -0.03    0.03
   6  -2  -5    3.79    0.15
  -6   2   5    3.97    0.14
  -5  -1 -10   -0.01    0.04
   5   1  10    0.04    0.04
   5   1  10    0.04    0.04
  -3  -1  -9    2.79    0.10
   3   1   9    2.65    0.09
   3   1   9    2.80    0.09
  -1  -1  -8    0.39    0.05
  -1  -1  -8    0.54    0.04
   1   1   8    0.60    0.05
   1  -1  -7    0.09    0.02
   1  -1  -7    0.09    0.03
  -1   1   7    0.12    0.03
  -1   1   7    0.11    0.03
   3  -1  -6    0.26    0.04
  -3   1   6    0.27    0.04
  -3   1   6    0.36    0.05
   5  -1  -5    1.19    0.08
  -5   1   5    1.27    0.08
  -4   0  -9    0.10    0.04
   4   0   9    0.11    0.04
   4   0   9    0.10    0.04
  -2   0  -8    0.14    0.04
   2   0   8    0.20    0.04
   2   0   8    0.10    0.03
   0   0  -7   21.81    0.36
   0   0  -7   22.28    0.39
   0   0   7   21.46    0.37
   2   0  -6    1.96    0.08
  -2   0   6    2.09    0.07
  -2   0   6    2.09    0.07
   4   0  -5    1.29    0.07
  -4   0   5    1.33    0.07
  -4   0   5    1.27    0.06
   6   0  -4    3.08    0.13
  -6   0   4    3.07    0.12
  -5   1  -9    0.21    0.05
   5  -1   9    0.31    0.05
   5  -1   9    0.21    0.05
  -3   1  -8    1.83    0.08
   3  -1   8    1.86    0.08
   3  -1   8    1.94    0.08
  -1   1  -7    0.31    0.04
   1  -1   7    0.37    0.04
   1  -1   7    0.27    0.04
   1   1  -6    6.69    0.15
   1   1  -6    6.48    0.12
  -1  -1   6    6.60    0.14
  -1  -1   6    6.55    0.13
   3   1  -5    0.06    0.03
  -3  -1   5    0.08    0.03
  -3  -1   5    0.12    0.03
   5   1  -4    0.48    0.06
  -5  -1   4    0.38    0.05
  -5  -1   4    0.46    0.06
  -4   2  -8    0.21    0.05
   4  -2   8    0.16    0.05
   4  -2   8    0.23    0.04
  -2   2  -7    4.27    0.11
   2  -2   7    4.25    0.11
   2  -2   7    4.23    0.12
   0   2  -6    0.60    0.05
   0   2  -6    0.67    0.04
   0  -2   6    0.69    0.05
   2   2  -5    0.35    0.04
  -2  -2   5    0.36    0.04
  -2  -2   5    0.42    0.05
   4   2  -4    2.11    0.09
  -4  -2   4    2.08    0.08
  -4  -2   4    2.09    0.08
   6   2  -3    0.48    0.07
  -6  -2   3    0.58    0.07
  -3   3  -7    0.18    0.04
   3  -3   7    0.13    0.04
   3  -3   7    0.17    0.04
  -1   3  -6    0.29    0.04
   1  -3   6    0.23    0.04
   1  -3   6    0.25    0.04
   1   3  -5   25.23    0.44
  -1  -3   5   25.35    0.43
  -1  -3   5   24.86    0.40
   3   3  -4    0.31    0.04
  -3  -3   4    0.33    0.04
  -3  -3   4    0.42    0.05
   5   3  -3    0.42    0.06
  -5  -3   3    0.38    0.06
  -5  -3   3    0.44    0.06
  -4   4  -7    0.63    0.07
   4  -4   7    0.60    0.07
  -2   4  -6    1.91    0.08
   2  -4   6    2.04    0.08
   2  -4   6    1.90    0.08
   0   4  -5    0.91    0.05
   0  -4   5    0.88    0.06
   2   4  -4    1.95    0.08
  -2  -4   4    1.89    0.08
  -2  -4   4    1.75    0.07
   4   4  -3    0.63    0.06
  -4  -4   3    0.62    0.06
  -4  -4   3    0.62    0.06
   6   4  -2    0.77    0.08
   6   4  -2    0.85    0.07
  -6  -4   2    0.77    0.07
  -3   5  -6    0.33    0.05
   3  -5   6    0.27    0.05
  -1   5  -5    4.20    0.11
   1  -5   5    4.24    0.12
   1  -5   5    4.00    0.12
   1   5  -4    0.17    0.04
  -1  -5   4    0.16    0.04
  -1  -5   4    0.15    0.03
   3   5  -3    0.33    0.05
  -3  -5   3    0.37    0.05
  -3  -5   3    0.39    0.05
   5   5  -2    3.31    0.12
  -5  -5   2    3.21    0.11
  -5  -5   2    3.21    0.11
  -2   6  -5    0.15    0.04
   2  -6   5    0.14    0.04
   2  -6   5    0.14    0.04
   0   6  -4    0.61    0.04
   0  -6   4    0.59    0.06
   0  -6   4    0.60    0.06
   2   6  -3   13.65    0.27
  -2  -6   3   13.79    0.25
  -2  -6   3   13.26    0.26
   4   6  -2    0.01    0.03
  -4  -6   2    0.05    0.04
  -4  -6   2    0.01    0.04
   6   6  -1    0.00    0.04
   6   6  -1   -0.01    0.05
  -6  -6   1   -0.02    0.05
  -3   7  -5    0.79    0.07
   3  -7   5    0.89    0.08
  -1   7  -4    1.61    0.07
   1  -7   4    1.68    0.09
   1  -7   4    1.68    0.08
   1   7  -3    0.56    0.06
  -1  -7   3    0.68    0.06
  -1  -7   3    0.56    0.05
   3   7  -2    0.06    0.04
  -3  -7   2   -0.03    0.05
  -3  -7   2    0.05    0.04
   5   7  -1    2.07    0.10
   5   7  -1    2.12    0.10
  -5  -7   1    2.11    0.10
  -2   8  -4    0.20    0.05
   2  -8   4    0.18    0.05
   0   8  -3    2.58    0.09
   0  -8   3    2.73    0.10
   0  -8   3    2.74    0.10
   2   8  -2    0.02    0.03
  -2  -8   2    0.00    0.04
  -2  -8   2   -0.05    0.04
   4   8  -1    0.13    0.04
  -4  -8   1    0.15    0.05
  -1   9  -3    0.00    0.03
   1  -9   3    0.03    0.04
   1   9  -2    0.71    0.07
  -1  -9   2    0.68    0.06
  -1  -9   2    0.64    0.07
   3   9  -1    4.19    0.13
  -3  -9   1    4.18    0.13
  -3  -9   1    4.12    0.14
   5   9   0    0.05    0.05
  -5  -9   0   -0.03    0.05
   0 -10   2    1.25    0.08
  -2 -10   1    0.15    0.06
   4  10   0    0.12    0.06
  -4 -10   0    0.06    0.06
  -1  -8 -12    0.04    0.05
   1   8  12    0.11    0.05
   1  -8 -11    1.31    0.08
  -1   8  11    1.31    0.08
  -2  -7 -12    2.13    0.10
   2   7  12    2.22    0.10
   0  -7 -11    1.22    0.08
   0   7  11    1.30    0.07
   0   7  11    1.41    0.07
   2  -7 -10    0.34    0.05
  -2   7  10    0.35    0.06
  -3  -6 -12    0.05    0.04
   3   6  12    0.05    0.05
  -1  -6 -11   38.14    0.64
   1   6  11   38.28    0.63
   1  -6 -10    3.44    0.11
  -1   6  10    3.70    0.11
  -1   6  10    3.53    0.10
   3  -6  -9    0.10    0.04
   3  -6  -9    0.05    0.03
  -3   6   9    0.09    0.05
  -4  -5 -12    0.05    0.05
   4   5  12    0.10    0.05
  -2  -5 -11    0.04    0.03
   2   5  11    0.04    0.04
   0  -5 -10    0.01    0.03
   0  -5 -10    0.00    0.03
   0   5  10    0.07    0.03
   0   5  10    0.03    0.03
   2  -5  -9    0.94    0.06
   2  -5  -9    1.12    0.07
  -2   5   9    1.07    0.07
   4  -5  -8    1.20    0.09
  -4   5   8    1.37    0.09
  -3  -4 -11    3.39    0.11
   3   4  11    3.45    0.12
  -1  -4 -10    6.61    0.15
  -1  -4 -10    6.67    0.15
   1   4  10    6.67    0.16
   1  -4  -9    3.33    0.10
   1  -4  -9    3.24    0.10
  -1   4   9    3.34    0.09
  -1   4   9    3.23    0.10
   3  -4  -8    0.02    0.03
  -3   4   8    0.02    0.04
   5  -4  -7    0.41    0.07
  -5   4   7    0.44    0.07
  -4  -3 -11    0.06    0.04
   4   3  11    0.00    0.04
  -2  -3 -10    0.15    0.03
  -2  -3 -10    0.19    0.04
   2   3  10    0.17    0.04
   0  -3  -9   73.63    1.13
   0  -3  -9   73.11    1.17
   0   3   9   72.44    1.12
   0   3   9   72.92    1.14
   2  -3  -8    6.82    0.15
   2  -3  -8    7.09    0.17
  -2   3   8    6.92    0.15
  -2   3   8    6.84    0.15
   4  -3  -7    0.00    0.04
  -4   3   7    0.06    0.04
  -5  -2 -11    0.54    0.07
   5   2  11    0.68    0.07
  -3  -2 -10    0.22    0.04
   3   2  10    0.21    0.04
   3   2  10    0.25    0.04
  -1  -2  -9   -0.01    0.02
  -1  -2  -9    0.01    0.03
   1   2   9    0.01    0.03
   1  -2  -8    0.45    0.05
   1  -2  -8    0.33    0.04
  -1   2   8    0.53    0.05
  -1   2   8    0.53    0.04
   3  -2  -7    0.27    0.04
  -3   2   7    0.24    0.04
  -3   2   7    0.26    0.04
   5  -2  -6    2.25    0.11
  -5   2   6    2.19    0.10
  -4  -1 -10    0.63    0.07
   4   1  10    0.72    0.06
   4   1  10    0.84    0.07
  -2  -1  -9    4.17    0.11
   2   1   9    4.15    0.11
   2   1   9    4.22    0.12
   0  -1  -8   17.18    0.29
   0  -1  -8   17.13    0.31
   0   1   8   16.71    0.30
   2  -1  -7    5.32    0.14
   2  -1  -7    5.27    0.11
  -2   1   7    5.21    0.12
  -2   1   7    5.22    0.12
   4  -1  -6    0.00    0.03
  -4   1   6    0.00    0.02
  -4   1   6    0.02    0.03
   6  -1  -5    0.50    0.07
  -6   1   5    0.64    0.08
  -5   0 -10    7.92    0.20
   5   0  10    7.88    0.20
   5   0  10    7.79    0.19
  -3   0  -9    0.06    0.04
   3   0   9    0.02    0.03
   3   0   9    0.04    0.03
  -1   0  -8    0.43    0.04
  -1   0  -8    0.39    0.05
   1   0   8    0.41    0.05
   1   0  -7   91.43    1.38
   1   0  -7   92.55    1.46
  -1   0   7   92.14    1.41
  -1   0   7   89.89    1.39
   3   0  -6    8.80    0.20
  -3   0   6    8.47    0.18
  -3   0   6    8.43    0.18
   5   0  -5    0.33    0.05
  -5   0   5    0.43    0.06
  -4   1  -9    1.38    0.08
   4  -1   9    1.44    0.07
   4  -1   9    1.50    0.08
  -2   1  -8    0.40    0.05
   2  -1   8    0.43    0.05
   2  -1   8    0.43    0.05
   0   1  -7    0.65    0.04
   0   1  -7    0.60    0.05
   0  -1   7    0.70    0.05
   2   1  -6    0.84    0.06
  -2  -1   6    0.91    0.05
  -2  -1   6    0.84    0.06
   4   1  -5    0.14    0.04
  -4  -1   5    0.15    0.04
  -4  -1   5    0.16    0.04
   6   1  -4    3.04    0.13
  -6  -1   4    3.15    0.12
  -3   2  -8    0.94    0.06
   3  -2   8    1.09    0.06
   3  -2   8    0.98    0.07
  -1   2  -7    3.08    0.09
   1  -2   7    2.91    0.10
   1  -2   7    3.06    0.10
   1   2  -6   25.24    0.44
  -1  -2   6   24.37    0.42
  -1  -2   6   24.63    0.40
   3   2  -5    4.75    0.13
  -3  -2   5    4.72    0.12
  -3  -2   5    4.70    0.12
   5   2  -4   -0.02    0.04
  -5  -2   4    0.03    0.04
  -5  -2   4    0.01    0.03
  -4   3  -8    8.11    0.20
   4  -3   8    7.94    0.21
  -2   3  -7    0.11    0.04
   2  -3   7    0.13    0.04
   2  -3   7    0.19    0.04
   0   3  -6    0.57    0.06
   0   3  -6    0.76    0.04
   0  -3   6    0.71    0.05
   2   3  -5   62.30    1.02
  -2  -3   5   62.77    0.97
  -2  -3   5   61.94    0.98
   4   3  -4    6.80    0.17
  -4  -3   4    6.63    0.16
  -4  -3   4    6.74    0.16
   6   3  -3    0.58    0.06
   6   3  -3    0.53    0.08
  -6  -3   3    0.50    0.07
  -3   4  -7    1.91    0.09
   3  -4   7    1.93    0.08
   3  -4   7    1.94    0.09
  -1   4  -6    0.72    0.05
   1  -4   6    0.82    0.06
   1  -4   6    0.78    0.06
   1   4  -5    3.52    0.11
  -1  -4   5    3.47    0.09
  -1  -4   5    3.54    0.10
   3   4  -4    0.58    0.06
  -3  -4   4    0.62    0.05
  -3  -4   4    0.61    0.06
   5   4  -3    0.69    0.07
  -5  -4   3    0.56    0.06
  -5  -4   3    0.69    0.07
  -2   5  -6    0.62    0.05
   2  -5   6    0.64    0.06
   2  -5   6    0.67    0.06
   0   5  -5    0.95    0.05
   0  -5   5    0.98    0.06
   2   5  -4   19.03    0.35
  -2  -5   4   18.82    0.33
  -2  -5   4   18.82    0.35
   4   5  -3    2.31    0.10
  -4  -5   3    2.33    0.09
  -4  -5   3    2.45    0.10
   6   5  -2   -0.02    0.04
   6   5  -2    0.00    0.04
  -6  -5   2    0.03    0.05
  -3   6  -6    4.83    0.14
   3  -6   6    4.60    0.15
  -1   6  -5    0.20    0.04
   1  -6   5    0.25    0.04
   1  -6   5    0.23    0.05
   1   6  -4    0.42    0.05
  -1  -6   4    0.45    0.06
  -1  -6   4    0.33    0.04
   3   6  -3   27.00    0.48
  -3  -6   3   26.21    0.46
  -3  -6   3   26.35    0.45
   5   6  -2    3.73    0.13
  -5  -6   2    3.69    0.12
  -2   7  -5    0.99    0.07
   2  -7   5    1.09    0.08
   0   7  -4    1.00    0.06
   0  -7   4    1.10    0.07
   0  -7   4    1.04    0.07
   2   7  -3    6.01    0.15
  -2  -7   3    5.77    0.15
  -2  -7   3    5.66    0.14
   4   7  -2    0.02    0.04
  -4  -7   2    0.12    0.05
  -4  -7   2    0.16    0.05
  -1   8  -4    0.25    0.05
   1  -8   4    0.37    0.06
   1  -8   4    0.33    0.05
   1   8  -3    0.04    0.04
  -1  -8   3    0.07    0.04
   3   8  -2    9.85    0.22
  -3  -8   2    9.90    0.21
  -3  -8   2    9.80    0.22
   5   8  -1    0.84    0.08
  -5  -8   1    0.71    0.08
   0  -9   3    0.47    0.06
   2   9  -2    0.00    0.03
  -2  -9   2    0.02    0.05
  -2  -9   2   -0.06    0.04
   4   9  -1    8.55    0.21
  -4  -9   1    8.83    0.21
   1  10  -2    0.91    0.07
  -1 -10   2    0.97    0.08
  -3 -10   1    5.22    0.15
  -2  -8 -13    1.16    0.09
   2   8  13    1.14    0.09
   0  -8 -12    0.59    0.07
   0   8  12    0.56    0.07
   0   8  12    0.55    0.07
  -3  -7 -13    1.61    0.09
   3   7  13    1.62    0.09
  -1  -7 -12    1.56    0.09
   1   7  12    1.67    0.09
   1  -7 -11    0.89    0.07
  -1   7  11    0.83    0.07
  -2  -6 -12    0.05    0.04
   2   6  12    0.09    0.05
   0  -6 -11    0.42    0.06
   0   6  11    0.48    0.06
   0   6  11    0.51    0.06
   2  -6 -10    4.66    0.14
   2  -6 -10    4.37    0.13
  -2   6  10    4.68    0.14
  -3  -5 -12    0.16    0.05
   3   5  12    0.18    0.05
  -1  -5 -11    0.62    0.06
   1   5  11    0.65    0.07
   1  -5 -10    1.00    0.06
   1  -5 -10    0.96    0.06
  -1   5  10    1.04    0.06
  -1   5  10    1.03    0.06
   3  -5  -9    1.03    0.08
  -3   5   9    1.11    0.08
  -4  -4 -12    3.88    0.13
   4   4  12    3.87    0.13
  -2  -4 -11    1.70    0.08
   2   4  11    1.78    0.08
   0  -4 -10    1.72    0.07
   0  -4 -10    1.83    0.07
   0   4  10    1.76    0.08
   2  -4  -9    2.42    0.09
   2  -4  -9    2.38    0.08
  -2   4   9    2.35    0.09
  -2   4   9    2.30    0.08
   4  -4  -8   -0.05    0.04
  -4   4   8    0.05    0.04
  -3  -3 -11    1.97    0.08
  -3  -3 -11    1.83    0.09
   3   3  11    1.92    0.09
  -1  -3 -10    0.16    0.03
  -1  -3 -10    0.13    0.04
   1   3  10    0.16    0.04
   1  -3  -9    0.09    0.03
   1  -3  -9    0.04    0.03
  -1   3   9    0.11    0.03
  -1   3   9    0.08    0.03
   3  -3  -8    5.53    0.15
  -3   3   8    5.34    0.14
   5  -3  -7    1.29    0.10
  -5   3   7    1.35    0.09
  -4  -2 -11    0.96    0.07
   4   2  11    1.04    0.07
   4   2  11    0.96    0.07
  -2  -2 -10    0.17    0.04
  -2  -2 -10    0.13    0.04
   2   2  10    0.15    0.04
   0  -2  -9    0.12    0.03
   0  -2  -9    0.13    0.03
   0   2   9    0.20    0.04
   2  -2  -8    0.92    0.05
   2  -2  -8    1.01    0.06
  -2   2   8    1.03    0.06
  -2   2   8    0.93    0.06
   4  -2  -7    2.31    0.10
  -4   2   7    2.26    0.09
  -3  -1 -10    7.74    0.18
   3   1  10    7.66    0.18
   3   1  10    8.08    0.18
  -1  -1  -9    0.89    0.06
  -1  -1  -9    0.98    0.05
   1   1   9    0.89    0.06
   1  -1  -8    1.96    0.06
   1  -1  -8    2.07    0.08
  -1   1   8    1.85    0.08
  -1   1   8    1.91    0.06
   3  -1  -7    3.75    0.12
  -3   1   7    3.59    0.11
  -3   1   7    3.69    0.10
   5  -1  -6    0.24    0.06
  -5   1   6    0.27    0.06
  -4   0 -10    0.45    0.06
   4   0  10    0.48    0.06
   4   0  10    0.49    0.06
  -2   0  -9    1.72    0.08
   2   0   9    1.78    0.08
   2   0   9    1.87    0.08
   0   0  -8    2.25    0.07
   0   0  -8    2.34    0.08
   0   0   8    2.30    0.08
   2   0  -7    0.19    0.04
  -2   0   7    0.16    0.04
  -2   0   7    0.18    0.03
   4   0  -6    4.36    0.13
  -4   0   6    4.22    0.11
  -4   0   6    4.37    0.12
   6   0  -5    0.83    0.09
  -6   0   5    0.90    0.08
  -3   1  -9    0.93    0.07
   3  -1   9    1.00    0.06
   3  -1   9    0.89    0.07
  -1   1  -8    0.09    0.03
  -1   1  -8   -0.01    0.03
   1  -1   8    0.06    0.03
   1   1  -7    2.48    0.09
   1   1  -7    2.22    0.07
  -1  -1   7    2.25    0.08
  -1  -1   7    2.29    0.06
   3   1  -6    0.53    0.06
  -3  -1   6    0.55    0.05
  -3  -1   6    0.56    0.05
   5   1  -5    2.01    0.10
  -5  -1   5    2.03    0.08
  -5  -1   5    2.08    0.09
  -4   2  -9    0.44    0.06
   4  -2   9    0.43    0.06
   4  -2   9    0.49    0.06
  -2   2  -8   11.04    0.22
   2  -2   8   10.89    0.22
   2  -2   8   10.95    0.23
   0   2  -7    0.05    0.03
   0   2  -7    0.08    0.03
   0  -2   7    0.13    0.04
   2   2  -6    2.60    0.10
  -2  -2   6    2.70    0.09
  -2  -2   6    2.68    0.08
   4   2  -5    3.31    0.12
  -4  -2   5    3.19    0.10
  -4  -2   5    3.26    0.10
   6   2  -4    0.64    0.08
  -6  -2   4    0.67    0.07
  -3   3  -8    1.21    0.07
   3  -3   8    1.19    0.08
   3  -3   8    1.36    0.07
  -1   3  -7    0.93    0.05
   1  -3   7    1.02    0.06
   1  -3   7    0.98    0.06
   1   3  -6    8.11    0.19
  -1  -3   6    8.25    0.18
   3   3  -5    0.97    0.07
  -3  -3   5    1.03    0.06
  -3  -3   5    1.02    0.06
   5   3  -4    2.39    0.11
  -5  -3   4    2.51    0.10
  -5  -3   4    2.38    0.09
  -2   4  -7    0.31    0.05
   2  -4   7    0.30    0.05
   2  -4   7    0.36    0.05
   0   4  -6    0.01    0.02
   0   4  -6   -0.03    0.03
   0  -4   6    0.01    0.03
   2   4  -5    4.75    0.13
  -2  -4   5    4.60    0.11
  -2  -4   5    4.45    0.13
   4   4  -4    0.09    0.04
  -4  -4   4    0.10    0.04
  -4  -4   4    0.15    0.04
   6   4  -3    1.21    0.07
   6   4  -3    1.14    0.09
  -6  -4   3    1.09    0.09
  -3   5  -7    0.19    0.05
   3  -5   7    0.15    0.05
  -1   5  -6    9.19    0.19
   1  -5   6    9.61    0.20
   1  -5   6    9.20    0.21
   1   5  -5    0.04    0.03
  -1  -5   5    0.10    0.04
   3   5  -4    2.48    0.10
  -3  -5   4    2.69    0.09
  -3  -5   4    2.70    0.10
   5   5  -3    1.95    0.10
  -5  -5   3    1.93    0.09
  -5  -5   3    1.96    0.09
  -2   6  -6    1.05    0.07
   2  -6   6    1.32    0.07
   2  -6   6    1.26    0.08
   0   6  -5    0.24    0.04
   0   6  -5    0.21    0.04
   0  -6   5    0.35    0.05
   2   6  -4   11.74    0.25
  -2  -6   4   11.52    0.23
  -2  -6   4   11.84    0.25
   4   6  -3    1.32    0.08
  -4  -6   3    1.39    0.08
  -4  -6   3    1.41    0.08
  -1   7  -5    0.03    0.03
   1  -7   5   -0.01    0.04
   1  -7   5    0.01    0.04
   1   7  -4   -0.01    0.03
  -1  -7   4   -0.03    0.04
   3   7  -3    3.83    0.13
  -3  -7   3    3.69    0.13
  -3  -7   3    3.74    0.11
   5   7  -2    0.02    0.04
  -5  -7   2    0.00    0.05
   0  -8   4    5.23    0.15
   2   8  -3    0.21    0.05
  -2  -8   3    0.22    0.06
  -2  -8   3    0.19    0.05
   4   8  -2    1.67    0.10
  -4  -8   2    1.80    0.09
  -4  -8   2    1.80    0.10
   1   9  -3    0.01    0.04
  -1  -9   3    0.00    0.05
   3   9  -2   10.09    0.23
  -3  -9   2   10.28    0.24
  -3  -9   2   10.13    0.23
  -2 -10   2   -0.07    0.05
  -2  -7 -13    6.88    0.18
   2   7  13    6.98    0.19
   0  -7 -12    0.24    0.05
   0   7  12    0.26    0.05
   2  -7 -11    0.62    0.06
  -2   7  11    0.65    0.07
  -3  -6 -13    0.12    0.05
   3   6  13    0.15    0.05
  -1  -6 -12    3.69    0.12
   1   6  12    3.79    0.12
   1  -6 -11    0.09    0.04
  -1   6  11    0.09    0.04
  -1   6  11    0.08    0.04
   3  -6 -10    0.94    0.08
  -3   6  10    0.98    0.08
  -2  -5 -12    0.16    0.04
   2   5  12    0.16    0.05
   0  -5 -11    0.52    0.06
   0   5  11    0.60    0.06
   2  -5 -10    0.14    0.04
   2  -5 -10    0.07    0.04
  -2   5  10    0.07    0.04
  -3  -4 -12    3.38    0.12
   3   4  12    3.18    0.12
  -1  -4 -11   16.91    0.32
  -1  -4 -11   18.27    0.33
   1   4  11   17.23    0.33
   1  -4 -10    0.15    0.04
   1  -4 -10    0.10    0.03
  -1   4  10    0.17    0.04
  -1   4  10    0.17    0.04
   3  -4  -9    0.62    0.07
  -3   4   9    0.67    0.06
  -4  -3 -12    0.02    0.04
   4   3  12   -0.02    0.04
  -2  -3 -11    0.34    0.04
  -2  -3 -11    0.30    0.05
   2   3  11    0.33    0.05
   0  -3 -10    1.61    0.07
   0  -3 -10    1.63    0.07
   0   3  10    1.57    0.08
   2  -3  -9    0.71    0.06
  -2   3   9    0.73    0.05
  -2   3   9    0.75    0.05
   4  -3  -8    1.83    0.10
  -4   3   8    1.77    0.09
  -3  -2 -11    0.58    0.06
   3   2  11    0.58    0.06
  -1  -2 -10    0.31    0.04
  -1  -2 -10    0.31    0.04
   1   2  10    0.35    0.05
   1  -2  -9    0.13    0.04
   1  -2  -9    0.12    0.03
  -1   2   9    0.12    0.04
  -1   2   9    0.14    0.03
   3  -2  -8    0.39    0.05
  -3   2   8    0.29    0.04
  -3   2   8    0.37    0.05
   5  -2  -7    0.05    0.05
  -5   2   7    0.06    0.05
  -4  -1 -11    0.14    0.05
   4   1  11    0.28    0.05
   4   1  11    0.20    0.05
  -2  -1 -10    5.66    0.14
  -2  -1 -10    5.38    0.14
   2   1  10    5.23    0.14
   0  -1  -9   31.18    0.51
   0  -1  -9   31.76    0.54
   0   1   9   31.01    0.52
   2  -1  -8    0.01    0.03
  -2   1   8    0.02    0.03
  -2   1   8    0.00    0.03
   4  -1  -7    0.36    0.06
  -4   1   7    0.43    0.06
  -3   0 -10    0.01    0.04
   3   0  10    0.01    0.03
   3   0  10    0.01    0.04
  -1   0  -9    0.49    0.05
  -1   0  -9    0.60    0.05
   1   0   9    0.55    0.05
   1   0  -8   -0.06    0.03
  -1   0   8   -0.04    0.03
   3   0  -7    1.79    0.08
  -3   0   7    1.67    0.07
  -3   0   7    1.83    0.07
   5   0  -6    1.51    0.09
  -5   0   6    1.56    0.09
  -4   1 -10    1.31    0.08
   4  -1  10    1.23    0.08
   4  -1  10    1.49    0.08
  -2   1  -9    1.02    0.06
   2  -1   9    1.03    0.07
   2  -1   9    1.05    0.07
   0   1  -8    0.67    0.04
   0   1  -8    0.71    0.06
   0  -1   8    0.77    0.06
   2   1  -7   -0.04    0.03
  -2  -1   7    0.01    0.02
  -2  -1   7   -0.02    0.03
   4   1  -6    0.32    0.05
  -4  -1   6    0.29    0.05
  -4  -1   6    0.36    0.05
  -3   2  -9    0.50    0.06
   3  -2   9    0.47    0.06
   3  -2   9    0.41    0.06
  -1   2  -8    5.25    0.14
  -1   2  -8    5.29    0.13
   1  -2   8    5.13    0.14
   1   2  -7   35.37    0.61
  -1  -2   7   35.56    0.59
   3   2  -6    0.20    0.04
  -3  -2   6    0.23    0.04
  -3  -2   6    0.22    0.04
   5   2  -5    0.09    0.05
  -5  -2   5    0.16    0.05
  -5  -2   5    0.10    0.04
  -2   3  -8    0.36    0.05
   2  -3   8    0.40    0.05
   2  -3   8    0.36    0.05
   0   3  -7    0.64    0.04
   0   3  -7    0.68    0.06
   0  -3   7    0.67    0.06
   2   3  -6    1.28    0.08
  -2  -3   6    1.30    0.07
  -2  -3   6    1.54    0.06
   4   3  -5    2.10    0.10
  -4  -3   5    2.11    0.09
  -4  -3   5    2.09    0.09
   6   3  -4    0.53    0.07
  -6  -3   4    0.56    0.08
  -3   4  -8    1.62    0.09
   3  -4   8    1.78    0.10
   3  -4   8    1.76    0.08
  -1   4  -7    0.89    0.06
   1  -4   7    1.00    0.07
   1  -4   7    1.06    0.07
   1   4  -6    0.95    0.07
  -1  -4   6    0.99    0.07
  -3  -4   5    0.05    0.04
  -3  -4   5    0.02    0.03
   5   4  -4    0.21    0.05
  -5  -4   4    0.11    0.05
  -5  -4   4    0.18    0.05
  -2   5  -7    0.56    0.06
   2  -5   7    0.55    0.06
   2  -5   7    0.50    0.07
   0   5  -6    2.94    0.11
   0  -5   6    3.16    0.11
   2   5  -5   25.05    0.46
  -2  -5   5   25.02    0.45
  -2  -5   5   25.07    0.42
   4   5  -4    0.10    0.04
  -4  -5   4    0.21    0.05
  -4  -5   4    0.19    0.05
  -1   6  -6    1.14    0.06
   1  -6   6    1.22    0.08
   1  -6   6    1.01    0.08
   1   6  -5    0.44    0.06
  -1  -6   5    0.56    0.06
   3   6  -4    2.12    0.10
  -3  -6   4    2.06    0.09
  -3  -6   4    2.14    0.08
   5   6  -3    1.87    0.10
  -5  -6   3    1.87    0.09
  -5  -6   3    1.83    0.10
  -2   7  -6    1.58    0.08
   2  -7   6    1.49    0.10
   0   7  -5    0.56    0.07
   0  -7   5    0.58    0.07
   2   7  -4    0.73    0.07
  -2  -7   4    0.77    0.07
  -4  -7   3    0.02    0.05
  -4  -7   3   -0.01    0.04
  -1   8  -5    0.17    0.04
   1  -8   5    0.23    0.06
   1  -8   5    0.17    0.05
   1   8  -4    1.13    0.08
  -1  -8   4    1.20    0.08
   3   8  -3   13.02    0.28
  -3  -8   3   12.93    0.28
  -3  -8   3   12.61    0.26
   0   9  -4    1.42    0.09
   0  -9   4    1.53    0.09
   2   9  -3    0.36    0.06
  -2  -9   3    0.35    0.07
  -1  -7 -13    1.28    0.08
   1   7  13    1.33    0.09
   1  -7 -12    0.07    0.04
  -1   7  12    0.04    0.04
  -2  -6 -13    0.05    0.04
   2   6  13   -0.03    0.04
   0  -6 -12    0.56    0.06
   0   6  12    0.59    0.06
   2  -6 -11    0.28    0.05
  -2   6  11    0.41    0.06
  -3  -5 -13    0.01    0.04
   3   5  13    0.00    0.05
  -1  -5 -12    1.68    0.08
   1   5  12    1.87    0.09
   1  -5 -11    0.40    0.05
   1  -5 -11    0.39    0.05
  -1   5  11    0.43    0.05
  -1   5  11    0.44    0.06
   3  -5 -10    0.41    0.06
  -3   5  10    0.52    0.07
  -2  -4 -12    1.13    0.07
   2   4  12    1.22    0.08
   0  -4 -11    2.08    0.08
   0  -4 -11    2.38    0.09
   0   4  11    2.03    0.09
   2  -4 -10    0.42    0.05
  -2   4  10    0.40    0.05
  -2   4  10    0.48    0.06
   4  -4  -9    1.62    0.10
  -4   4   9    1.69    0.09
  -3  -3 -12    0.06    0.04
   3   3  12    0.13    0.05
  -1  -3 -11    0.04    0.03
  -1  -3 -11    0.01    0.03
   1   3  11    0.02    0.04
   1  -3 -10    1.69    0.07
   1  -3 -10    1.85    0.08
  -1   3  10    1.81    0.08
   3  -3  -9    0.42    0.06
  -3   3   9    0.48    0.06
  -4  -2 -12   -0.05    0.04
   4   2  12    0.04    0.05
  -2  -2 -11   -0.01    0.03
  -2  -2 -11    0.02    0.03
   2   2  11   -0.04    0.03
   0  -2 -10    4.73    0.13
   0  -2 -10    4.57    0.12
   0   2  10    4.60    0.13
   2  -2  -9    1.31    0.07
  -2   2   9    1.29    0.06
  -2   2   9    1.22    0.07
   4  -2  -8    0.59    0.07
  -4   2   8    0.63    0.06
  -3  -1 -11    0.62    0.06
   3   1  11    0.64    0.06
   3   1  11    0.68    0.07
  -1  -1 -10    1.44    0.07
  -1  -1 -10    1.38    0.07
   1   1  10    1.35    0.07
   1  -1  -9    1.91    0.08
   1  -1  -9    1.67    0.07
  -1   1   9    1.79    0.08
   3  -1  -8    0.58    0.06
  -3   1   8    0.54    0.05
  -3   1   8    0.55    0.05
   5  -1  -7    1.36    0.10
  -5   1   7    1.51    0.09
  -4   0 -11    0.15    0.05
   4   0  11    0.29    0.06
   4   0  11    0.18    0.05
  -2   0 -10    0.05    0.03
  -2   0 -10    0.04    0.03
   2   0  10    0.05    0.04
   0   0  -9    0.05    0.02
   0   0  -9    0.01    0.03
   0   0   9    0.02    0.03
   2   0  -8    2.21    0.09
  -2   0   8    2.15    0.08
  -2   0   8    2.14    0.07
   4   0  -7    0.50    0.06
  -4   0   7    0.46    0.05
  -4   0   7    0.45    0.06
  -3   1 -10    0.31    0.05
   3  -1  10    0.24    0.05
   3  -1  10    0.28    0.05
  -1   1  -9    0.04    0.03
  -1   1  -9    0.00    0.03
   1  -1   9    0.00    0.03
   1   1  -8    5.78    0.15
  -1  -1   8    5.83    0.15
   3   1  -7    2.20    0.10
  -3  -1   7    2.19    0.09
  -3  -1   7    2.29    0.08
   5   1  -6    0.85    0.08
  -5  -1   6    0.85    0.07
  -2   2  -9    0.17    0.04
   2  -2   9    0.25    0.05
   2  -2   9    0.17    0.04
   0   2  -8    0.61    0.06
   0   2  -8    0.57    0.04
   0  -2   8    0.59    0.06
   2   2  -7    0.72    0.06
  -2  -2   7    0.77    0.05
  -2  -2   7    0.79    0.06
   4   2  -6    0.41    0.06
  -4  -2   6    0.52    0.06
  -4  -2   6    0.40    0.05
  -3   3  -9    0.22    0.05
   3  -3   9    0.26    0.05
   3  -3   9    0.22    0.05
  -1   3  -8    0.36    0.05
   1  -3   8    0.39    0.06
   1   3  -7   -0.01    0.03
  -1  -3   7    0.02    0.03
   3   3  -6    0.72    0.07
  -3  -3   6    0.76    0.06
  -3  -3   6    0.82    0.06
   5   3  -5    0.23    0.06
  -5  -3   5    0.26    0.05
  -5  -3   5    0.29    0.06
  -2   4  -8    0.96    0.07
   2  -4   8    0.99    0.07
   2  -4   8    0.89    0.07
   0   4  -7    0.03    0.03
   0  -4   7   -0.04    0.03
   2   4  -6    3.30    0.12
  -2  -4   6    3.26    0.11
   4   4  -5    1.71    0.09
  -4  -4   5    1.66    0.08
  -4  -4   5    1.63    0.08
  -1   5  -7    0.00    0.03
   1  -5   7    0.04    0.04
   1  -5   7    0.06    0.04
   1   5  -6   -0.01    0.03
  -1  -5   6    0.02    0.04
   3   5  -5    0.19    0.05
  -3  -5   5    0.19    0.04
  -3  -5   5    0.13    0.05
   5   5  -4    0.09    0.05
  -5  -5   4    0.06    0.05
  -5  -5   4    0.12    0.05
  -2   6  -7    0.14    0.04
   2  -6   7    0.07    0.04
   2  -6   7    0.15    0.05
   0   6  -6    0.43    0.06
   0  -6   6    0.46    0.06
   2   6  -5    0.16    0.04
  -2  -6   5    0.22    0.05
   4   6  -4    0.04    0.04
  -4  -6   4    0.01    0.05
  -4  -6   4    0.03    0.04
   1  -7   6    1.24    0.08
   1  -7   6    1.27    0.09
   1   7  -5    0.00    0.04
  -1  -7   5   -0.01    0.05
   3   7  -4    0.93    0.08
  -3  -7   4    0.97    0.07
  -3  -7   4    1.04    0.08
   0   8  -5    0.30    0.06
   0  -8   5    0.42    0.07
   2   8  -4    0.26    0.05
  -2  -8   4    0.38    0.07
   4   8  -3   -0.01    0.04
  -4  -8   3    0.04    0.05
  -4  -8   3    0.03    0.05
   1   9  -4    0.14    0.05
  -1  -9   4    0.20    0.06
  -1  -6 -13    0.30    0.06
   1   6  13    0.22    0.06
   1  -6 -12    0.06    0.04
  -1   6  12    0.05    0.04
  -2  -5 -13   -0.05    0.04
   2   5  13    0.01    0.04
   0  -5 -12    1.06    0.07
   0   5  12    1.21    0.08
   2  -5 -11    1.27    0.08
  -2   5  11    1.22    0.07
  -3  -4 -13    0.14    0.05
   3   4  13    0.19    0.06
  -1  -4 -12    0.02    0.03
   1   4  12    0.11    0.04
   1  -4 -11    0.26    0.05
   1  -4 -11    0.26    0.04
  -1   4  11    0.17    0.04
   3  -4 -10    0.22    0.05
  -3   4  10    0.36    0.06
  -2  -3 -12    0.47    0.06
  -2  -3 -12    0.42    0.05
   2   3  12    0.45    0.06
   0  -3 -11    0.43    0.05
   0  -3 -11    0.38    0.05
   0   3  11    0.49    0.06
   2  -3 -10    0.41    0.05
  -2   3  10    0.47    0.06
  -2   3  10    0.46    0.05
   4  -3  -9    0.19    0.05
  -4   3   9    0.26    0.06
  -3  -2 -12    0.52    0.06
  -3  -2 -12    0.56    0.07
   3   2  12    0.56    0.07
  -1  -2 -11    0.09    0.03
  -1  -2 -11    0.03    0.03
   1   2  11    0.05    0.04
   1  -2 -10    1.51    0.08
  -1   2  10    1.24    0.07
   3  -2  -9    1.43    0.09
  -3   2   9    1.33    0.07
  -3   2   9    1.24    0.07
  -2  -1 -11    2.04    0.09
  -2  -1 -11    1.95    0.09
   2   1  11    1.95    0.09
   0  -1 -10    0.27    0.04
   0  -1 -10    0.24    0.04
   0   1  10    0.24    0.05
   2  -1  -9    0.21    0.05
  -2   1   9    0.18    0.04
  -2   1   9    0.25    0.04
   4  -1  -8    0.39    0.06
  -4   1   8    0.49    0.06
  -3   0 -11    0.11    0.05
   3   0  11    0.14    0.05
   3   0  11    0.18    0.05
  -1   0 -10    0.60    0.06
  -1   0 -10    0.47    0.05
   1   0  10    0.58    0.06
   1   0  -9    0.23    0.04
  -1   0   9    0.24    0.05
   3   0  -8    0.99    0.07
  -3   0   8    0.94    0.06
  -3   0   8    1.03    0.06
   5   0  -7    0.35    0.06
  -5   0   7    0.26    0.06
  -2   1 -10    0.94    0.07
   2  -1  10    1.01    0.07
   0   1  -9    0.16    0.03
   0   1  -9    0.18    0.04
   0  -1   9    0.15    0.04
   2   1  -8    0.85    0.06
  -2  -1   8    0.75    0.06
   4   1  -7    1.49    0.09
  -4  -1   7    1.54    0.08
  -4  -1   7    1.40    0.08
  -3   2 -10    0.61    0.07
   3  -2  10    0.74    0.07
   3  -2  10    0.81    0.07
  -1   2  -9    5.11    0.15
  -1   2  -9    4.79    0.13
   1  -2   9    5.10    0.14
   1   2  -8    1.31    0.07
  -1  -2   8    1.40    0.08
   3   2  -7    0.01    0.04
  -3  -2   7    0.03    0.03
  -3  -2   7    0.03    0.04
   5   2  -6    0.18    0.06
  -5  -2   6    0.32    0.06
  -5  -2   6    0.25    0.05
  -2   3  -9    0.46    0.06
   2  -3   9    0.36    0.06
   2  -3   9    0.41    0.06
   0   3  -8    0.39    0.05
   0  -3   8    0.37    0.06
   2   3  -7    0.01    0.03
  -2  -3   7   -0.02    0.04
   4   3  -6    1.22    0.08
  -4  -3   6    1.07    0.07
  -4  -3   6    1.10    0.07
  -1   4  -8    1.03    0.08
  -1   4  -8    0.89    0.06
   1  -4   8    1.05    0.07
   1   4  -7    0.09    0.04
  -1  -4   7    0.15    0.05
   3   4  -6    0.22    0.05
  -3  -4   6    0.30    0.05
  -3  -4   6    0.26    0.04
   5   4  -5    1.51    0.10
  -5  -4   5    1.47    0.09
  -5  -4   5    1.32    0.09
  -2   5  -8    0.72    0.06
   2  -5   8    0.72    0.07
   2  -5   8    0.63    0.07
   0   5  -7    5.29    0.15
   0  -5   7    5.31    0.15
   2   5  -6    2.29    0.10
  -2  -5   6    2.28    0.10
   4   5  -5    0.01    0.04
  -4  -5   5   -0.02    0.03
  -4  -5   5    0.02    0.04
   1  -6   7    0.33    0.06
   1   6  -6    0.11    0.04
  -1  -6   6    0.17    0.05
   3   6  -5    0.12    0.05
  -3  -6   5    0.16    0.04
  -3  -6   5    0.12    0.05
   0   7  -6    0.64    0.07
   0  -7   6    0.68    0.08
   2   7  -5    0.00    0.04
  -2  -7   5    0.02    0.05
   4   7  -4    0.01    0.05
  -4  -7   4    0.09    0.05
  -4  -7   4    0.02    0.04
   1   8  -5    2.80    0.12
  -1  -8   5    2.82    0.12
   3   8  -4    2.33    0.11
  -3  -8   4    2.08    0.11
  -1  -5 -13    0.08    0.04
   1   5  13    0.06    0.05
   1  -5 -12    0.53    0.06
  -1   5  12    0.62    0.06
  -2  -4 -13   -0.02    0.03
   2   4  13    0.02    0.04
   0  -4 -12    0.00    0.03
   0  -4 -12   -0.03    0.03
   0   4  12   -0.01    0.04
   2  -4 -11    0.06    0.04
  -2   4  11    0.04    0.04
  -1  -3 -12    4.27    0.13
  -1  -3 -12    4.76    0.13
   1   3  12    4.49    0.14
   1  -3 -11    0.98    0.07
  -1   3  11    0.92    0.07
   3  -3 -10    0.16    0.05
  -3   3  10    0.16    0.05
  -2  -2 -12    0.36    0.05
  -2  -2 -12    0.34    0.05
   2   2  12    0.33    0.06
   0  -2 -11    0.20    0.04
   0  -2 -11    0.18    0.04
   0   2  11    0.26    0.05
   2  -2 -10    1.10    0.08
  -2   2  10    1.05    0.07
   4  -2  -9    0.13    0.05
  -4   2   9    0.17    0.05
  -3  -1 -12    0.09    0.04
  -3  -1 -12    0.06    0.04
   3   1  12    0.08    0.05
  -1  -1 -11    0.01    0.03
  -1  -1 -11    0.00    0.03
   1   1  11    0.02    0.04
   1  -1 -10    0.20    0.04
  -1   1  10    0.26    0.05
   3  -1  -9    0.06    0.04
  -3   1   9    0.04    0.04
  -3   1   9    0.03    0.03
  -2   0 -11    0.52    0.06
  -2   0 -11    0.42    0.06
   2   0  11    0.52    0.06
   0   0 -10    5.79    0.15
   0   0 -10    5.28    0.13
   0   0  10    5.73    0.15
   2   0  -9    0.62    0.06
  -2   0   9    0.62    0.06
   4   0  -8    0.09    0.05
  -4   0   8    0.08    0.04
  -4   0   8    0.12    0.04
  -3   1 -11    0.20    0.05
   3  -1  11    0.25    0.05
   3  -1  11    0.24    0.05
  -1   1 -10    0.40    0.05
  -1   1 -10    0.53    0.06
   1  -1  10    0.47    0.06
   1   1  -9    0.27    0.05
  -1  -1   9    0.26    0.05
   3   1  -8    0.81    0.07
  -3  -1   8    0.77    0.06
  -3  -1   8    0.80    0.06
  -2   2 -10   -0.01    0.03
   2  -2  10   -0.04    0.04
   0   2  -9    0.37    0.05
   0  -2   9    0.40    0.06
   2   2  -8    0.49    0.06
  -2  -2   8    0.61    0.06
   4   2  -7    0.20    0.05
  -4  -2   7    0.17    0.05
  -4  -2   7    0.18    0.04
  -1   3  -9    0.89    0.06
  -1   3  -9    1.02    0.08
   1  -3   9    1.08    0.08
   1   3  -8    4.37    0.14
  -1  -3   8    4.48    0.14
   3   3  -7    0.33    0.06
  -3  -3   7    0.26    0.05
  -2   4  -9    0.01    0.03
   2  -4   9    0.04    0.04
   2  -4   9    0.04    0.04
   0   4  -8    0.24    0.05
   0  -4   8    0.39    0.06
   2   4  -7    0.12    0.04
  -2  -4   7    0.13    0.05
   4   4  -6    0.32    0.06
  -4  -4   6    0.29    0.06
  -4  -4   6    0.31    0.05
  -1   5  -8    0.01    0.04
   1  -5   8    0.05    0.05
   1   5  -7    1.47    0.09
  -1  -5   7    1.60    0.09
   3   5  -6    0.58    0.07
  -3  -5   6    0.63    0.07
   0   6  -7    1.48    0.09
   0  -6   7    1.53    0.09
   2   6  -6    1.72    0.10
  -2  -6   6    1.73    0.10
   4   6  -5    0.12    0.05
  -4  -6   5    0.13    0.06
  -4  -6   5    0.15    0.05
   1   7  -6    0.01    0.04
  -1  -7   6    0.04    0.05
   3   7  -5    0.01    0.04
  -3  -7   5    0.02    0.05
  -1  -4 -13    1.41    0.08
   1   4  13    1.57    0.09
   1  -4 -12    0.07    0.04
  -1   4  12    0.09    0.04
  -2  -3 -13    0.03    0.04
   2   3  13    0.00    0.04
   0  -3 -12    0.55    0.06
   0  -3 -12    0.43    0.05
   0   3  12    0.57    0.07
   2  -3 -11    0.03    0.04
  -2   3  11    0.06    0.04
  -1  -2 -12    0.47    0.06
  -1  -2 -12    0.49    0.06
   1   2  12    0.54    0.07
   1  -2 -11    1.46    0.08
  -1   2  11    1.41    0.08
   3  -2 -10    0.51    0.07
  -3   2  10    0.53    0.06
  -2  -1 -12    0.98    0.07
  -2  -1 -12    1.02    0.07
   2   1  12    0.94    0.08
   0  -1 -11    0.87    0.07
   0   1  11    0.92    0.07
   2  -1 -10    0.05    0.04
  -2   1  10    0.03    0.04
  -1   0 -11   -0.04    0.03
  -1   0 -11   -0.03    0.03
   1   0  11   -0.01    0.04
   1   0 -10    0.53    0.06
  -1   0  10    0.57    0.06
   3   0  -9    0.03    0.04
  -3   0   9    0.04    0.04
  -2   1 -11    0.60    0.07
  -2   1 -11    0.57    0.06
   2  -1  11    0.59    0.07
   0   1 -10    0.24    0.05
   0  -1  10    0.28    0.06
   2   1  -9    1.99    0.10
  -2  -1   9    1.99    0.09
   4   1  -8    0.02    0.04
  -4  -1   8    0.08    0.04
  -4  -1   8   -0.02    0.04
  -1   2 -10    0.19    0.04
  -1   2 -10    0.19    0.05
   1  -2  10    0.22    0.05
   1   2  -9    0.23    0.05
  -1  -2   9    0.14    0.05
   3   2  -8    0.01    0.04
  -3  -2   8    0.01    0.04
  -2   3 -10    0.72    0.08
  -2   3 -10    0.66    0.06
   2  -3  10    0.68    0.07
   0   3  -9    0.08    0.04
   0  -3   9    0.12    0.05
   2   3  -8    0.32    0.06
  -2  -3   8    0.36    0.06
   4   3  -7    0.09    0.05
  -4  -3   7    0.04    0.05
  -4  -3   7    0.11    0.04
  -1   4  -9    0.11    0.05
   1  -4   9    0.13    0.05
   1   4  -8    0.01    0.04
  -1  -4   8   -0.03    0.04
   3   4  -7    1.89    0.10
  -3  -4   7    1.85    0.10
   0   5  -8    0.02    0.04
   0  -5   8    0.09    0.05
   2   5  -7   -0.02    0.04
  -2  -5   7   -0.04    0.05
   4   5  -6    0.01    0.05
  -4  -5   6    0.01    0.04
  -4  -5   6    0.06    0.05
   1   6  -7    0.07    0.05
  -1  -6   7    0.09    0.06
   3   6  -6    0.08    0.05
  -3  -6   6    0.08    0.05
   1  -3 -12   -0.02    0.04
  -1   3  12    0.01    0.04
   0  -2 -12    0.96    0.07
   0   2  12    1.01    0.08
   2  -2 -11    3.79    0.13
  -2   2  11    3.77    0.12
  -1  -1 -12    5.15    0.15
  -1  -1 -12    5.86    0.16
   1   1  12    5.64    0.16
   1  -1 -11   -0.02    0.03
  -1   1  11    0.02    0.04
   3  -1 -10    1.19    0.09
  -3   1  10    1.05    0.07
   0   0 -11    0.46    0.06
   0   0  11    0.53    0.07
   2   0 -10   -0.03    0.04
  -2   0  10   -0.01    0.04
  -1   1 -11    0.08    0.04
   1  -1  11    0.04    0.04
   1   1 -10    2.01    0.10
  -1  -1  10    2.20    0.10
   3   1  -9    4.11    0.15
  -3  -1   9    3.99    0.13
   0   2 -10    9.67    0.23
   0  -2  10    9.61    0.22
   2   2  -9    0.03    0.04
  -2  -2   9    0.02    0.04
  -1   3 -10    0.12    0.05
   1  -3  10    0.11    0.05
   1   3  -9    0.16    0.05
  -1  -3   9    0.12    0.05
   3   3  -8    0.02    0.04
  -3  -3   8    0.05    0.05
   0   4  -9    0.17    0.05
   0  -4   9    0.27    0.06
   2   4  -8    2.44    0.11
  -2  -4   8    2.39    0.11
   1   5  -8    9.33    0.24
  -1  -5   8    9.85    0.23
   3   5  -7    0.06    0.05
  -3  -5   7    0.08    0.06
   0  -1 -12    1.20    0.08
   0   1  12    1.07    0.08
   2  -1 -11    6.10    0.18
  -2   1  11    5.73    0.16
   1   0 -11    0.71    0.07
  -1   0  11    0.75    0.07
   0   1 -11    0.50    0.07
   0  -1  11    0.53    0.07
   2   1 -10    2.52    0.12
  -2  -1  10    2.65    0.11
   1   2 -10    0.62    0.07
  -1  -2  10    0.67    0.08
   0   3 -10    1.58    0.10
   0  -3  10    1.37    0.09
   2   3  -9    0.61    0.08
  -2  -3   9    0.65    0.08
   1   4  -9    0.11    0.05
  -1  -4   9    0.14    0.06
   0   0   0    0.00    0.00
;
_shelx_hkl_checksum              25624
#END Tags that were not found in dictionaries
loop_
_space_group_symop_operation_xyz
'x, y, z'
'-x, -y, -z'
loop_
_atom_site_label
_atom_site_type_symbol
_atom_site_fract_x
_atom_site_fract_y
_atom_site_fract_z
_atom_site_U_iso_or_equiv
_atom_site_adp_type
_atom_site_occupancy
_atom_site_site_symmetry_order
_atom_site_calc_flag
_atom_site_refinement_flags_posn
_atom_site_refinement_flags_adp
F1 F 0.43293(13) 0.43499(9) -0.12799(9) 0.0221(2) Uani 1 1 d . .
N1 N -0.0189(2) 0.10531(13) 0.63131(12) 0.0192(2) Uani 1 1 d . .
C1 C 0.1585(2) 0.12044(15) 0.51771(14) 0.0179(3) Uani 1 1 d . .
H1 H 0.3107 0.0697 0.5376 0.021 Uiso 1 1 calc R U
F2 F 0.78743(14) 0.48444(9) -0.36253(8) 0.0222(2) Uani 1 1 d . .
C2 C -0.2327(2) 0.17879(15) 0.60165(15) 0.0200(3) Uani 1 1 d . .
H2 H -0.3609 0.1686 0.6814 0.024 Uiso 1 1 calc R U
F3 F 1.22906(14) 0.33386(9) -0.32808(8) 0.0230(2) Uani 1 1 d . .
C3 C -0.2760(2) 0.26910(16) 0.45995(15) 0.0207(3) Uani 1 1 d . .
H3 H -0.4296 0.3203 0.4439 0.025 Uiso 1 1 calc R U
F4 F 1.31091(13) 0.12401(9) -0.06108(9) 0.0235(2) Uani 1 1 d . .
C4 C -0.0909(2) 0.28303(15) 0.34266(15) 0.0195(3) Uani 1 1 d . .
H4 H -0.1158 0.3433 0.2448 0.023 Uiso 1 1 calc R U
C5 C 0.1335(2) 0.20673(15) 0.37097(14) 0.0170(3) Uani 1 1 d . .
C6 C 0.3318(2) 0.21754(15) 0.25407(14) 0.0188(3) Uani 1 1 d . .
C7 C 0.4960(2) 0.22955(15) 0.15494(14) 0.0188(3) Uani 1 1 d . .
C8 C 0.6870(2) 0.25202(15) 0.03243(14) 0.0167(3) Uani 1 1 d . .
C9 C 0.6490(2) 0.35744(14) -0.10746(14) 0.0168(3) Uani 1 1 d . .
C10 C 0.8290(2) 0.38456(14) -0.22852(13) 0.0167(3) Uani 1 1 d . .
C11 C 1.0526(2) 0.30678(15) -0.21162(14) 0.0166(3) Uani 1 1 d . .
C12 C 1.0920(2) 0.20031(15) -0.07340(14) 0.0173(3) Uani 1 1 d . .
C13 C 0.9147(2) 0.17181(15) 0.04845(14) 0.0171(3) Uani 1 1 d . .
H13 H 0.9457 0.0988 0.1423 0.021 Uiso 1 1 calc R U
loop_
_atom_site_aniso_label
_atom_site_aniso_U_11
_atom_site_aniso_U_22
_atom_site_aniso_U_33
_atom_site_aniso_U_23
_atom_site_aniso_U_13
_atom_site_aniso_U_12
F1 0.0123(4) 0.0238(4) 0.0258(4) -0.0084(3) -0.0043(3) 0.0026(3)
N1 0.0166(5) 0.0209(6) 0.0187(5) -0.0081(4) -0.0015(4) -0.0017(4)
C1 0.0139(6) 0.0184(6) 0.0215(6) -0.0092(5) -0.0031(5) -0.0004(5)
F2 0.0237(4) 0.0222(4) 0.0149(4) -0.0025(3) -0.0055(3) -0.0009(3)
C2 0.0150(6) 0.0225(7) 0.0226(7) -0.0122(5) 0.0014(5) -0.0019(5)
F3 0.0173(4) 0.0290(4) 0.0168(4) -0.0084(3) 0.0055(3) -0.0044(3)
C3 0.0128(6) 0.0219(6) 0.0290(7) -0.0134(6) -0.0043(5) 0.0017(5)
F4 0.0125(4) 0.0276(4) 0.0256(4) -0.0098(3) -0.0033(3) 0.0035(3)
C4 0.0188(6) 0.0197(6) 0.0203(6) -0.0082(5) -0.0050(5) -0.0015(5)
C5 0.0147(6) 0.0175(6) 0.0196(6) -0.0097(5) 0.0005(5) -0.0037(5)
C6 0.0162(6) 0.0205(6) 0.0189(6) -0.0077(5) -0.0023(5) -0.0032(5)
C7 0.0155(6) 0.0210(6) 0.0199(6) -0.0088(5) -0.0029(5) -0.0019(5)
C8 0.0149(6) 0.0179(6) 0.0174(6) -0.0083(5) -0.0003(5) -0.0037(5)
C9 0.0116(6) 0.0173(6) 0.0216(6) -0.0089(5) -0.0039(5) 0.0006(5)
C10 0.0179(6) 0.0165(6) 0.0142(6) -0.0046(5) -0.0036(5) -0.0024(5)
C11 0.0141(6) 0.0194(6) 0.0159(6) -0.0089(5) 0.0024(5) -0.0038(5)
C12 0.0123(6) 0.0183(6) 0.0220(6) -0.0096(5) -0.0039(5) 0.0003(5)
C13 0.0167(6) 0.0187(6) 0.0148(6) -0.0060(5) -0.0029(5) -0.0022(5)
loop_
_atom_type_symbol
_atom_type_description
_atom_type_scat_dispersion_real
_atom_type_scat_dispersion_imag
_atom_type_scat_source
C C 0.0033 0.0016 'International Tables Vol C Tables 4.2.6.8 and 6.1.1.4'
H H 0.0000 0.0000 'International Tables Vol C Tables 4.2.6.8 and 6.1.1.4'
N N 0.0061 0.0033 'International Tables Vol C Tables 4.2.6.8 and 6.1.1.4'
F F 0.0171 0.0103 'International Tables Vol C Tables 4.2.6.8 and 6.1.1.4'
loop_
_geom_angle_atom_site_label_1
_geom_angle_atom_site_label_2
_geom_angle_atom_site_label_3
_geom_angle
C1 N1 C2 117.40(11)
N1 C1 C5 123.89(12)
N1 C2 C3 123.32(12)
C4 C3 C2 118.80(12)
C3 C4 C5 118.87(12)
C1 C5 C4 117.71(11)
C1 C5 C6 120.95(11)
C4 C5 C6 121.34(12)
C7 C6 C5 178.71(15)
C6 C7 C8 176.99(14)
C9 C8 C13 118.42(12)
C9 C8 C7 119.52(11)
C13 C8 C7 122.06(12)
F1 C9 C10 118.14(11)
F1 C9 C8 120.34(11)
C10 C9 C8 121.52(11)
F2 C10 C11 119.77(11)
F2 C10 C9 120.51(11)
C11 C10 C9 119.71(11)
F3 C11 C10 120.13(11)
F3 C11 C12 120.54(11)
C10 C11 C12 119.33(11)
F4 C12 C13 120.40(11)
F4 C12 C11 117.88(11)
C13 C12 C11 121.72(12)
C12 C13 C8 119.29(12)
loop_
_geom_bond_atom_site_label_1
_geom_bond_atom_site_label_2
_geom_bond_distance
F1 C9 1.3472(14)
N1 C1 1.3340(17)
N1 C2 1.3435(17)
C1 C5 1.4004(19)
F2 C10 1.3421(14)
C2 C3 1.3918(19)
F3 C11 1.3407(14)
C3 C4 1.3861(19)
F4 C12 1.3475(14)
C4 C5 1.4017(18)
C5 C6 1.4341(18)
C6 C7 1.1985(19)
C7 C8 1.4324(18)
C8 C9 1.3948(18)
C8 C13 1.4075(17)
C9 C10 1.3825(18)
C10 C11 1.3812(17)
C11 C12 1.3867(18)
C12 C13 1.3782(18)
