#------------------------------------------------------------------------------
#$Date: 2016-03-24 14:49:32 +0200 (Thu, 24 Mar 2016) $
#$Revision: 179675 $
#$URL: svn://www.crystallography.net/cod/cif/4/51/27/4512737.cif $
#------------------------------------------------------------------------------
#
# This file is available in the Crystallography Open Database (COD),
# http://www.crystallography.net/
#
# All data on this site have been placed in the public domain by the
# contributors.
#
data_4512737
loop_
_publ_author_name
'Koskinen, Laura'
'J\"a\"askel\"ainen, Sirpa'
'Hirva, Pipsa'
'Haukka, Matti'
_publ_section_title
;
 Tunable Interaction Strength and Nature of the
 S&#x00B7;&#x00B7;&#x00B7;Br Halogen Bonds in [(Thione)Br2] Systems
;
_journal_issue                   3
_journal_name_full               'Crystal Growth &amp; Design'
_journal_page_first              1160
_journal_paper_doi               10.1021/cg501482u
_journal_volume                  15
_journal_year                    2015
_chemical_formula_moiety         'C7 H6 Br N2 S, Br3'
_chemical_formula_sum            'C7 H6 Br4 N2 S'
_chemical_formula_weight         469.84
_chemical_name_systematic
;
 ?
;
_space_group_crystal_system      triclinic
_space_group_IT_number           2
_space_group_name_Hall           '-P 1'
_space_group_name_H-M_alt        'P -1'
_symmetry_space_group_name_Hall  '-P 1'
_symmetry_space_group_name_H-M   'P -1'
_atom_sites_solution_hydrogens   mixed
_audit_creation_method           SHELXL-2014
_cell_angle_alpha                98.400(3)
_cell_angle_beta                 113.166(3)
_cell_angle_gamma                92.397(2)
_cell_formula_units_Z            2
_cell_length_a                   8.2516(3)
_cell_length_b                   8.6933(2)
_cell_length_c                   8.9277(3)
_cell_measurement_reflns_used    9716
_cell_measurement_temperature    120(2)
_cell_measurement_theta_max      76.6900
_cell_measurement_theta_min      5.1670
_cell_volume                     578.98(4)
_computing_cell_refinement
;
CrysAlisPro, Agilent Technologies,
Version 1.171.37.31 (release 14-01-2014 CrysAlis171 .NET)
(compiled Jan 14 2014,18:38:05)
;
_computing_data_collection
;
CrysAlisPro, Agilent Technologies,
Version 1.171.37.31 (release 14-01-2014 CrysAlis171 .NET)
(compiled Jan 14 2014,18:38:05)
;
_computing_data_reduction
;
CrysAlisPro, Agilent Technologies,
Version 1.171.37.31 (release 14-01-2014 CrysAlis171 .NET)
(compiled Jan 14 2014,18:38:05)
;
_computing_molecular_graphics
'CrystaMaker (CrystalMaker Software ltd., 2014)'
_computing_publication_material  'SHELXL-2014 (Sheldrick, 2014)'
_computing_structure_refinement  'SHELXL-2014 (Sheldrick, 2014)'
_computing_structure_solution    'SUPERFLIP (Palatinus & Chapuis, 2007)'
_diffrn_ambient_temperature      120(2)
_diffrn_detector_area_resol_mean 10.3953
_diffrn_measured_fraction_theta_full 0.999
_diffrn_measured_fraction_theta_max 0.991
_diffrn_measurement_device       '\k-geometry diffractometer'
_diffrn_measurement_device_type  'SuperNova, Dual, Cu at zero, Atlas'
_diffrn_measurement_method       '\f scans and \w scans with \k offset'
_diffrn_radiation_monochromator  mirror
_diffrn_radiation_type           CuK\a
_diffrn_radiation_wavelength     1.54184
_diffrn_reflns_av_R_equivalents  0.0270
_diffrn_reflns_av_unetI/netI     0.0195
_diffrn_reflns_Laue_measured_fraction_full 0.999
_diffrn_reflns_Laue_measured_fraction_max 0.991
_diffrn_reflns_limit_h_max       10
_diffrn_reflns_limit_h_min       -10
_diffrn_reflns_limit_k_max       10
_diffrn_reflns_limit_k_min       -10
_diffrn_reflns_limit_l_max       10
_diffrn_reflns_limit_l_min       -11
_diffrn_reflns_number            11790
_diffrn_reflns_point_group_measured_fraction_full 0.999
_diffrn_reflns_point_group_measured_fraction_max 0.991
_diffrn_reflns_theta_full        67.684
_diffrn_reflns_theta_max         76.986
_diffrn_reflns_theta_min         5.174
_diffrn_source                   micro-source
_exptl_absorpt_coefficient_mu    18.360
_exptl_absorpt_correction_T_max  1.0000
_exptl_absorpt_correction_T_min  0.8795
_exptl_absorpt_correction_type   numerical
_exptl_absorpt_process_details
;   
SADABS-2008/1 (Bruker, 2008)
Additional spherical absorption correction applied with mu*r =  0.0000
Lambda/2 correction factor = 0.0000
;
_exptl_crystal_colour            'orange yellow'
_exptl_crystal_density_diffrn    2.695
_exptl_crystal_description       block
_exptl_crystal_F_000             436
_exptl_crystal_size_max          0.185
_exptl_crystal_size_mid          0.109
_exptl_crystal_size_min          0.071
_refine_diff_density_max         0.518
_refine_diff_density_min         -0.808
_refine_diff_density_rms         0.114
_refine_ls_extinction_method     none
_refine_ls_goodness_of_fit_ref   1.160
_refine_ls_hydrogen_treatment    mixed
_refine_ls_matrix_type           full
_refine_ls_number_parameters     135
_refine_ls_number_reflns         2427
_refine_ls_number_restraints     0
_refine_ls_restrained_S_all      1.160
_refine_ls_R_factor_all          0.0222
_refine_ls_R_factor_gt           0.0221
_refine_ls_shift/su_max          0.001
_refine_ls_shift/su_mean         0.000
_refine_ls_structure_factor_coef Fsqd
_refine_ls_weighting_details
'w=1/[\s^2^(Fo^2^)+(0.0245P)^2^+0.9447P] where P=(Fo^2^+2Fc^2^)/3'
_refine_ls_weighting_scheme      calc
_refine_ls_wR_factor_gt          0.0561
_refine_ls_wR_factor_ref         0.0562
_reflns_Friedel_coverage         0.000
_reflns_number_gt                2408
_reflns_number_total             2427
_reflns_threshold_expression     'I > 2\s(I)'
_cod_data_source_file            cg501482u_si_003.cif
_cod_data_source_block           finalbr2
_cod_depositor_comments
'Adding full bibliography for 4512737--4512739.cif.'
_cod_original_cell_volume        578.98(3)
_cod_database_code               4512737
#BEGIN Tags that were not found in dictionaries:
_shelx_space_group_comment
;
The symmetry employed for this shelxl refinement is uniquely defined
by the following loop, which should always be used as a source of
symmetry information in preference to the above space-group names.
They are only intended as comments.
;
_shelx_estimated_absorpt_t_min   0.133
_shelx_estimated_absorpt_t_max   0.356
_shelxl_version_number           2014-3
_shelx_res_file
;
TITL finalbr2_g in P-1 (CF, orange yellow block)
CELL 1.54184 8.251575 8.693299 8.927651 98.3995 113.1658 92.3969
ZERR 2 0.00027 0.000235 0.000317 0.0026 0.0032 0.0024
LATT 1
SFAC C H N S Br
UNIT 14 12 4 2 8
LIST 4
L.S. 12
ACTA
PLAN -10
SIZE 0.0708 0.1086 0.1847
TEMP -153
fmap 2 53
MORE -1
BIND BR1 BR2_$3
EQIV $3  -X, -Y, -1-Z
HTAB 2.0
HTAB C3 Br3
EQIV $1 x, y, z+1
HTAB C6 Br3_$1
HTAB N1 Br1
HTAB N1 Br3
HTAB N2 Br3_$1
EQIV $2 -x, -y, -z
HTAB N2 Br4_$2
BOND $H
CONF
WGHT    0.024500    0.944700
FVAR       0.15693
BR1   5   -0.249840    0.014622   -0.321207    11.00000    0.01605    0.01880 =
         0.01720    0.00064    0.00649   -0.00200
S1    4   -0.244342    0.069388   -0.072653    11.00000    0.01266    0.01863 =
         0.01680    0.00246    0.00546   -0.00518
N1    3    0.030422    0.273563   -0.058534    11.00000    0.01268    0.01576 =
         0.01335    0.00158    0.00515   -0.00142
N2    3   -0.002693    0.286584    0.173443    11.00000    0.01240    0.01921 =
         0.01432    0.00373    0.00458   -0.00181
C1    1   -0.065743    0.215150    0.014536    11.00000    0.01024    0.01773 =
         0.01716    0.00485    0.00467    0.00146
C2    1    0.162012    0.386624    0.056220    11.00000    0.00894    0.01439 =
         0.01632    0.00315    0.00225    0.00082
C3    1    0.293387    0.480781    0.040263    11.00000    0.01108    0.01892 =
         0.02121    0.00308    0.00721   -0.00013
AFIX  43
H3    2    0.306900    0.474570   -0.061256    11.00000   -1.20000
AFIX   0
C4    1    0.403246    0.584237    0.182242    11.00000    0.00898    0.01767 =
         0.02657    0.00454    0.00460   -0.00061
AFIX  43
H4    2    0.495260    0.650452    0.177891    11.00000   -1.20000
AFIX   0
C5    1    0.382450    0.593818    0.331280    11.00000    0.01199    0.01698 =
         0.01963    0.00255    0.00008   -0.00002
AFIX  43
H5    2    0.460811    0.666384    0.425043    11.00000   -1.20000
AFIX   0
C6    1    0.250818    0.500583    0.346641    11.00000    0.01522    0.02076 =
         0.01452    0.00333    0.00353    0.00192
AFIX  43
H6    2    0.236057    0.507787    0.447649    11.00000   -1.20000
AFIX   0
C7    1    0.141788    0.395827    0.204578    11.00000    0.01018    0.01674 =
         0.01783    0.00570    0.00459    0.00138

BR2   5    0.250377    0.042004   -0.311800    11.00000    0.01246    0.02322 =
         0.01470   -0.00079    0.00562   -0.00586
BR3   5    0.098916    0.289108   -0.400804    11.00000    0.01598    0.02282 =
         0.01586    0.00210    0.00602   -0.00254
BR4   5    0.385900   -0.203100   -0.232639    11.00000    0.01677    0.02347 =
         0.02290    0.00360    0.00849   -0.00231
H1    2    0.014103    0.254600   -0.152369    11.00000    0.01147
H2    2   -0.048511    0.269348    0.239263    11.00000    0.01835
HKLF 4

REM  finalbr2_g in P-1 (CF, orange yellow block)
REM R1 =  0.0221 for    2408 Fo > 4sig(Fo)  and  0.0222 for all    2427 data
REM    135 parameters refined using      0 restraints

END

WGHT      0.0246      0.9438

REM Instructions for potential hydrogen bonds
HTAB C3 Br3
HTAB C6 Br3_$1
HTAB N1 Br1
HTAB N1 Br3
HTAB N2 Br3_$1
HTAB N2 Br4_$2

REM Highest difference peak  0.518,  deepest hole -0.808,  1-sigma level  0.114
Q1    1   0.1269  0.3050 -0.4823  11.00000  0.05    0.52
Q2    1  -0.7154  0.0643 -0.3833  11.00000  0.05    0.51
Q3    1   0.4314 -0.2003 -0.2949  11.00000  0.05    0.51
Q4    1   0.0619  0.2666 -0.3239  11.00000  0.05    0.50
Q5    1  -0.5675  0.0593 -0.2347  11.00000  0.05    0.45
Q6    1  -0.7634  0.0258 -0.2167  11.00000  0.05    0.44
Q7    1  -0.3404  0.1035 -0.1592  11.00000  0.05    0.44
Q8    1  -0.5994  0.1406 -0.2580  11.00000  0.05    0.44
Q9    1  -0.1830 -0.0568 -0.2210  11.00000  0.05    0.44
Q10   1  -0.8931 -0.0526 -0.3649  11.00000  0.05    0.43
;
_shelx_res_checksum              75014
_shelx_hkl_file
;
  -1   0   0   27.65    0.95
   1   0   0   28.29    1.02
  -2   0   0  276.62    7.35
   2   0   0  276.34    5.85
   2   0   0  282.40    8.82
  -3   0   0   21.39    1.18
  -3   0   0   19.67    0.85
   3   0   0   20.33    0.79
  -4   0   0   31.51    1.74
  -4   0   0   30.93    1.21
  -4   0   0   30.21    1.26
  -4   0   0   30.93    1.32
   4   0   0   29.93    1.16
  -5   0   0    2.41    0.48
  -5   0   0    2.19    0.33
  -5   0   0    2.32    0.22
  -5   0   0    1.91    0.28
   5   0   0    1.99    0.26
  -6   0   0  340.75   12.70
  -6   0   0  343.46    9.88
  -6   0   0  347.64   11.57
  -6   0   0  347.36   11.04
  -6   0   0  339.85   11.16
   6   0   0  338.75   10.27
   6   0   0  338.29    9.64
   6   0   0  343.46    9.78
   6   0   0  339.97   12.64
  -7   0   0    3.58    0.41
  -7   0   0    3.46    0.42
  -7   0   0    3.32    0.31
  -7   0   0    3.54    0.33
   7   0   0    3.34    0.40
   7   0   0    3.27    0.24
   7   0   0    3.83    0.33
   7   0   0    3.43    0.26
   7   0   0    3.46    0.34
  -8   0   0  197.13    6.86
   8   0   0  201.23    5.76
   8   0   0  202.79    7.13
   8   0   0  206.16    7.59
  -9   0   0    1.91    0.14
  -9   0   0    2.27    0.14
  -9   0   0    1.91    0.20
   9   0   0    1.93    0.16
   9   0   0    1.67    0.18
   9  -1   0    3.20    0.23
  -9   1   0    3.01    0.19
  -9   1   0    3.09    0.27
  -9   1   0    2.94    0.16
   8  -1   0   19.13    0.73
   8  -1   0   19.48    0.99
   8  -1   0   18.72    0.76
   8  -1   0   18.13    0.95
  -8   1   0   21.03    1.02
  -8   1   0   19.95    0.64
   7  -1   0    0.73    0.17
   7  -1   0    0.59    0.13
   7  -1   0    0.49    0.15
   7  -1   0    0.60    0.12
  -7   1   0    0.59    0.16
  -7   1   0    0.95    0.21
  -7   1   0    1.73    0.32
   6  -1   0  378.30   11.20
   6  -1   0  437.64   14.18
   6  -1   0  382.15   10.96
   6  -1   0  362.76   10.80
   6  -1   0  375.95   13.23
   6  -1   0  377.84   11.51
  -6   1   0  386.32   11.01
  -6   1   0  385.45   12.83
  -6   1   0  371.47   12.28
  -6   1   0  382.31   11.02
   5  -1   0   21.30    1.03
  -5   1   0   23.22    1.56
  -5   1   0   23.31    0.89
   4  -1   0  460.44   12.91
  -4   1   0  478.67   16.52
  -4   1   0  465.88   12.58
   3  -1   0    1.17    0.23
   3  -1   0    0.99    0.15
  -3   1   0    1.15    0.26
  -3   1   0    1.70    0.21
  -3   1   0    0.97    0.19
   2  -1   0    0.37    0.12
  -2   1   0    0.80    0.11
   1  -1   0   12.45    0.50
  -1   1   0   12.51    0.47
   0   1   0  210.68    8.48
  -1  -1   0    6.59    0.30
   1   1   0    6.84    0.49
  -3  -1   0    1.74    0.31
  -3  -1   0    1.80    0.21
  -3  -1   0    1.87    0.22
  -3  -1   0    1.88    0.35
   3   1   0    1.83    0.16
   3   1   0    1.73    0.31
  -4  -1   0  112.99    3.81
  -4  -1   0  112.92    3.36
  -4  -1   0  112.33    3.81
  -4  -1   0  107.27    4.54
   4   1   0  109.00    3.35
   4   1   0  114.32    2.62
   4   1   0  111.38    5.08
  -5  -1   0    0.71    0.14
  -5  -1   0    0.69    0.29
  -5  -1   0    0.62    0.18
   5   1   0    0.81    0.17
  -6  -1   0   14.07    0.78
  -6  -1   0   14.12    0.92
  -6  -1   0   13.78    0.70
  -6  -1   0   14.59    0.94
  -6  -1   0   14.85    1.25
   6   1   0   15.32    0.65
   6   1   0   14.32    0.82
   6   1   0   16.34    0.61
   6   1   0   14.48    0.60
  -7  -1   0    6.38    0.43
  -7  -1   0    6.42    0.55
  -7  -1   0    6.42    0.57
  -7  -1   0    6.83    0.48
   7   1   0    5.76    0.52
   7   1   0    6.04    0.47
   7   1   0    6.50    0.38
   7   1   0    6.73    0.44
  -8  -1   0  172.96    5.87
  -8  -1   0  175.38    6.02
   8   1   0  178.60    6.23
   8   1   0  176.78    5.40
   8   1   0  179.97    6.66
  -9  -1   0    1.81    0.12
   9   1   0    1.97    0.18
   9   1   0    1.79    0.14
   9   1   0    1.69    0.17
   9  -2   0    0.20    0.09
  -9   2   0    0.21    0.06
  -9   2   0    0.15    0.07
  -9   2   0    0.14    0.07
   8  -2   0   26.90    1.33
   8  -2   0   29.77    1.38
   8  -2   0   30.27    1.18
   8  -2   0   28.95    1.02
   8  -2   0   29.79    1.08
  -8   2   0   29.70    0.85
  -8   2   0   28.66    1.30
  -8   2   0   28.88    0.98
   7  -2   0   27.80    1.03
   7  -2   0   28.87    1.37
   7  -2   0   28.77    1.09
   7  -2   0   26.39    1.31
  -7   2   0   27.90    1.35
  -7   2   0   28.73    0.87
   6  -2   0   46.12    2.04
   6  -2   0   48.24    1.65
   6  -2   0   47.33    2.27
   6  -2   0   47.29    1.95
   6  -2   0   45.84    1.56
  -6   2   0   47.98    1.63
  -6   2   0   48.20    2.00
  -6   2   0   48.32    2.13
   5  -2   0    3.87    0.40
  -5   2   0    4.01    0.62
  -5   2   0    4.02    0.45
  -5   2   0    3.89    0.28
   4  -2   0  440.10   12.44
   4  -2   0  443.78   14.35
  -4   2   0  443.60   14.00
  -4   2   0  461.87   15.82
   3  -2   0   99.62    2.96
   3  -2   0   94.96    3.46
  -3   2   0   96.67    3.26
  -3   2   0   97.08    3.82
  -2   2   0 1000.00   26.76
   1  -2   0  192.31    6.63
   1  -2   0  184.34    6.36
   1  -2   0  203.63    6.36
  -1   2   0  227.04    7.17
   0  -2   0   15.87    0.58
   0   2   0   15.67    0.88
   0   2   0   15.57    0.60
  -1  -2   0    1.13    0.13
   1   2   0    1.18    0.09
   1   2   0    1.29    0.26
  -2  -2   0  548.15   16.79
  -2  -2   0  561.11   18.59
   2   2   0  555.19   22.33
   2   2   0  533.51   19.07
  -3  -2   0    8.24    0.74
  -3  -2   0    9.42    0.71
  -3  -2   0    8.10    0.52
   3   2   0    7.68    0.56
   3   2   0    8.04    0.79
  -4  -2   0  567.44   17.56
  -4  -2   0  566.85   18.13
  -4  -2   0  574.70   19.84
   4   2   0  563.47   23.30
   4   2   0  560.05   12.01
  -5  -2   0    4.06    0.32
  -5  -2   0    4.07    0.44
  -5  -2   0    4.14    0.59
   5   2   0    3.71    0.30
   5   2   0    4.30    0.38
  -6  -2   0   35.85    1.43
  -6  -2   0   37.28    1.38
  -6  -2   0   36.00    1.55
  -6  -2   0   37.21    1.77
  -6  -2   0   38.36    1.78
   6   2   0   37.47    1.33
   6   2   0   36.99    1.51
   6   2   0   37.90    1.25
  -7  -2   0    1.04    0.24
  -7  -2   0    0.39    0.23
  -7  -2   0    0.73    0.16
  -7  -2   0    0.07    0.11
  -7  -2   0    0.15    0.14
   7   2   0    0.09    0.08
   7   2   0    0.40    0.10
   7   2   0    0.28    0.13
  -8  -2   0   18.47    0.86
  -8  -2   0   18.12    0.84
   8   2   0   18.60    0.72
   8   2   0   19.25    0.92
   8   2   0   18.88    0.84
  -9  -2   0    0.25    0.04
   9  -3   0   28.73    0.97
   9  -3   0   30.40    1.07
  -9   3   0   30.22    0.87
  -9   3   0   30.14    0.97
   8  -3   0   77.56    2.60
   8  -3   0   75.07    2.34
   8  -3   0   76.55    2.44
  -8   3   0   76.60    2.78
  -8   3   0   75.39    2.40
  -8   3   0   79.18    2.15
  -8   3   0   72.72    2.28
  -8   3   0   76.41    1.86
   7  -3   0    2.23    0.30
   7  -3   0    2.14    0.22
   7  -3   0    1.78    0.29
   7  -3   0    2.35    0.24
  -7   3   0    1.97    0.18
  -7   3   0    2.09    0.30
  -7   3   0    1.99    0.36
   6  -3   0   29.84    1.42
   6  -3   0   27.73    1.60
   6  -3   0   29.48    1.13
   6  -3   0   28.74    1.08
   6  -3   0   27.38    1.38
  -6   3   0   27.40    1.45
  -6   3   0   28.81    1.35
  -6   3   0   29.62    0.87
   5  -3   0   62.99    2.67
  -5   3   0   60.52    2.39
  -5   3   0   60.90    1.98
  -5   3   0   65.14    2.58
   4  -3   0   77.53    2.83
   4  -3   0   64.68    2.67
   4  -3   0   68.36    2.75
  -4   3   0   65.82    2.56
  -4   3   0   65.59    2.41
   3  -3   0   62.55    2.28
   3  -3   0   55.33    2.34
   3  -3   0   65.85    2.59
  -3   3   0   60.51    2.08
  -3   3   0   59.20    2.19
   2  -3   0  270.55    8.56
   2  -3   0  260.61    8.51
  -2   3   0  278.27    7.51
  -2   3   0  265.48    9.48
   1  -3   0  136.56    4.75
   1  -3   0  136.32    4.68
   1  -3   0  138.60    4.46
   1  -3   0  146.91    4.48
  -1   3   0  137.88    5.07
  -1   3   0  140.55    4.00
   0  -3   0  196.61    6.30
   0  -3   0  202.17    6.38
   0   3   0  191.96    8.29
   0   3   0  194.04    6.23
   0   3   0  207.13    5.21
  -1  -3   0  104.76    3.64
  -1  -3   0   95.08    3.30
   1   3   0   94.01    2.58
   1   3   0   90.38    4.36
   1   3   0   98.46    2.73
  -2  -3   0   11.31    0.80
  -2  -3   0    9.59    0.55
   2   3   0    7.27    0.81
   2   3   0    9.20    0.58
  -3  -3   0    4.96    0.43
  -3  -3   0    5.85    0.64
  -3  -3   0    5.99    0.42
   3   3   0    4.36    0.65
   3   3   0    5.46    0.49
  -4  -3   0  241.47    7.95
  -4  -3   0  237.04    7.87
   4   3   0  239.25    5.42
   4   3   0  245.84   10.56
  -5  -3   0   16.01    0.87
  -5  -3   0   16.25    0.84
  -5  -3   0   16.27    0.87
  -5  -3   0   17.60    1.06
  -5  -3   0   17.45    0.77
   5   3   0   16.38    0.72
   5   3   0   17.23    0.71
   5   3   0   16.98    0.72
   5   3   0   16.79    0.91
   5   3   0   17.16    0.87
  -6  -3   0  121.79    4.41
  -6  -3   0  123.84    3.86
  -6  -3   0  125.05    4.29
  -6  -3   0  122.27    4.01
  -6  -3   0  127.15    4.69
   6   3   0  129.12    4.00
   6   3   0  130.67    3.64
   6   3   0  122.20    3.95
   6   3   0  128.93    3.96
  -7  -3   0    0.86    0.15
  -7  -3   0    0.32    0.14
  -7  -3   0    1.07    0.19
  -7  -3   0    0.44    0.22
  -7  -3   0    0.51    0.17
   7   3   0    0.94    0.18
   7   3   0    0.47    0.11
   7   3   0    0.38    0.11
  -8  -3   0    2.34    0.23
   8   3   0    2.34    0.17
   8   3   0    2.40    0.22
   8   3   0    2.34    0.19
   9  -4   0    0.25    0.07
   9  -4   0    0.18    0.05
  -9   4   0    0.15    0.06
  -9   4   0    0.33    0.06
   8  -4   0   26.43    1.03
   8  -4   0   25.32    1.19
   8  -4   0   26.40    0.98
  -8   4   0   26.47    0.98
  -8   4   0   25.05    0.90
  -8   4   0   27.02    0.86
   7  -4   0   68.85    2.29
   7  -4   0   67.68    2.19
   7  -4   0   67.38    2.40
  -7   4   0   68.55    1.99
  -7   4   0   68.04    1.72
  -7   4   0   68.37    2.56
   6  -4   0   43.71    1.53
   6  -4   0   43.87    1.60
   6  -4   0   42.95    1.67
  -6   4   0   42.86    1.39
  -6   4   0   44.79    1.20
  -6   4   0   42.67    1.96
  -6   4   0   44.08    1.79
   5  -4   0    4.69    0.46
   5  -4   0    4.53    0.33
   5  -4   0    4.79    0.54
   5  -4   0    4.69    0.35
  -5   4   0    4.79    0.25
  -5   4   0    5.13    0.56
  -5   4   0    4.37    0.52
   4  -4   0   80.08    3.06
   4  -4   0   87.40    3.38
  -4   4   0   77.24    2.83
  -4   4   0   78.60    3.00
   3  -4   0  206.60    7.31
   3  -4   0  219.32    7.59
   3  -4   0  236.21    7.24
  -3   4   0  219.60    6.45
   2  -4   0   87.94    2.85
   2  -4   0   79.77    2.90
   2  -4   0   76.92    3.34
  -2   4   0   87.82    2.68
   1  -4   0  140.98    4.71
   1  -4   0  143.45    5.18
   1  -4   0  148.50    4.99
  -1   4   0  147.95    5.43
  -1   4   0  149.89    4.00
  -1   4   0  149.57    4.77
   0  -4   0  323.14   10.36
   0  -4   0  336.27   10.34
   0   4   0  332.52   13.58
   0   4   0  325.24    8.53
   0   4   0  320.41   10.24
   0   4   0  325.09    8.64
  -1  -4   0   28.08    1.14
  -1  -4   0   29.20    1.42
   1   4   0   29.36    1.07
   1   4   0   29.14    0.91
   1   4   0   28.76    1.79
  -2  -4   0   29.86    1.54
   2   4   0   27.74    1.82
   2   4   0   24.26    1.29
  -3  -4   0   63.21    2.22
   3   4   0   58.12    3.25
   3   4   0   54.22    2.54
  -4  -4   0   19.60    0.96
  -4  -4   0   21.60    1.16
   4   4   0   18.97    0.80
   4   4   0   19.42    0.81
   4   4   0   19.02    0.78
   4   4   0   18.87    1.20
   4   4   0   19.20    1.56
  -5  -4   0    1.73    0.33
  -5  -4   0    2.40    0.32
  -5  -4   0    1.80    0.27
  -5  -4   0    2.52    0.39
  -5  -4   0    1.44    0.27
  -5  -4   0    1.67    0.21
   5   4   0    2.05    0.20
   5   4   0    1.91    0.28
   5   4   0    1.23    0.20
   5   4   0    1.48    0.17
   5   4   0    1.40    0.18
   5   4   0    1.87    0.25
  -6  -4   0  139.55    4.43
  -6  -4   0  141.76    4.88
  -6  -4   0  133.77    4.19
  -6  -4   0  137.67    4.73
  -6  -4   0  141.62    5.08
   6   4   0  140.38    4.40
   6   4   0  141.67    4.02
   6   4   0  143.76    4.38
  -7  -4   0   37.94    1.40
  -7  -4   0   38.26    1.52
  -7  -4   0   37.22    1.60
   7   4   0   37.42    1.30
   7   4   0   36.90    1.58
   7   4   0   36.92    1.21
  -8  -4   0   39.37    1.40
   8   4   0   35.69    1.48
   8   4   0   38.81    1.23
   8  -5   0   11.12    0.62
   8  -5   0   11.33    0.52
   8  -5   0   12.12    0.53
  -8   5   0   10.86    0.46
  -8   5   0   11.60    0.43
  -8   5   0   11.66    0.51
   7  -5   0    1.15    0.18
   7  -5   0    1.00    0.18
  -7   5   0    1.23    0.19
  -7   5   0    1.25    0.17
  -7   5   0    0.94    0.14
   6  -5   0   16.59    0.94
   6  -5   0   17.00    0.81
   6  -5   0   16.18    0.77
   6  -5   0   16.48    0.80
  -6   5   0   17.08    0.75
  -6   5   0   17.53    0.68
   5  -5   0  100.83    3.86
   5  -5   0   96.98    3.15
   5  -5   0   93.84    3.71
   5  -5   0   94.25    3.02
  -5   5   0   97.30    2.94
  -5   5   0   99.40    3.52
  -5   5   0   97.55    3.75
  -5   5   0   91.73    2.64
   4  -5   0    5.51    0.37
   4  -5   0    5.22    0.38
   4  -5   0    5.12    0.71
  -4   5   0    5.22    0.55
  -4   5   0    7.84    0.64
  -4   5   0    5.86    0.35
   3  -5   0    5.49    0.74
  -3   5   0    5.87    0.33
   2  -5   0   17.75    1.35
  -2   5   0   18.23    0.80
  -2   5   0   19.07    0.68
   1  -5   0   73.97    3.18
  -1   5   0   76.17    2.99
  -1   5   0   74.10    2.27
  -1   5   0   77.70    2.19
  -1   5   0   73.74    2.31
  -1   5   0   70.84    2.61
   0  -5   0   42.19    1.68
   0  -5   0   41.68    2.05
   0   5   0   43.01    1.48
  -1  -5   0  145.94    4.84
  -1  -5   0  141.00    5.15
   1   5   0  148.91    4.21
   1   5   0  147.00    6.72
  -2  -5   0   71.47    2.67
   2   5   0   75.02    3.90
   2   5   0   69.24    2.99
  -3  -5   0    9.85    0.65
  -3  -5   0   11.00    0.76
   3   5   0    9.72    0.79
   3   5   0   10.22    1.13
  -4  -5   0    2.72    0.31
  -4  -5   0    3.13    0.41
  -4  -5   0    2.50    0.40
  -4  -5   0    2.79    0.34
  -4  -5   0    2.75    0.35
  -4  -5   0    2.23    0.28
   4   5   0    2.64    0.25
   4   5   0    2.63    0.24
   4   5   0    2.42    0.22
   4   5   0    2.36    0.29
   4   5   0    2.47    0.55
   4   5   0    2.71    0.30
   4   5   0    2.63    0.24
   4   5   0    2.62    0.41
  -5  -5   0   45.71    1.78
  -5  -5   0   48.59    2.04
  -5  -5   0   48.99    1.90
  -5  -5   0   43.98    1.89
   5   5   0   45.96    1.49
   5   5   0   47.17    1.64
   5   5   0   48.06    2.06
   5   5   0   45.64    1.57
   5   5   0   45.60    1.63
  -6  -5   0    0.72    0.20
  -6  -5   0    0.75    0.20
  -6  -5   0    0.86    0.19
  -6  -5   0    0.75    0.21
   6   5   0    0.79    0.13
   6   5   0    0.68    0.12
  -7  -5   0    1.11    0.17
  -7  -5   0    1.26    0.17
  -7  -5   0    1.35    0.18
   7   5   0    1.48    0.15
   7   5   0    1.22    0.13
   7   5   0    1.37    0.13
   8  -6   0    8.31    0.38
   8  -6   0    7.75    0.46
  -8   6   0    8.16    0.34
  -8   6   0    8.26    0.35
   7  -6   0   25.29    1.21
   7  -6   0   23.90    1.12
   7  -6   0   25.97    1.00
  -7   6   0   24.54    0.93
  -7   6   0   25.05    0.79
  -7   6   0   23.85    0.89
   6  -6   0   18.58    1.03
   6  -6   0   18.87    0.87
  -6   6   0   19.22    0.82
  -6   6   0   19.01    0.79
  -6   6   0   18.08    0.67
   5  -6   0    1.21    0.25
   5  -6   0    0.70    0.17
   5  -6   0    0.38    0.19
  -5   6   0    0.33    0.15
  -5   6   0    0.39    0.13
  -5   6   0    0.45    0.15
   4  -6   0    0.61    0.33
   4  -6   0    0.53    0.21
   4  -6   0    0.66    0.22
   4  -6   0    0.95    0.25
   4  -6   0    0.40    0.14
  -4   6   0    0.63    0.21
  -4   6   0    0.26    0.14
  -4   6   0    0.76    0.15
  -4   6   0    0.81    0.15
   3  -6   0   88.85    3.67
   3  -6   0   92.47    2.87
   3  -6   0   86.76    3.59
   3  -6   0   90.78    3.51
   3  -6   0   88.41    4.02
  -3   6   0   87.80    2.82
  -3   6   0   92.01    2.68
  -3   6   0   86.62    3.23
  -3   6   0   86.94    2.77
   2  -6   0   11.04    1.15
  -2   6   0   13.35    0.72
  -2   6   0   12.72    0.53
  -2   6   0   11.96    0.72
  -2   6   0   11.88    0.67
   1  -6   0   51.29    2.61
  -1   6   0   49.58    1.76
  -1   6   0   49.98    1.96
   0  -6   0    3.21    0.55
   0   6   0    2.69    0.38
   0   6   0    3.19    0.35
  -1  -6   0   11.04    0.98
   1   6   0   10.71    0.68
  -2  -6   0   24.92    1.12
  -2  -6   0   23.38    1.13
   2   6   0   22.36    0.88
   2   6   0   23.49    0.95
   2   6   0   23.03    1.33
   2   6   0   22.36    0.78
   2   6   0   23.83    0.92
  -3  -6   0  116.07    3.84
  -3  -6   0  118.67    4.17
  -3  -6   0  127.39    3.94
   3   6   0  118.00    3.72
   3   6   0  121.58    6.08
   3   6   0  121.31    3.86
   3   6   0  113.26    4.80
   3   6   0  120.42    3.81
  -4  -6   0   31.01    1.46
  -4  -6   0   33.46    1.38
  -4  -6   0   33.40    1.40
  -4  -6   0   30.68    1.30
   4   6   0   31.56    1.20
   4   6   0   34.18    1.26
   4   6   0   31.92    1.20
   4   6   0   31.77    1.18
   4   6   0   31.80    1.16
  -5  -6   0    4.48    0.42
  -5  -6   0    4.31    0.39
  -5  -6   0    4.27    0.37
  -5  -6   0    4.27    0.39
   5   6   0    4.87    0.31
   5   6   0    4.30    0.29
   5   6   0    4.55    0.27
  -6  -6   0    0.13    0.11
  -6  -6   0   -0.01    0.11
  -6  -6   0    0.21    0.11
   6   6   0    0.08    0.08
   6   6   0    0.21    0.08
  -7  -6   0   19.16    0.76
   7   6   0   19.21    0.66
   7   6   0   19.54    0.62
   7  -7   0    0.06    0.08
   7  -7   0    0.12    0.10
   7  -7   0    0.26    0.10
  -7   7   0    0.06    0.06
  -7   7   0    0.10    0.08
   6  -7   0    6.35    0.50
   6  -7   0    6.09    0.41
   6  -7   0    6.51    0.52
  -6   7   0    6.24    0.35
  -6   7   0    6.93    0.41
  -6   7   0    6.57    0.37
   5  -7   0    8.26    0.65
   5  -7   0    8.45    0.52
   5  -7   0    7.69    0.59
   5  -7   0    6.93    0.84
  -5   7   0    6.88    0.54
  -5   7   0    7.71    0.42
  -5   7   0    7.59    0.43
   4  -7   0    3.55    0.68
   4  -7   0    4.04    0.35
   4  -7   0    4.00    0.46
   4  -7   0    4.12    0.44
  -4   7   0    3.60    0.40
  -4   7   0    3.60    0.38
  -4   7   0    3.95    0.29
   3  -7   0   17.92    1.08
   3  -7   0   18.13    1.58
   3  -7   0   18.11    0.82
   3  -7   0   17.66    1.05
   3  -7   0   19.55    1.04
  -3   7   0   17.88    0.92
  -3   7   0   18.29    0.73
  -3   7   0   17.14    0.90
  -3   7   0   17.65    0.80
   2  -7   0    6.58    0.96
   2  -7   0    7.41    0.60
   2  -7   0    7.07    0.60
  -2   7   0    7.53    0.43
  -2   7   0    6.76    0.54
   1  -7   0   49.40    2.14
   1  -7   0   49.98    2.73
  -1   7   0   49.53    1.83
  -1   7   0   49.04    1.69
   0  -7   0    1.60    0.49
   0   7   0    2.19    0.33
   0   7   0    2.55    0.21
   0   7   0    2.16    0.21
  -1  -7   0   45.35    1.83
   1   7   0   43.64    1.52
   1   7   0   43.40    1.30
   1   7   0   43.14    1.50
   1   7   0   39.61    2.23
  -2  -7   0    1.05    0.24
  -2  -7   0    1.11    0.24
  -2  -7   0    1.26    0.24
   2   7   0    1.10    0.15
   2   7   0    1.09    0.16
   2   7   0    1.10    0.27
   2   7   0    0.99    0.18
   2   7   0    1.21    0.18
  -3  -7   0    0.14    0.16
  -3  -7   0    0.57    0.19
  -3  -7   0    0.18    0.15
   3   7   0    0.98    0.14
   3   7   0    0.70    0.15
   3   7   0    0.19    0.13
  -4  -7   0    1.14    0.18
  -4  -7   0    1.27    0.23
  -4  -7   0    1.26    0.24
  -4  -7   0    1.15    0.21
   4   7   0    1.34    0.17
   4   7   0    1.15    0.15
   4   7   0    1.47    0.15
  -5  -7   0   55.04    2.02
  -5  -7   0   56.29    1.92
  -5  -7   0   58.12    2.10
   5   7   0   56.48    1.71
   5   7   0   58.15    1.85
   5   7   0   54.25    1.82
  -6  -7   0    0.73    0.12
  -6  -7   0    0.46    0.13
  -6  -7   0    0.62    0.12
  -6  -7   0    0.23    0.07
   6   7   0    0.44    0.07
   6   7   0    0.28    0.06
   7  -8   0    2.80    0.22
  -7   8   0    2.60    0.16
   6  -8   0    5.75    0.42
   6  -8   0    5.22    0.39
   6  -8   0    5.84    0.42
  -6   8   0    5.54    0.32
   5  -8   0    1.18    0.23
   5  -8   0    1.35    0.25
   5  -8   0    0.87    0.16
   4  -8   0   20.90    1.11
   4  -8   0   21.39    1.19
   4  -8   0   19.60    1.56
   4  -8   0   21.04    1.08
  -4   8   0   21.10    0.87
  -4   8   0   18.16    0.95
   3  -8   0   13.19    0.85
   3  -8   0   12.07    0.84
   3  -8   0   12.14    1.30
  -3   8   0   11.93    0.59
  -3   8   0   11.43    0.72
   2  -8   0    1.73    0.55
   2  -8   0    1.80    0.31
   2  -8   0    1.83    0.32
  -2   8   0    2.04    0.21
  -2   8   0    2.12    0.31
   1  -8   0   36.67    1.70
   1  -8   0   36.65    2.30
   1  -8   0   35.71    1.51
   1  -8   0   37.94    1.77
  -1   8   0   35.63    1.29
  -1   8   0   34.85    1.29
  -1   8   0   36.68    1.13
  -1   8   0   35.58    1.49
   0  -8   0   14.61    0.90
   0  -8   0   14.92    0.85
   0   8   0   14.69    0.58
   0   8   0   14.10    0.65
  -1  -8   0   14.78    0.84
  -1  -8   0   14.44    0.82
   1   8   0   13.55    0.62
   1   8   0   13.76    0.56
   1   8   0   14.33    0.66
   1   8   0   14.32    0.65
  -2  -8   0   11.76    0.75
  -2  -8   0   12.39    0.71
   2   8   0   12.80    0.60
   2   8   0   12.50    0.56
   2   8   0   12.25    0.59
  -3  -8   0   28.98    1.21
  -3  -8   0   30.32    1.31
  -3  -8   0   31.06    1.17
   3   8   0   29.92    1.11
   3   8   0   29.18    1.07
   3   8   0   29.87    1.10
   3   8   0   28.95    1.05
  -4  -8   0    2.06    0.21
  -4  -8   0    1.72    0.23
  -4  -8   0    1.60    0.20
   4   8   0    1.71    0.14
   4   8   0    2.05    0.17
   4   8   0    1.57    0.13
  -5  -8   0    3.14    0.22
  -5  -8   0    3.50    0.27
  -5  -8   0    3.15    0.32
   5   8   0    3.16    0.19
   5   8   0    3.28    0.18
   6  -9   0   12.81    0.60
  -6   9   0   12.80    0.47
  -6   9   0   12.72    0.46
   5  -9   0    3.02    0.25
   5  -9   0    3.68    0.34
   5  -9   0    3.13    0.30
  -5   9   0    3.28    0.22
  -5   9   0    3.11    0.17
  -5   9   0    3.22    0.21
   4  -9   0    3.55    0.34
   4  -9   0    3.80    0.39
  -4   9   0    3.36    0.25
  -4   9   0    3.49    0.21
  -4   9   0    3.57    0.24
   3  -9   0    3.33    0.38
   3  -9   0    3.06    0.36
  -3   9   0    3.68    0.24
  -3   9   0    3.51    0.25
  -3   9   0    3.61    0.25
   2  -9   0   21.49    1.13
   2  -9   0   22.57    1.16
  -2   9   0   20.39    0.81
  -2   9   0   20.29    0.99
  -2   9   0   21.91    0.74
  -2   9   0   21.84    0.84
   1  -9   0    3.83    0.35
   1  -9   0    2.89    0.33
   1  -9   0    3.77    0.40
  -1   9   0    3.67    0.25
  -1   9   0    3.69    0.26
   0  -9   0   15.71    0.81
   0   9   0   15.69    0.66
   0   9   0   15.20    0.58
   0   9   0   15.03    0.64
   0   9   0   15.30    0.66
  -1  -9   0   36.14    1.97
  -1  -9   0   38.71    1.46
  -1  -9   0   36.92    1.47
   1   9   0   37.63    1.32
   1   9   0   36.74    1.31
   1   9   0   37.45    1.28
  -2  -9   0   34.60    1.36
  -2  -9   0   35.27    1.30
   2   9   0   32.16    1.14
   2   9   0   32.93    1.19
   2   9   0   33.26    1.14
   2   9   0   35.08    1.20
  -3  -9   0    1.66    0.20
  -3  -9   0    2.05    0.29
  -3  -9   0    1.67    0.20
   3   9   0    1.55    0.14
   3   9   0    1.53    0.12
  -4  -9   0    0.63    0.11
  -4  -9   0    0.60    0.14
   4   9   0    0.51    0.07
   4   9   0    0.58    0.07
   4 -10   0   27.73    1.15
   4 -10   0   26.71    1.12
  -4  10   0   27.62    0.87
  -4  10   0   27.43    0.73
  -4  10   0   24.31    0.84
  -4  10   0   22.63    0.84
   3 -10   0    2.42    0.25
   3 -10   0    2.60    0.27
  -3  10   0    2.47    0.17
  -3  10   0    2.20    0.15
  -3  10   0    2.46    0.16
  -3  10   0    2.43    0.16
   2 -10   0    0.33    0.13
  -2  10   0    0.37    0.08
  -2  10   0    0.63    0.09
  -2  10   0    0.38    0.08
   1 -10   0    4.52    0.29
  -1  10   0    4.32    0.23
  -1  10   0    4.60    0.23
  -1  10   0    4.61    0.25
  -1  10   0    4.57    0.25
   0 -10   0   28.79    1.05
   0  10   0   28.33    0.97
   0  10   0   26.50    0.94
   0  10   0   27.92    0.94
  -1 -10   0    4.56    0.31
   1  10   0    3.94    0.20
   1  10   0    4.05    0.23
  -2 -10   0    7.59    0.49
  -2 -10   0    7.93    0.38
  -2 -10   0    8.07    0.46
   2  10   0    8.18    0.33
   3  10  -1   23.80    0.79
  -3 -10   1   25.45    0.84
   2  10  -1    9.81    0.39
   2  10  -1   10.28    0.39
  -2 -10   1    9.54    0.60
  -2 -10   1   10.60    0.48
  -2 -10   1    9.46    0.45
   1  10  -1    0.38    0.08
   1  10  -1    0.45    0.08
  -1 -10   1    0.31    0.12
   0  10  -1   10.10    0.44
   0  10  -1   10.47    0.44
   0 -10   1   10.45    0.53
   0 -10   1   10.73    0.56
  -1  10  -1    0.83    0.10
  -1  10  -1    0.87    0.10
  -1  10  -1    1.01    0.12
  -1  10  -1    0.87    0.11
   1 -10   1    0.79    0.17
   1 -10   1    0.70    0.13
  -2  10  -1    6.85    0.29
  -2  10  -1    7.13    0.33
  -2  10  -1    6.79    0.31
  -2  10  -1    6.59    0.31
   2 -10   1    6.53    0.42
   2 -10   1    6.86    0.46
  -3  10  -1   25.33    0.93
  -3  10  -1   30.65    0.98
  -3  10  -1   28.90    0.82
  -3  10  -1   28.78    0.97
   3 -10   1   29.61    1.24
   3 -10   1   29.09    1.22
  -4  10  -1    4.66    0.23
  -4  10  -1    4.66    0.22
   4 -10   1    4.96    0.33
   4 -10   1    4.87    0.32
   4   9  -1   19.69    0.68
   4   9  -1   19.37    0.65
   4   9  -1   20.98    0.72
  -4  -9   1   21.06    0.85
  -4  -9   1   20.58    0.77
   3   9  -1   36.09    1.23
   3   9  -1   35.68    1.20
  -3  -9   1   35.80    1.31
  -3  -9   1   35.65    1.39
   2   9  -1   47.36    1.61
   2   9  -1   48.80    1.61
   2   9  -1   48.81    1.63
  -2  -9   1   49.37    1.74
  -2  -9   1   46.11    1.82
   1   9  -1   13.62    0.61
   1   9  -1   13.30    0.59
   1   9  -1   14.40    0.61
  -1  -9   1   14.27    0.75
  -1  -9   1   14.65    0.76
   0   9  -1   21.41    0.86
   0   9  -1   23.98    0.88
   0   9  -1   21.35    0.87
   0   9  -1   21.81    0.84
   0   9  -1   22.45    0.77
   0  -9   1   23.34    1.04
   0  -9   1   24.52    1.17
  -1   9  -1   10.82    0.51
  -1   9  -1   10.45    0.50
  -1   9  -1   10.71    0.46
   1  -9   1   10.72    0.67
   1  -9   1   10.50    0.62
   1  -9   1    8.93    1.01
   1  -9   1   10.78    0.72
  -2   9  -1   14.00    0.61
  -2   9  -1   14.33    0.54
  -2   9  -1   14.08    0.61
   2  -9   1   13.64    1.25
   2  -9   1   14.58    0.86
   2  -9   1   12.84    0.80
  -3   9  -1    3.10    0.24
  -3   9  -1    2.72    0.20
  -3   9  -1    3.12    0.23
   3  -9   1    2.72    0.33
   3  -9   1    3.48    0.36
  -4   9  -1   26.45    0.96
  -4   9  -1   26.90    0.99
  -4   9  -1   26.99    0.81
   4  -9   1   27.09    1.22
   4  -9   1   26.78    1.28
  -5   9  -1   44.07    1.42
  -5   9  -1   44.12    1.38
   5  -9   1   38.31    1.65
   5  -9   1   45.34    1.78
   6   8  -1   45.71    1.37
   6   8  -1   49.09    1.50
  -6  -8   1   48.44    1.49
  -6  -8   1   50.40    1.62
   5   8  -1    0.15    0.06
   5   8  -1    0.16    0.06
  -5  -8   1    0.27    0.11
   4   8  -1    3.69    0.24
   4   8  -1    3.90    0.26
  -4  -8   1    3.58    0.31
  -4  -8   1    3.92    0.32
  -4  -8   1    3.69    0.35
   3   8  -1    1.23    0.17
   3   8  -1    1.16    0.16
   3   8  -1    1.20    0.17
  -3  -8   1    1.38    0.21
  -3  -8   1    1.27    0.24
  -3  -8   1    1.23    0.22
   2   8  -1   55.96    1.87
   2   8  -1   53.66    1.87
   2   8  -1   53.09    1.82
  -2  -8   1   54.02    2.00
  -2  -8   1   55.01    2.11
   1   8  -1  110.02    3.57
   1   8  -1  110.85    3.53
   1   8  -1  108.19    3.48
   1   8  -1  111.74    2.98
  -1  -8   1  113.71    3.86
   0   8  -1  123.62    3.84
   0   8  -1  121.02    3.84
   0   8  -1  122.71    3.27
   0  -8   1  123.89    5.02
  -1   8  -1   20.32    1.03
  -1   8  -1   21.53    0.76
  -1   8  -1   21.78    0.87
  -1   8  -1   22.02    0.88
   1  -8   1   20.46    1.62
   1  -8   1   21.25    1.12
  -2   8  -1   31.71    1.21
  -2   8  -1   31.14    1.34
   2  -8   1   33.34    1.58
   2  -8   1   29.86    2.07
   2  -8   1   32.92    1.56
  -3   8  -1    6.67    0.42
   3  -8   1    7.10    0.93
   3  -8   1    6.97    0.57
   3  -8   1    6.68    0.58
  -4   8  -1   16.94    0.74
   4  -8   1   16.35    0.97
   4  -8   1   16.19    0.91
   4  -8   1   16.15    0.92
   4  -8   1   17.34    1.36
   4  -8   1   16.56    0.73
  -5   8  -1   10.93    0.47
  -5   8  -1   11.94    0.55
   5  -8   1   12.21    0.73
   5  -8   1   11.40    0.69
   5  -8   1   11.16    0.55
  -6   8  -1   66.26    1.97
  -6   8  -1   70.19    2.14
   6  -8   1   58.45    2.54
   6  -8   1   68.19    2.12
   6  -8   1   70.88    2.60
   6  -8   1   68.94    2.60
   7   7  -1    9.89    0.36
   6   7  -1  168.35    5.00
   6   7  -1  174.78    5.20
   6   7  -1  174.04    4.75
  -6  -7   1  173.70    5.12
  -6  -7   1  165.88    5.63
  -6  -7   1  174.72    5.52
   5   7  -1   45.61    1.54
   5   7  -1   47.32    1.47
   5   7  -1   47.08    1.58
  -5  -7   1   47.23    1.68
  -5  -7   1   46.19    1.75
  -5  -7   1   46.41    1.82
  -5  -7   1   46.09    1.61
   4   7  -1   93.35    2.98
   4   7  -1   91.34    2.93
   4   7  -1   89.84    2.50
  -4  -7   1   96.25    3.32
  -4  -7   1   93.18    3.06
  -4  -7   1   90.16    3.02
  -4  -7   1   91.39    3.24
   3   7  -1    3.96    0.30
   3   7  -1    4.15    0.32
   3   7  -1    4.21    0.32
  -3  -7   1    4.13    0.39
  -3  -7   1    4.04    0.41
  -3  -7   1    4.19    0.40
   2   7  -1   11.25    0.57
   2   7  -1   11.22    0.55
   2   7  -1   11.64    0.50
   2   7  -1   10.25    0.98
   2   7  -1   11.58    0.58
  -2  -7   1   13.80    0.73
  -2  -7   1   11.67    0.72
   1   7  -1    1.26    0.16
   1   7  -1    0.83    0.14
   1   7  -1    0.99    0.15
   1   7  -1    0.68    0.25
   1   7  -1    1.06    0.15
  -1  -7   1    0.98    0.22
  -1  -7   1    0.55    0.31
   0   7  -1  142.89    3.69
   0   7  -1  143.44    4.38
   0   7  -1  142.94    4.23
   0   7  -1  140.64    4.35
   0  -7   1  121.96    5.39
   0  -7   1  146.41    5.49
   0  -7   1  144.60    4.77
   0  -7   1  147.04    4.46
  -1   7  -1  120.42    3.81
  -1   7  -1  118.13    3.67
   1  -7   1  127.54    4.81
   1  -7   1  123.98    4.96
   1  -7   1  119.46    4.61
   1  -7   1  118.21    3.86
  -2   7  -1  208.47    5.98
  -2   7  -1  216.07    6.48
   2  -7   1  216.38    7.83
   2  -7   1  208.12    7.94
   2  -7   1  207.93    7.79
  -3   7  -1   18.87    0.94
  -3   7  -1   20.09    0.87
   3  -7   1   19.75    0.85
   3  -7   1   18.72    1.16
   3  -7   1   19.61    1.56
   3  -7   1   19.60    1.13
   3  -7   1   20.55    1.10
  -4   7  -1    8.80    0.46
  -4   7  -1    8.44    0.46
  -4   7  -1    8.36    0.51
   4  -7   1    9.12    0.69
   4  -7   1    8.76    0.68
   4  -7   1    8.11    0.63
   4  -7   1    8.55    0.51
   4  -7   1    7.90    0.94
  -5   7  -1   19.88    0.79
  -5   7  -1   19.35    0.85
  -5   7  -1   19.01    0.78
   5  -7   1   19.46    0.86
   5  -7   1   19.75    1.07
   5  -7   1   17.97    0.99
  -6   7  -1   15.41    0.64
  -6   7  -1   16.00    0.68
   6  -7   1   15.94    0.70
   6  -7   1   15.02    0.83
  -7   7  -1   16.54    0.61
  -7   7  -1   16.75    0.60
   7  -7   1   15.15    0.73
   7  -7   1   16.99    0.80
   7  -7   1   17.95    0.66
   7   6  -1    2.71    0.18
   7   6  -1    2.89    0.18
  -7  -6   1    2.81    0.24
  -7  -6   1    2.43    0.22
  -7  -6   1    2.73    0.23
   6   6  -1   46.66    1.56
   6   6  -1   46.11    1.45
  -6  -6   1   43.69    1.80
  -6  -6   1   45.06    1.75
  -6  -6   1   45.82    1.67
  -6  -6   1   46.92    1.78
   5   6  -1   37.74    1.33
   5   6  -1   37.90    1.33
   5   6  -1   36.97    1.29
   5   6  -1   38.82    1.36
  -5  -6   1   37.48    1.61
  -5  -6   1   33.19    1.60
  -5  -6   1   39.00    1.52
  -5  -6   1   39.36    1.55
   4   6  -1  391.27   10.30
   4   6  -1  333.02   10.29
   4   6  -1  325.15   10.12
   4   6  -1  339.13    7.67
   4   6  -1  338.79   10.42
  -4  -6   1  337.63   10.10
  -4  -6   1  341.54   11.13
  -4  -6   1  328.52   10.84
  -4  -6   1  324.31    9.99
   3   6  -1   74.48    3.60
   3   6  -1   78.36    2.53
   3   6  -1   74.40    2.48
   3   6  -1   79.57    2.57
  -3  -6   1   78.99    2.66
  -3  -6   1   73.22    2.79
   2   6  -1   92.03    2.47
   2   6  -1   92.80    2.93
   2   6  -1   90.94    2.89
   2   6  -1   92.13    4.06
  -2  -6   1   86.73    3.37
  -2  -6   1   92.01    3.64
  -2  -6   1   92.07    3.22
   1   6  -1    0.25    0.16
  -1  -6   1    0.07    0.19
  -1  -6   1    0.14    0.10
   0   6  -1   17.54    1.07
   0   6  -1   16.81    0.84
   0  -6   1   17.16    1.23
  -1   6  -1   18.69    0.86
   1  -6   1   18.54    1.36
  -2   6  -1  207.14    5.78
  -2   6  -1  212.45    5.84
  -2   6  -1  204.37    5.68
   2  -6   1  201.81    7.43
  -3   6  -1  109.66    3.30
  -3   6  -1  110.78    3.24
  -3   6  -1  104.99    3.25
  -3   6  -1  109.24    3.97
  -3   6  -1  107.12    3.32
   3  -6   1  111.99    4.56
   3  -6   1  111.68    3.43
   3  -6   1  109.84    4.31
  -4   6  -1  279.55    7.22
  -4   6  -1  281.76    8.18
  -4   6  -1  280.38    9.39
  -4   6  -1  277.57    8.00
   4  -6   1  290.46    9.75
   4  -6   1  276.61   10.11
   4  -6   1  289.78    8.45
   4  -6   1  294.54   10.32
  -5   6  -1   40.86    1.41
  -5   6  -1   39.89    1.25
  -5   6  -1   40.75    1.45
   5  -6   1   38.11    1.76
   5  -6   1   39.64    1.50
   5  -6   1   41.14    1.86
  -6   6  -1    9.28    0.51
  -6   6  -1    9.19    0.47
  -6   6  -1    9.27    0.43
   6  -6   1    8.71    0.60
   6  -6   1    9.12    0.52
  -7   6  -1    1.87    0.19
  -7   6  -1    1.69    0.16
  -7   6  -1    1.53    0.15
   7  -6   1    1.62    0.19
   7  -6   1    1.81    0.19
  -8   6  -1   18.10    0.61
   8  -6   1   19.87    0.66
   8  -6   1   17.35    0.77
   8   5  -1  103.22    3.10
   8   5  -1   95.53    3.52
  -8  -5   1  106.74    3.40
   7   5  -1   20.41    0.78
   7   5  -1   20.27    0.73
  -7  -5   1   21.21    0.93
  -7  -5   1   19.57    0.97
  -7  -5   1   19.43    0.89
  -7  -5   1   20.13    0.87
   6   5  -1    3.73    0.26
   6   5  -1    2.92    0.31
   6   5  -1    3.88    0.28
   6   5  -1    3.75    0.28
  -6  -5   1    3.71    0.38
  -6  -5   1    3.71    0.36
  -6  -5   1    5.23    0.48
  -6  -5   1    3.83    0.37
   5   5  -1    9.20    0.47
   5   5  -1    9.36    0.47
   5   5  -1    8.88    0.55
   5   5  -1    8.93    0.48
  -5  -5   1    8.69    0.60
  -5  -5   1    9.21    0.59
  -5  -5   1    8.38    0.62
  -5  -5   1    9.18    0.70
   4   5  -1  158.56    4.95
   4   5  -1  156.23    4.87
   4   5  -1  148.59    4.92
   4   5  -1  165.75    3.92
   4   5  -1  167.40    5.04
  -4  -5   1  163.65    4.99
  -4  -5   1  164.39    5.39
  -4  -5   1  153.99    5.30
  -4  -5   1  154.57    4.88
   3   5  -1   31.03    2.19
  -3  -5   1   31.70    1.74
  -3  -5   1   33.20    1.34
   2   5  -1  605.85   21.40
  -2  -5   1  617.85   18.82
   1   5  -1   65.36    2.85
   1   5  -1   64.22    2.08
  -1  -5   1   63.27    2.60
   0   5  -1   79.20    3.14
   0   5  -1   74.40    2.33
   0  -5   1   74.00    3.04
   0  -5   1   76.15    2.85
  -1   5  -1    9.85    0.55
  -1   5  -1   11.40    0.69
  -1   5  -1   10.22    0.53
  -1   5  -1   11.15    0.44
  -1   5  -1   10.28    0.55
   1  -5   1   11.43    0.95
   1  -5   1   10.32    0.64
  -2   5  -1    6.77    0.42
  -2   5  -1    6.59    0.33
  -2   5  -1    6.29    0.42
   2  -5   1    6.02    0.73
   2  -5   1    6.48    0.55
  -3   5  -1    1.69    0.27
  -3   5  -1    1.53    0.21
  -3   5  -1    1.98    0.19
   3  -5   1    1.77    0.43
  -4   5  -1  257.08    6.56
  -4   5  -1  254.71    8.49
  -4   5  -1  253.36    7.24
  -4   5  -1  247.88    7.42
   4  -5   1  246.19    7.66
   4  -5   1  267.85    7.38
   4  -5   1  258.55    7.64
   4  -5   1  249.13    9.12
   4  -5   1  274.15    8.81
  -5   5  -1   49.85    1.74
  -5   5  -1   50.64    1.67
  -5   5  -1   48.55    1.50
  -5   5  -1   47.93    2.25
   5  -5   1   49.13    1.69
   5  -5   1   49.24    1.77
  -6   5  -1  103.58    3.29
  -6   5  -1  105.69    2.89
  -6   5  -1  105.05    3.17
   6  -5   1  102.23    3.48
   6  -5   1  106.49    3.25
   6  -5   1  104.94    4.04
   6  -5   1  106.72    3.37
  -7   5  -1    4.77    0.33
  -7   5  -1    4.12    0.27
  -7   5  -1    4.19    0.26
   7  -5   1    4.07    0.31
   7  -5   1    3.99    0.29
  -8   5  -1    4.65    0.25
   8  -5   1    4.17    0.30
   8  -5   1    4.60    0.26
   8  -5   1    4.26    0.24
   8   4  -1  189.95    6.51
   8   4  -1  187.93    5.68
  -8  -4   1  189.20    6.21
  -8  -4   1  185.63    5.52
   7   4  -1    1.13    0.15
   7   4  -1    1.03    0.17
   7   4  -1    0.97    0.12
   7   4  -1    1.00    0.15
  -7  -4   1    1.38    0.23
  -7  -4   1    1.21    0.28
  -7  -4   1    1.00    0.20
  -7  -4   1    1.03    0.15
   6   4  -1  125.01    3.55
   6   4  -1  123.62    3.12
   6   4  -1  123.55    3.85
   6   4  -1  121.85    3.86
  -6  -4   1  120.44    4.52
  -6  -4   1  119.18    3.71
  -6  -4   1  122.13    4.28
  -6  -4   1  121.37    3.93
  -6  -4   1  118.99    4.16
   5   4  -1   57.78    1.70
   5   4  -1   55.23    1.87
   5   4  -1   56.42    1.91
   5   4  -1   56.84    1.91
  -5  -4   1   57.62    2.18
  -5  -4   1   56.06    2.15
  -5  -4   1   55.02    2.35
  -5  -4   1   54.93    2.16
  -5  -4   1   56.16    2.05
   4   4  -1    0.82    0.32
   4   4  -1    0.24    0.12
  -4  -4   1    0.06    0.12
  -4  -4   1    0.10    0.11
  -4  -4   1    0.00    0.17
   3   4  -1   43.70    2.59
   3   4  -1   42.15    1.95
  -3  -4   1   47.48    1.72
  -3  -4   1   44.03    2.14
   2   4  -1  331.15   13.84
   2   4  -1  325.87   11.58
  -2  -4   1  327.49   11.33
  -2  -4   1  326.71   10.21
   1   4  -1   26.12    0.97
  -1  -4   1   25.91    0.97
  -1  -4   1   24.61    1.22
   0   4  -1  582.64   21.35
   0   4  -1  606.55   15.56
   0   4  -1  608.84   18.47
   0  -4   1  601.60   19.66
  -1   4  -1   33.00    1.13
  -1   4  -1   36.63    1.49
  -1   4  -1   32.38    1.10
   1  -4   1   33.47    1.40
  -2   4  -1   67.49    1.97
   2  -4   1   64.66    2.50
  -3   4  -1  134.72    4.20
  -3   4  -1  127.44    4.52
   3  -4   1  136.57    4.85
   3  -4   1  139.79    4.59
  -4   4  -1    8.11    0.65
  -4   4  -1    7.31    0.64
   4  -4   1    8.80    0.80
   4  -4   1    7.28    0.60
   4  -4   1    8.59    0.79
  -5   4  -1   14.95    1.00
  -5   4  -1   15.19    0.54
  -5   4  -1   14.56    0.82
  -5   4  -1   14.89    0.64
   5  -4   1   15.60    0.68
   5  -4   1   14.85    0.70
   5  -4   1   15.05    0.85
   5  -4   1   14.89    0.70
  -6   4  -1  243.98    8.34
  -6   4  -1  249.09    6.45
  -6   4  -1  241.74    7.03
  -6   4  -1  247.68    5.66
   6  -4   1  242.58    7.37
   6  -4   1  256.14    7.42
   6  -4   1  252.30    7.16
  -7   4  -1   28.95    1.11
  -7   4  -1   29.55    0.84
  -7   4  -1   29.29    0.98
  -7   4  -1   27.66    1.01
   7  -4   1   28.26    1.14
   7  -4   1   27.62    1.09
   7  -4   1   29.75    1.06
  -8   4  -1   34.30    1.60
  -8   4  -1   36.13    1.04
  -8   4  -1   35.48    1.17
   8  -4   1   31.37    1.41
   8  -4   1   35.44    1.20
   8  -4   1   35.74    1.25
   9   3  -1   42.00    1.55
  -9  -3   1   41.62    1.47
  -9  -3   1   44.09    1.02
   8   3  -1   18.79    0.82
   8   3  -1   17.67    0.86
   8   3  -1   18.23    0.72
  -8  -3   1   18.02    0.84
  -8  -3   1   18.22    0.94
  -8  -3   1   18.06    0.73
  -8  -3   1   17.44    0.82
   7   3  -1    0.29    0.12
   7   3  -1    0.09    0.08
   7   3  -1    0.35    0.12
   7   3  -1    0.14    0.07
  -7  -3   1    0.28    0.25
  -7  -3   1    0.21    0.14
  -7  -3   1    0.10    0.12
  -7  -3   1    0.40    0.16
   6   3  -1  336.17   10.24
   6   3  -1  338.19   10.18
   6   3  -1  342.16    9.30
  -6  -3   1  337.72   11.11
  -6  -3   1  339.20    9.75
  -6  -3   1  344.09   10.95
  -6  -3   1  336.52   11.51
  -6  -3   1  328.05    9.98
   5   3  -1    0.80    0.16
  -5  -3   1    1.01    0.23
  -5  -3   1    0.65    0.25
  -5  -3   1    1.23    0.23
   4   3  -1  134.96    3.21
   4   3  -1  137.77    6.19
  -4  -3   1  135.43    4.57
  -4  -3   1  134.58    4.56
  -4  -3   1  127.91    5.24
   3   3  -1  145.99    5.65
   3   3  -1  157.61    6.92
  -3  -3   1  160.29    5.15
  -3  -3   1  149.93    5.72
  -3  -3   1  157.96    5.05
   2   3  -1    4.73    0.58
   2   3  -1    4.90    0.36
  -2  -3   1    4.74    0.33
  -2  -3   1    4.83    0.44
   1   3  -1  100.42    2.87
   1   3  -1  103.08    4.60
  -1  -3   1  105.43    4.76
   0   3  -1  444.20   15.58
   0   3  -1  473.40   13.46
   0   3  -1  456.63   11.19
   0  -3   1  449.63   16.84
   0  -3   1  372.30   13.60
   0  -3   1  431.02   18.33
  -1   3  -1   13.50    0.66
   1  -3   1   13.74    0.53
   1  -3   1   13.16    0.65
  -2   3  -1  510.85   18.16
  -2   3  -1  537.27   15.01
  -2   3  -1  510.25   14.04
   2  -3   1  499.55   16.12
  -3   3  -1    2.56    0.32
  -3   3  -1    3.21    0.33
   3  -3   1    2.47    0.37
  -4   3  -1    0.50    0.16
  -4   3  -1    0.51    0.18
  -4   3  -1    0.44    0.18
   4  -3   1    1.08    0.29
  -5   3  -1   24.81    1.36
  -5   3  -1   25.53    1.32
  -5   3  -1   24.29    1.20
  -5   3  -1   25.19    0.78
   5  -3   1   23.72    1.23
   5  -3   1   26.08    0.99
   5  -3   1   24.15    1.53
   5  -3   1   24.86    0.93
   5  -3   1   25.16    1.20
  -6   3  -1   17.62    0.63
  -6   3  -1   17.90    0.75
  -6   3  -1   16.83    1.15
  -6   3  -1   17.92    1.08
  -6   3  -1   17.68    0.98
   6  -3   1   18.77    0.98
   6  -3   1   18.40    0.75
   6  -3   1   18.21    0.76
   6  -3   1   18.40    0.79
   6  -3   1   16.63    1.00
  -7   3  -1   11.03    0.59
  -7   3  -1   11.19    0.44
  -7   3  -1   10.84    0.53
  -7   3  -1   10.44    0.50
  -7   3  -1   11.38    0.70
   7  -3   1   10.93    0.53
   7  -3   1   10.64    0.55
   7  -3   1   10.46    0.67
  -8   3  -1  116.98    2.72
  -8   3  -1  119.23    3.09
  -8   3  -1  112.92    3.46
   8  -3   1  116.93    3.42
   8  -3   1  116.86    3.77
   8  -3   1  116.99    3.55
   9  -3   1    4.20    0.21
   9   2  -1   11.28    0.52
   9   2  -1   10.64    0.53
  -9  -2   1   10.92    0.35
  -9  -2   1    9.84    0.46
  -9  -2   1   10.15    0.50
  -9  -2   1    9.33    0.35
   8   2  -1    1.67    0.20
   8   2  -1    1.31    0.19
   8   2  -1    1.64    0.18
   8   2  -1    1.51    0.17
  -8  -2   1    1.71    0.20
  -8  -2   1    1.62    0.26
  -8  -2   1    1.68    0.30
  -8  -2   1    1.24    0.20
   7   2  -1   88.12    2.76
   7   2  -1   86.08    2.55
   7   2  -1   81.32    3.37
   7   2  -1   85.25    2.62
  -7  -2   1   85.34    3.34
  -7  -2   1   85.68    2.74
  -7  -2   1   84.61    3.08
  -7  -2   1   80.70    3.82
   6   2  -1   29.96    1.09
   6   2  -1   31.91    1.15
   6   2  -1   31.40    1.08
  -6  -2   1   30.83    1.51
  -6  -2   1   29.85    1.24
  -6  -2   1   30.73    1.18
  -6  -2   1   31.84    1.89
  -6  -2   1   30.68    1.34
   5   2  -1    5.61    0.41
   5   2  -1    6.62    0.40
  -5  -2   1    5.63    0.49
  -5  -2   1    5.84    0.67
  -5  -2   1    5.78    0.44
  -5  -2   1    5.84    0.49
   4   2  -1  425.95    9.26
   4   2  -1  471.43   17.90
  -4  -2   1  428.15   13.45
  -4  -2   1  424.04   13.89
  -4  -2   1  415.25   14.99
   3   2  -1    7.66    0.71
   3   2  -1    7.38    0.35
   3   2  -1    7.44    0.49
  -3  -2   1    7.92    0.47
  -3  -2   1    6.96    0.61
   2   2  -1   48.17    2.39
  -2  -2   1   50.18    2.52
  -2  -2   1   48.57    1.68
   1   2  -1  187.11    7.77
  -1  -2   1  191.66    8.08
  -1  -2   1  183.42    5.77
   0   2  -1    0.80    0.07
   0   2  -1    0.76    0.11
   0   2  -1    0.78    0.08
   0  -2   1    0.71    0.09
  -1   2  -1  381.07   10.07
   1  -2   1  361.44   12.17
  -2   2  -1  237.73    7.87
  -2   2  -1  260.47    9.03
  -2   2  -1  252.35    7.03
   2  -2   1  249.92    8.14
   2  -2   1  265.07    7.03
  -3   2  -1    9.57    0.58
  -3   2  -1    9.90    0.59
   3  -2   1    9.29    0.73
   3  -2   1   11.46    0.58
  -4   2  -1  248.36    7.45
   4  -2   1  263.72    8.75
   4  -2   1  261.66    7.43
  -5   2  -1   22.40    0.91
  -5   2  -1   22.68    1.17
   5  -2   1   23.16    1.14
  -6   2  -1   13.76    0.54
  -6   2  -1   13.88    0.86
  -6   2  -1   13.32    0.94
   6  -2   1   14.14    0.80
   6  -2   1   13.78    0.79
   6  -2   1   14.01    0.64
   6  -2   1   13.53    0.60
  -7   2  -1   14.81    0.54
  -7   2  -1   12.82    1.03
  -7   2  -1   14.74    0.63
  -7   2  -1   14.87    0.86
   7  -2   1   13.36    0.81
   7  -2   1   14.87    0.82
   7  -2   1   14.18    0.61
   7  -2   1   14.34    0.65
  -8   2  -1   18.32    0.58
  -8   2  -1   18.26    0.89
  -8   2  -1   18.02    0.71
  -8   2  -1   17.53    0.65
   8  -2   1   18.83    0.92
   8  -2   1   18.24    0.72
   8  -2   1   18.12    0.69
  -9   2  -1    3.40    0.27
  -9   2  -1    3.32    0.16
   9  -2   1    3.47    0.20
   9   1  -1   24.56    1.03
   9   1  -1   23.06    0.89
   9   1  -1   24.57    1.08
  -9  -1   1   24.08    0.69
  -9  -1   1   23.74    1.02
   8   1  -1   33.81    1.57
   8   1  -1   35.66    1.47
   8   1  -1   35.48    1.27
  -8  -1   1   36.09    1.59
  -8  -1   1   36.21    1.56
  -8  -1   1   34.84    1.41
  -8  -1   1   34.97    1.29
   7   1  -1   35.67    1.29
   7   1  -1   34.08    1.58
   7   1  -1   34.63    1.22
  -7  -1   1   34.95    2.12
  -7  -1   1   35.37    1.68
  -7  -1   1   35.90    1.48
  -7  -1   1   36.65    1.35
   6   1  -1    1.12    0.21
   6   1  -1    1.09    0.14
   6   1  -1    0.95    0.13
   6   1  -1    1.08    0.14
  -6  -1   1    1.04    0.23
  -6  -1   1    0.85    0.34
  -6  -1   1    1.58    0.22
  -6  -1   1    0.94    0.24
  -6  -1   1    1.17    0.18
   5   1  -1  143.24    4.36
  -5  -1   1  147.63    4.41
  -5  -1   1  148.95    5.84
  -5  -1   1  149.33    4.96
  -5  -1   1  147.40    4.96
   4   1  -1   18.06    0.76
   4   1  -1   18.85    0.64
   4   1  -1   16.30    1.16
  -4  -1   1   18.67    0.83
  -4  -1   1   19.53    0.90
  -4  -1   1   19.48    1.17
   3   1  -1   50.87    1.27
   3   1  -1   48.41    2.44
  -3  -1   1   51.60    2.13
  -3  -1   1   50.62    1.79
   2   1  -1  350.28   14.31
  -2  -1   1  358.09   10.83
   1   1  -1   25.88    0.86
  -1  -1   1   23.51    0.81
   0   1  -1   13.34    0.58
   0   1  -1   13.69    0.45
   0  -1   1   13.72    0.55
  -1   1  -1   90.47    2.82
  -1   1  -1   96.60    3.25
   1  -1   1   75.63    4.01
   1  -1   1   92.95    2.95
  -2   1  -1    4.43    0.31
   2  -1   1    4.38    0.38
   2  -1   1    4.14    0.27
   3  -1   1    4.24    0.45
   3  -1   1    4.41    0.33
  -4   1  -1  185.44    5.61
   4  -1   1  194.91    6.64
   4  -1   1  192.04    5.57
  -5   1  -1   18.11    0.76
  -5   1  -1   15.70    0.96
   5  -1   1   16.55    0.89
  -6   1  -1   46.65    1.65
  -6   1  -1   46.44    2.07
  -6   1  -1   46.36    2.00
   6  -1   1   45.09    1.59
   6  -1   1   44.15    1.85
   6  -1   1   44.45    1.96
   6  -1   1   47.81    1.52
   6  -1   1   46.87    1.87
  -7   1  -1    7.66    0.59
  -7   1  -1    7.30    0.36
   7  -1   1    7.42    0.42
   7  -1   1    7.34    0.39
   7  -1   1    6.82    0.50
   7  -1   1    7.51    0.53
  -8   1  -1   27.02    0.90
  -8   1  -1   28.20    0.80
  -8   1  -1   28.84    1.24
   8  -1   1   28.35    1.27
   8  -1   1   26.04    1.21
   8  -1   1   28.83    0.96
   8  -1   1   27.51    0.98
  -9   1  -1    0.36    0.10
   9  -1   1    0.61    0.09
   9   0  -1    2.57    0.22
   9   0  -1    2.24    0.24
  -9   0   1    2.30    0.26
  -9   0   1    2.56    0.17
   8   0  -1    6.14    0.47
   8   0  -1    5.75    0.36
   8   0  -1    5.95    0.43
  -8   0   1    5.69    0.48
  -8   0   1    5.74    0.39
  -8   0   1    5.91    0.51
   7   0  -1   46.00    2.09
   7   0  -1   48.81    1.95
   7   0  -1   51.51    1.71
  -7   0   1   48.73    1.71
  -7   0   1   48.74    2.68
  -7   0   1   48.15    2.08
   6   0  -1   15.04    0.85
   6   0  -1   16.33    0.68
   6   0  -1   16.41    0.85
  -6   0   1   15.92    1.30
  -6   0   1   15.73    0.71
  -6   0   1   14.97    0.94
  -6   0   1   14.26    0.94
   5   0  -1   73.31    2.43
  -5   0   1   74.04    3.33
  -5   0   1   74.21    2.52
  -5   0   1   72.98    2.72
  -5   0   1   74.20    2.61
   4   0  -1    2.35    0.24
  -4   0   1    2.48    0.38
  -4   0   1    2.20    0.28
   3   0  -1   74.80    3.17
  -3   0   1   71.29    2.83
   2   0  -1   48.40    2.04
  -2   0   1   48.13    1.84
  -2   0   1   46.56    1.62
  -2   0   1   51.51    2.33
   1   0  -1   32.02    1.21
   1   0  -1   33.34    1.12
  -1   0   1   32.21    1.04
   0   0  -1   15.88    0.54
   0   0  -1   16.57    0.58
   0   0  -1   16.69    0.67
   0   0   1   16.63    0.56
   1   0   1    1.30    0.17
  -2   0  -1    1.47    0.17
   2   0   1    1.08    0.09
   2   0   1    0.89    0.19
   2   0   1    1.02    0.15
  -3   0  -1  206.56    6.69
  -3   0  -1  209.48    7.82
   3   0   1  209.53    7.02
   3   0   1  215.48    5.95
  -4   0  -1   12.33    0.73
  -4   0  -1   12.00    1.04
   4   0   1   11.88    0.64
  -5   0  -1   11.83    0.81
  -5   0  -1   12.89    0.63
   5   0   1   12.54    0.73
  -6   0  -1   81.55    2.92
  -6   0  -1   81.34    3.12
  -6   0  -1   79.55    3.10
  -6   0  -1   80.86    3.12
  -6   0  -1   80.77    2.62
   6   0   1   78.07    2.98
   6   0   1   78.96    2.43
   6   0   1   81.78    2.80
   6   0   1   76.82    2.57
  -7   0  -1    9.11    0.55
  -7   0  -1    8.90    0.65
   7   0   1    9.68    0.60
   7   0   1    9.04    0.55
   7   0   1    8.71    0.45
   7   0   1    8.37    0.66
   7   0   1   10.15    0.47
   7   0   1    8.46    0.43
  -8   0  -1   11.98    0.43
  -8   0  -1   12.23    0.67
  -8   0  -1   11.50    0.46
   8   0   1   10.84    0.62
   8   0   1   12.03    0.48
   8   0   1   12.50    0.66
  -9   0  -1   10.21    0.54
   9   0   1   10.31    0.41
   9  -1  -1   37.90    1.61
   9  -1  -1   39.09    1.41
  -9   1   1   39.55    1.02
  -9   1   1   39.11    1.55
   8  -1  -1    0.61    0.16
   8  -1  -1    0.56    0.15
   8  -1  -1    0.83    0.19
  -8   1   1    1.36    0.18
  -8   1   1    0.86    0.25
   7  -1  -1   16.16    0.94
   7  -1  -1   17.49    0.76
   7  -1  -1   17.93    0.89
   7  -1  -1   17.10    0.71
   7  -1  -1   16.46    0.75
  -7   1   1   17.81    0.78
  -7   1   1   18.72    1.46
   6  -1  -1    9.70    0.55
   6  -1  -1    9.77    0.87
   6  -1  -1    8.63    0.46
   6  -1  -1    8.97    0.60
  -6   1   1    8.99    0.74
  -6   1   1    9.83    0.99
  -6   1   1    9.73    0.50
  -6   1   1    9.81    0.73
   5  -1  -1   73.71    2.55
  -5   1   1   78.21    2.64
  -5   1   1   74.50    2.62
  -5   1   1   76.49    3.42
   4  -1  -1    0.24    0.11
  -4   1   1    0.26    0.14
  -4   1   1    1.11    0.27
  -4   1   1    0.42    0.16
   3  -1  -1  202.98    5.76
  -3   1   1  208.11    7.14
  -3   1   1  207.47    5.65
  -3   1   1  203.28    6.47
   2  -1  -1    1.00    0.14
   2  -1  -1    1.69    0.19
  -2   1   1    0.97    0.11
  -2   1   1    1.04    0.16
   1  -1  -1    1.91    0.16
   1  -1  -1    1.60    0.13
  -1   1   1    1.41    0.15
   0  -1  -1   19.97    0.74
   0   1   1   19.60    0.72
  -1  -1  -1  339.44   10.48
   1   1   1  351.27    8.81
   1   1   1  338.87   10.75
  -2  -1  -1    5.99    0.38
   2   1   1    5.51    0.35
  -3  -1  -1    4.24    0.56
  -3  -1  -1    4.05    0.36
   3   1   1    3.94    0.23
  -4  -1  -1    8.84    0.88
  -4  -1  -1    8.55    0.47
  -4  -1  -1    8.10    0.59
   4   1   1    8.07    0.39
   4   1   1    7.32    0.80
   4   1   1    7.55    0.50
  -5  -1  -1   67.67    2.62
  -5  -1  -1   66.68    2.19
  -5  -1  -1   61.54    2.67
   5   1   1   65.93    2.30
   5   1   1   66.63    2.18
  -6  -1  -1    8.60    0.58
  -6  -1  -1    8.46    0.52
  -6  -1  -1    8.72    0.70
  -6  -1  -1    8.91    0.67
   6   1   1    9.17    0.43
   6   1   1    8.39    0.44
   6   1   1    8.20    0.62
   6   1   1    8.69    0.42
  -7  -1  -1   61.58    2.33
  -7  -1  -1   61.21    2.43
   7   1   1   64.07    1.94
   7   1   1   61.49    2.57
   7   1   1   64.47    2.05
   7   1   1   61.34    2.37
   7   1   1   62.26    2.30
  -8  -1  -1    9.01    0.53
  -8  -1  -1    9.40    0.49
  -8  -1  -1    9.37    0.35
   8   1   1    9.78    0.55
   8   1   1    8.90    0.49
   9  -2  -1    3.36    0.26
  -9   2   1    3.47    0.22
  -9   2   1    3.24    0.29
  -9   2   1    3.13    0.17
   8  -2  -1    6.09    0.49
   8  -2  -1    6.40    0.37
   8  -2  -1    6.26    0.39
   8  -2  -1    6.78    0.45
  -8   2   1    6.81    0.53
  -8   2   1    6.71    0.32
   7  -2  -1   33.38    1.49
   7  -2  -1   33.80    1.26
   7  -2  -1   32.51    1.18
   7  -2  -1   32.81    1.57
  -7   2   1   31.93    1.20
  -7   2   1   32.38    1.60
   6  -2  -1    0.86    0.14
   6  -2  -1    1.33    0.22
   6  -2  -1    1.07    0.30
   6  -2  -1    0.93    0.17
   6  -2  -1    1.19    0.18
  -6   2   1    1.18    0.38
  -6   2   1    1.05    0.16
   5  -2  -1   87.79    3.58
  -5   2   1   92.31    3.10
  -5   2   1   91.19    3.35
  -5   2   1   90.50    3.93
   4  -2  -1   26.59    1.37
  -4   2   1   28.81    1.24
  -4   2   1   27.93    1.24
  -4   2   1   27.51    1.54
   3  -2  -1   38.20    1.57
   3  -2  -1   40.45    1.56
   3  -2  -1   41.23    1.68
  -3   2   1   38.20    1.74
  -3   2   1   36.70    1.44
  -3   2   1   37.14    1.39
   2  -2  -1   45.40    1.68
   2  -2  -1   46.29    1.61
   2  -2  -1   49.37    1.66
  -2   2   1   44.02    1.42
  -2   2   1   46.19    1.48
   1  -2  -1  243.04    7.44
   1  -2  -1  230.97    7.41
  -1   2   1  237.47    6.15
  -1   2   1  228.85    6.39
  -1   2   1  230.21    9.52
   0  -2  -1    4.25    0.27
   0   2   1    4.76    0.24
   0   2   1    3.80    0.42
  -1  -2  -1    0.13    0.07
   1   2   1    0.26    0.17
   1   2   1    0.10    0.05
  -2  -2  -1   18.41    0.85
   2   2   1   19.19    0.96
   2   2   1   18.59    1.29
   2   2   1   17.91    0.79
  -3  -2  -1  332.19   10.25
  -3  -2  -1  337.43   11.67
   3   2   1  310.90   11.59
   3   2   1  313.11   10.08
   3   2   1  325.84   13.66
  -4  -2  -1    0.60    0.14
  -4  -2  -1    0.26    0.14
   4   2   1    0.37    0.10
   4   2   1    0.34    0.22
  -5  -2  -1   22.66    1.17
  -5  -2  -1   20.75    1.04
  -5  -2  -1   23.50    1.27
  -5  -2  -1   21.33    1.25
  -5  -2  -1   22.11    1.08
  -5  -2  -1   22.96    0.96
  -5  -2  -1   21.82    1.00
   5   2   1   22.85    0.81
   5   2   1   22.01    1.07
   5   2   1   22.57    0.89
   5   2   1   21.77    0.80
   5   2   1   22.28    0.86
   5   2   1   22.31    1.13
  -6  -2  -1    3.10    0.37
  -6  -2  -1    3.04    0.30
  -6  -2  -1    3.05    0.42
  -6  -2  -1    2.70    0.33
  -6  -2  -1    2.71    0.31
   6   2   1    3.03    0.24
   6   2   1    3.19    0.24
   6   2   1    3.37    0.23
   6   2   1    3.23    0.39
  -7  -2  -1   44.83    1.78
  -7  -2  -1   43.28    1.77
   7   2   1   43.67    1.41
   7   2   1   46.82    1.93
   7   2   1   46.24    1.52
   7   2   1   44.93    1.73
   7   2   1   42.38    1.71
  -8  -2  -1    0.86    0.09
  -8  -2  -1    1.22    0.15
   8   2   1    0.66    0.12
   9  -3  -1   19.52    0.78
   9  -3  -1   18.76    0.69
  -9   3   1   18.79    0.53
  -9   3   1   18.60    0.72
  -9   3   1   19.32    0.64
  -9   3   1   19.18    0.81
   8  -3  -1   22.85    1.17
   8  -3  -1   21.30    1.09
   8  -3  -1   22.92    0.99
   8  -3  -1   23.16    0.92
   8  -3  -1   22.53    0.86
  -8   3   1   22.15    1.05
  -8   3   1   23.06    0.69
   7  -3  -1    6.09    0.42
   7  -3  -1    6.13    0.45
   7  -3  -1    5.98    0.52
   7  -3  -1    5.90    0.39
  -7   3   1    6.07    0.50
  -7   3   1    6.11    0.31
  -7   3   1    5.78    0.61
   6  -3  -1    7.07    0.43
   6  -3  -1    7.90    0.57
   6  -3  -1    7.13    0.46
   6  -3  -1    6.90    0.74
   6  -3  -1    7.12    0.56
  -6   3   1    6.93    0.33
  -6   3   1    6.51    0.64
   5  -3  -1   33.96    1.79
  -5   3   1   37.15    2.01
  -5   3   1   37.11    1.65
  -5   3   1   37.27    1.68
   4  -3  -1   17.48    1.01
   4  -3  -1   19.09    1.14
  -4   3   1   16.95    0.90
  -4   3   1   16.49    1.10
  -4   3   1   17.45    0.94
   3  -3  -1  212.91    7.13
   3  -3  -1  216.93    7.03
   3  -3  -1  228.67    7.34
  -3   3   1  206.29    7.75
  -3   3   1  223.94    6.27
   2  -3  -1   60.37    2.53
   2  -3  -1   53.77    2.02
   2  -3  -1   59.93    2.11
   2  -3  -1   63.92    2.16
  -2   3   1   64.30    1.95
  -2   3   1   57.67    2.18
   1  -3  -1   34.38    1.24
   1  -3  -1   36.64    1.30
   1  -3  -1   36.33    1.67
  -1   3   1   36.64    1.21
  -1   3   1   34.53    1.78
   0  -3  -1    5.55    0.34
   0  -3  -1    6.33    0.55
   0   3   1    5.77    0.32
   0   3   1    4.57    0.55
   0   3   1    6.34    0.33
   0   3   1    5.60    0.36
  -1  -3  -1  177.83    6.20
   1   3   1  187.65    5.01
   1   3   1  196.36    5.13
   1   3   1  197.87    8.31
  -2  -3  -1    0.41    0.14
   2   3   1    0.19    0.13
   2   3   1    0.46    0.27
  -3  -3  -1   15.00    0.89
   3   3   1   15.47    1.34
   3   3   1   15.67    0.99
  -4  -3  -1   37.00    1.73
  -4  -3  -1   39.28    1.36
   4   3   1   33.26    2.38
   4   3   1   35.57    1.16
  -5  -3  -1  220.81    6.38
  -5  -3  -1  210.46    7.28
  -5  -3  -1  224.42    7.35
  -5  -3  -1  205.79    7.04
  -5  -3  -1  201.83    6.55
  -5  -3  -1  229.68    7.65
   5   3   1  217.74    6.64
   5   3   1  218.75    6.01
   5   3   1  209.28    9.72
   5   3   1  212.75    6.39
   5   3   1  218.57    4.97
   5   3   1  211.46    6.14
   5   3   1  216.13    8.48
   5   3   1  218.11    6.57
  -6  -3  -1    4.64    0.43
  -6  -3  -1    4.98    0.51
  -6  -3  -1    5.21    0.46
  -6  -3  -1    4.59    0.35
  -6  -3  -1    4.45    0.40
   6   3   1    4.43    0.30
   6   3   1    4.23    0.43
   6   3   1    4.66    0.27
   6   3   1    5.12    0.33
   6   3   1    4.73    0.30
  -7  -3  -1    6.64    0.47
   7   3   1    6.95    0.34
   7   3   1    7.70    0.37
   7   3   1    6.63    0.46
  -8  -3  -1    6.01    0.34
   8   3   1    6.07    0.34
   9  -4  -1    2.19    0.17
   9  -4  -1    2.46    0.20
  -9   4   1    2.58    0.15
  -9   4   1    2.40    0.18
   8  -4  -1   39.90    1.48
   8  -4  -1   37.82    1.69
   8  -4  -1   39.35    1.40
  -8   4   1   40.22    1.21
  -8   4   1   38.44    1.30
  -8   4   1   40.00    1.02
  -8   4   1   37.88    1.51
   7  -4  -1   13.74    0.67
   7  -4  -1   14.45    0.71
   7  -4  -1   14.14    0.74
  -7   4   1   14.13    0.60
  -7   4   1   13.28    0.74
  -7   4   1   14.51    0.50
  -7   4   1   12.69    0.94
   6  -4  -1    9.82    0.60
   6  -4  -1    9.87    0.72
   6  -4  -1    9.44    0.87
   6  -4  -1   10.24    0.56
   6  -4  -1    9.96    0.59
  -6   4   1   10.60    0.87
  -6   4   1   10.36    0.85
   5  -4  -1   18.37    1.00
   5  -4  -1   17.66    0.83
   5  -4  -1   17.25    0.78
   5  -4  -1   17.29    1.13
  -5   4   1   19.03    1.12
  -5   4   1   19.36    1.11
   4  -4  -1    7.16    0.79
   4  -4  -1    7.29    0.59
  -4   4   1    6.60    0.57
  -4   4   1    6.42    0.54
   3  -4  -1    8.70    0.57
   3  -4  -1    8.51    0.88
  -3   4   1    8.74    0.60
   2  -4  -1   49.87    2.44
   2  -4  -1   47.93    1.82
  -2   4   1   51.50    1.74
   1  -4  -1  128.87    4.75
   1  -4  -1  130.67    4.23
  -1   4   1  132.78    3.57
  -1   4   1  124.53    3.60
  -1   4   1  124.26    4.24
  -1   4   1  127.28    5.64
   0  -4  -1  138.43    4.52
   0  -4  -1  140.51    4.89
   0   4   1  137.22    3.83
   0   4   1  134.64    3.76
   0   4   1  133.52    4.52
   0   4   1  135.19    6.09
  -1  -4  -1   19.43    0.93
   1   4   1   19.99    0.83
   1   4   1   19.05    0.73
   1   4   1   21.35    1.52
  -2  -4  -1    2.89    0.34
   2   4   1    3.06    0.38
   2   4   1    2.77    0.56
  -3  -4  -1  106.74    4.16
   3   4   1  121.40    5.67
   3   4   1  106.89    4.49
  -4  -4  -1    2.40    0.40
  -4  -4  -1    3.56    0.45
  -4  -4  -1    2.38    0.31
  -4  -4  -1    3.07    0.36
  -4  -4  -1    1.67    0.29
   4   4   1    2.56    0.28
   4   4   1    2.14    0.22
   4   4   1    1.94    0.20
   4   4   1    1.78    0.36
   4   4   1    2.18    0.22
   4   4   1    3.25    0.62
   4   4   1    2.19    0.28
  -5  -4  -1    3.58    0.41
  -5  -4  -1    3.99    0.41
  -5  -4  -1    4.34    0.49
  -5  -4  -1    4.36    0.42
   5   4   1    4.48    0.36
   5   4   1    4.37    0.43
   5   4   1    4.17    0.29
   5   4   1    4.09    0.38
   5   4   1    3.88    0.30
  -6  -4  -1   32.49    1.42
  -6  -4  -1   32.44    1.32
  -6  -4  -1   33.05    1.41
   6   4   1   32.63    1.10
   6   4   1   33.23    1.18
   6   4   1   32.01    1.20
  -7  -4  -1   39.72    1.51
  -7  -4  -1   43.51    1.60
   7   4   1   41.24    1.70
   7   4   1   41.63    1.27
   7   4   1   42.60    1.38
   9  -5  -1    0.49    0.07
  -9   5   1    0.47    0.08
   8  -5  -1    3.62    0.28
   8  -5  -1    3.33    0.27
   8  -5  -1    3.20    0.32
  -8   5   1    3.58    0.27
  -8   5   1    3.33    0.24
  -8   5   1    3.13    0.20
   7  -5  -1    1.07    0.19
   7  -5  -1    0.98    0.18
   7  -5  -1    1.46    0.27
  -7   5   1    0.87    0.15
  -7   5   1    0.93    0.14
   6  -5  -1  126.81    4.02
   6  -5  -1  132.99    4.87
   6  -5  -1  122.65    4.18
  -6   5   1  123.98    4.30
  -6   5   1  120.69    3.36
   5  -5  -1    8.23    0.53
   5  -5  -1    8.33    0.62
   5  -5  -1    8.20    0.51
   5  -5  -1    8.85    0.69
  -5   5   1    8.00    0.72
  -5   5   1    8.04    0.73
   4  -5  -1    1.16    0.42
  -4   5   1    1.76    0.30
  -4   5   1    1.32    0.28
   3  -5  -1   26.79    1.88
  -3   5   1   26.86    1.26
  -3   5   1   27.94    0.95
   2  -5  -1   11.21    1.13
  -2   5   1   11.81    0.71
  -2   5   1   11.99    0.48
  -2   5   1   11.51    0.62
   1  -5  -1    6.74    0.82
  -1   5   1    7.66    0.33
  -1   5   1    7.69    0.49
  -1   5   1    7.69    0.53
  -1   5   1    7.69    0.48
   0  -5  -1  124.43    4.86
   0  -5  -1  132.41    4.33
   0   5   1  125.91    5.94
   0   5   1  129.05    3.73
  -1  -5  -1   45.50    1.78
   1   5   1   43.86    1.59
   1   5   1   45.13    2.69
   1   5   1   42.60    1.42
  -2  -5  -1   93.57    3.47
   2   5   1   88.70    3.83
   2   5   1   97.71    4.87
  -3  -5  -1    1.92    0.30
  -3  -5  -1    2.03    0.28
  -3  -5  -1    2.38    0.31
  -3  -5  -1    2.11    0.33
  -3  -5  -1    2.28    0.37
   3   5   1    2.28    0.23
   3   5   1    2.38    0.55
   3   5   1    2.65    0.25
   3   5   1    2.03    0.38
  -4  -5  -1    9.53    0.61
  -4  -5  -1   10.38    0.68
  -4  -5  -1   10.28    0.71
  -4  -5  -1   11.32    0.69
  -4  -5  -1   10.66    0.75
   4   5   1   10.35    0.52
   4   5   1   10.11    0.53
   4   5   1   10.03    0.58
   4   5   1   10.11    0.54
   4   5   1   10.10    0.87
   4   5   1   10.42    0.67
  -5  -5  -1   23.50    1.16
  -5  -5  -1   22.73    1.07
  -5  -5  -1   23.54    1.10
   5   5   1   23.32    0.92
   5   5   1   22.89    1.15
   5   5   1   23.88    0.91
   5   5   1   21.94    0.89
   5   5   1   21.59    1.06
  -6  -5  -1    8.77    0.52
  -6  -5  -1    9.02    0.57
  -6  -5  -1    8.26    0.52
   6   5   1    8.61    0.41
   6   5   1    8.64    0.40
  -7  -5  -1   12.96    0.59
  -7  -5  -1   15.72    0.65
   7   5   1   14.75    0.64
   7   5   1   15.19    0.53
   8  -6  -1    8.32    0.40
   8  -6  -1    9.53    0.45
   8  -6  -1    9.20    0.53
  -8   6   1    9.41    0.40
  -8   6   1    9.06    0.39
   7  -6  -1    1.12    0.23
   7  -6  -1    0.96    0.16
   7  -6  -1    1.04    0.19
   7  -6  -1    1.04    0.18
  -7   6   1    1.11    0.16
  -7   6   1    1.23    0.17
   6  -6  -1   11.96    0.66
   6  -6  -1   11.30    0.77
   6  -6  -1   11.55    0.81
  -6   6   1   10.87    0.72
  -6   6   1   10.88    0.56
  -6   6   1   10.67    0.55
   5  -6  -1    0.18    0.19
   5  -6  -1    0.09    0.24
   5  -6  -1    0.40    0.19
   5  -6  -1    0.12    0.14
  -5   6   1    0.22    0.14
  -5   6   1    0.46    0.13
  -5   6   1    0.11    0.11
   4  -6  -1  152.23    5.90
   4  -6  -1  144.31    4.43
   4  -6  -1  138.30    5.32
   4  -6  -1  131.64    5.47
  -4   6   1  143.06    4.11
  -4   6   1  142.90    5.05
  -4   6   1  136.03    4.16
   3  -6  -1    0.04    0.30
   3  -6  -1    0.76    0.22
   3  -6  -1    0.49    0.14
   3  -6  -1    1.07    0.26
   3  -6  -1    0.63    0.22
  -3   6   1    0.69    0.19
  -3   6   1    1.04    0.14
  -3   6   1    0.49    0.17
  -3   6   1    0.86    0.19
   2  -6  -1    0.35    0.37
  -2   6   1    0.92    0.13
  -2   6   1    0.53    0.17
  -2   6   1    0.50    0.15
  -2   6   1    0.47    0.15
   1  -6  -1   10.06    1.10
  -1   6   1   10.73    0.71
  -1   6   1   10.62    0.65
   0  -6  -1   17.83    1.40
   0   6   1   17.59    0.90
  -1  -6  -1    4.90    0.48
  -1  -6  -1    5.23    0.47
   1   6   1    4.89    0.28
   1   6   1    4.49    0.76
  -2  -6  -1  141.13    4.64
  -2  -6  -1  127.76    4.23
  -2  -6  -1  139.68    4.32
   2   6   1  128.98    4.20
   2   6   1  132.71    6.57
   2   6   1  129.66    4.13
   2   6   1  127.31    3.44
   2   6   1  127.41    5.27
  -3  -6  -1    0.42    0.20
  -3  -6  -1    0.41    0.21
  -3  -6  -1    0.40    0.20
   3   6   1    0.30    0.13
   3   6   1    0.68    0.15
   3   6   1    1.34    0.31
   3   6   1    0.90    0.20
  -4  -6  -1   50.65    1.90
  -4  -6  -1   53.81    1.98
  -4  -6  -1   56.01    2.08
  -4  -6  -1   48.96    2.07
   4   6   1   51.18    2.27
   4   6   1   56.59    1.84
   4   6   1   51.05    1.61
   4   6   1   52.16    1.80
  -5  -6  -1    9.00    0.60
  -5  -6  -1    8.42    0.52
  -5  -6  -1    8.72    0.53
   5   6   1    8.46    0.42
   5   6   1    8.71    0.41
   5   6   1    8.29    0.42
  -6  -6  -1    8.26    0.48
  -6  -6  -1    7.82    0.43
  -6  -6  -1    8.30    0.44
   6   6   1    8.27    0.36
   6   6   1    8.13    0.35
   8  -7  -1   10.72    0.52
  -8   7   1   10.48    0.40
   7  -7  -1    0.62    0.17
   7  -7  -1    0.51    0.14
   7  -7  -1    0.78    0.14
  -7   7   1    0.50    0.09
  -7   7   1    0.61    0.10
  -7   7   1    0.65    0.12
   6  -7  -1   15.49    0.90
   6  -7  -1   15.12    0.74
   6  -7  -1   15.36    0.90
   6  -7  -1   14.75    0.87
  -6   7   1   14.05    0.79
  -6   7   1   14.64    0.63
  -6   7   1   14.34    0.60
   5  -7  -1    4.05    0.45
   5  -7  -1    4.01    0.47
   5  -7  -1    4.11    0.43
   5  -7  -1    3.78    0.36
  -5   7   1    3.21    0.39
  -5   7   1    3.37    0.39
  -5   7   1    4.09    0.29
   4  -7  -1   32.44    2.23
   4  -7  -1   31.95    1.58
   4  -7  -1   32.39    1.28
   4  -7  -1   31.61    1.57
   4  -7  -1   29.44    1.63
  -4   7   1   30.35    1.34
  -4   7   1   32.12    1.12
  -4   7   1   33.17    1.39
   3  -7  -1   12.25    0.87
   3  -7  -1   11.46    1.34
   3  -7  -1   11.80    0.87
   3  -7  -1   11.82    0.76
  -3   7   1   12.06    0.75
  -3   7   1   11.84    0.73
  -3   7   1   13.52    0.61
   2  -7  -1  164.43    5.95
   2  -7  -1  160.23    6.46
   2  -7  -1  151.47    5.92
  -2   7   1  146.28    5.33
  -2   7   1  154.49    4.79
  -2   7   1  156.79    4.62
   1  -7  -1   12.05    0.79
   1  -7  -1   11.92    0.81
   1  -7  -1   13.29    0.90
   1  -7  -1   12.86    1.32
  -1   7   1   13.16    0.79
   0  -7  -1    3.56    0.40
   0  -7  -1    3.56    0.43
   0   7   1    3.64    0.27
   0   7   1    3.80    0.42
   0   7   1    3.64    0.25
  -1  -7  -1    8.28    0.67
  -1  -7  -1   10.46    0.70
   1   7   1   10.87    0.53
   1   7   1   10.30    0.44
   1   7   1    9.25    0.83
   1   7   1    9.39    0.48
  -2  -7  -1    6.41    0.52
  -2  -7  -1    6.73    0.56
  -2  -7  -1    7.04    0.51
   2   7   1    6.86    0.38
   2   7   1    6.76    0.43
   2   7   1    6.31    0.67
   2   7   1    6.79    0.41
  -3  -7  -1    3.24    0.37
  -3  -7  -1    3.26    0.34
  -3  -7  -1    2.52    0.31
   3   7   1    2.47    0.24
   3   7   1    2.88    0.29
   3   7   1    2.51    0.25
   3   7   1    2.75    0.24
  -4  -7  -1  102.15    3.17
  -4  -7  -1  102.14    3.46
   4   7   1   99.82    3.11
   4   7   1   92.54    3.92
   4   7   1   96.85    3.11
  -5  -7  -1    0.13    0.11
  -5  -7  -1    0.33    0.08
  -5  -7  -1    0.24    0.14
  -5  -7  -1    0.04    0.12
   5   7   1    0.27    0.07
   5   7   1    0.10    0.07
   5   7   1    0.12    0.06
   6   7   1    5.82    0.22
   7  -8  -1   11.47    0.59
   7  -8  -1   14.38    0.66
  -7   8   1   14.87    0.52
   6  -8  -1    3.00    0.31
   6  -8  -1    3.18    0.32
   6  -8  -1    3.71    0.35
  -6   8   1    3.98    0.26
   5  -8  -1    2.23    0.30
   5  -8  -1    2.58    0.35
  -5   8   1    2.56    0.23
  -5   8   1    1.99    0.28
   4  -8  -1   12.07    0.86
   4  -8  -1   13.04    0.84
   4  -8  -1   12.97    0.78
  -4   8   1   13.21    0.60
  -4   8   1   12.45    0.74
   3  -8  -1    5.12    0.52
   3  -8  -1    5.58    0.55
  -3   8   1    4.62    0.44
  -3   8   1    4.62    0.32
   2  -8  -1   29.56    1.49
   2  -8  -1   28.61    1.45
  -2   8   1   26.88    1.03
  -2   8   1   26.19    1.01
  -2   8   1   26.65    1.23
   1  -8  -1   36.56    1.70
   1  -8  -1   32.96    1.64
   1  -8  -1   34.90    1.48
  -1   8   1   35.03    1.25
  -1   8   1   35.01    1.47
  -1   8   1   33.93    1.09
   0  -8  -1   88.28    3.02
   0  -8  -1   82.88    4.12
   0   8   1   85.53    2.74
   0   8   1   86.86    2.36
   0   8   1   84.39    3.70
   0   8   1   88.17    2.80
  -1  -8  -1   31.77    1.41
  -1  -8  -1   32.70    1.38
   1   8   1   32.23    1.18
   1   8   1   31.29    1.11
   1   8   1   27.80    1.66
   1   8   1   31.22    0.98
   1   8   1   30.83    1.19
  -2  -8  -1    2.09    0.29
  -2  -8  -1    2.07    0.29
   2   8   1    2.20    0.22
   2   8   1    2.37    0.23
  -3  -8  -1   15.20    0.78
  -3  -8  -1   14.34    0.71
  -3  -8  -1   14.47    0.66
   3   8   1   14.79    0.63
   3   8   1   13.65    0.59
   3   8   1   14.56    0.61
  -4  -8  -1    0.46    0.17
  -4  -8  -1    0.25    0.12
   4   8   1    0.11    0.06
   4   8   1    0.24    0.06
  -5  -8  -1   10.77    0.46
   5   8   1   10.14    0.35
   6  -9  -1   24.31    1.10
   6  -9  -1   28.29    1.14
  -6   9   1   28.98    0.89
  -6   9   1   27.24    0.74
  -6   9   1   26.96    0.89
   5  -9  -1   28.43    1.31
   5  -9  -1   29.95    1.33
  -5   9   1   28.16    0.84
  -5   9   1   28.82    0.98
  -5   9   1   27.40    0.98
   4  -9  -1    4.84    0.45
   4  -9  -1    4.26    0.43
  -4   9   1    4.73    0.27
  -4   9   1    4.41    0.25
  -4   9   1    4.68    0.27
   3  -9  -1    2.46    0.34
   3  -9  -1    2.12    0.31
   3  -9  -1    2.76    0.32
  -3   9   1    2.09    0.29
  -3   9   1    2.61    0.20
  -3   9   1    2.43    0.19
  -3   9   1    2.71    0.21
   2  -9  -1    2.74    0.33
   2  -9  -1    2.93    0.35
   2  -9  -1    2.60    0.34
  -2   9   1    2.90    0.22
  -2   9   1    3.01    0.34
  -2   9   1    2.73    0.21
   1  -9  -1   18.45    0.88
   1  -9  -1   17.94    0.98
   1  -9  -1   19.24    0.96
  -1   9   1   18.98    0.66
  -1   9   1   19.91    0.77
  -1   9   1   18.95    0.73
   0  -9  -1   34.23    1.87
   0  -9  -1   36.78    1.43
   0   9   1   34.94    1.27
   0   9   1   34.28    1.20
   0   9   1   35.75    1.27
   0   9   1   38.11    1.07
  -1  -9  -1   46.45    1.65
  -1  -9  -1   45.06    2.30
   1   9   1   46.02    1.53
   1   9   1   43.46    1.45
   1   9   1   44.13    1.54
  -2  -9  -1   33.53    1.23
  -2  -9  -1   34.28    1.76
  -2  -9  -1   34.24    1.28
   2   9   1   31.46    1.12
   2   9   1   30.61    1.10
   2   9   1   32.37    1.13
  -3  -9  -1   15.92    0.87
  -3  -9  -1   14.88    0.63
   3   9   1   14.14    0.53
   3   9   1   12.66    0.49
   4 -10  -1   11.33    0.58
  -4  10   1   11.04    0.36
  -4  10   1   10.78    0.41
  -4  10   1   10.58    0.41
   3 -10  -1   27.90    1.33
   3 -10  -1   30.96    1.35
  -3  10   1   31.51    1.02
  -3  10   1   32.28    1.04
  -3  10   1   32.78    0.88
   2 -10  -1    0.65    0.13
   2 -10  -1    0.61    0.16
  -2  10   1    0.53    0.08
  -2  10   1    0.54    0.08
  -2  10   1    0.63    0.09
  -2  10   1    0.55    0.08
   1 -10  -1    3.67    0.37
  -1  10   1    3.47    0.19
  -1  10   1    3.52    0.20
  -1  10   1    3.51    0.21
   0 -10  -1    0.61    0.16
   0  10   1    0.42    0.06
   0  10   1    0.75    0.09
   0  10   1    0.37    0.07
  -1 -10  -1   23.11    1.21
  -1 -10  -1   26.97    1.17
   1  10   1   26.81    0.86
   3  10  -2   24.72    0.79
   3  10  -2   21.09    0.76
  -3 -10   2   24.08    1.16
  -3 -10   2   25.63    0.85
  -3 -10   2   24.26    0.88
   2  10  -2    0.25    0.07
   2  10  -2    0.16    0.05
  -2 -10   2    0.27    0.10
  -2 -10   2    0.32    0.09
   1  10  -2    5.98    0.30
   1  10  -2    5.38    0.27
  -1 -10   2    5.67    0.37
   0  10  -2    0.56    0.09
   0  10  -2    0.20    0.06
   0 -10   2    0.23    0.11
   0 -10   2    0.06    0.10
  -1  10  -2   21.31    0.79
  -1  10  -2   23.13    0.81
   1 -10   2   23.18    1.06
   1 -10   2   21.59    0.84
  -2  10  -2   59.78    1.90
  -2  10  -2   61.32    1.90
   2 -10   2   60.80    2.33
   2 -10   2   58.05    2.30
  -3  10  -2   38.63    1.27
  -3  10  -2   39.39    1.26
   3 -10   2   39.39    1.55
   3 -10   2   38.48    1.56
  -4  10  -2   12.02    0.43
   4 -10   2   11.74    0.56
   5   9  -2   16.17    0.57
  -5  -9   2   17.99    0.69
   4   9  -2   28.80    0.93
   4   9  -2   30.80    1.04
   4   9  -2   31.60    1.04
  -4  -9   2   31.76    1.10
  -4  -9   2   33.16    1.21
  -4  -9   2   30.14    1.05
   3   9  -2   23.97    0.88
   3   9  -2   22.78    0.86
  -3  -9   2   24.57    1.05
  -3  -9   2   24.19    0.97
   2   9  -2  107.59    3.44
   2   9  -2  111.43    3.43
  -2  -9   2  110.48    3.51
  -2  -9   2  112.04    3.75
   1   9  -2   30.00    1.09
   1   9  -2   29.33    1.10
   1   9  -2   35.37    1.14
   1   9  -2   29.07    1.10
  -1  -9   2   30.22    1.28
   0   9  -2    0.68    0.11
   0   9  -2    0.66    0.12
   0   9  -2    0.64    0.12
   0   9  -2    0.57    0.12
   0   9  -2    0.59    0.13
   0  -9   2    1.08    0.36
  -1   9  -2   15.15    0.65
  -1   9  -2   14.95    0.63
  -1   9  -2   14.80    0.56
  -1   9  -2   14.10    0.61
  -1   9  -2   15.15    0.65
   1  -9   2   16.35    0.91
   1  -9   2   14.63    1.26
   1  -9   2   14.39    0.80
  -2   9  -2    0.38    0.12
  -2   9  -2    0.16    0.09
  -2   9  -2    0.57    0.11
   2  -9   2    0.22    0.14
   2  -9   2    0.76    0.22
   2  -9   2    0.07    0.24
  -3   9  -2   25.84    0.80
  -3   9  -2   25.94    0.94
  -3   9  -2   26.08    0.97
   3  -9   2   25.02    1.20
   3  -9   2   25.22    1.23
  -4   9  -2   54.11    1.71
  -4   9  -2   54.46    1.76
   4  -9   2   50.15    2.07
   4  -9   2   54.94    2.18
  -5   9  -2   16.49    0.59
  -5   9  -2   15.24    0.54
   5  -9   2   16.04    0.75
   6   8  -2    8.25    0.31
   6   8  -2    7.81    0.32
   6   8  -2    8.58    0.34
  -6  -8   2    9.24    0.43
  -6  -8   2    8.53    0.38
   5   8  -2   48.54    1.56
   5   8  -2   48.15    1.57
   5   8  -2   47.57    1.43
  -5  -8   2   48.48    1.78
  -5  -8   2   48.58    1.63
  -5  -8   2   46.63    1.57
   4   8  -2   10.11    0.47
   4   8  -2    9.87    0.47
  -4  -8   2    9.54    0.55
  -4  -8   2   10.08    0.62
  -4  -8   2    9.32    0.54
   3   8  -2   20.55    0.83
   3   8  -2   20.17    0.82
  -3  -8   2   20.33    0.91
  -3  -8   2   19.53    0.98
   2   8  -2   60.19    1.99
   2   8  -2   57.27    1.96
   2   8  -2   59.98    2.00
   2   8  -2   59.40    2.00
  -2  -8   2   60.01    2.26
   1   8  -2   11.89    0.56
   1   8  -2   11.47    0.51
   1   8  -2   12.61    0.58
   1   8  -2   12.37    0.57
   1   8  -2   12.49    0.59
  -1  -8   2   12.24    0.73
  -1  -8   2   10.00    0.99
   0   8  -2   82.38    2.68
   0   8  -2   81.74    2.28
   0   8  -2   84.12    2.69
   0   8  -2   83.70    2.67
   0  -8   2   83.92    2.79
   0  -8   2   75.49    3.39
   0  -8   2   85.02    2.96
   0  -8   2   82.61    3.67
  -1   8  -2   27.80    0.93
  -1   8  -2   28.34    1.10
  -1   8  -2   27.98    1.07
   1  -8   2   29.93    1.52
   1  -8   2   26.62    1.18
   1  -8   2   28.75    1.36
   1  -8   2   27.70    1.87
  -2   8  -2    9.67    0.45
  -2   8  -2   10.57    0.55
   2  -8   2   10.59    0.71
   2  -8   2   10.80    0.80
   2  -8   2    9.99    1.10
  -3   8  -2   10.60    0.46
  -3   8  -2   11.31    0.57
  -3   8  -2   11.28    0.49
   3  -8   2   11.51    0.80
   3  -8   2   10.82    1.10
   3  -8   2   10.89    0.75
   3  -8   2   11.11    0.72
  -4   8  -2    0.51    0.11
  -4   8  -2    0.97    0.16
   4  -8   2    0.82    0.35
   4  -8   2    1.73    0.27
   4  -8   2    0.80    0.21
   4  -8   2    0.90    0.14
   4  -8   2    0.75    0.18
  -5   8  -2   28.14    1.01
  -5   8  -2   26.80    0.92
   5  -8   2   26.22    0.98
   5  -8   2   28.01    1.27
   5  -8   2   27.97    1.25
  -6   8  -2   15.75    0.56
  -6   8  -2   16.86    0.60
   6  -8   2   17.78    0.78
   6  -8   2   17.42    0.77
   7   7  -2    1.13    0.10
  -7  -7   2    1.21    0.13
  -7  -7   2    0.97    0.11
   6   7  -2   51.59    1.67
   6   7  -2   51.02    1.54
  -6  -7   2   50.07    1.85
  -6  -7   2   51.07    1.75
  -6  -7   2   50.88    1.86
   5   7  -2    1.42    0.16
   5   7  -2    1.39    0.16
   5   7  -2    1.51    0.17
  -5  -7   2    1.10    0.18
  -5  -7   2    1.48    0.20
  -5  -7   2    1.28    0.24
  -5  -7   2    2.10    0.27
   4   7  -2    0.39    0.12
   4   7  -2    0.11    0.11
   4   7  -2    0.14    0.09
  -4  -7   2    0.05    0.13
  -4  -7   2    0.18    0.11
  -4  -7   2    0.32    0.17
  -4  -7   2    0.13    0.15
   3   7  -2   78.25    2.57
   3   7  -2   76.86    2.53
   3   7  -2   80.12    2.61
   3   7  -2   80.65    2.62
  -3  -7   2   77.74    2.88
  -3  -7   2   80.05    2.71
   2   7  -2   12.83    0.53
   2   7  -2   12.51    0.59
   2   7  -2   12.13    0.59
   2   7  -2   12.69    0.59
   2   7  -2   12.61    0.60
   2   7  -2   12.79    0.58
   2   7  -2   12.05    1.06
  -2  -7   2   12.91    0.73
  -2  -7   2   12.87    0.85
  -2  -7   2   12.38    0.73
  -2  -7   2   11.88    0.68
   1   7  -2   16.32    1.19
   1   7  -2   16.84    0.72
   1   7  -2   16.74    0.73
   1   7  -2   16.56    0.71
   1   7  -2   16.47    0.64
   1   7  -2   17.40    0.73
  -1  -7   2   16.73    0.84
  -1  -7   2   16.64    0.88
  -1  -7   2   17.08    1.24
  -1  -7   2   17.02    0.99
  -1  -7   2   17.86    1.04
   0   7  -2   55.28    1.92
   0   7  -2   56.55    1.89
   0   7  -2   54.42    1.62
   0  -7   2   58.53    2.34
   0  -7   2   55.55    2.71
   0  -7   2   57.39    2.14
   0  -7   2   57.45    2.45
   0  -7   2   55.21    2.45
   0  -7   2   58.32    2.05
  -1   7  -2    0.23    0.12
  -1   7  -2    0.17    0.09
  -1   7  -2    0.26    0.16
   1  -7   2    0.25    0.16
   1  -7   2    0.20    0.18
   1  -7   2    0.26    0.30
   1  -7   2    0.19    0.16
   1  -7   2    0.23    0.17
  -2   7  -2   26.58    0.96
  -2   7  -2   27.17    1.06
   2  -7   2   25.34    1.38
   2  -7   2   26.11    1.80
   2  -7   2   26.23    1.42
  -3   7  -2   17.69    0.80
  -3   7  -2   17.78    0.73
   3  -7   2   18.01    0.77
   3  -7   2   16.81    1.03
   3  -7   2   16.48    1.40
  -4   7  -2   11.61    0.57
  -4   7  -2   11.56    0.61
   4  -7   2   11.05    0.73
   4  -7   2   12.62    0.81
   4  -7   2   12.56    0.79
   4  -7   2   11.62    0.59
   4  -7   2   11.34    1.06
  -5   7  -2    9.15    0.49
  -5   7  -2    8.84    0.46
   5  -7   2    7.89    0.53
   5  -7   2    9.34    0.63
   5  -7   2    8.77    0.48
  -6   7  -2    3.62    0.25
  -6   7  -2    4.71    0.27
   6  -7   2    3.44    0.31
   6  -7   2    3.54    0.26
  -7   7  -2    1.71    0.11
   7  -7   2    1.22    0.14
   7  -7   2    1.29    0.11
   8   6  -2    2.89    0.15
  -8  -6   2    2.80    0.18
   7   6  -2   45.26    1.37
   7   6  -2   45.21    1.48
   7   6  -2   43.06    1.41
  -7  -6   2   44.95    1.55
  -7  -6   2   46.34    1.67
  -7  -6   2   43.27    1.70
  -7  -6   2   45.65    1.62
   6   6  -2    3.12    0.24
   6   6  -2    2.99    0.24
   6   6  -2    2.84    0.23
  -6  -6   2    2.44    0.30
  -6  -6   2    2.81    0.29
  -6  -6   2    2.66    0.32
  -6  -6   2    3.14    0.33
   5   6  -2   22.17    0.90
   5   6  -2   23.82    0.97
   5   6  -2   23.10    0.92
  -5  -6   2   22.88    1.11
  -5  -6   2   22.26    1.05
  -5  -6   2   22.83    1.16
  -5  -6   2   22.61    1.05
   4   6  -2   45.67    2.58
   4   6  -2   47.37    1.70
   4   6  -2   52.27    1.73
   4   6  -2   50.96    1.61
  -4  -6   2   49.39    1.97
  -4  -6   2   49.61    1.87
  -4  -6   2   50.31    1.88
   3   6  -2    1.85    0.20
   3   6  -2    1.52    0.39
   3   6  -2    1.63    0.18
   3   6  -2    1.71    0.20
   3   6  -2    2.40    0.22
  -3  -6   2    2.05    0.34
  -3  -6   2    2.13    0.26
  -3  -6   2    1.79    0.26
   2   6  -2   10.78    0.94
  -2  -6   2   11.41    0.89
   1   6  -2  111.84    4.61
  -1  -6   2  106.76    4.15
  -1  -6   2  114.50    4.21
   0   6  -2    9.47    0.75
   0   6  -2    8.82    0.56
   0  -6   2    8.56    0.66
   0  -6   2    8.49    0.84
  -1   6  -2    0.45    0.15
   1  -6   2    0.29    0.30
  -2   6  -2   77.83    2.87
  -2   6  -2   76.08    2.54
   2  -6   2   76.04    3.47
   2  -6   2   74.14    3.13
   2  -6   2   80.47    3.20
  -3   6  -2    0.56    0.15
  -3   6  -2    0.62    0.14
  -3   6  -2    0.73    0.15
   3  -6   2    0.65    0.20
   3  -6   2    0.62    0.14
   3  -6   2    0.51    0.30
   3  -6   2    0.64    0.22
  -4   6  -2    2.08    0.24
  -4   6  -2    1.93    0.22
  -4   6  -2    2.00    0.20
   4  -6   2    1.71    0.27
   4  -6   2    1.92    0.28
   4  -6   2    2.11    0.23
   4  -6   2    2.00    0.23
   4  -6   2    2.58    0.51
  -5   6  -2    9.91    0.47
  -5   6  -2    9.61    0.54
  -5   6  -2    9.34    0.49
  -5   6  -2   10.06    0.55
   5  -6   2   10.05    0.55
   5  -6   2    9.71    0.52
  -6   6  -2   25.26    0.96
  -6   6  -2   24.48    0.95
   6  -6   2   26.05    0.99
   6  -6   2   24.88    1.18
  -7   6  -2    6.29    0.32
   7  -6   2    5.80    0.32
   8   5  -2    0.28    0.07
   8   5  -2    0.25    0.05
  -8  -5   2    0.33    0.10
  -8  -5   2    0.27    0.11
  -8  -5   2    0.23    0.10
   7   5  -2   33.27    1.07
   7   5  -2   30.66    1.08
   7   5  -2   32.16    1.14
  -7  -5   2   33.43    1.33
  -7  -5   2   32.39    1.44
  -7  -5   2   29.67    1.09
  -7  -5   2   31.35    1.24
  -7  -5   2   29.65    1.26
   6   5  -2   11.49    0.55
   6   5  -2   10.70    0.62
   6   5  -2   11.38    0.53
   6   5  -2   10.79    0.53
  -6  -5   2   10.67    0.75
  -6  -5   2   11.02    0.66
  -6  -5   2   11.15    0.67
  -6  -5   2   10.33    0.67
  -6  -5   2   11.04    0.54
   5   5  -2   21.46    0.92
   5   5  -2   21.76    1.51
   5   5  -2   22.23    0.89
   5   5  -2   21.84    0.89
  -5  -5   2   22.22    1.09
  -5  -5   2   22.17    1.04
  -5  -5   2   22.21    1.05
   4   5  -2    2.34    0.28
   4   5  -2    2.87    0.24
   4   5  -2    2.55    0.23
   4   5  -2    2.27    0.45
  -4  -5   2    2.84    0.30
  -4  -5   2    2.55    0.31
  -4  -5   2    3.92    0.54
  -4  -5   2    2.98    0.36
   3   5  -2   95.21    4.22
  -3  -5   2   98.12    3.33
  -3  -5   2   92.03    3.86
   2   5  -2    3.66    0.50
  -2  -5   2    3.66    0.42
  -2  -5   2    4.09    0.46
   1   5  -2    0.65    0.21
  -1  -5   2    0.82    0.26
   0   5  -2   61.09    2.56
   0   5  -2   56.82    1.88
   0  -5   2   58.69    2.35
  -1   5  -2   96.85    2.90
  -1   5  -2  100.43    2.89
  -1   5  -2  105.81    3.97
   1  -5   2   95.64    3.69
  -2   5  -2    5.54    0.45
  -2   5  -2    5.34    0.30
   2  -5   2    5.74    0.57
  -3   5  -2   11.43    0.53
  -3   5  -2   11.19    0.76
   3  -5   2   11.37    0.95
  -4   5  -2   56.11    1.92
  -4   5  -2   55.00    2.38
  -4   5  -2   57.05    1.67
  -4   5  -2   53.87    1.81
   4  -5   2   55.75    1.94
   4  -5   2   56.89    2.63
   4  -5   2   55.82    1.91
   4  -5   2   57.85    1.85
  -5   5  -2   16.37    0.79
  -5   5  -2   15.96    0.72
  -5   5  -2   16.56    0.68
  -5   5  -2   15.70    0.99
   5  -5   2   16.90    0.77
   5  -5   2   16.73    0.73
   5  -5   2   16.74    0.77
  -6   5  -2    0.98    0.14
  -6   5  -2    1.14    0.23
  -6   5  -2    1.13    0.16
  -6   5  -2    1.31    0.21
   6  -5   2    1.24    0.18
   6  -5   2    1.41    0.19
  -7   5  -2   12.38    0.54
  -7   5  -2   11.96    0.69
  -7   5  -2   12.53    0.48
   7  -5   2   13.46    0.57
   7  -5   2   11.46    0.52
   7  -5   2   11.97    0.53
  -8   5  -2   20.61    0.68
   8  -5   2   21.83    0.72
   9   4  -2   11.24    0.41
   9   4  -2   10.94    0.47
  -9  -4   2   10.82    0.46
   8   4  -2    5.93    0.29
   8   4  -2    6.16    0.33
  -8  -4   2    6.08    0.41
  -8  -4   2    6.98    0.35
  -8  -4   2    5.57    0.36
  -8  -4   2    6.33    0.48
   7   4  -2   41.01    1.43
   7   4  -2   41.11    1.34
   7   4  -2   39.11    1.36
  -7  -4   2   38.83    1.41
  -7  -4   2   39.85    1.81
  -7  -4   2   40.47    1.64
  -7  -4   2   40.52    1.53
   6   4  -2    2.16    0.21
   6   4  -2    2.34    0.22
   6   4  -2    2.04    0.21
   6   4  -2    1.66    0.25
  -6  -4   2    2.02    0.28
  -6  -4   2    1.96    0.28
  -6  -4   2    1.75    0.28
  -6  -4   2    2.00    0.30
   5   4  -2   96.03    2.54
   5   4  -2   96.01    3.07
   5   4  -2   94.55    3.03
   5   4  -2   98.55    4.30
  -5  -4   2   97.53    3.19
  -5  -4   2   95.85    4.18
  -5  -4   2   94.18    3.39
  -5  -4   2   96.06    3.53
  -5  -4   2   93.30    3.32
   4   4  -2   22.42    1.48
   4   4  -2   22.19    0.86
  -4  -4   2   21.82    1.40
  -4  -4   2   22.84    1.11
  -4  -4   2   22.73    1.02
   3   4  -2    2.98    0.47
  -3  -4   2    4.17    0.48
   2   4  -2    3.56    0.45
  -2  -4   2    3.25    0.36
  -2  -4   2    2.72    0.64
   1   4  -2  193.83    7.25
   1   4  -2  193.77    5.26
  -1  -4   2  188.68    8.61
  -1  -4   2  195.73    8.23
   0   4  -2    2.08    0.21
   0   4  -2    2.27    0.28
   0  -4   2    2.09    0.26
   0  -4   2    2.13    0.33
   0  -4   2    2.13    0.51
  -1   4  -2    9.24    0.46
  -1   4  -2   10.48    0.64
  -1   4  -2    9.43    0.44
   1  -4   2    9.52    0.61
   1  -4   2    9.47    0.96
  -2   4  -2  129.99    4.40
  -2   4  -2  135.14    3.80
  -2   4  -2  138.04    5.01
  -2   4  -2  131.65    3.63
   2  -4   2  131.81    4.73
  -3   4  -2   31.97    1.46
  -3   4  -2   33.41    1.42
  -3   4  -2   33.43    1.13
   3  -4   2   35.06    1.78
  -4   4  -2    6.14    0.42
  -4   4  -2    5.64    0.29
  -4   4  -2    5.14    0.52
  -4   4  -2    6.55    0.37
  -4   4  -2    6.20    0.37
   4  -4   2    5.83    0.72
   4  -4   2    6.45    0.39
   4  -4   2    5.75    0.38
   4  -4   2    6.02    0.35
  -5   4  -2   28.90    0.90
  -5   4  -2   30.07    1.05
  -5   4  -2   31.19    1.11
  -5   4  -2   29.96    1.20
   5  -4   2   29.28    1.39
   5  -4   2   30.18    1.15
   5  -4   2   29.83    1.10
   5  -4   2   28.79    1.13
   5  -4   2   27.76    1.79
  -6   4  -2   10.33    0.59
  -6   4  -2    9.39    0.49
  -6   4  -2   10.81    0.52
  -6   4  -2   10.97    0.44
   6  -4   2   10.51    0.55
   6  -4   2   10.73    0.54
   6  -4   2   10.34    0.53
  -7   4  -2   20.22    0.72
  -7   4  -2   20.16    0.81
  -7   4  -2   19.74    1.11
   7  -4   2   19.62    0.82
   7  -4   2   20.20    0.81
   7  -4   2   21.01    0.78
  -8   4  -2    2.97    0.18
  -8   4  -2    2.97    0.25
   8  -4   2    3.15    0.20
   8  -4   2    3.24    0.19
   9   3  -2    4.81    0.25
   9   3  -2    4.67    0.28
  -9  -3   2    4.71    0.28
  -9  -3   2    4.04    0.27
   8   3  -2    8.45    0.40
   8   3  -2    8.21    0.50
   8   3  -2    8.97    0.44
  -8  -3   2    8.71    0.47
  -8  -3   2    8.32    0.52
  -8  -3   2    9.24    0.65
   7   3  -2   91.87    3.50
   7   3  -2   88.90    2.66
   7   3  -2   90.52    2.88
   7   3  -2   85.88    2.76
  -7  -3   2   88.82    2.83
  -7  -3   2   90.56    3.49
  -7  -3   2   86.65    3.91
  -7  -3   2   86.80    2.92
  -7  -3   2   87.59    3.21
   6   3  -2   33.60    1.23
   6   3  -2   33.16    1.15
  -6  -3   2   34.59    1.97
  -6  -3   2   32.37    1.35
  -6  -3   2   32.92    1.59
  -6  -3   2   34.09    1.46
   5   3  -2   59.72    2.46
   5   3  -2   59.36    2.83
   5   3  -2   58.28    1.67
  -5  -3   2   57.11    2.81
  -5  -3   2   57.45    2.28
  -5  -3   2   55.67    2.18
   4   3  -2   25.75    1.27
   4   3  -2   27.12    0.91
  -4  -3   2   27.12    1.20
  -4  -3   2   27.31    1.55
   3   3  -2   64.84    2.32
  -3  -3   2   66.30    2.26
  -3  -3   2   63.57    2.67
  -3  -3   2   61.41    3.31
   2   3  -2   42.25    1.93
   2   3  -2   43.67    1.41
  -2  -3   2   41.24    2.27
  -2  -3   2   35.92    2.25
   1   3  -2   24.51    1.19
  -1  -3   2   25.59    1.51
  -1  -3   2   24.31    1.00
  -1  -3   2   23.02    1.35
   0   3  -2   20.03    0.98
   0  -3   2   19.07    0.76
   0  -3   2   20.14    1.26
   0  -3   2   20.61    0.93
  -1   3  -2  307.67   10.61
  -1   3  -2  285.69    7.56
   1  -3   2  293.49   11.32
   1  -3   2  291.71    9.85
  -2   3  -2    0.46    0.13
  -2   3  -2    0.59    0.14
  -2   3  -2    0.78    0.17
   2  -3   2    1.10    0.17
   2  -3   2    0.73    0.21
  -3   3  -2   13.86    0.80
  -3   3  -2   15.32    0.86
   3  -3   2   14.34    1.01
   3  -3   2   13.98    0.75
  -4   3  -2   44.93    2.01
   4  -3   2   43.91    2.27
   4  -3   2   44.74    1.77
  -5   3  -2   22.09    0.85
  -5   3  -2   20.61    0.83
  -5   3  -2   22.79    1.14
  -5   3  -2   20.75    1.30
  -5   3  -2   20.20    1.19
  -5   3  -2   22.30    0.97
  -5   3  -2   20.51    0.70
   5  -3   2   18.89    1.11
   5  -3   2   25.01    1.10
   5  -3   2   20.69    0.82
   5  -3   2   20.00    1.46
   5  -3   2   20.93    0.85
  -6   3  -2   10.95    0.73
  -6   3  -2   11.26    0.55
  -6   3  -2   11.22    0.46
  -6   3  -2   10.31    0.87
  -6   3  -2   11.16    0.61
   6  -3   2   10.23    0.51
   6  -3   2   10.99    0.55
   6  -3   2   10.47    0.66
   6  -3   2   10.91    0.53
  -7   3  -2   49.27    1.46
  -7   3  -2   49.73    1.29
  -7   3  -2   46.98    1.62
   7  -3   2   47.84    2.02
   7  -3   2   46.97    1.63
   7  -3   2   49.29    1.58
  -8   3  -2    1.44    0.13
  -8   3  -2    1.45    0.20
  -8   3  -2    1.28    0.12
   8  -3   2    1.73    0.15
   8  -3   2    1.49    0.14
   8  -3   2    1.47    0.14
   9   2  -2    2.84    0.23
   9   2  -2    2.66    0.20
  -9  -2   2    2.44    0.27
  -9  -2   2    2.56    0.26
  -9  -2   2    2.80    0.22
  -9  -2   2    2.41    0.20
   8   2  -2    1.85    0.18
   8   2  -2    1.93    0.19
   8   2  -2    1.87    0.23
  -8  -2   2    2.18    0.35
  -8  -2   2    1.92    0.25
  -8  -2   2    2.16    0.24
   7   2  -2   11.61    0.67
   7   2  -2   10.50    0.51
   7   2  -2   10.59    0.54
   7   2  -2   10.83    0.52
  -7  -2   2   10.64    0.65
  -7  -2   2   10.42    1.04
  -7  -2   2   11.43    0.60
   6   2  -2   59.54    2.61
   6   2  -2   55.58    1.90
   6   2  -2   53.51    2.35
   6   2  -2   56.00    1.77
  -6  -2   2   55.64    2.82
  -6  -2   2   57.37    2.00
  -6  -2   2   53.45    2.14
  -6  -2   2   61.45    2.33
  -6  -2   2   58.72    2.19
   5   2  -2  200.51    7.35
   5   2  -2  187.15    6.59
   5   2  -2  187.67    4.31
  -5  -2   2  180.80    6.11
  -5  -2   2  183.09    6.25
  -5  -2   2  185.12    7.12
   4   2  -2   68.29    1.76
  -4  -2   2   70.31    2.44
  -4  -2   2   67.88    2.93
   3   2  -2    6.30    0.46
   3   2  -2    6.27    0.32
  -3  -2   2    6.05    0.68
  -3  -2   2    6.50    0.75
  -3  -2   2    6.15    0.38
   2   2  -2    6.11    0.48
  -2  -2   2    6.14    0.56
  -2  -2   2    5.60    0.40
  -2  -2   2    6.19    0.58
  -2  -2   2    5.81    0.30
   1   2  -2  169.92    6.24
  -1  -2   2  171.53    5.13
   0   2  -2   78.12    3.01
   0  -2   2   80.83    2.81
  -1   2  -2  154.60    5.11
  -1   2  -2  153.93    5.05
  -1   2  -2  173.18    4.95
  -1   2  -2  160.59    5.89
   1  -2   2  166.08    4.52
   1  -2   2  161.54    4.53
  -2   2  -2   50.13    1.83
  -2   2  -2   45.51    1.75
  -2   2  -2   48.74    1.98
  -2   2  -2   47.26    1.65
   2  -2   2   48.31    1.63
   2  -2   2   48.71    1.59
   2  -2   2   49.71    1.99
  -3   2  -2  160.90    4.89
   3  -2   2  166.62    4.82
   3  -2   2  163.43    5.84
  -4   2  -2   14.23    0.87
  -4   2  -2   16.99    0.92
   4  -2   2   15.09    1.13
   4  -2   2   14.60    0.81
  -5   2  -2   14.64    0.88
  -5   2  -2   13.53    0.53
  -5   2  -2   12.98    0.88
  -5   2  -2   14.82    1.10
   5  -2   2   14.12    0.59
   5  -2   2   13.17    0.59
   5  -2   2   12.70    0.77
   5  -2   2   13.82    0.85
   5  -2   2   13.59    0.74
  -6   2  -2   10.86    0.60
  -6   2  -2   10.67    0.74
  -6   2  -2   10.55    0.54
  -6   2  -2    9.28    0.91
  -6   2  -2   10.78    0.46
   6  -2   2   10.47    0.65
   6  -2   2   11.06    0.51
   6  -2   2    9.45    0.66
   6  -2   2   10.30    0.50
  -7   2  -2    4.76    0.31
  -7   2  -2    4.52    0.26
  -7   2  -2    4.88    0.33
  -7   2  -2    4.69    0.43
   7  -2   2    4.22    0.28
   7  -2   2    4.71    0.31
   7  -2   2    4.51    0.37
  -8   2  -2   11.32    0.68
  -8   2  -2   10.93    0.41
   8  -2   2   10.92    0.46
   8  -2   2   10.99    0.44
 -10  -1   2   46.39    1.08
   9   1  -2   32.08    1.26
   9   1  -2   28.37    1.08
  -9  -1   2   29.63    1.27
  -9  -1   2   29.24    1.25
  -9  -1   2   29.05    1.06
   8   1  -2   16.16    0.91
   8   1  -2   17.16    0.74
   8   1  -2   19.30    0.87
   8   1  -2   16.21    0.78
  -8  -1   2   15.53    1.31
  -8  -1   2   20.41    0.87
  -8  -1   2   16.03    0.98
  -8  -1   2   15.90    0.76
   7   1  -2    5.59    0.36
   7   1  -2    5.84    0.46
   7   1  -2    5.99    0.35
   7   1  -2    5.79    0.71
  -7  -1   2    5.80    0.43
  -7  -1   2    5.44    0.78
  -7  -1   2    5.71    0.40
   6   1  -2    1.31    0.33
   6   1  -2    1.47    0.16
   6   1  -2    1.23    0.15
  -6  -1   2    1.18    0.24
  -6  -1   2    1.39    0.37
  -6  -1   2    1.07    0.26
  -6  -1   2    1.35    0.23
   5   1  -2    5.97    0.64
  -5  -1   2    5.79    0.46
  -5  -1   2    5.17    0.61
  -5  -1   2    5.77    0.41
   4   1  -2  151.69    6.09
  -4  -1   2  161.52    5.92
  -4  -1   2  167.76    5.18
   3   1  -2  349.15    7.41
   3   1  -2  347.58   11.21
   3   1  -2  323.12   12.55
  -3  -1   2  364.62   10.74
  -3  -1   2  359.19   14.92
   2   1  -2  284.57    8.93
   2   1  -2  280.07    5.94
   2   1  -2  270.90   10.07
  -2  -1   2  284.01   12.26
  -2  -1   2  286.92    8.59
   1   1  -2    8.18    0.37
   1   1  -2    8.26    0.45
  -1  -1   2    8.29    0.27
  -1  -1   2    8.53    0.57
   0   1  -2    0.82    0.06
   0   1  -2    0.92    0.13
   0  -1   2    0.96    0.13
  -1   1  -2  140.22    5.06
  -1   1  -2  143.39    4.29
   1  -1   2  134.37    6.19
   1  -1   2  136.58    4.56
   1  -1   2  135.77    4.44
  -2   1  -2   44.62    1.47
   2  -1   2   44.71    1.48
   2  -1   2   44.14    2.24
   2  -1   2   42.26    1.41
   2  -1   2   45.52    1.87
  -3   1  -2  119.18    3.95
   3  -1   2  114.11    3.37
   3  -1   2  119.35    4.34
   3  -1   2  113.75    3.51
  -4   1  -2  107.87    3.40
  -4   1  -2  111.26    3.88
   4  -1   2  111.26    4.32
   4  -1   2  112.53    3.49
  -5   1  -2   78.75    2.88
  -5   1  -2   78.46    3.05
  -5   1  -2   83.16    3.13
   5  -1   2   82.18    2.76
   5  -1   2   78.71    2.42
   5  -1   2   78.20    2.36
   5  -1   2   77.31    2.99
  -6   1  -2   12.46    0.58
  -6   1  -2   12.79    0.69
  -6   1  -2   12.60    0.51
  -6   1  -2   13.41    0.65
  -6   1  -2   12.29    1.08
  -6   1  -2   12.85    0.84
   6  -1   2   11.29    0.69
   6  -1   2   11.98    0.81
   6  -1   2   12.10    0.55
   6  -1   2   11.81    0.71
  -7   1  -2   14.20    0.82
  -7   1  -2   13.24    0.57
  -7   1  -2   14.21    0.51
   7  -1   2   14.78    0.60
   7  -1   2   14.66    0.77
   7  -1   2   13.12    0.75
   7  -1   2   14.47    0.62
  -8   1  -2    0.21    0.06
  -8   1  -2    0.10    0.05
   8  -1   2    0.26    0.07
   8  -1   2    0.14    0.06
   8  -1   2    0.18    0.09
  10   0  -2    6.58    0.36
 -10   0   2    6.58    0.22
 -10   0   2    6.51    0.25
 -10   0   2    6.53    0.34
   9   0  -2    3.99    0.33
   9   0  -2    3.93    0.29
  -9   0   2    3.60    0.36
  -9   0   2    3.62    0.27
   8   0  -2  174.02    6.82
   8   0  -2  178.44    6.36
   8   0  -2  181.99    5.80
   8   0  -2  176.69    5.54
  -8   0   2  181.26    5.34
  -8   0   2  182.54    6.26
  -8   0   2  178.28    7.20
   7   0  -2   18.75    0.77
   7   0  -2   19.72    1.40
   7   0  -2   19.91    0.81
   7   0  -2   19.51    1.03
  -7   0   2   19.04    1.50
  -7   0   2   18.37    1.12
  -7   0   2   17.81    1.13
  -7   0   2   18.83    0.84
   6   0  -2    3.37    0.52
  -6   0   2    3.62    0.32
  -6   0   2    3.27    0.56
  -6   0   2    3.52    0.40
  -6   0   2    3.04    0.41
   5   0  -2   70.56    2.34
   5   0  -2   67.46    2.97
  -5   0   2   69.80    2.41
  -5   0   2   69.44    3.00
  -5   0   2   69.46    2.47
   4   0  -2    1.34    0.18
   4   0  -2    1.38    0.19
   4   0  -2    1.74    0.33
   3   0  -2    0.94    0.13
   3   0  -2    0.78    0.18
  -3   0   2    1.07    0.23
  -3   0   2    0.96    0.14
  -3   0   2    1.10    0.15
  -3   0   2    1.30    0.19
   2   0  -2  390.33   12.34
   1   0  -2  307.44   11.31
  -1   0   2  331.69   10.42
   0   0  -2  228.03    7.09
   0   0  -2  235.05    7.39
   0   0  -2  229.16    8.32
   0   0   2  239.02    6.01
  -1   0  -2   19.95    0.80
  -1   0  -2   21.79    0.98
   1   0   2   21.34    0.95
   1   0   2   19.97    0.86
  -2   0  -2    4.45    0.33
   2   0   2    3.38    0.39
   2   0   2    3.41    0.17
   2   0   2    3.29    0.31
  -3   0  -2   59.36    2.16
   3   0   2   53.99    2.38
  -4   0  -2   18.97    0.84
  -4   0  -2   19.27    1.04
   4   0   2   18.84    0.92
  -5   0  -2   60.24    2.31
  -5   0  -2   58.03    2.45
  -5   0  -2   62.54    2.53
   5   0   2   60.71    1.89
   5   0   2   60.27    1.85
   5   0   2   61.14    2.22
  -6   0  -2   94.70    3.52
  -6   0  -2   91.63    2.32
  -6   0  -2   92.34    3.34
   6   0   2   93.09    2.80
   6   0   2   91.41    3.15
  -7   0  -2   12.21    0.73
  -7   0  -2   11.16    0.62
  -7   0  -2   11.98    0.46
  -7   0  -2   11.79    0.50
   7   0   2   12.48    0.78
   7   0   2   12.44    0.69
   7   0   2   12.50    0.54
   7   0   2   12.35    0.52
  -8   0  -2   15.31    0.47
  -8   0  -2   15.48    0.85
   8   0   2   15.79    0.55
   8   0   2   16.13    0.75
  10  -1  -2    2.83    0.18
 -10   1   2    2.85    0.15
 -10   1   2    2.84    0.21
 -10   1   2    2.76    0.12
   9  -1  -2    0.58    0.15
   9  -1  -2    0.58    0.14
  -9   1   2    0.71    0.19
  -9   1   2    0.69    0.10
   8  -1  -2   35.78    1.43
   8  -1  -2   36.66    1.55
   8  -1  -2   36.17    1.67
  -8   1   2   34.96    1.27
  -8   1   2   32.77    1.63
   7  -1  -2   11.95    0.67
   7  -1  -2   12.57    1.10
   7  -1  -2   12.09    0.59
   7  -1  -2   11.73    0.76
  -7   1   2   11.24    0.84
  -7   1   2   11.32    1.12
  -7   1   2   12.04    0.59
  -7   1   2   10.68    0.87
   6  -1  -2  267.43    9.38
  -6   1   2  263.22   10.02
  -6   1   2  269.74    7.72
  -6   1   2  266.30    8.66
   5  -1  -2    8.74    0.80
  -5   1   2   10.16    0.70
  -5   1   2   10.06    0.51
   4  -1  -2    2.84    0.39
  -4   1   2    2.96    0.36
  -4   1   2    3.24    0.31
  -4   1   2    3.02    0.34
   3  -1  -2   25.37    1.04
   3  -1  -2   28.86    1.25
  -3   1   2   28.28    1.06
  -3   1   2   28.32    1.22
  -3   1   2   28.96    1.50
  -3   1   2   28.65    1.08
   2  -1  -2    0.46    0.12
   2  -1  -2    0.39    0.07
   2  -1  -2    0.32    0.09
  -2   1   2    0.48    0.08
   1  -1  -2    1.67    0.15
   1  -1  -2    1.41    0.15
  -1   1   2    1.35    0.10
   0  -1  -2  566.93   16.75
   0   1   2  568.53   17.76
   0   1   2  591.76   17.86
   0   1   2  585.11   14.62
  -1  -1  -2  102.59    3.36
   1   1   2  101.64    3.55
   1   1   2  107.06    3.87
   1   1   2  104.58    2.86
  -2  -1  -2  219.54    7.06
   2   1   2  214.48    7.05
   2   1   2  229.29    8.06
   2   1   2  226.68    7.36
  -3  -1  -2   21.79    1.08
   3   1   2   22.20    0.68
   3   1   2   23.46    1.10
  -4  -1  -2    0.91    0.18
  -4  -1  -2    2.16    0.32
   4   1   2    1.39    0.24
  -5  -1  -2   24.85    1.07
  -5  -1  -2   25.23    1.34
  -5  -1  -2   24.31    1.16
  -5  -1  -2   27.18    1.35
  -5  -1  -2   24.68    1.36
  -5  -1  -2   24.36    1.08
  -5  -1  -2   26.51    1.22
   5   1   2   26.41    1.20
   5   1   2   24.98    0.89
   5   1   2   24.49    0.90
   5   1   2   24.84    0.93
   5   1   2   25.07    0.98
  -6  -1  -2   20.92    1.09
  -6  -1  -2   19.82    1.01
   6   1   2   21.64    0.76
   6   1   2   19.53    1.06
   6   1   2   19.50    0.78
   6   1   2   20.67    0.78
  -7  -1  -2   19.90    0.92
  -7  -1  -2   19.29    0.62
  -7  -1  -2   20.32    0.96
   7   1   2   20.29    0.97
   7   1   2   19.60    0.73
   7   1   2   20.02    0.72
  -8  -1  -2   41.47    1.22
  -8  -1  -2   40.21    1.76
  -8  -1  -2   40.71    0.98
   8   1   2   42.92    1.64
   8   1   2   37.68    1.20
  10  -2  -2   23.99    0.84
 -10   2   2   22.51    0.75
 -10   2   2   24.29    0.68
   9  -2  -2    0.40    0.09
   9  -2  -2    0.22    0.11
   9  -2  -2    0.14    0.11
  -9   2   2    0.33    0.08
  -9   2   2    0.19    0.13
   8  -2  -2    9.34    0.63
   8  -2  -2    9.36    0.57
   8  -2  -2    8.95    0.49
  -8   2   2    8.35    0.71
  -8   2   2    8.37    0.45
   7  -2  -2   11.74    0.63
   7  -2  -2   11.11    0.68
   7  -2  -2   10.75    0.75
   7  -2  -2   11.98    0.75
   7  -2  -2   11.27    0.68
   7  -2  -2   11.13    0.57
  -7   2   2   10.88    1.07
  -7   2   2   11.28    0.55
   6  -2  -2  149.02    5.35
   6  -2  -2  145.04    4.93
   6  -2  -2  144.50    5.78
   6  -2  -2  144.36    5.67
  -6   2   2  156.20    6.10
  -6   2   2  154.24    4.78
  -6   2   2  150.51    4.41
   5  -2  -2    2.43    0.42
  -5   2   2    2.62    0.34
  -5   2   2    2.93    0.46
  -5   2   2    2.57    0.37
   4  -2  -2  355.45   11.85
  -4   2   2  368.11   11.37
  -4   2   2  363.22    9.85
   3  -2  -2    8.02    0.52
   3  -2  -2    8.75    0.66
   3  -2  -2    8.51    0.57
  -3   2   2    8.09    0.57
  -3   2   2    8.27    0.52
  -3   2   2    7.85    0.41
   2  -2  -2    5.77    0.37
   2  -2  -2    6.04    0.42
   2  -2  -2    6.30    0.55
  -2   2   2    6.20    0.42
  -2   2   2    6.27    0.37
   1  -2  -2   80.35    2.70
  -1   2   2   73.88    3.53
  -1   2   2   84.64    2.31
  -1   2   2   79.51    2.19
   0  -2  -2    8.72    0.48
   0  -2  -2    8.05    0.42
   0   2   2    8.61    0.46
   0   2   2    8.92    0.38
  -1  -2  -2    5.78    0.44
  -1  -2  -2    5.55    0.38
   1   2   2    5.77    0.33
   1   2   2    6.39    0.46
  -2  -2  -2  366.73   11.68
   2   2   2  381.58   13.30
   2   2   2  371.49   11.61
  -3  -2  -2    1.57    0.26
   3   2   2    2.24    0.29
   3   2   2    1.35    0.16
   3   2   2    1.06    0.26
   3   2   2    1.15    0.37
  -4  -2  -2   68.20    2.67
  -4  -2  -2   67.58    2.22
  -4  -2  -2   67.12    2.75
  -4  -2  -2   58.07    2.47
   4   2   2   65.31    1.71
   4   2   2   63.22    3.64
   4   2   2   64.42    2.75
  -5  -2  -2   37.47    1.65
  -5  -2  -2   39.33    1.87
  -5  -2  -2   38.35    1.82
  -5  -2  -2   39.89    1.72
  -5  -2  -2   37.15    1.61
  -5  -2  -2   36.93    1.51
   5   2   2   37.76    1.59
   5   2   2   37.71    1.75
   5   2   2   37.15    1.23
   5   2   2   37.02    1.26
   5   2   2   38.07    1.37
   5   2   2   36.97    1.31
   5   2   2   37.86    1.23
  -6  -2  -2    1.44    0.24
  -6  -2  -2    1.57    0.26
  -6  -2  -2    2.06    0.28
   6   2   2    1.89    0.30
   6   2   2    1.36    0.14
   6   2   2    1.34    0.15
   6   2   2    1.30    0.15
   6   2   2    1.47    0.15
  -7  -2  -2   11.85    0.62
  -7  -2  -2   10.74    0.38
   7   2   2   10.89    0.44
   7   2   2   11.14    0.62
  -8  -2  -2   31.31    0.97
   8   2   2   32.82    1.29
   9  -3  -2   10.25    0.53
  -9   3   2   10.22    0.53
  -9   3   2   10.84    0.43
  -9   3   2   10.35    0.33
   8  -3  -2   14.56    0.88
   8  -3  -2   15.17    0.77
   8  -3  -2   14.11    0.82
   8  -3  -2   14.58    0.68
   8  -3  -2   13.85    0.67
  -8   3   2   14.43    0.79
  -8   3   2   14.99    0.49
   7  -3  -2    0.57    0.17
   7  -3  -2    0.55    0.18
   7  -3  -2    0.57    0.20
   7  -3  -2    1.03    0.19
   7  -3  -2    0.71    0.15
  -7   3   2    0.67    0.11
  -7   3   2    0.29    0.20
   6  -3  -2    4.92    0.43
   6  -3  -2    3.62    0.35
   6  -3  -2    3.45    0.35
   6  -3  -2    3.85    0.56
   6  -3  -2    3.40    0.31
  -6   3   2    3.02    0.45
  -6   3   2    4.73    0.64
  -6   3   2    4.03    0.50
   5  -3  -2    5.54    0.61
  -5   3   2    5.83    0.54
  -5   3   2    6.85    0.71
  -5   3   2    6.02    0.58
   4  -3  -2  305.21    9.33
   4  -3  -2  282.32    9.38
  -4   3   2  269.95   10.10
  -4   3   2  279.98    9.00
  -4   3   2  275.95    7.88
   3  -3  -2   34.74    1.46
   3  -3  -2   35.95    1.86
   3  -3  -2   35.39    1.51
  -3   3   2   36.12    1.35
   2  -3  -2  376.22   12.42
   2  -3  -2  393.41   12.50
  -2   3   2  389.94   15.81
  -2   3   2  390.06   10.28
  -2   3   2  404.12   10.71
   1  -3  -2   18.87    0.83
   1  -3  -2   18.80    1.17
  -1   3   2   19.08    0.72
  -1   3   2   15.72    1.15
  -1   3   2   19.14    0.71
  -1   3   2   19.09    0.85
   0  -3  -2    0.10    0.10
   0   3   2    0.40    0.11
   0   3   2    0.19    0.12
   0   3   2    0.15    0.20
   0   3   2    0.20    0.10
  -1  -3  -2   15.19    0.82
   1   3   2   15.43    0.66
   1   3   2   15.10    0.89
   1   3   2   15.29    1.26
   1   3   2   14.97    0.64
  -2  -3  -2   60.34    2.49
   2   3   2   61.05    2.65
   2   3   2   64.44    3.43
   2   3   2   59.04    2.25
  -3  -3  -2   14.13    0.91
  -3  -3  -2   14.33    1.04
   3   3   2   14.47    1.37
   3   3   2   14.50    1.01
   3   3   2   13.05    0.80
  -4  -3  -2  315.46   10.31
  -4  -3  -2  317.18   10.26
  -4  -3  -2  276.27    9.47
  -4  -3  -2  275.58    9.84
  -4  -3  -2  319.10    8.65
  -4  -3  -2  274.17    8.83
  -4  -3  -2  303.19    9.75
   4   3   2  289.14    8.88
   4   3   2  298.85   11.51
   4   3   2  293.37    6.54
   4   3   2  295.92    8.98
   4   3   2  285.67   13.06
  -5  -3  -2    8.61    0.62
  -5  -3  -2    8.16    0.59
  -5  -3  -2    8.33    0.62
   5   3   2    8.55    0.44
   5   3   2    8.37    0.42
   5   3   2    8.35    0.47
   5   3   2    9.84    0.44
   5   3   2    9.82    0.63
   5   3   2    7.90    0.63
  -6  -3  -2   13.53    0.76
  -6  -3  -2   14.34    0.78
   6   3   2   12.78    0.78
   6   3   2   14.32    0.55
   6   3   2   13.23    0.54
   6   3   2   14.12    0.58
  -7  -3  -2   20.26    0.88
   7   3   2   19.73    0.91
   9  -4  -2   45.86    1.59
   9  -4  -2   44.40    1.46
  -9   4   2   45.69    1.45
  -9   4   2   44.75    1.40
  -9   4   2   45.68    1.25
   8  -4  -2  129.52    4.99
   8  -4  -2  133.93    4.09
   8  -4  -2  132.99    4.35
  -8   4   2  129.90    3.48
   7  -4  -2   33.23    1.37
   7  -4  -2   33.21    1.42
   7  -4  -2   35.37    1.38
   7  -4  -2   35.67    1.70
  -7   4   2   33.05    1.68
   6  -4  -2   10.21    0.57
   6  -4  -2    9.22    0.89
   6  -4  -2    9.50    0.61
   6  -4  -2   10.62    0.81
   6  -4  -2    8.81    0.58
   6  -4  -2   10.04    0.71
  -6   4   2    9.85    0.82
  -6   4   2    9.82    0.83
   5  -4  -2    2.70    0.43
   5  -4  -2    2.26    0.27
  -5   4   2    2.95    0.43
  -5   4   2    3.14    0.41
   4  -4  -2    0.25    0.16
   4  -4  -2    0.38    0.26
  -4   4   2    0.36    0.17
   3  -4  -2   59.25    2.28
   3  -4  -2   59.55    2.35
   3  -4  -2   58.72    2.96
  -3   4   2   62.15    2.11
   2  -4  -2  363.48   12.72
   2  -4  -2  395.81   12.38
  -2   4   2  397.79   10.13
  -2   4   2  387.76   10.68
   1  -4  -2  158.54    5.19
   1  -4  -2  150.22    5.72
  -1   4   2  156.44    4.36
  -1   4   2  160.11    4.30
  -1   4   2  156.86    5.17
  -1   4   2  152.15    6.82
   0  -4  -2  175.74    5.52
   0   4   2  176.63    4.61
   0   4   2  140.92    7.36
  -1  -4  -2   54.08    2.16
   1   4   2   55.69    3.19
   1   4   2   52.27    1.72
   1   4   2   56.33    2.43
   1   4   2   54.63    1.80
  -2  -4  -2    4.91    0.51
   2   4   2    5.31    0.83
   2   4   2    5.25    0.56
  -3  -4  -2   30.30    1.39
  -3  -4  -2   27.06    1.20
  -3  -4  -2   29.65    1.34
  -3  -4  -2   29.14    1.47
  -3  -4  -2   26.55    1.33
  -3  -4  -2   29.45    1.61
   3   4   2   30.04    1.10
   3   4   2   29.09    1.07
   3   4   2   28.43    1.65
   3   4   2   26.28    2.15
   3   4   2   28.22    1.09
  -4  -4  -2  101.90    3.43
  -4  -4  -2  107.61    3.77
  -4  -4  -2   96.80    3.64
   4   4   2  100.13    4.21
   4   4   2  103.34    2.63
   4   4   2  101.48    3.23
   4   4   2  100.53    3.29
  -5  -4  -2   19.71    1.07
  -5  -4  -2   21.09    1.06
  -5  -4  -2   21.20    1.02
   5   4   2   20.29    1.05
   5   4   2   20.67    0.76
   5   4   2   20.89    0.82
   5   4   2   21.04    1.08
   5   4   2   21.10    0.78
   5   4   2   21.02    0.86
  -6  -4  -2  172.97    5.65
  -6  -4  -2  166.54    5.48
   6   4   2  169.04    5.07
   6   4   2  161.09    4.74
   6   4   2  166.63    4.65
  -7  -4  -2   16.47    0.68
   7   4   2   15.09    0.69
   9  -5  -2    0.12    0.07
   9  -5  -2    0.16    0.08
  -9   5   2    0.36    0.08
   8  -5  -2   25.61    1.05
   8  -5  -2   25.81    1.01
   8  -5  -2   25.53    1.23
  -8   5   2   24.89    0.79
  -8   5   2   25.93    0.95
  -8   5   2   25.89    0.93
   7  -5  -2   86.23    3.47
   7  -5  -2   85.25    2.83
   7  -5  -2   82.46    2.94
  -7   5   2   81.08    3.09
   6  -5  -2  139.09    5.09
   6  -5  -2  124.65    4.47
   6  -5  -2  136.81    5.21
   6  -5  -2  126.68    4.36
   6  -5  -2  126.16    5.08
   6  -5  -2  121.40    4.16
  -6   5   2  135.09    4.47
   5  -5  -2   35.50    1.48
   5  -5  -2   37.50    1.50
   5  -5  -2   36.00    1.89
   5  -5  -2   39.67    1.51
   5  -5  -2   37.85    1.89
  -5   5   2   36.97    1.74
  -5   5   2   38.89    1.85
   4  -5  -2    7.71    0.69
   4  -5  -2    8.84    1.08
   4  -5  -2    8.67    0.53
   4  -5  -2    8.18    0.64
   4  -5  -2    8.21    0.69
  -4   5   2    8.37    0.66
   3  -5  -2    0.50    0.40
  -3   5   2    0.22    0.13
  -3   5   2    0.09    0.06
  -3   5   2    0.21    0.14
   2  -5  -2   23.29    1.81
   2  -5  -2   24.52    1.13
  -2   5   2   24.31    1.20
  -2   5   2   24.58    1.05
  -2   5   2   25.13    1.04
  -2   5   2   25.62    0.84
   1  -5  -2   48.13    1.87
  -1   5   2   47.98    1.95
  -1   5   2   47.69    2.65
  -1   5   2   46.88    1.66
  -1   5   2   47.37    1.64
   0  -5  -2  357.87   11.38
   0   5   2  350.22   14.93
   0   5   2  341.78    9.28
   0   5   2  354.55    9.46
  -1  -5  -2  156.10    5.14
   1   5   2  146.61    7.00
   1   5   2  146.37    5.74
   1   5   2  138.06    4.13
  -2  -5  -2  113.22    4.27
  -2  -5  -2  109.85    3.75
  -2  -5  -2  118.27    3.88
  -2  -5  -2  112.89    4.09
   2   5   2  117.91    5.85
   2   5   2  116.80    3.63
   2   5   2  114.42    4.73
   2   5   2  115.08    3.69
  -3  -5  -2   24.24    1.18
  -3  -5  -2   22.52    1.19
  -3  -5  -2   23.30    1.16
  -3  -5  -2   20.66    1.04
  -3  -5  -2   22.19    1.37
   3   5   2   22.33    0.91
   3   5   2   22.49    1.89
   3   5   2   23.33    0.94
   3   5   2   22.55    0.94
   3   5   2   25.22    1.52
  -4  -5  -2    1.06    0.26
  -4  -5  -2    1.07    0.25
  -4  -5  -2    1.22    0.24
   4   5   2    1.27    0.21
   4   5   2    1.15    0.22
  -5  -5  -2   20.84    1.04
  -5  -5  -2   20.59    0.97
  -5  -5  -2   19.29    1.20
  -5  -5  -2   20.54    0.95
   5   5   2   18.11    0.95
   5   5   2   20.61    0.75
   5   5   2   20.49    0.81
   5   5   2   19.33    0.70
   5   5   2   21.22    0.78
   5   5   2   20.03    1.01
  -6  -5  -2   72.50    2.43
  -6  -5  -2   69.12    2.44
   6   5   2   68.69    2.16
   6   5   2   67.82    1.99
   8  -6  -2    5.08    0.31
   8  -6  -2    5.08    0.33
   8  -6  -2    5.39    0.40
  -8   6   2    5.53    0.29
  -8   6   2    5.06    0.27
   7  -6  -2   11.94    0.64
   7  -6  -2   11.08    0.60
   7  -6  -2   12.79    0.80
   7  -6  -2   11.20    0.70
  -7   6   2   11.73    0.55
  -7   6   2   11.62    0.54
   6  -6  -2   60.51    2.63
   6  -6  -2   63.34    2.61
   6  -6  -2   57.31    2.18
   6  -6  -2   58.05    2.57
   6  -6  -2   58.26    2.13
   6  -6  -2   56.64    2.12
  -6   6   2   57.17    1.90
  -6   6   2   59.12    1.91
  -6   6   2   58.09    2.13
   5  -6  -2  174.33    5.88
   5  -6  -2  167.35    6.65
   5  -6  -2  167.51    5.39
   5  -6  -2  177.10    6.69
  -5   6   2  169.29    5.06
  -5   6   2  179.56    5.00
   4  -6  -2  112.89    4.99
   4  -6  -2  129.99    4.04
   4  -6  -2  126.29    4.96
   4  -6  -2  128.68    4.38
   4  -6  -2  124.72    4.88
  -4   6   2  126.76    3.83
  -4   6   2  128.62    3.68
  -4   6   2  126.99    4.56
   3  -6  -2   51.87    2.31
   3  -6  -2   47.63    3.01
   3  -6  -2   48.36    2.18
   3  -6  -2   49.15    2.31
   3  -6  -2   48.68    1.92
  -3   6   2   51.07    1.83
  -3   6   2   48.00    2.11
  -3   6   2   51.60    1.58
  -3   6   2   52.22    1.86
   2  -6  -2    5.46    0.54
   2  -6  -2    5.90    0.59
  -2   6   2    5.88    0.48
  -2   6   2    6.63    0.52
  -2   6   2    6.10    0.55
   1  -6  -2    6.96    0.66
   1  -6  -2    5.51    0.53
   1  -6  -2    5.83    0.55
  -1   6   2    6.22    0.50
   0  -6  -2   34.49    1.55
   0   6   2   34.02    1.29
   0   6   2   34.46    1.05
   0   6   2   34.01    2.34
   0   6   2   35.18    1.42
  -1  -6  -2  116.79    3.91
  -1  -6  -2  121.47    4.22
   1   6   2  116.85    3.69
   1   6   2  112.10    3.07
   1   6   2  113.29    4.79
   1   6   2  120.34    5.95
  -2  -6  -2  231.67    7.41
  -2  -6  -2  255.61    7.50
  -2  -6  -2  253.83    8.09
   2   6   2  245.55    7.45
   2   6   2  235.89    9.23
   2   6   2  240.98    7.56
  -3  -6  -2   93.40    3.04
  -3  -6  -2   83.67    2.95
  -3  -6  -2   88.56    3.24
   3   6   2   84.24    2.81
   3   6   2   86.03    3.83
   3   6   2   88.57    2.88
   3   6   2   90.77    2.91
   3   6   2   85.72    3.65
  -4  -6  -2   37.85    1.54
  -4  -6  -2   40.89    1.59
  -4  -6  -2   40.64    1.69
   4   6   2   39.90    1.38
   4   6   2   38.97    1.76
   4   6   2   40.11    1.41
  -5  -6  -2   10.37    0.54
  -5  -6  -2   10.79    0.62
  -5  -6  -2   10.51    0.71
   5   6   2   10.71    0.43
   5   6   2   11.12    0.47
   5   6   2   10.38    0.44
  -6  -6  -2    0.34    0.09
   6   6   2    0.43    0.05
   8  -7  -2   12.19    0.60
  -8   7   2   12.51    0.48
   7  -7  -2    2.17    0.25
   7  -7  -2    2.20    0.24
   7  -7  -2    2.38    0.29
  -7   7   2    2.26    0.18
   6  -7  -2   12.83    0.82
   6  -7  -2   11.58    0.77
   6  -7  -2   12.41    0.81
  -6   7   2   10.73    0.69
  -6   7   2   11.34    0.52
   5  -7  -2   14.31    0.95
   5  -7  -2   15.30    1.04
  -5   7   2   15.37    0.87
  -5   7   2   15.81    0.65
   4  -7  -2   67.72    2.83
   4  -7  -2   68.88    2.87
   4  -7  -2   62.80    2.96
   4  -7  -2   67.87    3.02
  -4   7   2   65.74    2.31
  -4   7   2   65.99    2.34
  -4   7   2   67.23    2.05
   3  -7  -2  131.13    5.02
   3  -7  -2  137.20    5.18
   3  -7  -2  130.60    5.24
  -3   7   2  134.74    4.03
  -3   7   2  128.99    3.96
  -3   7   2  129.31    4.70
  -3   7   2  128.31    4.09
   2  -7  -2   77.62    3.20
   2  -7  -2   73.66    3.17
  -2   7   2   71.82    2.52
   1  -7  -2   14.42    0.89
   1  -7  -2   14.33    0.94
   1  -7  -2   14.66    1.09
  -1   7   2   14.49    0.63
  -1   7   2   14.71    0.86
   0  -7  -2   19.92    1.09
   0  -7  -2   18.57    1.36
   0   7   2   18.83    0.68
   0   7   2   20.00    1.02
  -1  -7  -2    0.34    0.21
  -1  -7  -2    0.28    0.18
   1   7   2    0.38    0.15
   1   7   2    0.10    0.09
   1   7   2    0.07    0.09
   1   7   2    0.09    0.15
  -2  -7  -2   35.11    1.43
  -2  -7  -2   34.88    1.48
  -2  -7  -2   37.80    1.62
   2   7   2   36.61    1.32
   2   7   2   35.90    1.34
   2   7   2   33.66    1.92
  -3  -7  -2  112.77    4.99
  -3  -7  -2  110.94    3.40
  -3  -7  -2  107.51    3.69
   3   7   2  100.95    4.22
   3   7   2  104.93    3.35
   3   7   2   91.24    4.24
   3   7   2  104.43    3.30
   3   7   2  105.77    3.37
  -4  -7  -2  124.22    4.00
  -4  -7  -2  121.80    5.32
   4   7   2  110.37    4.65
   4   7   2  118.50    3.64
   4   7   2  118.51    3.68
  -5  -7  -2   46.44    1.57
   5   7   2   41.26    1.37
   5   7   2   44.75    1.28
   7  -8  -2   27.76    1.18
  -7   8   2   28.85    0.95
   6  -8  -2   24.95    1.19
   6  -8  -2   24.08    1.15
   6  -8  -2   23.40    1.15
  -6   8   2   24.37    0.89
   5  -8  -2    2.00    0.31
   5  -8  -2    2.11    0.35
   5  -8  -2    1.69    0.26
  -5   8   2    2.03    0.19
  -5   8   2    2.80    0.32
   4  -8  -2   18.46    1.03
   4  -8  -2   20.83    1.23
   4  -8  -2   20.29    1.14
   4  -8  -2   22.04    1.26
  -4   8   2   20.50    0.80
  -4   8   2   20.59    1.00
   3  -8  -2   50.79    2.25
   3  -8  -2   50.39    2.32
  -3   8   2   49.30    1.85
   2  -8  -2   52.54    2.27
   2  -8  -2   47.48    2.27
   2  -8  -2   53.53    2.37
   2  -8  -2   51.88    1.88
  -2   8   2   49.54    1.69
  -2   8   2   50.86    1.90
   1  -8  -2  136.60    4.40
   1  -8  -2  135.03    6.15
   1  -8  -2  132.14    5.25
  -1   8   2  137.98    3.55
  -1   8   2  136.32    4.17
  -1   8   2  137.72    4.16
   0  -8  -2   46.11    1.79
   0  -8  -2   43.25    2.39
   0   8   2   41.53    2.19
   0   8   2   45.50    1.55
   0   8   2   42.79    1.28
  -1  -8  -2    1.32    0.34
  -1  -8  -2    1.73    0.29
  -1  -8  -2    1.27    0.23
   1   8   2    1.37    0.18
   1   8   2    1.29    0.30
   1   8   2    1.30    0.19
  -2  -8  -2   10.77    0.72
  -2  -8  -2   12.23    0.68
  -2  -8  -2   11.08    0.63
  -2  -8  -2   12.62    0.94
   2   8   2   10.90    0.51
   2   8   2   11.33    0.53
   2   8   2   10.18    0.60
   2   8   2   10.97    0.51
  -3  -8  -2    1.89    0.23
  -3  -8  -2    2.02    0.32
   3   8   2    2.06    0.16
   3   8   2    1.73    0.16
   3   8   2    2.07    0.16
  -4  -8  -2   24.41    1.18
  -4  -8  -2   25.02    0.91
   4   8   2   22.53    0.78
   4   8   2   22.56    0.77
   4   8   2   23.43    0.73
   6  -9  -2    4.50    0.30
  -6   9   2    5.10    0.22
  -6   9   2    4.97    0.20
   5  -9  -2    5.70    0.43
  -5   9   2    5.47    0.27
  -5   9   2    5.52    0.25
  -5   9   2    5.06    0.25
   4  -9  -2   17.02    0.89
   4  -9  -2   16.82    0.96
   4  -9  -2   17.80    0.98
  -4   9   2   17.89    0.59
  -4   9   2   17.65    0.66
   3  -9  -2    5.10    0.48
   3  -9  -2    5.40    0.49
  -3   9   2    5.34    0.28
  -3   9   2    5.79    0.30
   2  -9  -2   28.70    1.53
   2  -9  -2   27.65    1.34
  -2   9   2   27.25    0.96
  -2   9   2   27.95    0.86
   1  -9  -2   21.31    1.25
   1  -9  -2   23.13    0.98
  -1   9   2   24.05    0.81
  -1   9   2   22.93    0.73
  -1   9   2   23.74    0.88
   0  -9  -2   16.61    0.79
   0  -9  -2   15.59    1.01
   0   9   2   16.14    0.67
   0   9   2   16.54    0.66
  -1  -9  -2   69.11    2.93
  -1  -9  -2   70.55    3.30
   1   9   2   68.06    2.23
   1   9   2   71.17    2.23
   1   9   2   71.20    2.26
  -2  -9  -2   24.60    1.25
  -2  -9  -2   21.91    0.86
   2   9   2   22.12    0.78
   2   9   2   22.34    0.78
  -3  -9  -2    1.70    0.18
   3   9   2    1.34    0.09
   4 -10  -2    4.45    0.29
  -4  10   2    4.49    0.21
  -4  10   2    4.58    0.18
   3 -10  -2    1.32    0.16
   3 -10  -2    1.32    0.16
  -3  10   2    1.66    0.13
  -3  10   2    1.49    0.11
  -3  10   2    1.99    0.12
   2 -10  -2   18.18    0.92
  -2  10   2   17.76    0.53
  -2  10   2   17.71    0.64
  -2  10   2   17.71    0.64
   1 -10  -2    3.10    0.30
  -1  10   2    3.10    0.18
  -1  10   2    3.25    0.19
   0 -10  -2   11.17    0.57
   0  10   2    8.87    0.36
   0  10   2    9.80    0.38
   0  10   2   10.39    0.39
   3  10  -3    0.26    0.06
  -3 -10   3    0.17    0.07
  -3 -10   3    0.12    0.08
   2  10  -3   19.94    0.68
  -2 -10   3   16.54    0.75
  -2 -10   3   19.55    0.76
   1  10  -3   10.26    0.43
   1  10  -3    9.34    0.40
  -1 -10   3    9.86    0.50
  -1 -10   3    9.35    0.47
  -1 -10   3   10.17    0.54
   0  10  -3    9.15    0.41
   0  10  -3    9.92    0.42
   0  10  -3    9.78    0.42
   0 -10   3   10.19    0.57
   0 -10   3    9.41    0.48
  -1  10  -3    6.63    0.32
  -1  10  -3    6.15    0.30
  -1  10  -3    6.30    0.30
   1 -10   3    5.73    0.32
   1 -10   3    6.09    0.43
  -2  10  -3    4.05    0.23
  -2  10  -3    4.11    0.22
  -2  10  -3    4.32    0.22
   2 -10   3    3.70    0.30
   2 -10   3    3.94    0.28
  -3  10  -3    2.22    0.15
  -3  10  -3    2.09    0.13
   3 -10   3    1.89    0.17
   3 -10   3    2.09    0.18
  -5  -9   3    4.29    0.27
  -5  -9   3    4.03    0.22
   4   9  -3    0.21    0.06
   4   9  -3    0.36    0.08
  -4  -9   3    0.28    0.11
  -4  -9   3    0.23    0.09
  -4  -9   3    0.31    0.11
   3   9  -3   69.45    2.14
   3   9  -3   63.77    2.08
   3   9  -3   64.00    2.09
  -3  -9   3   67.28    2.20
  -3  -9   3   67.71    2.35
   2   9  -3    0.97    0.13
   2   9  -3    0.86    0.11
   2   9  -3    1.00    0.15
  -2  -9   3    1.17    0.20
   1   9  -3    0.54    0.11
   1   9  -3    0.42    0.11
   1   9  -3    0.18    0.09
  -1  -9   3    0.26    0.13
   0   9  -3   33.21    1.20
   0   9  -3   33.02    1.19
   0   9  -3   33.61    1.19
   0  -9   3   32.23    1.32
   0  -9   3   32.52    1.89
  -1   9  -3    0.68    0.12
  -1   9  -3    0.48    0.12
  -1   9  -3    0.32    0.10
  -1   9  -3    0.39    0.09
   1  -9   3    0.50    0.14
   1  -9   3    0.43    0.28
  -2   9  -3    2.43    0.22
  -2   9  -3    2.61    0.17
  -2   9  -3    2.43    0.20
   2  -9   3    2.35    0.33
   2  -9   3    2.56    0.29
   2  -9   3    2.87    0.32
  -3   9  -3   29.89    1.06
  -3   9  -3   29.33    1.01
   3  -9   3   28.27    1.27
   3  -9   3   28.97    1.31
  -4   9  -3    1.76    0.15
  -4   9  -3    1.42    0.11
  -4   9  -3    1.13    0.09
   4  -9   3    1.47    0.19
   4  -9   3    1.26    0.15
   5  -9   3    3.39    0.22
   6   8  -3   14.34    0.50
  -6  -8   3   12.05    0.54
  -6  -8   3   14.94    0.62
  -6  -8   3   14.55    0.58
   5   8  -3    7.30    0.32
   5   8  -3    8.37    0.39
   5   8  -3    7.56    0.36
  -5  -8   3    8.42    0.51
  -5  -8   3    7.68    0.41
  -5  -8   3    8.36    0.46
  -5  -8   3    7.07    0.39
   4   8  -3   10.79    0.51
   4   8  -3    9.96    0.45
   4   8  -3   10.43    0.47
  -4  -8   3   10.40    0.57
  -4  -8   3   10.70    0.58
  -4  -8   3   10.54    0.63
   3   8  -3   21.49    0.81
   3   8  -3   19.34    0.79
   3   8  -3   20.15    0.83
  -3  -8   3   19.56    0.99
  -3  -8   3   20.14    0.91
   2   8  -3   10.72    0.54
   2   8  -3   10.16    0.50
   2   8  -3   10.62    0.52
   2   8  -3   10.20    0.52
  -2  -8   3   10.25    0.65
  -2  -8   3   11.97    0.64
  -2  -8   3    8.53    0.70
   1   8  -3  104.13    3.30
   1   8  -3  104.36    3.32
   1   8  -3  105.31    2.80
   1   8  -3  105.02    3.34
  -1  -8   3  105.98    3.62
  -1  -8   3  112.06    3.86
  -1  -8   3   90.34    4.07
  -1  -8   3  108.20    3.38
  -1  -8   3  102.65    4.17
   0   8  -3    9.29    0.50
   0   8  -3    9.15    0.48
   0   8  -3    8.97    0.43
   0   8  -3    9.08    0.50
   0  -8   3    9.81    0.70
   0  -8   3    9.16    0.69
   0  -8   3   10.57    1.01
   0  -8   3    9.40    0.60
   0  -8   3    8.89    0.59
  -1   8  -3    7.85    0.39
  -1   8  -3    8.50    0.45
  -1   8  -3    7.86    0.46
   1  -8   3    7.55    0.90
   1  -8   3    8.00    0.64
   1  -8   3    7.83    0.56
   1  -8   3    8.94    0.56
  -2   8  -3   31.65    1.07
  -2   8  -3   32.38    1.22
  -2   8  -3   30.57    1.15
   2  -8   3   33.36    1.51
   2  -8   3   30.19    1.95
   2  -8   3   31.16    1.57
  -3   8  -3    1.18    0.19
  -3   8  -3    1.27    0.15
  -3   8  -3    1.26    0.15
   3  -8   3    1.09    0.23
   3  -8   3    1.32    0.23
   3  -8   3    1.05    0.35
   3  -8   3    2.02    0.31
  -4   8  -3    4.37    0.26
  -4   8  -3    4.54    0.27
  -4   8  -3    4.85    0.32
   4  -8   3    4.32    0.35
   4  -8   3    4.92    0.42
   4  -8   3    5.16    0.42
  -5   8  -3   54.63    1.76
  -5   8  -3   53.85    1.67
   5  -8   3   56.51    2.17
   7   7  -3   82.01    2.46
   7   7  -3   84.79    2.53
  -7  -7   3   77.98    2.67
  -7  -7   3   86.02    2.55
  -7  -7   3   82.28    2.78
   6   7  -3   19.58    0.75
   6   7  -3   19.71    0.74
   6   7  -3   19.33    0.69
  -6  -7   3   19.82    0.86
  -6  -7   3   19.81    0.90
  -6  -7   3   20.19    0.86
   5   7  -3   18.95    0.77
   5   7  -3   18.33    0.75
   5   7  -3   19.24    0.70
  -5  -7   3   18.10    0.87
  -5  -7   3   18.82    0.83
  -5  -7   3   19.14    0.94
  -5  -7   3   17.69    0.85
   4   7  -3    5.13    0.33
   4   7  -3    4.91    0.32
   4   7  -3    4.83    0.34
   4   7  -3    4.65    0.39
  -4  -7   3    4.90    0.42
  -4  -7   3    5.27    0.45
   3   7  -3   14.63    0.69
   3   7  -3   14.90    0.68
   3   7  -3   14.30    0.65
   3   7  -3   15.31    0.67
  -3  -7   3   14.74    0.75
  -3  -7   3   15.21    0.91
  -3  -7   3   15.02    0.83
   2   7  -3   14.57    0.66
   2   7  -3   15.26    1.22
   2   7  -3   15.34    0.68
   2   7  -3   14.30    0.65
   2   7  -3   14.39    0.67
  -2  -7   3   14.53    0.80
  -2  -7   3   15.06    0.89
  -2  -7   3   15.01    0.77
  -2  -7   3   13.13    0.99
  -2  -7   3   15.48    0.94
   1   7  -3  109.05    4.61
   1   7  -3  106.38    2.90
   1   7  -3  105.77    3.45
   1   7  -3  105.24    3.39
   1   7  -3  108.70    3.44
  -1  -7   3  109.03    4.21
  -1  -7   3  109.27    4.25
  -1  -7   3  110.56    3.47
  -1  -7   3  108.25    4.18
  -1  -7   3  117.01    3.99
  -1  -7   3   97.31    4.16
   0   7  -3    7.64    0.38
   0   7  -3    7.64    0.43
   0   7  -3    7.61    0.45
   0  -7   3    8.17    0.66
   0  -7   3    7.78    0.69
   0  -7   3    8.02    0.61
   0  -7   3    8.39    0.55
   0  -7   3    8.43    0.89
   0  -7   3    7.90    0.64
  -1   7  -3  117.69    3.74
  -1   7  -3  118.66    3.55
  -1   7  -3  120.27    3.82
  -1   7  -3  119.74    3.19
   1  -7   3  121.08    4.68
   1  -7   3  121.80    3.81
   1  -7   3  122.60    4.90
   1  -7   3  120.13    4.71
  -2   7  -3   15.17    0.65
  -2   7  -3   14.81    0.71
   2  -7   3   14.98    0.95
   2  -7   3   15.47    0.98
   2  -7   3   15.65    1.33
  -3   7  -3    6.98    0.42
  -3   7  -3    7.61    0.47
   3  -7   3    9.27    0.65
   3  -7   3    7.02    0.59
   3  -7   3    6.85    0.85
  -4   7  -3   18.93    0.76
  -4   7  -3   17.23    0.78
   4  -7   3   16.51    0.90
   4  -7   3   16.74    1.25
   4  -7   3   17.26    0.74
   4  -7   3   18.13    0.97
  -5   7  -3    0.08    0.08
  -5   7  -3    0.06    0.08
   5  -7   3    0.07    0.08
   5  -7   3    0.16    0.13
  -6   7  -3    2.20    0.16
   6  -7   3    2.03    0.16
   6  -7   3    2.10    0.20
   8   6  -3    1.47    0.10
   8   6  -3    1.65    0.11
  -8  -6   3    1.54    0.14
  -8  -6   3    1.60    0.15
   7   6  -3   15.90    0.59
   7   6  -3   16.05    0.62
   7   6  -3   16.02    0.63
  -7  -6   3   15.94    0.72
  -7  -6   3   15.88    0.74
  -7  -6   3   14.91    0.78
  -7  -6   3   15.04    0.71
   6   6  -3   51.85    1.73
   6   6  -3   50.91    1.60
   6   6  -3   50.93    1.73
  -6  -6   3   51.20    1.96
  -6  -6   3   48.36    2.06
  -6  -6   3   50.76    1.95
  -6  -6   3   53.07    1.87
   5   6  -3  124.13    3.14
   5   6  -3  123.51    3.51
   5   6  -3  122.89    3.82
   5   6  -3  122.03    3.83
  -5  -6   3  113.12    4.89
  -5  -6   3  123.57    3.94
  -5  -6   3  122.15    4.16
  -5  -6   3  118.50    4.16
   4   6  -3   89.96    2.49
   4   6  -3   90.85    2.87
   4   6  -3   90.20    2.87
   4   6  -3   86.98    2.84
   4   6  -3   85.22    4.10
   4   6  -3   89.18    2.44
  -4  -6   3   88.04    3.81
  -4  -6   3   87.09    3.15
  -4  -6   3   89.00    3.27
  -4  -6   3   88.49    3.12
   3   6  -3    9.62    0.51
   3   6  -3    9.74    0.44
   3   6  -3    9.83    0.50
   3   6  -3    9.78    0.50
   3   6  -3    9.37    0.94
   3   6  -3   10.57    0.51
  -3  -6   3   10.06    0.63
  -3  -6   3    9.85    0.70
  -3  -6   3    9.58    0.57
   2   6  -3    4.15    0.30
   2   6  -3    4.77    0.32
   2   6  -3    4.73    0.31
   2   6  -3    4.74    0.28
   2   6  -3    4.68    0.60
  -2  -6   3    4.58    0.37
  -2  -6   3    4.46    0.55
  -2  -6   3    4.46    0.50
  -2  -6   3    4.78    0.48
   1   6  -3   36.69    1.92
  -1  -6   3   33.33    1.67
  -1  -6   3   34.26    1.80
   0   6  -3   45.83    2.18
   0  -6   3   42.97    2.02
  -1   6  -3  112.47    3.30
  -1   6  -3  107.79    3.50
   1  -6   3  112.79    4.28
   1  -6   3  107.89    4.30
  -2   6  -3   46.03    1.51
  -2   6  -3   43.43    1.60
   2  -6   3   44.32    2.21
   2  -6   3   44.54    1.58
   2  -6   3   45.91    2.04
   2  -6   3   41.43    1.96
  -3   6  -3   79.30    2.54
  -3   6  -3   76.23    2.66
   3  -6   3   81.23    2.56
   3  -6   3   82.79    3.22
   3  -6   3   80.70    3.24
   3  -6   3   80.74    2.48
   3  -6   3   76.72    2.62
  -4   6  -3    9.46    0.55
  -4   6  -3    9.75    0.54
   4  -6   3    9.94    0.53
   4  -6   3   10.01    0.57
   4  -6   3    9.41    0.92
   4  -6   3   10.13    0.67
   4  -6   3   10.26    0.52
  -5   6  -3   15.23    0.70
  -5   6  -3   15.14    0.68
   5  -6   3   15.88    0.70
   5  -6   3   15.63    0.68
  -6   6  -3   12.09    0.52
   6  -6   3   11.10    0.62
   6  -6   3   11.46    0.52
  -7   6  -3    0.82    0.08
   7  -6   3    0.86    0.09
   7  -6   3    0.69    0.11
   8   5  -3    1.42    0.13
   8   5  -3    1.32    0.12
  -8  -5   3    1.38    0.18
  -8  -5   3    1.56    0.18
  -8  -5   3    1.55    0.22
  -8  -5   3    1.27    0.13
   7   5  -3    2.55    0.22
   7   5  -3    2.36    0.21
   7   5  -3    2.76    0.22
  -7  -5   3    2.55    0.29
  -7  -5   3    2.59    0.23
  -7  -5   3    2.20    0.27
  -7  -5   3    2.29    0.34
   6   5  -3    0.47    0.11
   6   5  -3    0.15    0.10
  -6  -5   3    0.19    0.15
  -6  -5   3   -0.09    0.14
  -6  -5   3    0.23    0.19
   5   5  -3   23.88    0.96
   5   5  -3   23.74    0.96
   5   5  -3   23.79    0.98
   5   5  -3   28.24    1.75
   5   5  -3   24.65    0.91
  -5  -5   3   23.32    1.10
  -5  -5   3   23.94    1.14
  -5  -5   3   24.31    1.17
  -5  -5   3   23.90    1.60
   4   5  -3  137.53    3.75
   4   5  -3  139.65    3.44
   4   5  -3  135.92    4.30
   4   5  -3  139.97    4.28
   4   5  -3  135.46    4.27
   4   5  -3  143.29    5.91
  -4  -5   3  141.23    4.63
  -4  -5   3  136.45    4.70
  -4  -5   3  136.07    4.75
  -4  -5   3  134.68    5.45
   3   5  -3  189.01    7.48
  -3  -5   3  183.07    6.87
   2   5  -3   54.10    2.59
  -2  -5   3   52.67    3.31
   1   5  -3    0.25    0.16
  -1  -5   3    0.32    0.14
  -1  -5   3    0.03    0.27
  -1  -5   3    0.12    0.17
   0   5  -3    0.64    0.19
   0  -5   3    0.42    0.34
   0  -5   3    0.75    0.20
  -1   5  -3    6.62    0.56
   1  -5   3    4.91    0.79
  -2   5  -3   43.36    1.39
   2  -5   3   41.96    2.09
  -3   5  -3  104.70    3.28
  -3   5  -3  110.27    2.90
  -3   5  -3  103.81    3.15
  -3   5  -3  100.48    3.43
   3  -5   3  102.03    4.33
   3  -5   3  104.06    3.30
   3  -5   3  106.61    3.37
   3  -5   3  107.93    4.10
   3  -5   3  109.89    3.19
   3  -5   3  111.28    4.11
  -4   5  -3   55.31    2.61
  -4   5  -3   54.91    1.70
  -4   5  -3   54.27    1.99
  -4   5  -3   53.90    1.82
  -4   5  -3   54.05    1.93
   4  -5   3   62.63    2.38
   4  -5   3   58.26    1.96
   4  -5   3   58.19    1.92
   4  -5   3   55.76    1.84
  -5   5  -3   24.77    0.92
  -5   5  -3   24.44    1.36
  -5   5  -3   25.14    0.91
  -5   5  -3   24.96    1.04
   5  -5   3   24.95    0.99
   5  -5   3   25.64    0.97
   5  -5   3   24.55    1.00
  -6   5  -3   10.15    0.51
  -6   5  -3    9.56    0.65
   6  -5   3   10.05    0.49
   6  -5   3    9.61    0.47
  -7   5  -3    4.90    0.33
  -7   5  -3    5.47    0.27
   7  -5   3    5.54    0.29
   9   4  -3   25.88    1.00
   9   4  -3   26.60    0.87
  -9  -4   3   25.32    0.96
  -9  -4   3   24.85    1.03
   8   4  -3  117.49    3.55
   8   4  -3  118.12    3.68
  -8  -4   3  123.47    4.27
  -8  -4   3  118.21    4.04
  -8  -4   3  115.13    3.62
  -8  -4   3  116.38    3.54
   7   4  -3    4.37    0.31
   7   4  -3    4.86    0.31
   7   4  -3    4.55    0.31
  -7  -4   3    4.34    0.39
  -7  -4   3    4.36    0.39
  -7  -4   3    4.73    0.41
   6   4  -3    8.59    0.46
   6   4  -3    8.26    0.46
   6   4  -3    8.73    0.47
  -6  -4   3    9.86    1.00
  -6  -4   3    9.56    0.61
  -6  -4   3    9.18    0.61
   5   4  -3    0.94    0.13
   5   4  -3    1.31    0.16
   5   4  -3    0.68    0.16
   5   4  -3    0.60    0.12
   5   4  -3    0.58    0.12
   5   4  -3    0.59    0.26
  -5  -4   3    0.50    0.26
  -5  -4   3    1.22    0.23
  -5  -4   3    0.58    0.18
   4   4  -3    5.08    0.67
   4   4  -3    5.09    0.37
  -4  -4   3    4.67    0.57
   3   4  -3   12.22    0.98
  -3  -4   3   10.42    1.19
   2   4  -3  482.72   16.63
  -2  -4   3  394.44   19.38
  -2  -4   3  490.46   17.82
   1   4  -3  123.29    4.73
  -1  -4   3  116.69    5.44
  -1  -4   3  119.87    5.35
  -1  -4   3  117.38    4.32
   0   4  -3  103.15    3.99
   0  -4   3   97.17    3.21
   0  -4   3  102.08    3.73
   0  -4   3   98.67    4.57
  -1   4  -3   20.64    1.10
   1  -4   3   19.47    1.42
  -2   4  -3    0.30    0.14
  -2   4  -3    0.24    0.08
   2  -4   3    0.19    0.17
  -3   4  -3    6.54    0.37
   3  -4   3    6.63    0.75
  -4   4  -3   80.57    2.68
  -4   4  -3   78.39    2.33
  -4   4  -3   80.71    2.51
   4  -4   3   83.98    2.75
   4  -4   3   83.89    2.62
   4  -4   3   80.59    2.51
   4  -4   3   82.40    2.64
   4  -4   3   82.40    3.71
  -5   4  -3   50.47    2.47
  -5   4  -3   52.62    1.81
  -5   4  -3   50.43    1.58
   5  -4   3   50.38    1.66
   5  -4   3   47.71    1.72
   5  -4   3   50.55    1.74
  -6   4  -3   56.98    1.68
  -6   4  -3   56.21    2.62
  -6   4  -3   56.38    1.88
   6  -4   3   55.54    1.87
   6  -4   3   57.14    1.81
   6  -4   3   53.95    1.85
  -7   4  -3    0.50    0.10
  -7   4  -3    0.30    0.13
   7  -4   3    0.54    0.10
   7  -4   3    0.28    0.08
   7  -4   3    0.51    0.09
   9   3  -3    0.53    0.10
   9   3  -3    0.32    0.08
  -9  -3   3    0.54    0.11
  -9  -3   3    0.16    0.13
  -9  -3   3    0.17    0.11
  -9  -3   3    0.29    0.08
   8   3  -3   96.61    3.09
   8   3  -3   97.06    2.99
  -8  -3   3   96.21    3.02
  -8  -3   3   96.56    3.41
  -8  -3   3   99.75    3.67
   7   3  -3    7.46    0.42
   7   3  -3    7.62    0.42
   7   3  -3    7.32    0.42
  -7  -3   3    7.58    0.51
  -7  -3   3    5.94    0.77
  -7  -3   3    7.51    0.55
  -7  -3   3    7.46    0.53
   6   3  -3  197.65    5.71
   6   3  -3  200.55    6.22
  -6  -3   3  207.15    6.84
  -6  -3   3  202.83    6.76
  -6  -3   3  208.92    7.91
  -6  -3   3  203.33    6.22
   5   3  -3    0.71    0.15
   5   3  -3    0.55    0.24
  -5  -3   3    0.66    0.16
  -5  -3   3    0.71    0.28
   4   3  -3    5.17    0.63
   4   3  -3    5.73    0.36
  -4  -3   3    5.90    0.42
  -4  -3   3    5.74    0.61
  -4  -3   3    4.76    0.77
   3   3  -3    7.98    0.70
   3   3  -3    7.72    0.39
  -3  -3   3    5.13    0.72
  -3  -3   3    6.60    0.79
  -3  -3   3    7.28    0.40
   2   3  -3   34.55    1.66
  -2  -3   3   33.23    1.36
  -2  -3   3   34.12    1.91
  -2  -3   3   33.87    1.92
   1   3  -3   35.60    1.62
  -1  -3   3   34.16    1.90
  -1  -3   3   33.17    1.29
  -1  -3   3   36.57    1.51
   0   3  -3  537.02   19.40
   0  -3   3  514.18   14.53
   0  -3   3  533.42   17.95
   0  -3   3  589.76   20.47
  -1   3  -3   39.05    1.47
  -1   3  -3   41.23    1.78
   1  -3   3   39.90    1.52
  -2   3  -3   56.39    2.14
  -2   3  -3   56.13    2.38
   2  -3   3   56.67    2.42
   2  -3   3   56.08    1.90
  -3   3  -3   24.82    1.29
   3  -3   3   24.07    1.53
   3  -3   3   24.39    1.12
  -4   3  -3    0.78    0.15
  -4   3  -3    0.71    0.12
  -4   3  -3    0.99    0.20
  -4   3  -3    0.73    0.27
   4  -3   3    0.61    0.21
   4  -3   3    0.87    0.31
   4  -3   3    0.95    0.15
   4  -3   3    0.74    0.15
  -5   3  -3    0.85    0.20
  -5   3  -3    0.44    0.25
  -5   3  -3    1.21    0.18
  -5   3  -3    0.48    0.11
   5  -3   3    0.47    0.13
   5  -3   3    0.32    0.12
   5  -3   3    0.38    0.11
  -6   3  -3   80.37    2.00
  -6   3  -3   80.26    2.28
  -6   3  -3   80.20    2.54
   6  -3   3   78.05    3.14
   6  -3   3   82.43    2.45
   6  -3   3   75.88    2.51
   6  -3   3   79.20    2.54
  -7   3  -3   22.58    0.74
  -7   3  -3   21.25    0.79
  -7   3  -3   22.90    1.20
   7  -3   3   22.53    0.84
   7  -3   3   22.71    0.80
  -8   3  -3   32.25    1.32
   8  -3   3   28.65    0.95
  10   2  -3    5.89    0.30
 -10  -2   3    5.60    0.19
   9   2  -3    0.55    0.12
   9   2  -3    0.53    0.11
  -9  -2   3    0.62    0.12
  -9  -2   3    0.46    0.11
  -9  -2   3    0.50    0.17
   8   2  -3    6.19    0.37
   8   2  -3    6.29    0.36
  -8  -2   3    5.77    0.41
  -8  -2   3    5.94    0.76
  -8  -2   3    6.47    0.44
  -8  -2   3    6.57    0.59
   7   2  -3    2.24    0.21
   7   2  -3    1.99    0.21
  -7  -2   3    2.64    0.54
  -7  -2   3    2.72    0.30
  -7  -2   3    2.27    0.39
  -7  -2   3    2.37    0.31
   6   2  -3  258.84    7.98
   6   2  -3  257.61    7.32
   6   2  -3  265.83    9.19
  -6  -2   3  260.61    8.52
  -6  -2   3  268.22    9.87
  -6  -2   3  272.55    8.74
   5   2  -3    7.25    0.70
   5   2  -3    7.43    0.70
  -5  -2   3    7.84    0.78
  -5  -2   3    8.30    0.55
   4   2  -3  399.11   15.99
   4   2  -3  443.57   14.19
   4   2  -3  444.47    9.40
  -4  -2   3  436.44   19.08
  -4  -2   3  471.00   13.56
  -4  -2   3  441.33   16.92
   3   2  -3    0.26    0.09
   3   2  -3    0.27    0.11
   3   2  -3    0.45    0.18
  -3  -2   3    0.25    0.16
  -3  -2   3    0.12    0.19
  -3  -2   3    0.08    0.06
   2   2  -3    4.68    0.40
   2   2  -3    3.52    0.27
   2   2  -3    3.38    0.20
  -2  -2   3    3.13    0.29
   1   2  -3   27.70    1.03
   1   2  -3   28.19    1.30
  -1  -2   3   29.56    1.22
  -1  -2   3   27.58    1.71
  -1  -2   3   29.23    1.00
   0   2  -3  209.35    6.40
   0   2  -3  203.64    7.42
   0  -2   3  199.76    5.59
   0  -2   3  217.00    6.90
   0  -2   3  182.10    9.19
  -1   2  -3    1.30    0.13
  -1   2  -3    1.11    0.20
   1  -2   3    1.00    0.18
   1  -2   3    1.41    0.34
  -2   2  -3  605.99   21.80
  -2   2  -3  613.50   18.79
  -2   2  -3  594.79   19.26
  -2   2  -3  630.81   18.12
   2  -2   3  631.14   19.41
   2  -2   3  603.23   16.33
   2  -2   3  599.76   16.66
  -3   2  -3    0.23    0.19
  -3   2  -3    0.47    0.15
   3  -2   3    0.12    0.11
   3  -2   3    1.41    0.35
   3  -2   3    0.12    0.12
  -4   2  -3   36.24    1.62
  -4   2  -3   33.80    1.17
  -4   2  -3   33.59    1.84
  -4   2  -3   33.02    1.00
  -4   2  -3   34.63    1.58
   4  -2   3   32.43    1.94
   4  -2   3   34.96    1.46
   4  -2   3   33.67    1.20
   4  -2   3   34.41    1.14
   4  -2   3   33.78    1.15
  -5   2  -3   39.14    1.35
  -5   2  -3   38.53    1.15
  -5   2  -3   38.70    2.08
  -5   2  -3   42.79    1.53
  -5   2  -3   39.25    1.34
  -5   2  -3   39.50    1.81
   5  -2   3   39.09    1.34
   5  -2   3   39.92    1.71
   5  -2   3   39.15    1.38
   5  -2   3   40.51    1.46
   5  -2   3   40.77    1.71
  -6   2  -3    3.50    0.53
  -6   2  -3    3.96    0.29
  -6   2  -3    3.73    0.30
  -6   2  -3    4.01    0.26
   6  -2   3    3.54    0.26
   6  -2   3    3.66    0.33
   6  -2   3    3.95    0.27
  -7   2  -3    1.26    0.24
  -7   2  -3    0.76    0.11
   7  -2   3    0.81    0.12
   7  -2   3    0.80    0.14
   7  -2   3    1.02    0.13
  -8   2  -3   73.04    2.85
   8  -2   3   71.75    2.00
   8  -2   3   68.50    2.20
   8  -2   3   62.69    2.05
  10   1  -3   93.01    3.28
 -10  -1   3   90.95    3.12
 -10  -1   3   93.11    2.11
   9   1  -3    6.68    0.42
   9   1  -3    5.74    0.34
  -9  -1   3    5.85    0.35
  -9  -1   3    5.54    0.44
   8   1  -3    4.47    0.32
   8   1  -3    4.27    0.35
   8   1  -3    4.49    0.41
   8   1  -3    4.57    0.31
  -8  -1   3    4.14    0.67
  -8  -1   3    4.58    0.50
   7   1  -3    0.92    0.12
   7   1  -3    1.29    0.16
   7   1  -3    1.03    0.19
   7   1  -3    0.85    0.34
   7   1  -3    1.38    0.23
   7   1  -3    0.96    0.15
  -7  -1   3    1.12    0.39
  -7  -1   3    0.99    0.19
  -7  -1   3    0.96    0.24
  -7  -1   3    1.64    0.34
  -7  -1   3    0.91    0.22
   6   1  -3   10.02    0.95
  -6  -1   3   10.37    0.69
  -6  -1   3    9.48    0.93
  -6  -1   3    9.74    0.61
   5   1  -3    7.83    0.77
  -5  -1   3    8.68    0.80
  -5  -1   3    9.05    0.57
   4   1  -3  527.12   16.29
   4   1  -3  480.58   18.06
  -4  -1   3  447.59   21.48
  -4  -1   3  524.41   19.02
  -4  -1   3  541.55   15.50
   3   1  -3   36.13    1.50
   3   1  -3   34.87    1.61
  -3  -1   3   37.60    1.43
  -3  -1   3   37.03    1.96
  -3  -1   3   37.34    1.30
   2   1  -3  308.35    9.66
   2   1  -3  311.96    9.68
   2   1  -3  289.17   10.87
  -2  -1   3  307.83   13.25
  -2  -1   3  288.73    9.17
  -2  -1   3  311.90    7.74
   1   1  -3    1.96    0.16
   1   1  -3    1.82    0.21
  -1  -1   3    1.98    0.14
  -1  -1   3    2.05    0.20
   0   1  -3    9.10    0.36
   0   1  -3   11.03    0.57
   0   1  -3    9.88    0.46
   0   1  -3   10.36    0.59
   0  -1   3   10.39    0.56
   0  -1   3   10.58    0.55
  -1   1  -3   12.27    0.69
  -1   1  -3   10.98    0.53
  -1   1  -3   12.33    0.70
  -1   1  -3   11.65    0.57
   1  -1   3   11.13    0.87
   1  -1   3   11.82    0.66
   1  -1   3   11.90    0.73
  -2   1  -3  248.92    8.04
  -2   1  -3  252.90    7.97
  -2   1  -3  251.20    8.34
   2  -1   3  267.83    8.57
   2  -1   3  248.02    6.98
   2  -1   3  257.67   11.36
   2  -1   3  254.60    7.16
  -3   1  -3    1.50    0.25
  -3   1  -3    2.32    0.42
   3  -1   3    1.87    0.25
   3  -1   3    1.36    0.21
   3  -1   3    1.35    0.34
  -4   1  -3  325.81   11.03
  -4   1  -3  329.31   10.61
  -4   1  -3  332.99   10.52
  -4   1  -3  306.07    7.38
   4  -1   3  329.91   11.16
   4  -1   3  332.58    8.95
   4  -1   3  323.22    9.21
   4  -1   3  334.64    9.35
  -5   1  -3    1.75    0.19
  -5   1  -3    1.62    0.21
  -5   1  -3    1.30    0.22
  -5   1  -3    1.56    0.32
  -5   1  -3    1.68    0.42
   5  -1   3    1.65    0.18
   5  -1   3    1.46    0.17
   5  -1   3    1.55    0.17
   5  -1   3    1.25    0.25
  -6   1  -3   12.48    0.56
  -6   1  -3   12.73    1.08
  -6   1  -3   13.74    0.52
  -6   1  -3   13.04    0.60
   6  -1   3   12.52    0.56
   6  -1   3   15.77    0.75
   6  -1   3   12.72    0.56
   6  -1   3   12.46    0.82
  -7   1  -3   14.97    0.50
  -7   1  -3   14.78    0.53
  -7   1  -3   15.00    0.56
  -7   1  -3   15.26    0.92
   7  -1   3   15.30    0.61
   7  -1   3   15.76    0.59
   7  -1   3   14.96    0.75
  -8   1  -3    6.19    0.37
   8  -1   3    6.55    0.29
   8  -1   3    5.77    0.24
  10   0  -3   68.46    2.42
  10   0  -3   75.49    2.66
 -10   0   3   73.27    1.68
 -10   0   3   73.53    2.52
   9   0  -3   27.43    1.10
   9   0  -3   28.72    1.22
  -9   0   3   27.24    1.18
  -9   0   3   27.31    1.01
   8   0  -3  155.78    5.42
   8   0  -3  148.33    5.85
   8   0  -3  153.84    4.99
   8   0  -3  145.20    4.72
  -8   0   3  152.89    5.37
  -8   0   3  153.81    6.32
  -8   0   3  148.10    4.55
   7   0  -3   19.84    0.65
   7   0  -3   19.60    0.97
   7   0  -3   19.27    1.08
   7   0  -3   19.63    0.80
   7   0  -3   20.45    1.49
   7   0  -3   19.12    0.81
  -7   0   3   19.32    0.94
  -7   0   3   19.69    1.52
  -7   0   3   17.74    1.09
  -7   0   3   18.61    1.16
   6   0  -3   34.00    2.01
  -6   0   3   37.61    1.64
  -6   0   3   34.65    1.92
  -6   0   3   35.08    1.57
  -6   0   3   34.20    1.43
   5   0  -3   20.88    1.38
  -5   0   3   22.73    1.32
   4   0  -3   55.42    2.37
   4   0  -3   61.64    2.52
  -4   0   3   65.36    3.22
  -4   0   3   60.57    2.24
  -4   0   3   63.15    2.54
   3   0  -3   81.99    3.21
   3   0  -3   86.68    3.01
   3   0  -3   85.11    3.06
  -3   0   3   86.16    2.78
  -3   0   3   84.37    2.78
   1   0  -3  113.41    3.70
   1   0  -3  108.51    4.18
  -1   0   3  112.79    3.01
  -1   0   3  113.71    3.82
  -1   0   3  114.59    3.58
   0   0  -3  308.93    9.93
   0   0  -3  322.74    9.28
   0   0  -3  305.30   11.21
   0   0   3  306.11    9.84
   0   0   3  316.43    8.10
  -1   0  -3    5.10    0.45
  -1   0  -3    4.49    0.31
  -1   0  -3    4.68    0.37
   1   0   3    5.06    0.42
   1   0   3    5.04    0.45
   1   0   3    5.24    0.40
  -2   0  -3    5.98    0.53
  -2   0  -3    5.82    0.43
   2   0   3    5.99    0.59
   2   0   3    5.91    0.49
  -3   0  -3   24.17    1.20
   3   0   3   24.22    1.44
   3   0   3   26.00    1.08
   3   0   3   24.30    0.99
  -4   0  -3  255.29    8.93
  -4   0  -3  252.15    6.15
  -4   0  -3  284.63    8.88
  -4   0  -3  267.15    9.23
   4   0   3  271.12    7.42
   4   0   3  271.06    8.18
   4   0   3  275.73    7.64
   4   0   3  278.66    7.81
  -5   0  -3   15.75    0.88
  -5   0  -3   16.31    0.62
  -5   0  -3   16.77    1.03
  -5   0  -3   16.43    1.36
   5   0   3   17.35    0.95
   5   0   3   16.60    0.66
   5   0   3   16.44    0.67
  -6   0  -3  209.46    6.98
  -6   0  -3  205.50    4.81
  -6   0  -3  198.28    7.21
   6   0   3  213.33    7.83
   6   0   3  209.28    6.28
   6   0   3  213.88    5.98
  -7   0  -3    1.10    0.13
  -7   0  -3    0.88    0.10
  -7   0  -3    1.06    0.21
   7   0   3    0.80    0.11
   7   0   3    1.06    0.12
   7   0   3    1.24    0.18
   8   0   3    1.73    0.12
  10  -1  -3    4.38    0.25
 -10   1   3    3.85    0.15
 -10   1   3    4.28    0.28
 -10   1   3    4.48    0.22
   9  -1  -3    5.87    0.44
   9  -1  -3    5.64    0.39
  -9   1   3    5.37    0.32
   8  -1  -3  130.32    4.44
   8  -1  -3  135.14    4.82
  -8   1   3  131.80    3.98
  -8   1   3  129.58    5.59
   7  -1  -3  107.25    4.45
   7  -1  -3  115.21    4.71
   7  -1  -3  113.12    3.85
   7  -1  -3  109.76    4.05
  -7   1   3  112.28    3.39
  -7   1   3  108.45    3.81
  -7   1   3  108.00    4.05
  -7   1   3  109.79    4.88
   6  -1  -3  177.80    7.05
  -6   1   3  196.51    7.41
  -6   1   3  194.99    5.76
   5  -1  -3   10.13    0.89
  -5   1   3    8.00    0.64
  -5   1   3    9.04    0.63
  -5   1   3   11.04    0.79
   4  -1  -3   14.43    0.94
  -4   1   3   14.52    0.86
  -4   1   3   14.60    0.75
  -4   1   3   15.90    0.79
  -4   1   3   15.59    1.11
   3  -1  -3   21.50    0.98
   3  -1  -3   19.52    0.88
   3  -1  -3   20.90    1.03
  -3   1   3   21.12    0.85
   2  -1  -3   97.26    3.78
   2  -1  -3  105.17    3.57
   2  -1  -3  104.95    3.45
  -2   1   3  101.74    3.39
   1  -1  -3  151.45    5.71
   1  -1  -3  161.17    5.10
  -1   1   3  147.65    4.92
  -1   1   3  161.66    4.97
   0  -1  -3  734.58   21.54
   0  -1  -3  710.87   23.31
   0   1   3  807.83   25.68
   0   1   3  710.80   22.95
  -1  -1  -3   38.39    1.60
  -1  -1  -3   38.30    1.59
  -1  -1  -3   36.68    1.43
   1   1   3   37.34    1.62
   1   1   3   38.91    1.70
   1   1   3   38.64    1.51
  -2  -1  -3   48.86    1.95
  -2  -1  -3   51.15    2.21
   2   1   3   51.62    2.26
   2   1   3   48.76    1.98
   2   1   3   53.50    2.19
  -3  -1  -3    0.94    0.29
  -3  -1  -3    1.13    0.24
   3   1   3    1.04    0.24
  -4  -1  -3    8.67    0.71
  -4  -1  -3    8.38    0.61
  -4  -1  -3    9.71    0.95
  -4  -1  -3    8.20    0.61
  -4  -1  -3    8.94    0.74
   4   1   3    8.96    0.64
   4   1   3    8.49    0.42
   4   1   3    8.43    0.44
   4   1   3   10.35    0.61
  -5  -1  -3    4.84    0.45
  -5  -1  -3    5.03    0.30
  -5  -1  -3    5.32    0.52
  -5  -1  -3    4.76    0.45
  -5  -1  -3    5.83    0.81
   5   1   3    4.48    0.46
   5   1   3    5.05    0.31
   5   1   3    4.90    0.31
  -6  -1  -3  168.55    3.87
  -6  -1  -3  162.84    5.67
   6   1   3  169.60    4.82
   6   1   3  166.18    5.11
  -7  -1  -3   15.62    0.84
  -7  -1  -3   15.33    0.46
  -7  -1  -3   15.65    0.61
   7   1   3   15.31    0.57
   7   1   3   16.07    0.57
   7   1   3   16.46    0.76
  10  -2  -3   15.44    0.60
 -10   2   3   13.83    0.60
 -10   2   3   15.73    0.48
   9  -2  -3    7.70    0.41
   9  -2  -3    7.16    0.51
   9  -2  -3    7.74    0.47
  -9   2   3    7.41    0.29
  -9   2   3    7.92    0.51
   8  -2  -3   40.28    1.64
   8  -2  -3   42.03    1.79
  -8   2   3   40.15    2.31
  -8   2   3   40.22    1.87
   7  -2  -3    5.69    0.46
   7  -2  -3    5.99    0.50
   7  -2  -3    7.81    0.58
  -7   2   3    4.91    0.73
  -7   2   3    5.57    0.63
   6  -2  -3  143.52    3.72
   6  -2  -3  135.73    4.87
   6  -2  -3  147.32    5.24
   6  -2  -3  138.76    5.66
  -6   2   3  160.62    5.98
  -6   2   3  150.26    4.67
   5  -2  -3  207.30    7.54
  -5   2   3  213.89    6.24
  -5   2   3  218.89    7.03
   4  -2  -3  295.99   10.07
  -4   2   3  293.55    8.38
  -4   2   3  313.96    9.58
  -4   2   3  310.28    9.12
   3  -2  -3    1.83    0.29
  -3   2   3    2.06    0.25
   2  -2  -3   59.31    2.15
  -2   2   3   59.13    2.73
   1  -2  -3   17.20    0.81
  -1   2   3   16.99    0.79
  -1   2   3   17.55    0.64
  -1   2   3   16.66    0.59
   0  -2  -3  243.92    7.45
   0  -2  -3  249.79    8.11
   0   2   3  254.10    6.59
   0   2   3  245.40    6.54
  -1  -2  -3  193.76    6.56
  -1  -2  -3  184.56    6.17
   1   2   3  200.35    7.16
   1   2   3  197.92    5.30
  -2  -2  -3  492.70   15.96
  -2  -2  -3  480.20   15.22
   2   2   3  468.86   15.19
   2   2   3  508.06   17.36
  -3  -2  -3   43.67    1.99
  -3  -2  -3   47.20    2.33
   3   2   3   45.07    1.95
   3   2   3   43.97    2.82
   3   2   3   46.04    2.24
  -4  -2  -3   43.60    2.27
  -4  -2  -3   41.26    1.95
  -4  -2  -3   40.23    1.62
  -4  -2  -3   37.14    1.70
  -4  -2  -3   38.27    1.75
   4   2   3   38.71    1.32
   4   2   3   43.86    1.87
   4   2   3   38.02    2.70
   4   2   3   40.93    1.44
  -5  -2  -3    7.04    0.57
  -5  -2  -3    7.15    0.88
  -5  -2  -3    9.50    0.64
   5   2   3    7.56    0.38
   5   2   3    6.98    0.59
   5   2   3    7.33    0.42
   5   2   3    7.17    0.38
  -6  -2  -3    7.26    0.50
   6   2   3    6.62    0.34
   6   2   3    7.17    0.55
  -7  -2  -3    9.14    0.40
   7   2   3    8.87    0.34
   7   2   3    8.90    0.47
  10  -3  -3   23.23    0.84
 -10   3   3   23.33    0.76
   9  -3  -3    5.03    0.36
   9  -3  -3    5.10    0.30
  -9   3   3    5.05    0.27
  -9   3   3    4.50    0.32
   8  -3  -3   32.38    1.36
   8  -3  -3   31.59    1.49
   8  -3  -3   31.21    1.48
   8  -3  -3   30.91    1.22
   8  -3  -3   31.39    1.27
  -8   3   3   31.43    1.35
  -8   3   3   29.94    1.53
   7  -3  -3   27.47    1.27
   7  -3  -3   26.43    1.36
   7  -3  -3   27.16    1.19
   7  -3  -3   27.87    1.45
  -7   3   3   27.69    1.50
  -7   3   3   28.16    1.77
   6  -3  -3   50.02    1.71
   6  -3  -3   55.87    2.40
   6  -3  -3   48.61    1.98
   6  -3  -3   47.34    2.53
   6  -3  -3   46.06    1.87
   6  -3  -3   50.64    2.12
  -6   3   3   52.59    2.20
  -6   3   3   53.78    2.63
  -6   3   3   53.40    2.30
   5  -3  -3   35.68    1.88
  -5   3   3   37.68    1.68
  -5   3   3   35.86    1.95
  -5   3   3   38.89    1.67
   4  -3  -3  107.37    3.90
   4  -3  -3  105.47    3.98
  -4   3   3  104.52    3.34
  -4   3   3  107.99    3.69
  -4   3   3  105.92    4.17
   3  -3  -3  225.23    7.63
   3  -3  -3  232.47    7.58
  -3   3   3  226.41    6.29
   2  -3  -3  156.48    5.32
  -2   3   3  152.91    4.36
  -2   3   3  160.90    4.55
  -2   3   3  166.42    6.82
  -2   3   3  158.07    5.26
   1  -3  -3   52.88    2.01
  -1   3   3   53.43    1.63
  -1   3   3   50.80    2.75
  -1   3   3   53.18    1.99
  -1   3   3   53.36    1.66
   0  -3  -3    3.91    0.37
   0   3   3    4.37    0.62
   0   3   3    3.44    0.29
   0   3   3    3.79    0.29
  -1  -3  -3    4.55    0.45
   1   3   3    3.91    0.34
   1   3   3    4.46    0.69
   1   3   3    4.50    0.48
  -2  -3  -3  144.51    5.38
   2   3   3  147.80    7.07
   2   3   3  151.99    5.81
   2   3   3  144.28    5.01
  -3  -3  -3   87.88    3.43
  -3  -3  -3   95.07    3.88
  -3  -3  -3   87.52    3.16
  -3  -3  -3   88.44    3.34
   3   3   3   92.11    4.94
   3   3   3   91.64    3.98
   3   3   3   92.11    3.42
   3   3   3   93.36    2.96
   3   3   3   93.89    2.98
   3   3   3   91.99    3.81
  -4  -3  -3  150.47    5.24
  -4  -3  -3  142.29    4.73
  -4  -3  -3  156.89    5.70
  -4  -3  -3  138.73    5.05
   4   3   3  148.46    5.93
   4   3   3  149.18    4.63
  -5  -3  -3    9.82    0.65
  -5  -3  -3    9.11    0.93
  -5  -3  -3    9.38    0.66
   5   3   3    9.80    0.43
   5   3   3    9.60    0.68
   5   3   3   10.23    0.50
   5   3   3    9.57    0.45
   5   3   3    9.30    0.42
  -6  -3  -3   10.09    0.57
  -6  -3  -3   10.03    0.59
   6   3   3    9.18    0.40
  -7  -3  -3   10.98    0.41
   7   3   3   10.52    0.50
   9  -4  -3   35.53    1.52
   9  -4  -3   39.21    1.39
  -9   4   3   38.73    1.21
  -9   4   3   37.17    1.05
   8  -4  -3    9.12    0.64
   8  -4  -3    9.18    0.58
   8  -4  -3    9.17    0.52
   8  -4  -3    8.74    0.49
   8  -4  -3    9.01    0.57
  -8   4   3    8.85    0.40
   7  -4  -3    1.51    0.26
   7  -4  -3    1.72    0.32
   7  -4  -3    1.39    0.21
   7  -4  -3    1.60    0.25
  -7   4   3    1.61    0.36
   6  -4  -3   67.70    2.96
   6  -4  -3   61.01    2.35
   6  -4  -3   64.74    2.45
   6  -4  -3   62.38    3.00
   6  -4  -3   66.46    2.81
   6  -4  -3   65.59    2.43
   6  -4  -3   66.30    2.18
  -6   4   3   66.75    2.80
  -6   4   3   67.63    2.65
   5  -4  -3   70.07    2.52
   5  -4  -3   73.18    2.51
   5  -4  -3   72.45    3.03
   5  -4  -3   61.83    3.00
   5  -4  -3   70.38    3.00
   5  -4  -3   70.47    2.99
   5  -4  -3   66.11    2.26
   5  -4  -3   65.22    2.41
  -5   4   3   67.34    2.60
  -5   4   3   73.07    2.80
   4  -4  -3   79.15    3.09
   4  -4  -3   78.76    3.16
  -4   4   3   80.65    2.75
   3  -4  -3   53.47    2.17
  -3   4   3   53.29    1.90
   2  -4  -3   90.85    3.28
  -2   4   3   92.89    4.22
  -2   4   3   91.18    3.28
  -2   4   3   93.13    2.74
  -2   4   3   88.58    2.82
   1  -4  -3  132.60    4.64
  -1   4   3  130.75    3.80
  -1   4   3  140.00    6.23
  -1   4   3  137.65    4.63
  -1   4   3  133.61    3.86
   0  -4  -3  106.59    3.83
   0   4   3  106.49    3.16
   0   4   3  107.59    5.35
   0   4   3  107.89    3.16
  -1  -4  -3   61.12    2.50
   1   4   3   62.37    3.62
   1   4   3   58.67    2.00
   1   4   3   62.48    2.79
  -2  -4  -3   20.32    1.10
  -2  -4  -3   21.71    1.04
  -2  -4  -3   21.69    1.31
  -2  -4  -3   20.91    1.16
   2   4   3   20.19    1.13
   2   4   3   21.57    0.87
   2   4   3   21.88    1.40
   2   4   3   22.38    1.90
  -3  -4  -3    1.80    0.31
  -3  -4  -3    1.59    0.32
  -3  -4  -3    1.63    0.32
  -3  -4  -3    1.90    0.41
   3   4   3    2.22    0.19
   3   4   3    1.50    0.26
   3   4   3    1.23    0.18
   3   4   3    1.27    0.34
   3   4   3    1.16    0.46
   3   4   3    1.21    0.18
  -4  -4  -3   59.03    2.32
  -4  -4  -3   54.00    2.28
  -4  -4  -3   58.95    2.17
   4   4   3   58.08    1.95
   4   4   3   54.63    2.48
   4   4   3   56.44    1.87
  -5  -4  -3   71.08    2.68
  -5  -4  -3   76.21    2.72
   5   4   3   75.42    2.39
   5   4   3   73.14    2.13
   5   4   3   71.35    2.19
   5   4   3   70.01    2.49
  -6  -4  -3   52.05    1.81
   6   4   3   47.19    1.46
   9  -5  -3    0.06    0.08
   9  -5  -3    0.18    0.08
  -9   5   3    0.13    0.06
   8  -5  -3    3.41    0.36
   8  -5  -3    2.80    0.27
   8  -5  -3    3.06    0.28
   8  -5  -3    2.83    0.23
  -8   5   3    2.75    0.23
   7  -5  -3   45.89    1.79
   7  -5  -3   47.36    1.77
   7  -5  -3   44.61    1.81
   7  -5  -3   49.89    2.20
  -7   5   3   45.27    2.02
   6  -5  -3    1.78    0.33
   6  -5  -3    1.31    0.33
   6  -5  -3    1.11    0.22
   6  -5  -3    1.03    0.23
   6  -5  -3    1.51    0.31
   6  -5  -3    1.02    0.20
  -6   5   3    1.21    0.32
   5  -5  -3    1.88    0.38
   5  -5  -3    2.07    0.25
   5  -5  -3    1.38    0.33
   5  -5  -3    1.38    0.25
  -5   5   3    1.14    0.29
  -5   5   3    1.28    0.31
   4  -5  -3   48.68    1.85
   4  -5  -3   49.75    2.32
   4  -5  -3   45.86    2.39
   4  -5  -3   51.47    1.93
   4  -5  -3   52.43    1.89
   4  -5  -3   50.04    2.38
  -4   5   3   53.21    1.60
  -4   5   3   51.11    1.98
   3  -5  -3   65.90    2.80
  -3   5   3   76.92    2.42
  -3   5   3   77.98    2.88
   2  -5  -3   10.53    0.69
  -2   5   3   10.84    0.65
  -2   5   3   10.24    0.73
  -2   5   3   10.32    0.63
   1  -5  -3   88.05    3.22
  -1   5   3   85.62    2.73
  -1   5   3   86.72    4.36
   0  -5  -3   19.30    1.05
   0  -5  -3   18.03    1.03
   0   5   3   20.22    1.64
   0   5   3   19.68    0.92
   0   5   3   18.92    0.89
  -1  -5  -3   14.12    0.87
  -1  -5  -3   13.88    0.93
  -1  -5  -3   14.57    0.86
  -1  -5  -3   14.59    0.95
   1   5   3   15.50    1.12
   1   5   3   15.57    1.52
   1   5   3   14.18    0.77
   1   5   3   15.00    0.65
  -2  -5  -3    9.09    0.79
  -2  -5  -3    9.94    0.76
  -2  -5  -3    8.42    0.63
  -2  -5  -3    9.42    0.70
   2   5   3    9.51    1.19
   2   5   3    9.59    0.51
   2   5   3    9.50    0.90
   2   5   3    9.30    0.48
  -3  -5  -3   58.73    3.07
  -3  -5  -3   58.71    2.28
  -3  -5  -3   56.04    2.32
  -3  -5  -3   58.62    2.21
   3   5   3   56.98    1.94
   3   5   3   52.93    2.49
   3   5   3   55.98    1.96
   3   5   3   55.45    1.88
   3   5   3   54.70    2.77
  -4  -5  -3    8.45    0.64
  -4  -5  -3    8.83    0.76
  -4  -5  -3   10.11    0.62
   4   5   3    8.95    0.58
   4   5   3    8.99    0.47
   4   5   3    8.51    0.40
   4   5   3    8.95    0.42
  -5  -5  -3    1.09    0.17
  -5  -5  -3    1.36    0.23
   5   5   3    1.18    0.12
   5   5   3    1.45    0.15
   5   5   3    1.16    0.11
  -6  -5  -3    6.97    0.28
   6   5   3    7.10    0.36
   8  -6  -3   22.44    1.06
   8  -6  -3   21.49    0.86
  -8   6   3   22.28    0.77
  -8   6   3   20.42    0.73
   7  -6  -3    0.93    0.25
   7  -6  -3    1.00    0.21
   7  -6  -3    0.78    0.16
   7  -6  -3    0.75    0.17
   7  -6  -3    0.66    0.18
  -7   6   3    0.85    0.14
   6  -6  -3    0.65    0.18
   6  -6  -3    0.65    0.23
   6  -6  -3    1.04    0.29
   6  -6  -3    0.56    0.22
   6  -6  -3    0.49    0.16
  -6   6   3    0.68    0.13
   5  -6  -3   17.25    1.17
   5  -6  -3   19.87    0.93
   5  -6  -3   19.98    0.95
   5  -6  -3   19.54    1.29
   5  -6  -3   20.65    1.30
  -5   6   3   19.06    1.02
  -5   6   3   19.36    0.77
   4  -6  -3    0.76    0.26
   4  -6  -3    0.97    0.22
   4  -6  -3    0.66    0.24
   4  -6  -3    0.41    0.26
  -4   6   3    0.77    0.23
  -4   6   3    0.86    0.13
  -4   6   3    0.52    0.19
  -4   6   3    0.66    0.20
   3  -6  -3   19.83    1.28
   3  -6  -3   19.39    1.11
   3  -6  -3   21.23    1.26
  -3   6   3   19.95    1.01
  -3   6   3   19.55    1.15
  -3   6   3   20.16    1.01
   2  -6  -3   60.63    2.73
   2  -6  -3   63.07    2.32
   2  -6  -3   62.45    3.14
   2  -6  -3   57.09    2.74
   2  -6  -3   66.26    2.92
  -2   6   3   63.38    2.59
  -2   6   3   64.71    2.20
  -2   6   3   62.51    2.16
   1  -6  -3   52.65    2.19
   1  -6  -3   56.37    2.95
   1  -6  -3   54.52    2.48
  -1   6   3   57.56    2.02
  -1   6   3   54.47    3.17
  -1   6   3   56.28    1.93
   0  -6  -3    1.94    0.36
   0  -6  -3    2.27    0.46
   0   6   3    2.14    0.41
   0   6   3    2.03    0.27
   0   6   3    1.84    0.31
   0   6   3    2.57    0.60
  -1  -6  -3   52.79    2.10
  -1  -6  -3   50.11    2.96
  -1  -6  -3   53.25    2.25
   1   6   3   50.41    2.59
   1   6   3   51.37    1.78
  -2  -6  -3    0.56    0.24
  -2  -6  -3    0.85    0.23
  -2  -6  -3    0.36    0.31
   2   6   3    0.89    0.17
   2   6   3    0.75    0.14
   2   6   3    0.65    0.25
  -3  -6  -3    2.32    0.45
  -3  -6  -3    2.31    0.35
   3   6   3    3.00    0.22
   3   6   3    2.47    0.30
   3   6   3    2.88    0.25
   3   6   3    2.44    0.23
   3   6   3    2.08    0.40
  -4  -6  -3    7.01    0.61
  -4  -6  -3    7.79    0.54
   4   6   3    8.99    0.50
   4   6   3    7.13    0.33
   4   6   3    7.46    0.35
   4   6   3    7.96    0.39
  -5  -6  -3   35.57    1.25
  -5  -6  -3   30.56    0.96
   5   6   3   31.71    0.95
   8  -7  -3    6.47    0.38
  -8   7   3    6.49    0.29
   7  -7  -3   10.70    0.66
   7  -7  -3    9.69    0.58
  -7   7   3    9.51    0.42
   6  -7  -3    7.01    0.58
   6  -7  -3    7.79    0.62
   6  -7  -3    6.55    0.57
  -6   7   3    6.29    0.34
  -6   7   3    6.35    0.52
   5  -7  -3    0.41    0.22
   5  -7  -3    0.38    0.20
   5  -7  -3    0.96    0.29
  -5   7   3    0.49    0.10
  -5   7   3    0.19    0.14
   4  -7  -3   30.10    1.70
   4  -7  -3   28.47    1.64
   4  -7  -3   28.62    1.57
   4  -7  -3   27.17    1.43
  -4   7   3   27.40    1.25
  -4   7   3   28.38    1.28
   3  -7  -3   11.96    0.76
   3  -7  -3   12.64    1.01
   3  -7  -3   12.64    0.97
   3  -7  -3   13.12    1.02
  -3   7   3   12.32    0.77
   2  -7  -3    0.42    0.20
   2  -7  -3    0.23    0.19
   2  -7  -3    0.18    0.17
   2  -7  -3    0.78    0.28
  -2   7   3    0.12    0.13
  -2   7   3    0.27    0.14
   1  -7  -3   52.24    2.11
   1  -7  -3   52.70    2.79
   1  -7  -3   49.69    2.30
  -1   7   3   53.39    1.95
  -1   7   3   52.18    1.50
   0  -7  -3    8.63    0.88
   0  -7  -3    8.72    0.69
   0   7   3    7.76    0.79
   0   7   3    8.32    0.45
  -1  -7  -3   17.15    0.94
  -1  -7  -3   16.74    1.31
  -1  -7  -3   15.85    1.10
  -1  -7  -3   17.43    0.99
   1   7   3   15.99    0.71
   1   7   3   15.54    1.18
   1   7   3   16.25    0.74
  -2  -7  -3    5.65    0.65
  -2  -7  -3    4.17    0.43
   2   7   3    3.64    0.28
   2   7   3    2.83    0.46
   2   7   3    4.26    0.30
   2   7   3    3.29    0.34
   2   7   3    3.83    0.26
  -3  -7  -3   11.57    0.67
  -3  -7  -3   11.23    0.83
   3   7   3   11.52    0.50
   3   7   3   10.97    0.46
   3   7   3   10.39    0.60
  -4  -7  -3   11.12    0.55
  -4  -7  -3   10.47    0.64
   4   7   3   10.77    0.39
   4   7   3   10.65    0.43
   7  -8  -3    6.48    0.38
  -7   8   3    5.83    0.26
   6  -8  -3    9.28    0.57
   6  -8  -3    9.43    0.60
  -6   8   3    8.97    0.40
   5  -8  -3   11.87    0.72
   5  -8  -3   13.99    0.87
   5  -8  -3   13.65    0.87
  -5   8   3   11.85    0.51
   4  -8  -3    1.94    0.30
   4  -8  -3    1.23    0.21
   4  -8  -3    1.68    0.33
   4  -8  -3    1.46    0.33
  -4   8   3    1.18    0.23
   3  -8  -3    2.11    0.37
   3  -8  -3    2.04    0.37
  -3   8   3    2.29    0.31
  -3   8   3    2.49    0.19
   2  -8  -3   53.73    2.60
   2  -8  -3   49.50    2.26
   2  -8  -3   49.31    2.49
  -2   8   3   50.50    1.86
  -2   8   3   49.45    1.44
   1  -8  -3    0.94    0.27
   1  -8  -3    0.87    0.34
  -1   8   3    0.97    0.27
  -1   8   3    0.91    0.12
  -1   8   3    0.97    0.14
   0  -8  -3    1.01    0.30
   0   8   3    1.51    0.17
   0   8   3    1.10    0.18
   0   8   3    1.50    0.33
  -1  -8  -3   39.25    1.53
  -1  -8  -3   40.30    2.15
  -1  -8  -3   36.88    1.82
   1   8   3   38.73    1.37
   1   8   3   39.17    1.34
  -2  -8  -3    7.10    0.61
  -2  -8  -3    7.17    0.44
   2   8   3    6.37    0.40
   2   8   3    6.88    0.35
   2   8   3    6.62    0.32
   2   8   3    7.07    0.35
  -3  -8  -3    5.57    0.43
  -3  -8  -3    5.64    0.33
   3   8   3    5.76    0.26
   5  -9  -3    4.31    0.35
  -5   9   3    4.12    0.20
  -5   9   3    4.46    0.20
   4  -9  -3    9.96    0.60
   4  -9  -3   11.16    0.68
  -4   9   3   10.18    0.41
  -4   9   3   11.41    0.40
   3  -9  -3   13.46    0.84
   3  -9  -3   14.78    0.82
  -3   9   3   14.85    0.49
   2  -9  -3    9.75    0.72
   2  -9  -3    9.43    0.56
  -2   9   3   10.23    0.44
  -2   9   3    9.74    0.36
   1  -9  -3    0.35    0.19
   1  -9  -3    0.20    0.13
  -1   9   3    0.50    0.11
  -1   9   3    0.32    0.08
   0  -9  -3   51.03    2.46
   0  -9  -3   52.58    2.25
   0   9   3   50.30    1.65
   0   9   3   51.72    1.69
  -1  -9  -3    2.34    0.21
  -1  -9  -3    2.96    0.31
   1   9   3    2.83    0.17
   1   9   3    2.60    0.15
   1   9   3    2.85    0.18
  -2  -9  -3    0.93    0.14
   2 -10  -3    9.89    0.52
  -2  10   3    9.71    0.37
   3  10  -4    0.14    0.05
  -3 -10   4    0.06    0.07
  -3 -10   4    0.05    0.06
   2  10  -4    2.09    0.15
   2  10  -4    2.02    0.14
  -2 -10   4    2.01    0.18
  -2 -10   4    2.17    0.19
  -2 -10   4    2.49    0.21
   1  10  -4    3.13    0.19
   1  10  -4    3.35    0.20
  -1 -10   4    2.97    0.22
  -1 -10   4    3.45    0.27
   0  10  -4    6.96    0.33
   0  10  -4    7.14    0.33
   0  10  -4    6.75    0.31
   0 -10   4    6.72    0.44
  -1  10  -4   46.57    1.50
  -1  10  -4   46.65    1.50
  -1  10  -4   45.97    1.46
   1 -10   4   46.85    1.82
  -2  10  -4   16.86    0.60
  -2  10  -4   16.18    0.58
   2 -10   4   15.98    0.72
   5   9  -4   20.99    0.68
   5   9  -4   18.53    0.74
  -5  -9   4   20.59    0.79
  -5  -9   4   19.01    0.68
   4   9  -4   53.97    1.72
  -4  -9   4   54.94    1.76
  -4  -9   4   50.78    1.70
  -4  -9   4   54.85    1.91
   3   9  -4   30.06    1.05
   3   9  -4   31.17    1.07
  -3  -9   4   29.51    1.21
   2   9  -4   11.54    0.52
   2   9  -4   11.67    0.52
  -2  -9   4   11.58    0.63
   1   9  -4    2.02    0.18
   1   9  -4    1.81    0.18
   1   9  -4    1.39    0.17
  -1  -9   4    1.46    0.21
   0   9  -4    0.17    0.09
   0   9  -4    0.27    0.09
   0   9  -4    0.53    0.11
   0  -9   4    0.22    0.16
   0  -9   4    0.21    0.11
   0  -9   4    0.16    0.10
  -1   9  -4    0.37    0.10
  -1   9  -4    0.02    0.06
  -1   9  -4    0.14    0.10
   1  -9   4    0.14    0.10
   1  -9   4    0.11    0.15
  -2   9  -4   21.00    0.80
  -2   9  -4   19.64    0.74
  -2   9  -4   19.46    0.68
  -2   9  -4   21.19    0.79
   2  -9   4   19.96    0.95
   2  -9   4   20.98    1.05
   2  -9   4   19.67    0.96
  -3   9  -4   39.89    1.25
  -3   9  -4   44.58    1.39
   3  -9   4   38.91    1.60
   3  -9   4   42.11    1.68
  -4   9  -4   12.10    0.46
   4  -9   4   11.73    0.57
   6   8  -4    2.57    0.17
  -6  -8   4    2.83    0.23
  -6  -8   4    3.05    0.22
  -6  -8   4    2.51    0.18
   5   8  -4    0.44    0.10
  -5  -8   4    0.26    0.09
  -5  -8   4    0.03    0.10
  -5  -8   4    0.10    0.11
  -5  -8   4    0.08    0.08
   4   8  -4   29.45    1.08
   4   8  -4   28.77    1.05
  -4  -8   4   30.03    1.26
  -4  -8   4   28.79    1.15
   3   8  -4   56.19    1.90
   3   8  -4   56.05    1.88
  -3  -8   4   58.18    2.25
  -3  -8   4   54.51    2.11
  -3  -8   4   56.28    1.97
   2   8  -4  107.25    3.44
   2   8  -4  104.73    3.37
   2   8  -4  106.55    3.41
  -2  -8   4  106.92    3.69
  -2  -8   4  112.97    3.90
  -2  -8   4  106.66    3.42
   1   8  -4   20.45    0.85
   1   8  -4   20.47    0.84
   1   8  -4   19.32    0.81
  -1  -8   4   19.64    0.93
  -1  -8   4   20.58    1.10
  -1  -8   4   19.76    0.97
  -1  -8   4   20.16    1.08
  -1  -8   4   17.31    1.29
   0   8  -4   20.95    0.85
   0   8  -4   21.49    0.89
   0   8  -4   22.28    0.90
   0   8  -4   21.51    0.78
   0  -8   4   21.38    1.00
   0  -8   4   21.62    1.11
   0  -8   4   22.22    1.17
   0  -8   4   20.98    0.97
   0  -8   4   21.99    1.20
   0  -8   4   20.78    1.47
  -1   8  -4    0.62    0.11
  -1   8  -4    0.81    0.16
  -1   8  -4    0.77    0.13
   1  -8   4    0.53    0.30
   1  -8   4    0.52    0.16
   1  -8   4    0.48    0.21
   1  -8   4    0.83    0.23
   1  -8   4    0.58    0.17
  -2   8  -4    0.92    0.16
  -2   8  -4    0.89    0.13
  -2   8  -4    0.85    0.13
   2  -8   4    1.19    0.22
   2  -8   4    0.94    0.22
   2  -8   4    1.27    0.37
  -3   8  -4    2.70    0.20
  -3   8  -4    2.51    0.23
   3  -8   4    2.48    0.30
   3  -8   4    2.10    0.27
   3  -8   4    2.20    0.26
  -4   8  -4   45.58    1.51
  -4   8  -4   45.27    1.43
   4  -8   4   47.29    1.88
   4  -8   4   45.91    1.85
  -5   8  -4   26.84    0.80
   5  -8   4   25.13    1.04
   5  -8   4   24.06    1.02
   7   7  -4    4.28    0.23
   7   7  -4    4.05    0.20
  -7  -7   4    4.20    0.28
  -7  -7   4    3.80    0.25
  -7  -7   4    4.12    0.26
   6   7  -4   68.76    2.42
   6   7  -4   67.51    2.16
   6   7  -4   66.76    2.14
  -6  -7   4   67.38    2.40
  -6  -7   4   67.14    2.25
  -6  -7   4   67.94    2.39
   5   7  -4    0.07    0.07
   5   7  -4    0.34    0.11
  -5  -7   4    0.36    0.16
  -5  -7   4    0.15    0.16
   4   7  -4    1.67    0.19
   4   7  -4    1.94    0.22
  -4  -7   4    1.33    0.21
  -4  -7   4    1.58    0.29
  -4  -7   4    1.50    0.25
   3   7  -4    0.09    0.07
   3   7  -4    0.10    0.10
   3   7  -4    0.06    0.10
   3   7  -4    0.15    0.09
  -3  -7   4    0.09    0.13
  -3  -7   4   -0.12    0.21
  -3  -7   4   -0.03    0.14
   2   7  -4   63.04    2.09
   2   7  -4   61.68    2.12
   2   7  -4   63.67    1.83
   2   7  -4   61.45    2.13
  -2  -7   4   64.16    2.53
  -2  -7   4   66.26    2.19
  -2  -7   4   60.41    2.72
  -2  -7   4   62.60    2.59
  -2  -7   4   61.20    2.59
   1   7  -4   16.29    0.73
   1   7  -4   15.91    0.64
   1   7  -4   16.44    0.73
   1   7  -4   15.79    0.69
   1   7  -4   15.31    1.19
  -1  -7   4   16.40    0.97
  -1  -7   4   16.46    0.93
  -1  -7   4   14.56    1.15
  -1  -7   4   16.74    1.00
  -1  -7   4   14.55    1.06
  -1  -7   4   16.73    0.83
   0   7  -4  192.41    5.61
   0   7  -4  191.62    5.98
   0   7  -4  188.10    5.90
   0  -7   4  196.26    5.91
   0  -7   4  191.76    7.01
   0  -7   4  202.17    6.62
   0  -7   4  196.32    7.23
   0  -7   4  195.59    7.19
  -1   7  -4    7.73    0.43
  -1   7  -4    8.32    0.43
  -1   7  -4   10.64    0.53
   1  -7   4    7.83    0.67
   1  -7   4    8.09    0.93
   1  -7   4    8.22    0.55
   1  -7   4    8.05    0.64
  -2   7  -4    3.17    0.29
  -2   7  -4    3.41    0.27
   2  -7   4    3.44    0.41
   2  -7   4    3.32    0.41
   2  -7   4    4.02    0.67
  -3   7  -4    6.21    0.38
  -3   7  -4    5.72    0.39
   3  -7   4    6.20    0.51
   3  -7   4    6.29    0.52
   3  -7   4    5.80    0.74
   3  -7   4    5.67    0.45
  -4   7  -4    1.78    0.19
  -4   7  -4    1.74    0.19
   4  -7   4    1.59    0.23
  -5   7  -4    1.63    0.16
   5  -7   4    1.44    0.19
   5  -7   4    1.35    0.14
  -6   7  -4   40.38    1.18
   6  -7   4   39.28    1.52
   8   6  -4    4.35    0.21
   8   6  -4    4.29    0.20
  -8  -6   4    3.99    0.28
  -8  -6   4    4.43    0.27
  -8  -6   4    4.18    0.25
   7   6  -4    0.09    0.06
   7   6  -4    0.43    0.10
  -7  -6   4    0.08    0.06
  -7  -6   4    0.02    0.12
  -7  -6   4    0.09    0.09
  -7  -6   4    0.17    0.14
  -7  -6   4    0.15    0.12
   6   6  -4  245.04    7.35
   6   6  -4  248.32    6.70
   6   6  -4  252.01    7.33
  -6  -6   4  243.11    7.30
  -6  -6   4  239.17    7.77
  -6  -6   4  229.48    7.95
   5   6  -4    7.72    0.51
   5   6  -4    9.48    0.48
   5   6  -4    9.00    0.45
   5   6  -4    8.70    0.48
  -5  -6   4    8.51    0.58
  -5  -6   4    7.64    0.82
  -5  -6   4    8.83    0.62
  -5  -6   4    8.44    0.54
   4   6  -4   53.22    1.60
   4   6  -4   54.59    1.84
   4   6  -4   53.16    1.82
   4   6  -4   52.93    1.63
  -4  -6   4   49.97    2.56
  -4  -6   4   52.55    1.86
  -4  -6   4   54.75    2.05
  -4  -6   4   51.32    2.00
  -4  -6   4   51.74    2.15
   3   6  -4    0.03    0.18
   3   6  -4    0.17    0.09
   3   6  -4    0.05    0.10
   3   6  -4    0.62    0.13
   3   6  -4    0.24    0.11
  -3  -6   4    0.24    0.16
  -3  -6   4    0.13    0.19
  -3  -6   4    0.00    0.13
  -3  -6   4    0.30    0.14
   2   6  -4    1.04    0.16
   2   6  -4    0.90    0.29
   2   6  -4    0.68    0.13
   2   6  -4    0.97    0.14
   2   6  -4    0.79    0.14
  -2  -6   4    0.16    0.19
  -2  -6   4    0.73    0.23
  -2  -6   4    1.33    0.22
  -2  -6   4    0.67    0.17
  -2  -6   4    0.86    0.21
   1   6  -4    9.33    0.83
   1   6  -4    8.39    0.41
   1   6  -4    7.53    0.42
   1   6  -4    7.88    0.45
  -1  -6   4    7.32    1.17
  -1  -6   4    7.42    0.69
  -1  -6   4    8.38    0.62
  -1  -6   4    8.22    0.57
   0   6  -4  130.37    4.17
   0   6  -4  127.86    4.09
   0   6  -4  139.81    5.44
   0   6  -4  138.42    3.90
   0  -6   4  129.10    5.04
   0  -6   4  130.69    6.57
   0  -6   4  127.76    5.06
   0  -6   4  136.97    5.03
  -1   6  -4    9.98    0.49
  -1   6  -4    9.65    0.54
   1  -6   4    9.29    0.67
   1  -6   4   10.72    0.52
   1  -6   4    9.32    0.73
  -2   6  -4  238.78    6.83
  -2   6  -4  235.06    7.22
   2  -6   4  231.91    8.62
   2  -6   4  222.59    8.36
   2  -6   4  238.53    7.04
   2  -6   4  242.31    8.62
  -3   6  -4    5.73    0.40
  -3   6  -4    4.64    0.36
   3  -6   4    4.89    0.46
   3  -6   4    4.60    0.45
   3  -6   4    5.29    0.39
   3  -6   4    4.70    0.31
  -4   6  -4    3.60    0.29
  -4   6  -4    3.56    0.36
  -4   6  -4    3.84    0.32
   4  -6   4    4.68    0.40
   4  -6   4    3.67    0.28
   4  -6   4    3.74    0.31
   4  -6   4    3.70    0.28
   4  -6   4    3.68    0.56
  -5   6  -4    1.17    0.17
  -5   6  -4    0.93    0.17
   5  -6   4    1.21    0.15
  -6   6  -4   12.31    0.47
   6  -6   4   11.58    0.57
   6  -6   4   12.22    0.47
   9   5  -4    0.61    0.07
  -9  -5   4    0.50    0.09
   8   5  -4    3.12    0.20
   8   5  -4    3.74    0.22
  -8  -5   4    2.95    0.25
  -8  -5   4    2.85    0.25
  -8  -5   4    3.13    0.32
  -8  -5   4    3.21    0.22
   7   5  -4    8.23    0.47
   7   5  -4    8.73    0.43
   7   5  -4    8.69    0.42
  -7  -5   4    8.35    0.53
  -7  -5   4    9.15    0.55
  -7  -5   4    8.87    0.55
   6   5  -4   39.54    1.40
   6   5  -4   38.79    1.42
   6   5  -4   41.37    1.32
  -6  -5   4   38.93    1.58
  -6  -5   4   38.34    1.62
  -6  -5   4   40.14    1.60
  -6  -5   4   39.72    2.25
   5   5  -4    4.87    0.71
   5   5  -4    4.47    0.38
   5   5  -4    4.91    0.34
   5   5  -4    4.97    0.31
   5   5  -4    4.95    0.32
   5   5  -4    4.73    0.34
  -5  -5   4    5.83    0.49
  -5  -5   4    5.17    0.43
  -5  -5   4    4.66    0.66
  -5  -5   4    4.58    0.41
   4   5  -4  381.26   14.55
   4   5  -4  375.03   11.33
   4   5  -4  369.32    9.93
   4   5  -4  383.67   11.39
   4   5  -4  398.13    8.46
  -4  -5   4  383.60   10.97
  -4  -5   4  362.19   13.46
  -4  -5   4  386.70   11.98
  -4  -5   4  389.84   12.28
   3   5  -4    1.43    0.36
   3   5  -4    1.75    0.23
  -3  -5   4    1.03    0.50
   2   5  -4   68.89    3.12
  -2  -5   4   67.03    3.77
  -2  -5   4   66.39    2.77
  -2  -5   4   61.55    3.62
   1   5  -4    4.98    0.56
  -1  -5   4    4.92    0.51
  -1  -5   4    4.10    0.58
  -1  -5   4    4.58    0.80
   0   5  -4    0.18    0.15
   0  -5   4    0.39    0.17
   0  -5   4   -0.06    0.25
  -1   5  -4    0.58    0.20
  -2   5  -4  178.09    5.79
  -2   5  -4  189.54    5.51
  -2   5  -4  188.45    7.62
   2  -5   4  183.02    5.62
   2  -5   4  196.02    6.89
   2  -5   4  187.40    6.86
   2  -5   4  185.00    6.88
   2  -5   4  187.72    5.85
  -3   5  -4    0.08    0.15
  -3   5  -4    0.38    0.15
   3  -5   4    0.38    0.13
   3  -5   4    0.16    0.14
   3  -5   4    0.28    0.17
   3  -5   4    0.26    0.10
   3  -5   4    0.11    0.12
   3  -5   4    0.07    0.25
   3  -5   4    0.49    0.12
  -4   5  -4  136.41    6.06
  -4   5  -4  147.10    4.42
   4  -5   4  146.18    4.42
   4  -5   4  150.89    4.49
   4  -5   4  146.63    5.41
   4  -5   4  142.64    4.27
  -5   5  -4    1.32    0.25
  -5   5  -4    1.40    0.19
   5  -5   4    1.42    0.18
   5  -5   4    1.35    0.17
   5  -5   4    1.32    0.18
  -6   5  -4    1.25    0.14
  -6   5  -4    0.94    0.17
   6  -5   4    1.07    0.13
   6  -5   4    1.01    0.12
   9   4  -4   30.14    1.10
   9   4  -4   28.52    0.94
  -9  -4   4   24.64    1.02
  -9  -4   4   27.53    0.92
  -9  -4   4   27.71    1.14
  -9  -4   4   28.06    1.05
   8   4  -4   96.22    3.10
   8   4  -4  100.75    3.02
  -8  -4   4   98.78    3.02
  -8  -4   4   97.31    3.09
  -8  -4   4   99.83    3.43
   7   4  -4   18.96    0.86
   7   4  -4   18.11    0.77
   7   4  -4   19.41    0.79
  -7  -4   4   17.72    1.31
  -7  -4   4   19.54    0.95
  -7  -4   4   18.41    0.90
  -7  -4   4   18.37    1.42
   6   4  -4    0.29    0.10
   6   4  -4    0.40    0.10
   6   4  -4    0.13    0.09
   6   4  -4    0.39    0.10
   6   4  -4    0.20    0.11
  -6  -4   4    0.33    0.27
  -6  -4   4    0.23    0.17
   5   4  -4   12.71    0.59
   5   4  -4   12.80    0.54
   5   4  -4   12.93    1.16
   5   4  -4   12.35    0.59
   5   4  -4   12.27    0.64
  -5  -4   4   12.60    0.70
  -5  -4   4   13.12    1.10
   4   4  -4  142.86    3.44
   4   4  -4  137.08    5.97
  -4  -4   4  144.17    6.67
   3   4  -4    4.76    0.61
   3   4  -4    5.03    0.35
  -3  -4   4    4.46    0.69
  -3  -4   4    4.48    0.74
   2   4  -4  416.10   14.64
  -2  -4   4  391.20   13.40
  -2  -4   4  401.14   15.61
  -2  -4   4  392.09   12.01
  -2  -4   4  385.17   17.04
   1   4  -4    4.57    0.50
  -1  -4   4    5.83    0.76
  -1  -4   4    4.71    0.40
  -1  -4   4    4.97    0.48
   0   4  -4   57.52    2.49
   0  -4   4   52.62    1.94
   0  -4   4   53.29    2.92
   0  -4   4   55.53    2.33
  -1   4  -4   44.10    2.09
   1  -4   4   45.06    2.53
  -2   4  -4    5.13    0.53
   2  -4   4    4.43    0.61
  -3   4  -4    1.94    0.20
  -3   4  -4    2.10    0.25
   3  -4   4    1.84    0.21
   3  -4   4    1.58    0.17
   3  -4   4    2.32    0.51
   3  -4   4    1.92    0.24
  -4   4  -4  212.19    8.88
  -4   4  -4  208.69    5.63
  -4   4  -4  214.25    6.37
   4  -4   4  218.23    7.77
   4  -4   4  218.19    6.42
   4  -4   4  216.11    6.40
   4  -4   4  215.14    6.63
   4  -4   4  210.98    6.16
  -5   4  -4    0.23    0.14
  -5   4  -4    0.42    0.22
  -5   4  -4    0.35    0.12
   5  -4   4    0.59    0.13
   5  -4   4    0.26    0.10
   5  -4   4    0.19    0.11
  -6   4  -4   86.79    3.64
  -6   4  -4   84.26    2.57
   6  -4   4   85.37    2.53
   6  -4   4   82.58    2.62
   6  -4   4   83.62    2.62
  -7   4  -4    0.93    0.13
   7  -4   4    0.84    0.09
   7  -4   4    0.90    0.09
   9   3  -4    2.15    0.20
   9   3  -4    2.29    0.17
  -9  -3   4    2.08    0.19
  -9  -3   4    2.03    0.19
  -9  -3   4    2.26    0.28
   8   3  -4  115.52    3.41
   8   3  -4  108.57    3.50
  -8  -3   4  111.27    3.87
  -8  -3   4  107.82    4.69
  -8  -3   4  111.89    3.86
   7   3  -4   65.68    2.41
   7   3  -4   62.63    2.15
   7   3  -4   64.65    2.12
  -7  -3   4   61.84    3.22
  -7  -3   4   66.79    2.48
  -7  -3   4   65.54    2.27
   6   3  -4  108.80    3.48
   6   3  -4  108.72    3.92
   6   3  -4  108.39    3.24
   6   3  -4  105.85    3.03
  -6  -3   4  116.67    4.83
  -6  -3   4  114.82    3.94
   5   3  -4   47.50    2.50
  -5  -3   4   44.37    2.33
  -5  -3   4   44.04    2.85
   4   3  -4    2.03    0.41
   4   3  -4    1.68    0.20
  -4  -3   4    1.23    0.42
  -4  -3   4    3.53    0.64
   3   3  -4   37.06    1.12
   3   3  -4   39.51    1.99
  -3  -3   4   38.91    2.29
  -3  -3   4   37.14    1.63
  -3  -3   4   37.75    2.22
   2   3  -4  178.46    6.76
  -2  -3   4  175.06    5.55
  -2  -3   4  177.86    6.18
  -2  -3   4  182.02    5.00
  -2  -3   4  168.44    7.27
   1   3  -4   63.13    2.79
  -1  -3   4   64.94    2.15
  -1  -3   4   69.34    2.61
   0   3  -4  340.22   12.41
   0  -3   4  325.55    9.35
   0  -3   4  353.50   11.52
  -1   3  -4    6.97    0.60
   1  -3   4    6.82    0.42
   1  -3   4    6.91    0.54
   1  -3   4    7.28    0.65
  -2   3  -4    9.68    0.76
   2  -3   4   10.31    0.91
   2  -3   4   10.58    0.62
  -3   3  -4   39.04    2.05
  -3   3  -4   42.24    1.96
  -3   3  -4   40.18    1.51
  -3   3  -4   38.32    1.29
   3  -3   4   41.34    1.31
   3  -3   4   40.74    1.41
   3  -3   4   41.48    1.49
   3  -3   4   39.92    2.28
   3  -3   4   40.32    1.33
   3  -3   4   40.11    1.63
  -4   3  -4    0.26    0.15
  -4   3  -4    0.97    0.28
  -4   3  -4    0.21    0.19
  -4   3  -4    0.32    0.13
   4  -3   4    0.32    0.10
   4  -3   4    0.37    0.13
   4  -3   4    0.28    0.16
   4  -3   4    1.01    0.15
  -5   3  -4    2.67    0.26
  -5   3  -4    2.68    0.28
  -5   3  -4    3.05    0.44
   5  -3   4    2.67    0.22
   5  -3   4    2.82    0.25
   5  -3   4    2.63    0.26
  -6   3  -4  125.79    5.15
  -6   3  -4  116.91    3.56
   6  -3   4  121.61    3.54
   6  -3   4  118.56    3.66
   6  -3   4  122.03    3.68
  -7   3  -4    0.11    0.09
   7  -3   4    0.12    0.06
   7  -3   4    0.11    0.05
   7  -3   4    0.03    0.05
  10   2  -4   13.58    0.57
 -10  -2   4   11.89    0.54
   9   2  -4   66.36    2.40
  -9  -2   4   62.55    2.04
  -9  -2   4   63.81    2.45
   8   2  -4   10.51    0.51
   8   2  -4   10.12    0.51
  -8  -2   4    8.77    0.98
  -8  -2   4   10.77    0.63
  -8  -2   4   10.82    0.60
   7   2  -4   24.53    0.97
   7   2  -4   26.44    1.10
   7   2  -4   24.68    0.99
   7   2  -4   26.69    0.80
  -7  -2   4   24.50    1.39
  -7  -2   4   24.60    1.74
  -7  -2   4   26.17    1.20
   6   2  -4  157.33    5.38
   6   2  -4  150.22    4.80
   6   2  -4  151.01    4.15
   6   2  -4  155.91    5.84
   6   2  -4  157.30    4.68
  -6  -2   4  160.07    6.27
   5   2  -4   39.87    2.11
   5   2  -4   43.95    2.03
  -5  -2   4   43.48    2.19
  -5  -2   4   42.23    2.87
  -5  -2   4   40.33    2.48
   4   2  -4   43.74    1.87
   4   2  -4   39.46    2.08
  -4  -2   4   44.15    2.40
  -4  -2   4   43.94    1.87
  -4  -2   4   46.47    2.66
   3   2  -4   79.11    3.53
   3   2  -4   86.98    3.10
  -3  -2   4   85.59    2.98
  -3  -2   4   96.64    3.98
   2   2  -4   10.76    0.73
  -2  -2   4   11.12    0.54
  -2  -2   4   11.21    0.67
  -2  -2   4   10.98    0.99
   1   2  -4   90.85    3.65
   1   2  -4   88.24    3.08
  -1  -2   4   96.36    4.63
  -1  -2   4   90.56    2.76
  -1  -2   4   95.09    3.40
   0   2  -4  174.86    6.39
   0   2  -4  168.71    5.45
   0  -2   4  159.67    4.81
   0  -2   4  173.66    7.98
  -1   2  -4   53.61    2.03
  -1   2  -4   51.65    2.25
   1  -2   4   53.48    2.22
   1  -2   4   51.96    1.68
   1  -2   4   44.49    2.88
   1  -2   4   49.68    1.77
  -2   2  -4  189.94    6.26
   2  -2   4  192.13    5.56
   2  -2   4  192.79    9.05
   2  -2   4  191.97    6.81
   2  -2   4  187.02    5.53
  -3   2  -4    7.03    0.72
   3  -2   4    6.00    0.76
   3  -2   4    5.73    0.50
   3  -2   4    6.06    0.50
  -4   2  -4    1.57    0.20
  -4   2  -4    1.25    0.16
  -4   2  -4    1.99    0.27
  -4   2  -4    1.34    0.20
  -4   2  -4    1.00    0.34
   4  -2   4    1.23    0.37
   4  -2   4    1.39    0.26
   4  -2   4    1.47    0.19
   4  -2   4    1.50    0.16
   4  -2   4    1.32    0.17
   4  -2   4    1.44    0.17
  -5   2  -4   45.42    2.28
  -5   2  -4   43.48    1.43
  -5   2  -4   44.12    1.39
  -5   2  -4   41.03    2.17
  -5   2  -4   42.47    1.21
   5  -2   4   41.36    1.40
   5  -2   4   40.49    1.45
   5  -2   4   40.04    1.73
   5  -2   4   43.04    1.53
   5  -2   4   40.79    1.77
  -6   2  -4    7.17    0.36
  -6   2  -4    7.97    0.65
   6  -2   4    7.45    0.38
   6  -2   4    7.49    0.40
   6  -2   4    7.26    0.44
   6  -2   4    7.57    0.37
  -7   2  -4    0.51    0.14
   7  -2   4    0.44    0.08
   7  -2   4    0.70    0.09
  10   1  -4    8.39    0.43
 -10  -1   4    7.70    0.43
 -10  -1   4    7.89    0.27
   9   1  -4    1.69    0.20
  -9  -1   4    2.01    0.28
  -9  -1   4    1.60    0.19
   8   1  -4   25.57    0.98
   8   1  -4   24.41    0.99
   8   1  -4   27.65    1.11
  -8  -1   4   23.87    1.75
  -8  -1   4   24.91    1.13
   7   1  -4  102.18    3.88
   7   1  -4  120.78    3.79
   7   1  -4  103.80    3.39
   7   1  -4  110.33    3.51
   7   1  -4  110.69    2.87
   7   1  -4  110.66    4.64
  -7  -1   4  113.38    4.78
  -7  -1   4  109.94    3.88
  -7  -1   4  110.87    3.84
   6   1  -4   11.87    1.09
   6   1  -4   12.01    0.55
   6   1  -4   12.49    0.46
   6   1  -4   11.88    0.51
  -6  -1   4   11.72    1.04
   5   1  -4   43.88    2.19
  -5  -1   4   45.19    1.73
  -5  -1   4   46.54    2.24
  -5  -1   4   44.26    2.88
   4   1  -4   81.09    3.11
   4   1  -4   77.53    3.26
  -4  -1   4   85.61    2.89
  -4  -1   4   84.39    4.08
  -4  -1   4   72.44    3.59
   3   1  -4   39.80    1.69
   3   1  -4   39.05    1.63
   3   1  -4   39.70    1.81
  -3  -1   4   42.33    2.22
  -3  -1   4   40.60    1.57
   2   1  -4   20.51    1.08
   2   1  -4   20.58    0.95
  -2  -1   4   22.15    1.39
  -2  -1   4   23.11    0.72
  -2  -1   4   22.49    1.00
  -2  -1   4   22.22    0.91
  -2  -1   4   21.55    0.79
   1   1  -4  123.31    4.80
   1   1  -4  123.68    4.16
  -1  -1   4  134.06    4.44
  -1  -1   4  124.07    4.14
   0   1  -4    5.16    0.35
   0   1  -4    6.45    0.50
   0  -1   4    5.10    0.42
  -1   1  -4   21.83    1.13
  -1   1  -4   21.23    0.98
  -1   1  -4   23.97    1.24
   1  -1   4   22.91    0.91
   1  -1   4   21.66    1.49
   1  -1   4   22.40    1.24
   1  -1   4   21.83    1.11
  -2   1  -4   42.04    1.93
  -2   1  -4   39.06    1.75
   2  -1   4   42.16    1.53
   2  -1   4   42.89    1.54
   2  -1   4   41.96    2.11
   2  -1   4   40.99    2.41
  -3   1  -4  101.95    4.04
  -3   1  -4  102.12    3.92
   3  -1   4  101.28    3.21
   3  -1   4  104.73    3.31
   3  -1   4  102.08    4.24
  -4   1  -4   53.42    1.71
  -4   1  -4   52.21    1.49
  -4   1  -4   54.14    2.70
   4  -1   4   54.70    1.70
   4  -1   4   55.21    2.06
   4  -1   4   56.48    1.74
   4  -1   4   55.19    2.77
  -5   1  -4   18.29    0.78
  -5   1  -4   17.69    1.35
  -5   1  -4   18.09    0.65
  -5   1  -4   18.89    0.74
   5  -1   4   17.04    0.72
   5  -1   4   17.83    0.70
   5  -1   4   17.71    0.98
   5  -1   4   17.60    0.70
   5  -1   4   17.93    0.90
  -6   1  -4    6.58    0.36
  -6   1  -4    6.84    0.59
   6  -1   4    6.58    0.34
   6  -1   4    6.31    0.41
   6  -1   4    6.60    0.34
  -7   1  -4   13.84    0.73
   7  -1   4   12.57    0.59
   7  -1   4   13.40    0.50
   7  -1   4   13.69    0.49
  10   0  -4    2.13    0.20
 -10   0   4    2.07    0.11
 -10   0   4    2.63    0.23
   9   0  -4   39.36    1.59
   9   0  -4   39.37    1.47
  -9   0   4   37.46    2.13
  -9   0   4   39.37    1.33
   8   0  -4    5.96    0.46
   8   0  -4    5.90    0.42
  -8   0   4    5.44    0.40
  -8   0   4    5.34    0.37
  -8   0   4    4.82    0.73
   7   0  -4   40.98    1.18
   7   0  -4   39.84    2.39
   7   0  -4   40.25    1.43
   7   0  -4   38.46    1.46
   7   0  -4   40.81    1.69
   7   0  -4   39.81    1.60
  -7   0   4   40.34    1.63
  -7   0   4   41.20    1.91
  -7   0   4   41.35    2.37
   6   0  -4   12.82    0.53
   6   0  -4   10.92    1.09
   6   0  -4   12.87    0.58
   6   0  -4   12.67    0.47
  -6   0   4   12.68    1.03
  -6   0   4   13.43    0.80
   5   0  -4   76.83    3.29
  -5   0   4   76.79    3.22
  -5   0   4   74.81    4.11
   4   0  -4   10.52    0.66
   4   0  -4   12.22    0.85
  -4   0   4   11.18    0.69
  -4   0   4   12.14    0.86
  -4   0   4   11.41    0.96
   3   0  -4   43.22    1.84
   3   0  -4   42.96    1.84
   3   0  -4   43.73    1.73
  -3   0   4   43.30    1.50
   2   0  -4    4.57    0.39
   2   0  -4    4.70    0.36
  -2   0   4    4.85    0.27
  -2   0   4    5.77    0.35
   1   0  -4    0.10    0.10
  -1   0   4    0.22    0.10
  -1   0   4    0.30    0.08
   0   0  -4    1.34    0.24
   0   0  -4    1.60    0.21
   0   0  -4    1.52    0.25
   0   0   4    1.72    0.23
   0   0   4    1.75    0.24
   0   0   4    1.54    0.25
  -1   0  -4  221.07    7.47
  -1   0  -4  228.16    7.14
  -1   0  -4  218.55    7.09
   1   0   4  224.06    7.28
   1   0   4  228.64    7.64
   1   0   4  229.64    8.20
  -2   0  -4    0.23    0.12
  -2   0  -4    0.43    0.17
  -2   0  -4    0.37    0.21
   2   0   4    0.30    0.20
   2   0   4    0.72    0.21
  -3   0  -4    3.45    0.60
  -3   0  -4    4.36    0.58
  -3   0  -4    6.03    0.47
   3   0   4    6.62    0.72
   3   0   4    5.27    0.45
   3   0   4    3.98    0.26
   3   0   4    4.07    0.38
  -4   0  -4   13.42    0.55
  -4   0  -4   13.47    1.24
  -4   0  -4   13.01    1.10
  -4   0  -4   12.90    0.78
   4   0   4   13.30    0.57
   4   0   4   12.64    0.79
   4   0   4   13.55    0.57
  -5   0  -4   30.39    0.92
  -5   0  -4   30.48    1.74
  -5   0  -4   29.85    1.86
   5   0   4   30.21    1.03
   5   0   4   31.18    1.06
   5   0   4   28.59    1.06
   5   0   4   28.08    1.34
  -6   0  -4    5.21    0.49
  -6   0  -4    5.57    0.33
   6   0   4    5.24    0.29
   6   0   4    4.91    0.35
  -7   0  -4   14.42    0.74
  -7   0  -4   14.82    0.51
   7   0   4   14.94    0.53
   7   0   4   16.62    0.53
   7   0   4   15.16    0.67
  10  -1  -4    6.89    0.33
  10  -1  -4    6.96    0.35
 -10   1   4    6.91    0.39
   9  -1  -4    0.52    0.15
   9  -1  -4    0.43    0.13
  -9   1   4    0.57    0.11
  -9   1   4    1.56    0.37
   8  -1  -4   37.46    1.56
   8  -1  -4   35.33    1.56
  -8   1   4   36.73    2.21
  -8   1   4   36.45    1.29
   7  -1  -4   24.97    0.80
   7  -1  -4   26.28    1.15
   7  -1  -4   24.61    1.22
   7  -1  -4   23.52    1.20
   7  -1  -4   24.99    0.95
   7  -1  -4   25.29    1.83
  -7   1   4   23.75    1.37
  -7   1   4   25.70    1.73
   6  -1  -4    4.57    0.24
   6  -1  -4    4.10    0.27
   6  -1  -4    2.63    0.56
  -6   1   4    4.55    0.52
   5  -1  -4  115.43    4.59
  -5   1   4  118.24    4.49
  -5   1   4  115.27    5.70
  -5   1   4  116.80    4.03
   4  -1  -4   10.56    0.82
   4  -1  -4   11.30    0.76
  -4   1   4   11.54    0.62
  -4   1   4   11.25    0.67
   3  -1  -4   42.46    1.83
   3  -1  -4   46.81    1.82
   3  -1  -4   44.57    1.91
  -3   1   4   43.67    1.57
   2  -1  -4    1.35    0.21
  -2   1   4    1.39    0.19
   1  -1  -4   88.73    3.06
   1  -1  -4   85.07    3.43
  -1   1   4   82.90    2.95
  -1   1   4   88.16    2.93
  -1   1   4   86.81    2.48
  -1   1   4   86.98    3.29
  -1   1   4   86.43    2.35
   0  -1  -4   27.49    1.24
   0  -1  -4   27.42    1.24
   0   1   4   28.50    1.34
   0   1   4   29.08    1.31
   0   1   4   27.95    1.03
  -1  -1  -4    1.92    0.30
  -1  -1  -4    1.01    0.25
   1   1   4    1.37    0.26
   1   1   4    1.29    0.26
   1   1   4    1.10    0.22
  -2  -1  -4    0.67    0.23
  -2  -1  -4    0.44    0.26
  -2  -1  -4    0.91    0.21
   2   1   4    0.82    0.23
   2   1   4    0.82    0.23
   2   1   4    0.58    0.23
  -3  -1  -4  163.54    6.50
  -3  -1  -4  186.18    6.20
  -3  -1  -4  186.60    6.73
  -3  -1  -4  173.75    5.97
  -3  -1  -4  166.45    6.13
   3   1   4  179.56    5.47
   3   1   4  186.25    7.03
  -4  -1  -4   13.15    0.84
  -4  -1  -4   13.82    0.86
  -4  -1  -4   13.51    1.29
   4   1   4   13.87    0.84
   4   1   4   13.89    0.79
   4   1   4   13.67    0.61
   4   1   4   13.66    0.58
   4   1   4   14.01    0.59
  -5  -1  -4    8.81    0.93
  -5  -1  -4    8.66    0.73
   5   1   4    8.00    0.62
   5   1   4    8.77    0.43
   5   1   4    9.41    0.44
  -6  -1  -4    0.24    0.11
  -6  -1  -4    0.67    0.17
   6   1   4    0.09    0.09
   6   1   4    0.14    0.07
  -7  -1  -4    9.90    0.36
   7   1   4   10.11    0.35
   7   1   4    9.58    0.45
  10  -2  -4    7.34    0.36
  10  -2  -4    6.70    0.31
 -10   2   4    7.03    0.27
   9  -2  -4   35.50    1.35
   9  -2  -4   33.92    1.51
   9  -2  -4   35.38    1.39
   8  -2  -4    0.05    0.12
   8  -2  -4    0.24    0.18
  -8   2   4    0.39    0.26
  -8   2   4    0.41    0.20
   7  -2  -4    7.47    0.53
   7  -2  -4    8.29    0.64
   7  -2  -4    7.07    0.40
   7  -2  -4    7.02    0.59
  -7   2   4    6.67    0.83
  -7   2   4    7.08    0.72
   6  -2  -4   68.01    2.78
   6  -2  -4   76.30    2.46
   6  -2  -4   83.68    3.26
   6  -2  -4   73.88    2.03
   6  -2  -4   66.79    3.42
  -6   2   4   80.10    3.01
  -6   2   4   80.86    3.51
  -6   2   4   78.86    2.85
   5  -2  -4    3.96    0.57
  -5   2   4    4.07    0.47
   4  -2  -4   17.96    1.14
   4  -2  -4   19.02    1.06
  -4   2   4   19.57    0.93
  -4   2   4   18.86    0.97
  -4   2   4   19.23    0.92
   3  -2  -4  219.44    7.31
   2  -2  -4    0.91    0.19
  -2   2   4    0.36    0.18
  -2   2   4    0.61    0.15
   1  -2  -4   34.73    1.48
  -1   2   4   34.65    1.41
  -1   2   4   34.21    1.20
  -1   2   4   34.43    1.12
   0  -2  -4   47.07    1.82
   0  -2  -4   48.21    1.96
   0   2   4   47.71    1.59
   0   2   4   47.76    2.11
  -1  -2  -4   51.81    2.16
  -1  -2  -4   45.63    2.03
   1   2   4   47.03    2.22
   1   2   4   47.56    1.99
  -2  -2  -4   53.68    2.51
  -2  -2  -4   52.26    2.53
   2   2   4   53.81    2.52
   2   2   4   50.83    2.21
  -3  -2  -4   11.86    0.82
  -3  -2  -4   12.17    0.81
  -3  -2  -4   13.13    1.13
  -3  -2  -4   12.19    1.19
   3   2   4   11.20    1.32
   3   2   4   12.45    0.90
   3   2   4   13.13    0.77
   3   2   4   12.17    0.57
  -4  -2  -4    0.72    0.22
  -4  -2  -4    1.04    0.40
  -4  -2  -4    0.91    0.25
   4   2   4    0.78    0.13
   4   2   4    0.98    0.19
   4   2   4    0.93    0.14
   4   2   4    0.82    0.22
   4   2   4    0.80    0.14
  -5  -2  -4   85.31    3.15
  -5  -2  -4   87.42    3.19
   5   2   4   86.37    2.54
   5   2   4   88.55    2.62
   5   2   4   88.74    2.97
  -6  -2  -4    6.50    0.35
   6   2   4    6.61    0.41
   6   2   4    6.48    0.30
  10  -3  -4   42.11    1.40
 -10   3   4   40.66    1.26
   9  -3  -4    7.15    0.40
   9  -3  -4    7.79    0.48
   8  -3  -4    2.13    0.30
   8  -3  -4    2.38    0.21
   8  -3  -4    2.32    0.32
   8  -3  -4    2.26    0.31
   8  -3  -4    2.36    0.26
  -8   3   4    2.66    0.42
   7  -3  -4   44.13    1.94
   7  -3  -4   46.59    1.88
   7  -3  -4   50.20    2.25
   7  -3  -4   46.39    1.63
   7  -3  -4   50.23    1.85
   7  -3  -4   46.41    2.06
  -7   3   4   49.10    2.52
  -7   3   4   46.23    2.12
   6  -3  -4   21.45    1.00
   6  -3  -4   19.32    1.48
   6  -3  -4   20.86    1.29
   6  -3  -4   20.55    0.69
   6  -3  -4   17.79    0.99
   6  -3  -4   21.08    0.86
   6  -3  -4   19.23    1.06
   6  -3  -4   22.26    1.17
  -6   3   4   23.27    1.30
  -6   3   4   22.00    1.27
  -6   3   4   25.01    1.52
   5  -3  -4   10.16    0.56
   5  -3  -4    8.94    0.77
   5  -3  -4    9.07    0.48
   5  -3  -4    9.91    0.90
   5  -3  -4    9.93    0.62
  -5   3   4   10.25    0.73
  -5   3   4    9.37    0.73
   4  -3  -4  176.14    6.08
  -4   3   4  171.41    5.09
   3  -3  -4    0.31    0.13
  -3   3   4    0.28    0.11
  -3   3   4    0.39    0.13
   2  -3  -4   25.41    1.22
  -2   3   4   26.43    0.98
  -2   3   4   25.50    1.18
  -2   3   4   23.34    1.56
   1  -3  -4  117.58    4.17
  -1   3   4  114.51    5.57
  -1   3   4  116.37    3.34
  -1   3   4  118.92    4.08
  -1   3   4  118.90    3.41
  -1   3   4  118.49    3.31
   0  -3  -4    0.75    0.20
   0   3   4    0.81    0.32
   0   3   4    0.87    0.23
   0   3   4    0.82    0.17
  -1  -3  -4   20.22    1.22
   1   3   4   21.65    1.18
   1   3   4   21.62    1.32
   1   3   4   21.84    1.81
  -2  -3  -4  153.94    5.79
  -2  -3  -4  141.31    5.38
  -2  -3  -4  151.87    5.31
  -2  -3  -4  142.53    6.99
   2   3   4  164.40    7.57
   2   3   4  158.78    4.78
   2   3   4  148.53    5.35
   2   3   4  161.47    6.14
  -3  -3  -4   58.98    2.49
  -3  -3  -4   56.54    2.42
   3   3   4   62.24    2.04
   3   3   4   58.95    2.52
   3   3   4   63.19    2.67
  -4  -3  -4   44.56    1.84
  -4  -3  -4   38.91    1.77
   4   3   4   41.82    1.38
   4   3   4   41.99    1.47
   4   3   4   41.67    1.89
   4   3   4   39.15    1.70
  -5  -3  -4   17.24    0.90
   5   3   4   16.40    0.60
   5   3   4   17.26    0.64
  -6  -3  -4    7.61    0.35
   6   3   4    7.48    0.41
   6   3   4    7.13    0.29
   9  -4  -4    0.50    0.13
   9  -4  -4    0.15    0.10
   9  -4  -4    0.44    0.10
  -9   4   4    0.30    0.08
   8  -4  -4   30.07    1.24
   8  -4  -4   30.79    1.49
   8  -4  -4   30.30    1.30
   8  -4  -4   29.27    1.36
   7  -4  -4   15.62    0.82
   7  -4  -4   16.20    0.88
   7  -4  -4   15.08    0.89
   7  -4  -4   17.53    1.11
   7  -4  -4   16.72    0.71
  -7   4   4   15.37    1.05
   6  -4  -4    0.92    0.25
   6  -4  -4    0.96    0.23
   6  -4  -4    0.94    0.19
   6  -4  -4    0.82    0.30
   6  -4  -4    1.23    0.21
   6  -4  -4    0.76    0.22
  -6   4   4    1.51    0.36
   5  -4  -4   39.96    1.62
   5  -4  -4   38.41    1.43
   5  -4  -4   38.40    1.88
   5  -4  -4   41.62    2.06
   5  -4  -4   36.79    2.01
   5  -4  -4   37.10    1.60
   5  -4  -4   41.75    2.02
   5  -4  -4   41.21    1.61
  -5   4   4   42.76    1.89
  -5   4   4   39.18    1.74
   4  -4  -4  104.23    3.82
   4  -4  -4  100.09    4.06
   4  -4  -4   98.48    3.47
   4  -4  -4   97.45    4.18
   4  -4  -4   93.91    3.12
  -4   4   4   99.68    3.25
   3  -4  -4    4.43    0.46
  -3   4   4    3.26    0.33
  -3   4   4    3.48    0.41
   2  -4  -4  244.22    8.20
  -2   4   4  245.37    6.66
  -2   4   4  251.07    6.76
  -2   4   4  240.00    8.07
   1  -4  -4    6.80    0.56
  -1   4   4    4.93    0.75
  -1   4   4    6.22    0.46
  -1   4   4    6.20    0.44
   0  -4  -4   14.66    0.95
   0   4   4   15.40    0.74
   0   4   4   15.19    1.07
   0   4   4   15.36    0.80
   0   4   4   16.16    1.52
  -1  -4  -4   60.05    2.58
  -1  -4  -4   65.00    2.73
  -1  -4  -4   53.08    3.33
   1   4   4   64.07    2.61
   1   4   4   66.56    3.00
   1   4   4   73.55    4.00
  -2  -4  -4    2.62    0.46
  -2  -4  -4    2.82    0.55
  -2  -4  -4    2.83    0.42
  -2  -4  -4    2.84    0.38
   2   4   4    2.74    0.48
   2   4   4    3.05    0.25
   2   4   4    3.14    0.26
   2   4   4    2.72    0.69
   2   4   4    3.00    0.42
  -3  -4  -4    7.98    0.63
  -3  -4  -4    7.57    0.77
  -3  -4  -4    8.07    0.67
   3   4   4    8.41    0.46
   3   4   4    8.40    0.61
  -4  -4  -4  129.65    4.42
  -4  -4  -4  122.64    4.34
   4   4   4  123.98    3.66
   4   4   4  129.33    3.94
   4   4   4  125.30    5.03
   4   4   4  127.82    4.00
   4   4   4  118.56    3.52
  -5  -4  -4    7.69    0.38
  -5  -4  -4    7.30    0.50
   5   4   4    7.23    0.32
  -6  -4  -4   20.44    0.63
   6   4   4   19.94    0.82
   9  -5  -4    6.49    0.38
   9  -5  -4    6.92    0.35
  -9   5   4    5.84    0.26
   8  -5  -4  127.84    4.72
   8  -5  -4  123.97    4.08
   8  -5  -4  124.20    4.19
   8  -5  -4  120.10    4.40
  -8   5   4  118.58    3.56
   7  -5  -4    3.80    0.49
   7  -5  -4    4.12    0.39
   7  -5  -4    3.78    0.40
   7  -5  -4    3.68    0.34
  -7   5   4    3.66    0.28
   6  -5  -4   29.22    1.26
   6  -5  -4   29.12    1.30
   6  -5  -4   31.26    1.62
   6  -5  -4   26.86    1.61
   6  -5  -4   27.38    1.52
  -6   5   4   26.50    1.44
   5  -5  -4   10.32    0.89
   5  -5  -4   11.10    0.68
   5  -5  -4   11.41    0.66
   5  -5  -4   11.11    0.80
   5  -5  -4   10.98    0.92
   5  -5  -4   11.58    0.97
  -5   5   4   10.64    0.78
  -5   5   4   11.60    0.52
  -5   5   4   11.95    0.91
   4  -5  -4    0.70    0.32
   4  -5  -4    0.56    0.29
   4  -5  -4    0.54    0.24
   4  -5  -4    0.72    0.15
   4  -5  -4    0.66    0.23
   4  -5  -4    0.70    0.18
   4  -5  -4    0.65    0.27
   4  -5  -4    0.55    0.18
  -4   5   4    0.67    0.22
  -4   5   4    0.52    0.18
   3  -5  -4   16.43    1.14
   3  -5  -4   17.77    1.08
   3  -5  -4   17.29    1.18
   3  -5  -4   16.37    1.17
   3  -5  -4   16.82    0.84
   3  -5  -4   15.88    0.84
   3  -5  -4   16.20    0.99
   3  -5  -4   15.61    1.18
  -3   5   4   16.45    0.87
  -3   5   4   16.88    0.87
  -3   5   4   19.71    1.09
   2  -5  -4  126.76    4.79
   2  -5  -4  120.03    4.90
   2  -5  -4  132.99    4.64
   2  -5  -4  125.97    5.92
   2  -5  -4  126.89    5.20
   2  -5  -4  117.85    5.55
  -2   5   4  131.94    3.82
  -2   5   4  134.00    3.87
  -2   5   4  138.99    4.67
   1  -5  -4    2.81    0.53
   1  -5  -4    3.53    0.34
   1  -5  -4    2.40    0.37
   1  -5  -4    3.97    0.45
   1  -5  -4    3.76    0.56
   1  -5  -4    3.53    0.43
  -1   5   4    3.44    0.63
  -1   5   4    3.87    0.39
   0  -5  -4  239.35   10.01
   0  -5  -4  241.83   11.16
   0  -5  -4  243.45    8.45
   0  -5  -4  244.11    8.26
   0   5   4  254.71    9.43
   0   5   4  251.47    6.93
   0   5   4  263.63   11.33
  -1  -5  -4    1.77    0.50
  -1  -5  -4    0.56    0.28
   1   5   4    0.78    0.16
   1   5   4    0.40    0.23
  -2  -5  -4    0.57    0.33
  -2  -5  -4    0.49    0.25
   2   5   4    0.12    0.10
   2   5   4    0.25    0.11
   2   5   4    0.10    0.15
  -3  -5  -4   33.37    1.54
  -3  -5  -4   32.36    1.91
   3   5   4   33.07    1.58
   3   5   4   33.67    1.22
  -4  -5  -4   22.58    1.06
   4   5   4   22.13    1.06
   4   5   4   22.57    0.83
   4   5   4   21.08    0.76
  -5  -5  -4    0.22    0.06
   5   5   4    0.27    0.05
   8  -6  -4   16.02    0.82
   8  -6  -4   15.16    0.75
   7  -6  -4   14.20    0.74
   7  -6  -4   15.05    0.73
   7  -6  -4   14.19    0.84
   7  -6  -4   15.70    0.94
  -7   6   4   14.46    0.59
   6  -6  -4  173.94    6.59
   6  -6  -4  166.71    5.53
   6  -6  -4  157.74    6.52
   6  -6  -4  177.32    6.56
   6  -6  -4  170.88    5.78
  -6   6   4  166.49    4.82
   5  -6  -4    8.89    0.69
   5  -6  -4    8.20    0.82
   5  -6  -4    7.56    0.72
   5  -6  -4    9.75    0.60
   5  -6  -4    9.32    0.85
  -5   6   4    9.09    0.66
  -5   6   4    9.06    0.67
   4  -6  -4   12.98    0.97
   4  -6  -4   13.06    0.73
   4  -6  -4   12.30    0.87
   4  -6  -4   11.75    1.02
   4  -6  -4   13.08    1.09
   4  -6  -4   12.09    0.66
  -4   6   4   13.48    0.81
  -4   6   4   12.33    0.77
   3  -6  -4    7.48    0.69
   3  -6  -4    7.73    0.80
   3  -6  -4    7.36    0.78
   3  -6  -4    7.18    0.59
   3  -6  -4    6.97    0.46
  -3   6   4    7.98    0.59
  -3   6   4    7.01    0.66
  -3   6   4    6.83    0.55
   2  -6  -4    0.57    0.27
   2  -6  -4    0.47    0.25
   2  -6  -4    0.56    0.34
   2  -6  -4    0.34    0.13
  -2   6   4    0.75    0.19
  -2   6   4    0.17    0.15
   1  -6  -4    5.23    0.51
   1  -6  -4    5.44    0.68
   1  -6  -4    5.02    0.40
   1  -6  -4    5.14    0.73
  -1   6   4    5.23    0.64
  -1   6   4    5.31    0.46
  -1   6   4    4.61    0.45
   0  -6  -4  126.32    6.12
   0  -6  -4  132.47    5.54
   0  -6  -4  119.12    4.75
   0   6   4  118.96    3.82
   0   6   4  128.84    3.95
   0   6   4  131.26    5.28
  -1  -6  -4   17.09    1.05
  -1  -6  -4   14.96    0.87
  -1  -6  -4   16.21    1.36
  -1  -6  -4   15.74    1.05
   1   6   4   15.75    1.22
   1   6   4   18.74    0.76
   1   6   4   15.47    0.68
  -2  -6  -4  147.93    6.64
  -2  -6  -4  151.20    4.98
   2   6   4  135.66    5.73
   2   6   4  139.57    4.47
   2   6   4  137.48    5.71
   2   6   4  142.41    4.48
  -3  -6  -4    6.28    0.59
  -3  -6  -4    6.47    0.50
   3   6   4    6.60    0.35
   3   6   4    6.41    0.45
  -4  -6  -4    0.62    0.14
  -4  -6  -4    0.36    0.08
   4   6   4    0.27    0.05
   4   6   4    0.20    0.06
   8  -7  -4    0.35    0.09
   7  -7  -4    0.33    0.15
   7  -7  -4    0.11    0.10
  -7   7   4    0.20    0.07
   6  -7  -4   24.60    1.27
   6  -7  -4   22.15    1.21
   5  -7  -4   27.29    1.42
   5  -7  -4   31.49    1.63
   5  -7  -4   27.92    1.44
  -5   7   4   27.84    1.25
   4  -7  -4  133.83    5.64
   4  -7  -4  144.48    5.74
   4  -7  -4  135.70    5.28
  -4   7   4  139.03    4.17
   3  -7  -4   25.89    1.51
   3  -7  -4   26.58    1.60
   3  -7  -4   24.32    1.45
  -3   7   4   25.04    1.16
   2  -7  -4   12.18    0.94
   2  -7  -4   11.71    0.85
   2  -7  -4   11.68    1.05
  -2   7   4   11.88    0.46
  -2   7   4   10.68    0.70
   1  -7  -4    0.20    0.27
   1  -7  -4    0.17    0.22
  -1   7   4    0.37    0.10
  -1   7   4    0.13    0.16
   0  -7  -4    0.18    0.22
   0  -7  -4    0.14    0.25
   0   7   4    0.13    0.08
   0   7   4    0.33    0.13
   0   7   4    0.39    0.22
  -1  -7  -4    9.99    0.65
  -1  -7  -4    8.81    0.65
  -1  -7  -4   10.56    0.93
   1   7   4   10.34    0.49
   1   7   4    9.14    0.83
   1   7   4    9.36    0.44
  -2  -7  -4  130.14    4.21
  -2  -7  -4  133.08    5.70
   2   7   4  121.50    4.96
   2   7   4  121.08    3.88
   2   7   4  119.18    3.88
  -3  -7  -4    5.52    0.35
  -3  -7  -4    5.11    0.41
   3   7   4    4.57    0.21
   3   7   4    4.92    0.31
   3   7   4    4.57    0.21
   3   7   4    5.46    0.26
   7  -8  -4    0.01    0.06
   6  -8  -4    0.97    0.18
   6  -8  -4    0.80    0.16
  -6   8   4    0.66    0.08
   5  -8  -4    0.92    0.16
   5  -8  -4    0.91    0.19
   5  -8  -4    0.97    0.23
   4  -8  -4   28.15    1.41
   4  -8  -4   27.05    1.44
   3  -8  -4   27.29    1.40
   3  -8  -4   28.67    1.53
  -3   8   4   26.48    0.83
   2  -8  -4   58.76    2.54
   2  -8  -4   65.84    2.97
   2  -8  -4   61.94    2.98
  -2   8   4   61.13    1.67
  -2   8   4   63.64    2.02
   1  -8  -4   26.54    1.56
   1  -8  -4   29.28    1.56
  -1   8   4   26.54    0.98
   0  -8  -4    3.71    0.39
   0  -8  -4    3.92    0.47
   0   8   4    3.56    0.25
   0   8   4    3.57    0.22
  -1  -8  -4    0.55    0.19
   1   8   4    0.47    0.09
   1   8   4    0.39    0.06
   1   8   4    0.53    0.10
   1   8   4    0.59    0.13
  -2  -8  -4    0.32    0.12
   2   8   4    0.31    0.07
   2   8   4    0.18    0.04
   2   8   4    0.24    0.05
   5  -9  -4    0.14    0.08
  -5   9   4    0.06    0.04
   4  -9  -4    0.73    0.15
   4  -9  -4    0.64    0.13
  -4   9   4    0.48    0.07
  -4   9   4    0.63    0.08
   3  -9  -4    2.18    0.26
   3  -9  -4    2.12    0.21
  -3   9   4    1.83    0.11
  -3   9   4    2.20    0.15
   2  -9  -4   14.37    0.82
  -2   9   4   13.31    0.52
  -2   9   4   14.86    0.56
   1  -9  -4   38.21    1.84
   1  -9  -4   43.23    1.75
  -1   9   4   36.43    1.25
  -1   9   4   40.69    1.31
   0  -9  -4   30.59    1.42
   0   9   4   28.06    0.97
   0   9   4   29.55    0.97
   3  10  -5    7.04    0.28
  -3 -10   5    7.38    0.35
  -3 -10   5    7.65    0.34
   2  10  -5    4.08    0.21
   2  10  -5    4.32    0.20
  -2 -10   5    4.08    0.25
  -2 -10   5    4.47    0.27
  -2 -10   5    4.40    0.26
   1  10  -5    0.74    0.08
   1  10  -5    0.77    0.09
  -1 -10   5    0.74    0.10
  -1 -10   5    0.84    0.14
   0  10  -5   59.16    1.83
   0  10  -5   58.70    1.84
   0 -10   5   56.99    2.18
  -1  10  -5    9.63    0.38
  -1  10  -5    9.55    0.37
   1 -10   5    8.90    0.46
   5   9  -5    0.31    0.06
  -5  -9   5    0.18    0.07
  -5  -9   5    0.11    0.05
   4   9  -5   89.46    2.70
  -4  -9   5   91.43    2.94
  -4  -9   5   83.62    2.66
  -4  -9   5   88.63    2.70
   3   9  -5    2.10    0.17
   3   9  -5    2.23    0.18
  -3  -9   5    2.16    0.23
   2   9  -5    0.96    0.12
   2   9  -5    1.14    0.14
  -2  -9   5    1.03    0.17
   1   9  -5   12.40    0.55
   1   9  -5   12.08    0.54
   1   9  -5   11.70    0.51
  -1  -9   5   12.15    0.60
  -1  -9   5   11.84    0.61
   0   9  -5    0.35    0.10
   0   9  -5    0.04    0.08
   0   9  -5    0.10    0.06
   0  -9   5    0.23    0.14
   0  -9   5    0.11    0.09
   0  -9   5    0.13    0.10
  -1   9  -5    4.27    0.27
  -1   9  -5    4.30    0.27
   1  -9   5    4.27    0.38
  -2   9  -5   53.10    1.72
  -2   9  -5   55.17    1.73
   2  -9   5   49.93    2.01
   2  -9   5   51.26    2.04
   2  -9   5   56.51    2.15
  -3   9  -5    1.74    0.13
   3  -9   5    1.53    0.15
   6   8  -5    0.16    0.06
  -6  -8   5    0.22    0.07
  -6  -8   5    0.12    0.08
  -6  -8   5    0.29    0.09
   5   8  -5   18.27    0.68
  -5  -8   5   17.63    0.75
  -5  -8   5   18.20    0.81
  -5  -8   5   16.93    0.70
  -5  -8   5   16.59    0.73
   4   8  -5   17.62    0.71
   4   8  -5   17.26    0.70
  -4  -8   5   17.60    0.90
  -4  -8   5   16.92    0.84
  -4  -8   5   16.63    0.78
   3   8  -5    8.91    0.46
   3   8  -5    8.80    0.45
  -3  -8   5    9.01    0.64
  -3  -8   5    9.26    0.53
  -3  -8   5    9.21    0.57
   2   8  -5   96.61    3.08
   2   8  -5   98.61    3.13
   2   8  -5   96.42    3.15
  -2  -8   5   99.32    3.55
  -2  -8   5   97.69    3.37
  -2  -8   5   97.62    3.12
  -2  -8   5   97.91    3.77
   1   8  -5   11.36    0.52
   1   8  -5   11.56    0.56
   1   8  -5   11.47    0.56
  -1  -8   5   11.07    0.75
  -1  -8   5    9.48    0.90
  -1  -8   5   11.18    0.63
  -1  -8   5   10.57    0.72
  -1  -8   5   11.13    0.70
   0   8  -5    4.24    0.31
   0   8  -5    3.71    0.29
   0   8  -5    3.55    0.25
   0   8  -5    3.54    0.24
   0  -8   5    3.44    0.42
   0  -8   5    3.38    0.33
   0  -8   5    3.75    0.38
   0  -8   5    3.81    0.40
   0  -8   5    3.22    0.54
  -1   8  -5   14.91    0.60
  -1   8  -5   14.95    0.68
   1  -8   5   15.97    0.93
   1  -8   5   13.61    1.15
   1  -8   5   15.15    0.71
   1  -8   5   14.54    0.88
   1  -8   5   14.68    0.79
  -2   8  -5    0.37    0.11
  -2   8  -5    0.39    0.10
   2  -8   5    0.42    0.16
   2  -8   5    0.31    0.15
  -3   8  -5    3.99    0.24
  -3   8  -5    4.32    0.25
   3  -8   5    4.03    0.33
   3  -8   5    4.21    0.35
  -4   8  -5   33.77    1.04
   4  -8   5   33.06    1.35
   7   7  -5    3.62    0.21
   7   7  -5    4.25    0.22
  -7  -7   5    4.38    0.28
  -7  -7   5    3.77    0.25
   6   7  -5    4.15    0.30
   6   7  -5    4.34    0.27
  -6  -7   5    4.34    0.34
  -6  -7   5    4.36    0.34
   5   7  -5   54.47    1.82
  -5  -7   5   54.91    1.95
  -5  -7   5   54.92    2.04
  -5  -7   5   52.80    2.09
   4   7  -5    0.93    0.15
   4   7  -5    0.92    0.15
   4   7  -5    0.93    0.13
  -4  -7   5    0.92    0.18
  -4  -7   5    1.03    0.26
  -4  -7   5    0.96    0.20
   3   7  -5   14.45    0.66
   3   7  -5   14.70    0.70
   3   7  -5   15.34    0.69
   3   7  -5   14.09    0.58
  -3  -7   5   15.03    0.91
  -3  -7   5   13.97    0.73
  -3  -7   5   14.55    0.84
  -3  -7   5   14.78    0.80
   2   7  -5   27.27    0.92
   2   7  -5   26.85    1.07
   2   7  -5   26.49    1.03
   2   7  -5   26.61    1.07
  -2  -7   5   26.99    1.29
  -2  -7   5   26.80    1.34
  -2  -7   5   28.28    1.15
  -2  -7   5   24.58    1.51
  -2  -7   5   27.61    1.37
   1   7  -5   12.02    0.52
   1   7  -5   10.72    0.53
   1   7  -5   10.81    0.57
   1   7  -5   11.80    0.58
  -1  -7   5   11.47    0.80
  -1  -7   5   10.38    0.97
  -1  -7   5   11.26    0.77
  -1  -7   5   11.25    0.72
  -1  -7   5   10.36    0.65
   0   7  -5   30.30    1.25
   0   7  -5   31.57    1.14
   0  -7   5   34.35    1.65
   0  -7   5   37.91    1.62
   0  -7   5   31.31    1.50
  -1   7  -5   11.28    0.58
  -1   7  -5   11.00    0.51
   1  -7   5   10.50    0.77
   1  -7   5    9.31    0.60
   1  -7   5   10.75    0.73
  -2   7  -5    6.37    0.37
  -2   7  -5    6.54    0.42
   2  -7   5    6.89    0.55
   2  -7   5    7.13    0.57
   2  -7   5    6.19    0.78
  -3   7  -5   17.38    0.72
  -3   7  -5   16.78    0.69
   3  -7   5   16.88    0.88
   3  -7   5   17.06    0.91
  -4   7  -5    1.78    0.16
   4  -7   5    1.60    0.19
  -5   7  -5    0.10    0.05
   5  -7   5    0.20    0.07
   8   6  -5    2.56    0.15
  -8  -6   5    2.18    0.18
  -8  -6   5    1.94    0.20
  -8  -6   5    2.20    0.18
   7   6  -5   14.95    0.67
   7   6  -5   15.81    0.62
  -7  -6   5   14.79    0.70
  -7  -6   5   13.33    0.67
  -7  -6   5   15.19    0.71
   6   6  -5    3.23    0.26
   6   6  -5    3.47    0.31
  -6  -6   5    3.63    0.37
  -6  -6   5    3.45    0.33
  -6  -6   5    3.97    0.33
   5   6  -5    9.19    0.49
   5   6  -5    9.42    0.50
   5   6  -5    9.79    0.45
  -5  -6   5    9.41    0.52
  -5  -6   5    8.49    0.56
  -5  -6   5    9.94    0.61
  -5  -6   5    8.13    0.87
  -5  -6   5    9.61    0.66
   4   6  -5    1.09    0.17
   4   6  -5    0.84    0.15
   4   6  -5    0.79    0.15
  -4  -6   5    0.87    0.18
  -4  -6   5    0.85    0.28
  -4  -6   5    0.56    0.23
  -4  -6   5    0.83    0.20
   3   6  -5  134.19    3.70
   3   6  -5  135.26    4.21
   3   6  -5  138.77    5.90
   3   6  -5  137.05    4.26
   3   6  -5  136.07    4.27
  -3  -6   5  131.67    4.20
  -3  -6   5  134.39    5.02
  -3  -6   5  131.18    5.23
   2   6  -5    7.93    0.44
   2   6  -5    8.41    0.47
   2   6  -5    8.21    0.88
   2   6  -5    7.95    0.47
  -2  -6   5    8.26    0.57
  -2  -6   5    8.40    1.26
  -2  -6   5    8.37    0.62
  -2  -6   5    7.90    0.75
   1   6  -5    0.71    0.13
   1   6  -5    0.78    0.16
  -1  -6   5    0.88    0.24
  -1  -6   5    0.36    0.19
  -1  -6   5    0.55    0.42
   0   6  -5   27.09    1.66
   0   6  -5   26.73    1.01
   0   6  -5   26.83    1.11
   0  -6   5   25.83    2.25
   0  -6   5   27.45    1.36
   0  -6   5   33.21    1.52
  -1   6  -5   12.95    0.67
  -1   6  -5   13.38    0.61
   1  -6   5   12.87    0.82
   1  -6   5   11.34    0.84
   1  -6   5   13.82    0.62
  -2   6  -5    1.40    0.21
  -2   6  -5    1.05    0.18
  -2   6  -5    0.74    0.18
   2  -6   5    0.75    0.24
   2  -6   5    1.26    0.19
   2  -6   5    0.75    0.21
  -3   6  -5   22.70    0.93
  -3   6  -5   22.56    1.21
   3  -6   5   23.36    1.17
   3  -6   5   23.19    0.95
   3  -6   5   24.17    1.16
  -4   6  -5   20.59    1.08
  -4   6  -5   21.06    0.83
   4  -6   5   20.61    0.79
   4  -6   5   22.26    0.85
   4  -6   5   20.58    1.00
  -5   6  -5   18.47    0.65
  -5   6  -5   17.31    0.84
   5  -6   5   17.02    0.63
  -9  -5   5   17.01    0.69
   8   5  -5    0.46    0.07
   8   5  -5    0.40    0.09
  -8  -5   5    0.39    0.12
  -8  -5   5    0.44    0.09
  -8  -5   5    0.31    0.11
  -8  -5   5    0.50    0.18
   7   5  -5   37.21    1.30
   7   5  -5   36.69    1.47
  -7  -5   5   37.18    1.42
  -7  -5   5   35.93    1.48
   6   5  -5    0.29    0.12
   6   5  -5    0.36    0.12
   6   5  -5    0.20    0.09
  -6  -5   5    0.23    0.14
  -6  -5   5    0.12    0.19
  -6  -5   5    0.49    0.16
   5   5  -5   44.59    1.57
   5   5  -5   43.97    1.38
   5   5  -5   42.57    1.53
  -5  -5   5   43.24    1.72
  -5  -5   5   43.91    1.84
  -5  -5   5   41.09    2.32
   4   5  -5    4.04    0.29
   4   5  -5    3.92    0.30
   4   5  -5    4.11    0.68
  -4  -5   5    4.15    0.88
  -4  -5   5    5.04    0.39
  -4  -5   5    4.19    0.56
   3   5  -5    1.78    0.20
   3   5  -5    1.08    0.14
   3   5  -5    0.98    0.15
   3   5  -5    1.77    0.43
   3   5  -5    1.36    0.17
  -3  -5   5    0.79    0.48
  -3  -5   5    1.97    0.53
  -3  -5   5    1.67    0.34
   2   5  -5   18.41    0.71
   2   5  -5   17.20    0.77
   2   5  -5   17.42    0.78
   2   5  -5   17.81    0.77
   2   5  -5   20.29    1.38
  -2  -5   5   18.07    1.49
  -2  -5   5   17.78    1.66
  -2  -5   5   18.40    1.17
   1   5  -5  139.27    5.63
   1   5  -5  133.21    4.28
   1   5  -5  139.23    4.03
  -1  -5   5  134.42    5.17
  -1  -5   5  140.37    6.44
  -1  -5   5  133.13    6.42
   0   5  -5   13.37    0.57
   0   5  -5   12.40    0.98
   0   5  -5   12.14    0.75
   0   5  -5   12.41    0.62
   0  -5   5   12.61    0.74
   0  -5   5   11.75    0.61
   0  -5   5   11.45    1.27
  -1   5  -5    2.88    0.33
  -1   5  -5    2.83    0.26
  -1   5  -5    2.77    0.43
  -1   5  -5    2.60    0.28
   1  -5   5    2.78    0.33
   1  -5   5    2.69    0.50
   1  -5   5    3.20    0.30
   1  -5   5    2.70    0.24
  -2   5  -5    7.98    0.62
  -2   5  -5    7.90    0.49
   2  -5   5    8.08    0.52
   2  -5   5    9.56    0.63
   2  -5   5    8.18    0.62
   2  -5   5    7.35    0.45
  -3   5  -5   17.99    0.84
  -3   5  -5   17.76    1.09
   3  -5   5   18.58    0.99
   3  -5   5   18.79    0.81
   3  -5   5   18.64    0.87
   3  -5   5   18.83    0.76
   3  -5   5   18.13    0.99
  -4   5  -5    2.64    0.27
  -4   5  -5    2.81    0.35
   4  -5   5    2.83    0.26
   4  -5   5    2.92    0.23
   4  -5   5    2.65    0.28
   4  -5   5    2.65    0.22
  -5   5  -5   12.83    0.54
  -5   5  -5   12.60    0.75
   5  -5   5   13.09    0.52
   5  -5   5   12.71    0.55
   5  -5   5   12.73    0.53
  -6   5  -5    9.18    0.46
   6  -5   5    8.62    0.35
   9   4  -5   14.98    0.63
  -9  -4   5   14.33    0.61
  -9  -4   5   14.35    0.55
  -9  -4   5   14.22    0.70
   8   4  -5   13.29    0.61
   8   4  -5   13.89    0.58
   8   4  -5   13.32    0.56
  -8  -4   5   13.74    0.70
  -8  -4   5   13.59    0.68
  -8  -4   5   12.86    0.63
   7   4  -5   39.03    1.57
   7   4  -5   39.30    1.38
   7   4  -5   37.97    1.36
  -7  -4   5   37.45    2.22
  -7  -4   5   39.56    1.62
  -7  -4   5   38.73    1.52
   6   4  -5    0.66    0.13
   6   4  -5    0.51    0.15
   6   4  -5    0.62    0.13
  -6  -4   5    1.25    0.38
   5   4  -5   42.20    1.35
   5   4  -5   42.93    1.52
   5   4  -5   41.85    1.48
   5   4  -5   42.29    2.50
   5   4  -5   41.94    1.37
  -5  -4   5   42.76    2.30
  -5  -4   5   42.57    1.65
  -5  -4   5   39.15    2.85
   4   4  -5   27.81    1.09
   4   4  -5   30.62    1.94
  -4  -4   5   25.55    2.17
  -4  -4   5   32.58    2.28
   3   4  -5  114.83    4.83
  -3  -4   5  111.23    5.30
  -3  -4   5  107.97    4.26
  -3  -4   5  110.73    5.54
  -3  -4   5  107.32    3.93
   2   4  -5   11.74    0.96
  -2  -4   5   11.10    0.74
  -2  -4   5   11.00    0.81
  -2  -4   5   11.57    1.18
   1   4  -5    7.59    0.71
  -1  -4   5    8.30    0.97
  -1  -4   5    8.33    0.69
  -1  -4   5    7.95    0.58
   0   4  -5   52.43    2.45
   0  -4   5   48.16    2.87
  -1   4  -5  118.92    4.78
  -1   4  -5  115.58    3.50
  -1   4  -5  115.02    4.85
   1  -4   5  114.20    5.33
   1  -4   5  117.26    4.58
   1  -4   5  110.53    3.70
  -2   4  -5   34.90    1.22
  -2   4  -5   35.75    1.36
  -2   4  -5   36.59    1.84
   2  -4   5   36.38    2.12
   2  -4   5   36.93    1.32
   2  -4   5   37.12    1.41
  -3   4  -5   12.18    0.89
  -3   4  -5   12.07    0.67
   3  -4   5   13.07    0.68
   3  -4   5   12.56    0.55
   3  -4   5   12.61    0.61
  -4   4  -5    3.45    0.44
  -4   4  -5    3.59    0.32
   4  -4   5    3.67    0.28
   4  -4   5    4.07    0.34
   4  -4   5    3.86    0.27
   4  -4   5    3.57    0.34
  -5   4  -5   12.11    0.55
  -5   4  -5   12.12    0.81
   5  -4   5   12.21    0.52
   5  -4   5   11.94    0.54
   5  -4   5   13.60    0.57
  -6   4  -5    8.98    0.53
   6  -4   5    8.69    0.35
   6  -4   5    8.73    0.37
   9   3  -5    9.59    0.48
  -9  -3   5    9.39    0.47
  -9  -3   5    9.31    0.44
  -9  -3   5   10.12    0.60
   8   3  -5   81.16    2.60
   8   3  -5   81.60    2.88
   8   3  -5   81.22    2.55
  -8  -3   5   79.60    2.91
  -8  -3   5   81.65    2.89
  -8  -3   5   79.24    3.66
   7   3  -5   10.32    0.53
   7   3  -5   10.11    0.52
   7   3  -5   10.41    0.61
   7   3  -5   10.10    0.40
  -7  -3   5   12.43    0.72
  -7  -3   5    9.75    1.03
   6   3  -5   39.63    1.30
   6   3  -5   42.40    1.70
   6   3  -5   42.49    1.29
  -6  -3   5   42.56    2.38
   5   3  -5   55.70    1.87
   5   3  -5   55.09    1.68
   5   3  -5   52.03    2.84
   5   3  -5   56.07    1.62
   5   3  -5   56.87    1.76
  -5  -3   5   59.06    3.35
  -5  -3   5   56.86    3.64
   4   3  -5   22.60    1.54
  -4  -3   5   23.11    1.82
  -4  -3   5   24.72    1.79
  -4  -3   5   23.75    1.32
   3   3  -5    4.01    0.53
  -3  -3   5    4.08    0.65
  -3  -3   5    4.29    0.45
  -3  -3   5    3.69    0.43
   2   3  -5  130.18    5.29
  -2  -3   5  129.90    4.33
  -2  -3   5  135.13    4.84
  -2  -3   5  130.66    3.91
   1   3  -5  130.60    5.24
  -1  -3   5  129.49    3.99
  -1  -3   5  134.21    4.86
   0   3  -5   45.21    2.14
   0  -3   5   42.85    1.71
  -1   3  -5   20.22    1.26
   1  -3   5   20.17    1.34
   1  -3   5   19.75    1.06
  -2   3  -5   39.30    1.49
  -2   3  -5   40.64    1.36
  -2   3  -5   39.63    2.03
   2  -3   5   40.82    1.41
   2  -3   5   42.61    1.61
   2  -3   5   41.04    2.28
   2  -3   5   40.92    1.30
  -3   3  -5   41.03    1.58
  -3   3  -5   41.07    1.42
  -3   3  -5   42.53    2.21
   3  -3   5   43.00    1.49
   3  -3   5   42.75    1.40
   3  -3   5   43.37    1.37
   3  -3   5   43.11    1.73
   3  -3   5   41.98    1.57
  -4   3  -5   25.50    1.03
  -4   3  -5   23.74    1.46
  -4   3  -5   23.66    0.90
   4  -3   5   24.78    0.96
   4  -3   5   23.85    0.89
   4  -3   5   23.58    1.00
  -5   3  -5   12.96    0.57
  -5   3  -5   13.79    0.92
   5  -3   5   13.22    0.58
   5  -3   5   13.27    0.55
   5  -3   5   13.78    0.58
  -6   3  -5   22.50    1.09
   6  -3   5   21.29    0.72
   6  -3   5   21.37    0.76
   6  -3   5   19.87    0.74
  10   2  -5    0.19    0.06
 -10  -2   5    0.21    0.08
   9   2  -5    4.79    0.32
  -9  -2   5    4.99    0.43
  -9  -2   5    4.41    0.30
   8   2  -5   54.06    1.79
   8   2  -5   54.79    2.02
   8   2  -5   51.49    1.82
   8   2  -5   55.70    1.47
  -8  -2   5   51.80    2.79
  -8  -2   5   52.90    2.06
  -8  -2   5   53.85    2.01
   7   2  -5   12.94    0.70
   7   2  -5   13.75    0.63
   7   2  -5   13.54    0.51
   7   2  -5   13.73    0.62
  -7  -2   5   13.68    0.79
  -7  -2   5   12.72    1.20
   6   2  -5  217.21    6.03
   6   2  -5  231.98    6.03
   6   2  -5  230.89    7.80
   6   2  -5  225.81    6.77
  -6  -2   5  236.29    8.70
   5   2  -5    4.78    0.56
   5   2  -5    4.11    0.55
  -5  -2   5    5.50    0.77
  -5  -2   5    4.71    0.81
   4   2  -5   11.71    0.94
  -4  -2   5   13.10    1.19
  -4  -2   5   12.89    0.85
  -4  -2   5   12.24    1.14
   3   2  -5  119.36    4.93
  -3  -2   5  123.94    3.56
  -3  -2   5  126.82    4.11
  -3  -2   5  121.08    4.47
  -3  -2   5  122.30    6.10
   2   2  -5   61.00    2.24
   2   2  -5   62.44    2.70
  -2  -2   5   52.99    3.36
  -2  -2   5   63.36    2.46
  -2  -2   5   64.43    2.02
   1   2  -5    3.78    0.44
  -1  -2   5    4.16    0.38
  -1  -2   5    4.09    0.64
  -1  -2   5    4.90    0.45
   0   2  -5  303.59   11.31
   0  -2   5  310.37   14.04
   0  -2   5  293.96    8.50
   0  -2   5  314.24   10.12
  -1   2  -5  107.43    4.50
   1  -2   5  113.89    4.31
   1  -2   5  104.25    5.68
   1  -2   5  114.03    3.33
   1  -2   5  105.15    3.42
  -2   2  -5   78.40    2.37
  -2   2  -5   74.59    3.51
   2  -2   5   75.71    2.26
   2  -2   5   75.84    2.65
   2  -2   5   78.03    2.57
   2  -2   5   76.15    3.48
  -3   2  -5   21.62    0.91
  -3   2  -5   23.79    1.49
  -3   2  -5   22.05    1.48
   3  -2   5   22.98    0.84
   3  -2   5   23.49    1.67
   3  -2   5   23.50    0.84
   3  -2   5   21.92    1.10
  -4   2  -5   26.24    1.59
  -4   2  -5   24.83    0.98
   4  -2   5   23.97    1.20
   4  -2   5   24.71    0.91
   4  -2   5   24.70    1.02
   4  -2   5   24.76    0.95
   4  -2   5   24.61    0.89
  -5   2  -5   18.18    1.12
  -5   2  -5   16.09    0.67
   5  -2   5   17.12    0.72
   5  -2   5   16.99    0.66
   5  -2   5   16.89    0.69
  -6   2  -5   36.72    1.67
   6  -2   5   35.86    1.17
   6  -2   5   35.24    1.12
   6  -2   5   33.69    1.14
  10   1  -5   39.75    1.50
   9   1  -5    5.90    0.38
  -9  -1   5    5.78    0.35
  -9  -1   5    5.28    0.44
   8   1  -5    3.10    0.21
   8   1  -5    2.83    0.27
  -8  -1   5    2.75    0.30
  -8  -1   5    2.43    0.52
   7   1  -5    1.20    0.17
   7   1  -5    0.76    0.12
  -7  -1   5    0.73    0.19
   6   1  -5  197.85    5.31
   6   1  -5  199.43    5.95
   6   1  -5  202.62    6.87
   6   1  -5  197.32    7.49
   6   1  -5  196.12    7.02
  -6  -1   5  206.60    7.70
   5   1  -5   49.99    2.41
  -5  -1   5   50.68    2.19
  -5  -1   5   51.00    3.10
  -5  -1   5   49.15    2.71
   4   1  -5  424.12   15.92
  -4  -1   5  443.42   13.28
  -4  -1   5  449.22   19.49
   3   1  -5    1.35    0.23
   3   1  -5    1.64    0.28
  -3  -1   5    1.28    0.21
  -3  -1   5    1.63    0.35
   2   1  -5    7.80    0.62
   2   1  -5    7.93    0.53
  -2  -1   5    7.82    0.52
  -2  -1   5    8.04    0.83
  -2  -1   5    9.13    0.57
   1   1  -5   93.02    3.73
   1   1  -5   90.00    3.18
  -1  -1   5   90.97    3.24
  -1  -1   5   93.00    4.70
   0   1  -5   76.12    3.23
   0   1  -5   72.74    2.70
   0  -1   5   73.64    2.82
   0  -1   5   80.34    3.02
   0  -1   5   76.05    4.03
  -1   1  -5   21.96    1.10
   1  -1   5   22.54    1.68
   1  -1   5   25.54    1.02
   1  -1   5   25.68    1.48
   1  -1   5   23.03    1.06
   1  -1   5   23.81    1.26
  -2   1  -5  245.55    7.22
  -2   1  -5  260.54    8.53
  -2   1  -5  238.19   10.57
   2  -1   5  272.77    9.15
   2  -1   5  248.99    7.30
   2  -1   5  267.67   11.97
   2  -1   5  269.96    7.44
  -3   1  -5   28.19    1.80
  -3   1  -5   28.65    1.15
  -3   1  -5   27.58    1.79
   3  -1   5   31.35    1.35
   3  -1   5   30.88    1.03
   3  -1   5   30.51    1.92
   3  -1   5   30.70    1.04
   3  -1   5   30.95    1.34
  -4   1  -5   88.03    4.11
  -4   1  -5   87.90    3.80
  -4   1  -5   86.76    2.71
   4  -1   5   88.52    2.63
   4  -1   5   84.87    2.73
   4  -1   5   86.07    2.84
   4  -1   5   84.24    2.94
   4  -1   5   87.27    2.57
  -5   1  -5    6.24    0.59
  -5   1  -5    5.96    0.36
   5  -1   5    4.99    0.31
   5  -1   5    4.97    0.46
   5  -1   5    4.99    0.34
   5  -1   5    5.32    0.30
  -6   1  -5    2.64    0.17
  -6   1  -5    2.96    0.29
   6  -1   5    2.49    0.16
   6  -1   5    2.83    0.19
   6  -1   5    2.81    0.18
  10   0  -5  141.02    5.07
  10   0  -5  148.22    4.82
 -10   0   5  147.00    4.86
   9   0  -5    0.08    0.09
   9   0  -5    0.07    0.08
  -9   0   5   -0.05    0.22
  -9   0   5    0.06    0.07
   8   0  -5   61.19    2.25
   8   0  -5   57.76    2.29
   8   0  -5   58.65    1.63
   8   0  -5   59.02    1.94
  -8   0   5   58.72    3.07
   7   0  -5    8.85    0.64
   7   0  -5    8.66    0.65
   7   0  -5    9.24    0.54
   7   0  -5    9.39    0.40
   7   0  -5    8.67    0.54
  -7   0   5    8.65    0.88
  -7   0   5    8.69    0.58
  -7   0   5    8.04    0.78
   6   0  -5    0.28    0.11
   6   0  -5    0.09    0.21
   6   0  -5    0.13    0.08
   6   0  -5    0.21    0.16
   6   0  -5    0.53    0.21
   6   0  -5    0.44    0.12
  -6   0   5    1.39    0.34
   5   0  -5    6.89    0.76
  -5   0   5    6.60    0.84
  -5   0   5    6.32    0.59
   4   0  -5  396.55   12.98
   4   0  -5  376.12   14.34
  -4   0   5  396.63   12.02
  -4   0   5  418.36   17.56
   3   0  -5   41.49    1.90
   3   0  -5   40.58    1.75
  -3   0   5   42.22    1.33
   2   0  -5  496.77   16.41
   2   0  -5  507.55   18.50
  -2   0   5  535.25   13.33
  -2   0   5  522.10   15.94
   1   0  -5    0.37    0.13
   1   0  -5    0.37    0.16
  -1   0   5    0.36    0.16
  -1   0   5    0.98    0.16
  -1   0   5    0.29    0.14
   0   0  -5    1.33    0.22
   0   0   5    1.55    0.30
   0   0   5    1.36    0.24
   0   0   5    2.46    0.32
  -1   0  -5   41.44    1.83
  -1   0  -5   41.07    1.97
   1   0   5   43.51    2.10
   1   0   5   43.50    1.90
  -2   0  -5   75.29    3.24
  -2   0  -5   68.09    3.41
  -2   0  -5   72.95    3.04
  -2   0  -5   71.25    2.33
   2   0   5   76.39    2.51
   2   0   5   76.41    3.26
   2   0   5   72.15    3.93
   2   0   5   73.84    2.22
   2   0   5   73.49    2.47
  -3   0  -5   19.64    1.39
  -3   0  -5   19.45    1.51
  -3   0  -5   19.91    0.90
   3   0   5   20.47    0.77
   3   0   5   19.17    0.98
   3   0   5   20.63    1.01
   3   0   5   20.34    1.02
  -4   0  -5  207.61    5.99
  -4   0  -5  209.53    7.50
  -4   0  -5  219.59    8.81
   4   0   5  206.71    5.79
   4   0   5  196.05    6.18
   4   0   5  205.85    5.95
  -5   0  -5    8.60    0.46
  -5   0  -5    8.68    0.67
   5   0   5    8.84    0.40
   5   0   5    8.14    0.49
   5   0   5    8.29    0.40
   5   0   5    9.04    0.41
  -6   0  -5   37.08    1.15
  -6   0  -5   35.96    1.62
   6   0   5   35.27    1.44
   6   0   5   39.24    1.16
  10  -1  -5   36.49    1.30
  10  -1  -5   39.41    1.37
 -10   1   5   38.38    1.39
   9  -1  -5    0.33    0.13
   9  -1  -5    0.25    0.11
   8  -1  -5  267.10    7.94
   8  -1  -5  277.31    8.62
   8  -1  -5  269.79    9.32
   8  -1  -5  256.59    9.14
  -8   1   5  256.80   10.11
   7  -1  -5    1.60    0.16
   7  -1  -5    1.63    0.19
   7  -1  -5    1.82    0.31
   7  -1  -5    1.60    0.30
  -7   1   5    3.50    0.49
   6  -1  -5   52.53    1.52
   6  -1  -5   57.63    2.40
   6  -1  -5   51.73    2.87
   6  -1  -5   52.15    2.17
   6  -1  -5   53.36    1.62
   6  -1  -5   55.82    2.28
  -6   1   5   57.21    2.29
   5  -1  -5    0.17    0.21
  -5   1   5    0.13    0.14
  -5   1   5    0.08    0.16
   4  -1  -5    2.33    0.35
  -4   1   5    3.76    0.39
   3  -1  -5    4.45    0.44
  -3   1   5    3.95    0.35
   2  -1  -5  474.78   17.48
   2  -1  -5  487.73   15.56
  -2   1   5  489.68   12.63
  -2   1   5  488.83   15.13
   1  -1  -5   12.43    0.75
  -1   1   5   12.86    0.79
  -1   1   5   12.49    0.62
   0  -1  -5  299.94   10.18
   0   1   5  312.85    9.91
   0   1   5  314.41   11.16
  -1  -1  -5    4.79    0.52
  -1  -1  -5    4.79    0.59
   1   1   5    4.70    0.54
   1   1   5    4.23    0.48
   1   1   5    5.44    0.56
  -2  -1  -5    8.65    0.82
  -2  -1  -5    7.56    0.63
  -2  -1  -5    6.47    0.81
   2   1   5    7.45    0.52
   2   1   5    7.04    0.68
  -3  -1  -5    3.28    0.45
  -3  -1  -5    3.75    0.50
  -3  -1  -5    3.69    0.68
   3   1   5    3.50    0.25
   3   1   5    3.38    0.25
   3   1   5    3.56    0.33
   3   1   5    3.12    0.38
  -4  -1  -5   41.61    1.51
  -4  -1  -5   41.21    2.33
  -4  -1  -5   41.52    2.10
   4   1   5   41.44    1.34
   4   1   5   39.30    1.66
   4   1   5   41.32    1.36
  -5  -1  -5    3.19    0.33
  -5  -1  -5    3.70    0.29
   5   1   5    3.27    0.22
   5   1   5    3.32    0.22
   5   1   5    3.47    0.23
  -6  -1  -5  111.57    3.09
   6   1   5  115.08    3.13
   6   1   5  104.86    4.05
   6   1   5  106.69    3.23
  10  -2  -5    1.35    0.12
  10  -2  -5    1.36    0.14
   9  -2  -5    0.56    0.16
   9  -2  -5    0.18    0.10
   8  -2  -5   67.43    2.11
   8  -2  -5   65.79    2.51
   8  -2  -5   62.50    2.57
   8  -2  -5   61.82    2.55
  -8   2   5   66.21    3.14
   7  -2  -5   28.90    0.92
   7  -2  -5   26.30    1.41
   7  -2  -5   33.05    1.57
   7  -2  -5   30.36    1.13
   7  -2  -5   29.52    1.45
  -7   2   5   31.38    1.61
  -7   2   5   29.88    1.86
   6  -2  -5  293.59    9.84
   6  -2  -5  293.69   10.91
   6  -2  -5  304.67   11.23
   6  -2  -5  314.19    9.15
   6  -2  -5  297.97    7.94
   6  -2  -5  324.34   11.33
   6  -2  -5  297.01    7.61
  -6   2   5  316.56    8.86
   5  -2  -5    0.55    0.16
   5  -2  -5    0.51    0.19
   5  -2  -5    1.01    0.15
   5  -2  -5    0.55    0.23
  -5   2   5    0.36    0.19
   4  -2  -5   29.67    1.46
  -4   2   5   25.93    1.26
  -4   2   5   27.69    1.27
   3  -2  -5    2.98    0.37
  -3   2   5    1.99    0.28
   2  -2  -5    5.15    0.47
  -2   2   5    4.35    0.40
  -2   2   5    4.82    0.37
  -2   2   5    4.74    0.63
   1  -2  -5   14.43    0.88
  -1   2   5   14.20    0.71
  -1   2   5   14.49    0.91
   0  -2  -5  378.57   13.07
   0   2   5  405.74   10.66
   0   2   5  400.65   12.67
   0   2   5  409.66   14.35
  -1  -2  -5    0.19    0.17
  -1  -2  -5    0.27    0.18
   1   2   5    0.20    0.16
   1   2   5    0.23    0.17
  -2  -2  -5   92.58    4.02
  -2  -2  -5   97.66    4.15
  -2  -2  -5   93.78    3.66
   2   2   5  103.61    3.85
   2   2   5   97.20    3.16
   2   2   5  107.11    5.48
   2   2   5  103.65    4.12
  -3  -2  -5    5.73    0.58
  -3  -2  -5    6.15    0.83
   3   2   5    6.54    0.36
   3   2   5    6.29    0.48
   3   2   5    6.17    0.35
   3   2   5    6.06    0.53
  -4  -2  -5    2.33    0.28
   4   2   5    2.20    0.20
   4   2   5    2.50    0.21
   4   2   5    2.22    0.31
  -5  -2  -5    3.04    0.25
   5   2   5    2.88    0.19
   5   2   5    2.52    0.18
   5   2   5    2.54    0.17
  -6  -2  -5   41.83    1.22
   6   2   5   40.98    1.22
   9  -3  -5   12.11    0.64
   9  -3  -5   14.61    0.70
   9  -3  -5   13.97    0.63
   8  -3  -5    1.26    0.17
   8  -3  -5    1.54    0.27
   8  -3  -5    1.83    0.29
   8  -3  -5    2.63    0.34
   8  -3  -5    1.46    0.22
   7  -3  -5    0.79    0.19
   7  -3  -5    0.70    0.24
   7  -3  -5    0.78    0.26
   7  -3  -5    0.79    0.16
  -7   3   5    0.76    0.25
   6  -3  -5  115.00    4.04
   6  -3  -5  108.30    2.96
   6  -3  -5  118.23    4.05
   6  -3  -5  111.18    4.71
   6  -3  -5  118.47    3.62
   6  -3  -5  110.75    4.54
  -6   3   5  114.68    3.96
  -6   3   5  114.03    3.89
   5  -3  -5   54.09    2.67
   5  -3  -5   58.09    2.24
   5  -3  -5   56.79    1.59
   5  -3  -5   57.05    1.97
   5  -3  -5   60.56    2.20
   5  -3  -5   57.32    2.60
   5  -3  -5   56.63    2.34
   5  -3  -5   62.92    2.67
  -5   3   5   59.93    2.26
   4  -3  -5  227.90    8.51
   4  -3  -5  232.08    8.97
   4  -3  -5  231.42    7.08
   4  -3  -5  251.09    8.16
   4  -3  -5  238.18    7.86
   4  -3  -5  230.34    7.57
   4  -3  -5  236.47    8.83
  -4   3   5  239.94    7.69
  -4   3   5  234.14    7.84
   3  -3  -5    2.62    0.38
  -3   3   5    2.64    0.34
  -3   3   5    2.37    0.27
   2  -3  -5    6.58    0.58
  -2   3   5    6.44    0.42
  -2   3   5    7.15    0.49
  -2   3   5    5.61    0.51
   1  -3  -5    1.72    0.30
  -1   3   5    1.87    0.25
  -1   3   5    1.36    0.42
  -1   3   5    1.48    0.30
   0  -3  -5   40.15    2.40
   0  -3  -5   42.39    1.85
   0  -3  -5   43.63    2.03
   0   3   5   42.93    2.15
   0   3   5   45.38    2.92
   0   3   5   44.06    1.65
  -1  -3  -5    6.97    0.64
  -1  -3  -5    8.02    0.79
  -1  -3  -5    6.54    0.77
   1   3   5    7.72    0.70
   1   3   5    7.53    0.75
   1   3   5    7.53    1.09
  -2  -3  -5  207.22    7.32
  -2  -3  -5  209.23    9.63
   2   3   5  222.54    6.67
   2   3   5  224.42    8.59
   2   3   5  213.39    7.39
   2   3   5  224.80    8.38
  -3  -3  -5   12.99    0.88
   3   3   5   13.12    0.77
   3   3   5   12.54    0.58
  -4  -3  -5   36.44    1.27
   4   3   5   34.15    1.19
   4   3   5   32.72    1.10
   4   3   5   34.46    1.14
  -5  -3  -5    0.48    0.10
   5   3   5    0.42    0.06
   5   3   5    0.37    0.07
   9  -4  -5   40.76    1.43
   9  -4  -5   34.97    1.46
   9  -4  -5   41.68    1.45
   9  -4  -5   37.60    1.56
   8  -4  -5   21.29    0.95
   8  -4  -5   21.29    1.14
   8  -4  -5   20.46    1.06
   8  -4  -5   20.67    1.02
   7  -4  -5   11.24    0.56
   7  -4  -5   11.63    0.89
   7  -4  -5    9.68    0.71
   7  -4  -5   10.40    0.72
   7  -4  -5   11.24    0.65
  -7   4   5    9.71    0.81
   6  -4  -5    2.02    0.36
   6  -4  -5    2.07    0.25
   6  -4  -5    1.91    0.42
   6  -4  -5    2.71    0.30
   6  -4  -5    2.08    0.34
  -6   4   5    1.97    0.35
   5  -4  -5    1.38    0.38
   5  -4  -5    1.46    0.27
   5  -4  -5    1.35    0.22
   5  -4  -5    1.56    0.24
   5  -4  -5    1.61    0.23
   5  -4  -5    1.11    0.26
   5  -4  -5    1.89    0.38
  -5   4   5    2.75    0.41
  -5   4   5    0.84    0.23
   4  -4  -5  105.17    4.05
   4  -4  -5  107.07    3.39
   4  -4  -5  103.46    4.53
   4  -4  -5  108.27    4.94
   4  -4  -5  112.11    3.79
   4  -4  -5  106.01    4.38
   4  -4  -5  113.51    4.18
   4  -4  -5   97.45    4.52
  -4   4   5  108.03    3.98
  -4   4   5  108.87    3.31
   3  -4  -5  135.70    4.70
   3  -4  -5  137.93    5.71
   3  -4  -5  141.63    5.01
   3  -4  -5  134.86    6.18
   3  -4  -5  125.53    5.49
   3  -4  -5  132.32    5.27
   3  -4  -5  134.32    5.06
   3  -4  -5  128.92    4.17
  -3   4   5  137.89    3.97
  -3   4   5  141.04    4.84
  -3   4   5  143.55    4.04
   2  -4  -5  131.23    4.86
   2  -4  -5  129.44    5.00
   2  -4  -5  124.32    5.15
   2  -4  -5  119.79    5.48
   2  -4  -5  127.19    5.96
   2  -4  -5  129.66    4.72
  -2   4   5  133.22    3.75
  -2   4   5  129.76    3.86
  -2   4   5  133.98    3.79
   1  -4  -5    2.99    0.34
   1  -4  -5    4.00    0.43
   1  -4  -5    2.79    0.38
   1  -4  -5    2.92    0.52
   1  -4  -5    2.95    0.42
   1  -4  -5    2.83    0.47
  -1   4   5    3.29    0.46
  -1   4   5    2.29    0.58
  -1   4   5    3.21    0.36
   0  -4  -5    5.44    0.58
   0  -4  -5    4.24    0.54
   0  -4  -5    4.54    0.51
   0  -4  -5    3.77    0.63
   0   4   5    4.15    0.56
   0   4   5    4.20    0.82
   0   4   5    4.51    0.45
  -1  -4  -5    1.16    0.39
  -1  -4  -5    1.06    0.30
   1   4   5    1.23    0.29
   1   4   5    1.83    0.40
  -2  -4  -5   42.62    1.54
  -2  -4  -5   40.84    2.40
  -2  -4  -5   40.72    1.93
   2   4   5   40.02    1.96
   2   4   5   44.50    1.98
   2   4   5   42.33    2.25
   2   4   5   44.33    1.52
  -3  -4  -5   20.52    1.14
  -3  -4  -5   22.72    0.92
   3   4   5   22.20    1.11
   3   4   5   21.65    0.84
  -4  -4  -5  123.54    3.47
   4   4   5  119.31    3.70
   4   4   5  123.10    3.47
   4   4   5  114.33    3.33
  -5  -4  -5   13.19    0.45
   5   4   5   13.49    0.44
   9  -5  -5   24.08    1.00
   8  -5  -5   31.86    1.38
   8  -5  -5   33.90    1.50
   8  -5  -5   32.26    1.29
   8  -5  -5   32.62    1.26
  -8   5   5   28.13    1.02
   7  -5  -5   30.66    1.38
   7  -5  -5   35.75    1.73
   7  -5  -5   31.58    1.55
   7  -5  -5   32.61    1.36
  -7   5   5   31.32    1.10
   6  -5  -5    8.04    0.61
   6  -5  -5    7.44    0.75
   6  -5  -5    8.69    0.74
   6  -5  -5    8.20    0.60
   6  -5  -5    8.41    0.56
  -6   5   5    8.53    0.65
   5  -5  -5    9.06    0.86
   5  -5  -5    9.32    0.59
   5  -5  -5    8.47    0.79
   5  -5  -5    8.59    0.71
  -5   5   5    8.63    0.64
   4  -5  -5    6.92    0.65
   4  -5  -5    7.05    0.48
   4  -5  -5    5.91    0.74
   4  -5  -5    6.75    0.68
   4  -5  -5    7.68    0.53
   4  -5  -5    6.69    0.65
  -4   5   5    6.84    0.54
  -4   5   5    6.69    0.53
  -4   5   5    6.27    0.62
   3  -5  -5   10.64    0.95
   3  -5  -5   10.73    0.90
   3  -5  -5   10.46    0.94
   3  -5  -5    9.73    0.61
   3  -5  -5   10.09    0.77
  -3   5   5   10.21    0.65
  -3   5   5   10.26    0.66
  -3   5   5   10.30    0.80
   2  -5  -5  119.48    5.62
   2  -5  -5  117.14    4.62
   2  -5  -5  114.74    4.47
   2  -5  -5  121.29    4.46
   2  -5  -5  104.40    5.21
   2  -5  -5  118.81    4.85
  -2   5   5  118.79    3.67
  -2   5   5  134.02    3.65
   1  -5  -5   89.15    3.49
   1  -5  -5   89.76    4.53
   1  -5  -5   82.09    4.09
   1  -5  -5   88.45    3.63
  -1   5   5   90.76    3.91
  -1   5   5   93.26    2.94
   0  -5  -5   49.21    2.10
   0  -5  -5   43.51    2.76
   0  -5  -5   44.46    2.03
   0  -5  -5   48.41    2.39
   0   5   5   48.69    2.45
  -1  -5  -5    4.25    0.67
  -1  -5  -5    5.03    0.56
   1   5   5    4.78    0.31
   1   5   5    4.45    0.61
   1   5   5    3.75    0.50
  -2  -5  -5    1.15    0.34
  -2  -5  -5    2.04    0.34
   2   5   5    0.97    0.29
   2   5   5    1.36    0.24
   2   5   5    1.46    0.17
  -3  -5  -5    0.64    0.19
  -3  -5  -5    0.28    0.15
   3   5   5    0.50    0.09
   3   5   5    0.48    0.10
   3   5   5    0.65    0.15
  -4  -5  -5   14.26    0.67
   4   5   5   14.35    0.49
   8  -6  -5    5.00    0.36
   8  -6  -5    5.59    0.40
   7  -6  -5   60.90    2.57
   7  -6  -5   61.69    2.29
   7  -6  -5   65.35    2.67
   6  -6  -5   16.58    0.85
   6  -6  -5   15.82    1.07
   6  -6  -5   19.00    1.12
  -6   6   5   16.64    0.90
   5  -6  -5   36.57    1.89
   5  -6  -5   41.21    2.10
   5  -6  -5   37.56    1.90
  -5   6   5   39.69    1.58
   4  -6  -5    4.88    0.52
   4  -6  -5    5.05    0.59
   4  -6  -5    5.35    0.54
   4  -6  -5    5.15    0.66
   4  -6  -5    4.84    0.37
  -4   6   5    4.90    0.45
  -4   6   5    4.79    0.45
   3  -6  -5    2.69    0.47
   3  -6  -5    2.24    0.46
   3  -6  -5    2.96    0.43
   3  -6  -5    2.72    0.37
   3  -6  -5    2.54    0.27
  -3   6   5    2.74    0.34
   2  -6  -5    0.61    0.29
   2  -6  -5    0.38    0.23
   2  -6  -5    0.43    0.32
   2  -6  -5    0.51    0.14
  -2   6   5    0.38    0.21
  -2   6   5    0.44    0.17
   1  -6  -5   65.92    3.42
   1  -6  -5   65.04    3.16
   1  -6  -5   59.31    2.51
  -1   6   5   62.49    2.99
   0  -6  -5   71.06    3.12
   0  -6  -5   63.71    2.71
   0  -6  -5   72.10    3.68
   0   6   5   70.20    2.28
   0   6   5   63.80    2.75
   0   6   5   67.02    3.17
  -1  -6  -5   79.79    2.89
  -1  -6  -5   72.43    2.98
  -1  -6  -5   81.50    3.90
   1   6   5   74.82    2.46
   1   6   5   75.90    2.48
   1   6   5   70.29    3.34
  -2  -6  -5   16.41    1.09
  -2  -6  -5   15.60    0.82
  -2  -6  -5   17.67    0.91
   2   6   5   17.02    0.87
   2   6   5   16.28    0.65
  -3  -6  -5    1.31    0.18
  -3  -6  -5    1.50    0.16
   3   6   5    1.73    0.13
   3   6   5    1.61    0.12
   3   6   5    1.59    0.17
   7  -7  -5    2.76    0.27
   7  -7  -5    2.69    0.28
   7  -7  -5    2.47    0.24
   6  -7  -5    5.35    0.48
   6  -7  -5    6.60    0.53
   5  -7  -5   57.75    2.59
   5  -7  -5   63.22    2.73
   5  -7  -5   58.95    2.51
   4  -7  -5   11.08    0.73
   4  -7  -5   12.32    0.87
   4  -7  -5   11.91    0.90
  -4   7   5   11.15    0.67
   3  -7  -5    6.31    0.60
   3  -7  -5    5.82    0.56
   3  -7  -5    6.51    0.67
   3  -7  -5    5.80    0.38
  -3   7   5    6.16    0.66
  -3   7   5    5.70    0.46
   2  -7  -5    5.55    0.48
   2  -7  -5    5.05    0.36
   2  -7  -5    6.37    0.63
   2  -7  -5    5.95    0.67
  -2   7   5    5.32    0.30
  -2   7   5    5.50    0.62
   1  -7  -5    1.06    0.31
   1  -7  -5    0.72    0.13
   1  -7  -5    0.76    0.28
   0  -7  -5    3.64    0.38
   0  -7  -5    3.52    0.51
   0  -7  -5    3.38    0.27
   0   7   5    3.58    0.25
  -1  -7  -5   63.89    2.88
  -1  -7  -5   51.76    2.15
   1   7   5   57.81    1.87
   1   7   5   55.22    1.84
   1   7   5   58.65    2.40
  -2  -7  -5   18.02    0.93
   2   7   5   16.36    0.60
   2   7   5   15.95    0.55
   2   7   5   16.65    0.77
   6  -8  -5    8.34    0.45
   6  -8  -5    8.53    0.49
   5  -8  -5   15.12    0.81
   5  -8  -5   13.68    0.71
   5  -8  -5   12.53    0.64
  -5   8   5   14.09    0.44
   4  -8  -5    0.33    0.16
   4  -8  -5    0.22    0.14
  -4   8   5    0.12    0.06
   3  -8  -5   94.12    3.60
   3  -8  -5   86.74    4.08
   3  -8  -5   98.75    3.91
  -3   8   5   92.40    2.86
   2  -8  -5    6.87    0.55
   2  -8  -5    7.30    0.59
   1  -8  -5    1.13    0.22
  -1   8   5    0.78    0.11
   0  -8  -5    4.65    0.33
   0  -8  -5    6.14    0.48
   0   8   5    5.06    0.25
   0   8   5    5.48    0.27
   0   8   5    5.28    0.34
  -1  -8  -5    0.12    0.09
   1   8   5    0.16    0.04
   1   8   5    0.10    0.05
   3  -9  -5    9.94    0.53
   2  10  -6    5.20    0.23
  -2 -10   6    5.62    0.26
   1  10  -6    0.92    0.08
  -1 -10   6    1.09    0.12
   5   9  -6   34.50    1.25
  -5  -9   6   35.73    1.20
   4   9  -6   12.76    0.45
  -4  -9   6   13.21    0.57
  -4  -9   6   11.49    0.47
   3   9  -6    0.83    0.11
   3   9  -6    0.83    0.09
  -3  -9   6    0.73    0.13
   2   9  -6   22.68    0.81
  -2  -9   6   19.55    0.94
  -2  -9   6   22.05    0.90
  -2  -9   6   23.07    0.85
   1   9  -6    7.28    0.36
   1   9  -6    7.25    0.35
  -1  -9   6    6.30    0.45
  -1  -9   6    6.62    0.39
  -1  -9   6    7.27    0.41
   0   9  -6   17.57    0.65
   0   9  -6   16.70    0.64
   0  -9   6   16.25    0.66
   0  -9   6   17.18    0.84
   0  -9   6   15.37    0.68
  -1   9  -6   25.48    0.85
  -1   9  -6   24.12    0.84
   1  -9   6   21.42    0.98
   1  -9   6   24.70    1.08
  -2   9  -6    3.25    0.18
   2  -9   6    3.35    0.26
   6   8  -6   11.50    0.42
   6   8  -6   12.05    0.50
  -6  -8   6   11.22    0.47
  -6  -8   6   10.76    0.49
  -6  -8   6   12.14    0.49
   5   8  -6    8.27    0.37
   5   8  -6    9.27    0.46
  -5  -8   6    7.97    0.44
  -5  -8   6    8.82    0.48
   4   8  -6   37.80    1.30
   4   8  -6   37.35    1.26
  -4  -8   6   37.80    1.53
  -4  -8   6   37.75    1.46
   3   8  -6   55.60    1.88
   3   8  -6   57.15    1.60
   3   8  -6   57.32    1.84
  -3  -8   6   55.30    1.90
  -3  -8   6   56.58    2.06
  -3  -8   6   57.27    2.18
   2   8  -6   49.95    1.68
   2   8  -6   49.60    1.69
  -2  -8   6   48.54    1.96
  -2  -8   6   50.44    1.73
  -2  -8   6   48.34    2.01
  -2  -8   6   48.90    1.84
  -2  -8   6   47.24    2.03
   1   8  -6    3.58    0.28
   1   8  -6    3.27    0.26
   1   8  -6    3.31    0.21
  -1  -8   6    3.34    0.34
  -1  -8   6    3.54    0.37
  -1  -8   6    3.51    0.32
  -1  -8   6    3.12    0.36
   0   8  -6   21.06    0.84
   0   8  -6   21.64    0.85
   0  -8   6   20.33    0.88
   0  -8   6   20.57    0.96
   0  -8   6   21.17    1.11
   0  -8   6   21.41    1.07
  -1   8  -6   11.43    0.53
  -1   8  -6   12.18    0.54
  -1   8  -6   11.47    0.49
   1  -8   6   11.40    0.70
   1  -8   6   11.41    0.54
   1  -8   6   12.34    0.73
   1  -8   6   11.60    0.62
  -2   8  -6   26.94    0.93
  -2   8  -6   26.45    0.90
  -2   8  -6   26.04    0.97
   2  -8   6   27.57    1.21
   2  -8   6   26.92    1.16
  -3   8  -6   39.32    1.20
  -3   8  -6   39.19    1.26
   3  -8   6   38.42    1.52
   3  -8   6   38.61    1.53
   7   7  -6   13.69    0.56
   7   7  -6   13.29    0.49
  -7  -7   6   13.59    0.56
  -7  -7   6   13.16    0.57
   6   7  -6   18.60    0.82
  -6  -7   6   18.63    0.80
  -6  -7   6   18.23    0.80
   5   7  -6   14.96    0.54
   5   7  -6   13.77    0.60
  -5  -7   6   14.20    0.73
  -5  -7   6   14.23    0.78
   4   7  -6   30.56    1.13
   4   7  -6   31.54    1.17
   4   7  -6   31.37    1.01
  -4  -7   6   31.24    1.19
  -4  -7   6   30.87    1.31
  -4  -7   6   30.39    1.40
   3   7  -6   42.55    1.55
   3   7  -6   42.73    1.53
   3   7  -6   42.79    1.32
   3   7  -6   43.51    1.50
  -3  -7   6   41.53    1.82
  -3  -7   6   42.29    1.84
  -3  -7   6   43.41    1.57
   2   7  -6   80.98    2.81
   2   7  -6   86.25    2.81
   2   7  -6   86.01    2.42
   2   7  -6   86.63    2.57
  -2  -7   6   86.87    3.33
  -2  -7   6   86.64    3.38
  -2  -7   6   85.37    2.82
  -2  -7   6   85.21    3.22
   1   7  -6  113.56    3.70
   1   7  -6  117.44    3.46
   1   7  -6  115.98    3.71
  -1  -7   6  117.59    4.43
  -1  -7   6  116.61    4.49
  -1  -7   6  115.10    4.15
   0   7  -6   43.98    1.61
   0   7  -6   47.20    1.65
   0   7  -6   46.33    1.52
   0  -7   6   45.80    2.00
   0  -7   6   46.05    1.88
   0  -7   6   45.23    2.06
  -1   7  -6    2.57    0.23
  -1   7  -6    2.91    0.26
   1  -7   6    2.83    0.34
   1  -7   6    2.71    0.36
  -2   7  -6   17.64    0.71
   2  -7   6   18.72    0.97
   2  -7   6   18.07    0.95
  -3   7  -6    2.65    0.20
   3  -7   6    2.64    0.26
   3  -7   6    2.35    0.23
  -4   7  -6   27.02    0.84
   4  -7   6   25.07    1.06
   8   6  -6   79.61    2.27
  -8  -6   6   76.79    2.56
  -8  -6   6   71.88    2.62
  -8  -6   6   75.56    2.30
   7   6  -6   58.04    2.08
   7   6  -6   57.54    1.80
  -7  -6   6   54.04    2.02
  -7  -6   6   57.06    1.90
   6   6  -6  132.18    3.49
   6   6  -6  134.00    4.55
  -6  -6   6  127.91    4.27
  -6  -6   6  130.28    4.36
  -6  -6   6  121.93    4.39
   5   6  -6    8.75    0.47
   5   6  -6    9.62    0.44
  -5  -6   6    8.07    0.85
  -5  -6   6    8.62    0.56
  -5  -6   6    9.75    0.51
  -5  -6   6    8.59    0.62
   4   6  -6   24.41    0.88
   4   6  -6   24.59    0.90
   4   6  -6   24.99    0.99
   4   6  -6   25.62    1.03
  -4  -6   6   25.62    1.05
   3   6  -6   10.29    0.47
   3   6  -6    9.84    0.55
   3   6  -6   11.69    0.58
  -3  -6   6   10.32    0.69
  -3  -6   6    8.93    1.31
   2   6  -6   51.50    1.79
   2   6  -6   49.84    1.75
  -2  -6   6   50.73    3.43
  -2  -6   6   44.05    2.12
  -2  -6   6   52.78    2.11
   1   6  -6   31.39    1.10
   1   6  -6   29.55    1.20
   1   6  -6   28.91    1.16
   1   6  -6   30.37    1.45
  -1  -6   6   31.73    1.44
  -1  -6   6   28.56    2.43
  -1  -6   6   29.72    1.49
   0   6  -6  167.36    6.69
   0   6  -6  163.74    4.83
   0   6  -6  161.82    5.15
   0  -6   6  162.78    7.68
   0  -6   6  167.68    6.15
   0  -6   6  160.56    6.16
  -1   6  -6   83.19    2.79
  -1   6  -6   84.68    2.61
  -1   6  -6   82.61    3.57
   1  -6   6   83.26    3.35
   1  -6   6   85.37    2.67
   1  -6   6   82.92    3.38
  -2   6  -6   39.21    1.86
  -2   6  -6   39.31    1.38
   2  -6   6   39.59    1.78
   2  -6   6   38.99    1.41
   2  -6   6   41.01    1.79
  -3   6  -6    1.18    0.20
  -3   6  -6    1.16    0.16
   3  -6   6    1.06    0.18
   3  -6   6    1.16    0.20
   3  -6   6    1.37    0.17
  -4   6  -6   10.02    0.42
  -4   6  -6    9.63    0.54
   4  -6   6    9.04    0.49
   8   5  -6    5.18    0.30
   8   5  -6    5.00    0.27
  -8  -5   6    5.27    0.34
  -8  -5   6    5.13    0.32
   7   5  -6    7.56    0.47
   7   5  -6    7.46    0.40
  -7  -5   6    7.59    0.50
  -7  -5   6    7.71    0.50
   6   5  -6  209.67    7.03
   6   5  -6  203.74    5.43
  -6  -5   6  201.47    7.85
  -6  -5   6  204.45    6.57
  -6  -5   6  199.90    6.71
   5   5  -6   84.07    2.49
   5   5  -6   82.12    2.73
   5   5  -6   81.99    2.39
   5   5  -6   82.11    2.68
  -5  -5   6   83.23    2.92
  -5  -5   6   82.51    3.78
   4   5  -6  134.39    4.26
   4   5  -6  138.89    3.95
   4   5  -6  135.63    4.20
  -4  -5   6  129.39    7.01
  -4  -5   6  132.92    6.67
   3   5  -6   19.78    0.87
   3   5  -6   19.11    0.87
   3   5  -6   21.89    0.81
   3   5  -6   21.24    1.59
  -3  -5   6   21.15    1.80
  -3  -5   6   18.78    1.29
  -3  -5   6   22.12    1.08
  -3  -5   6   21.99    1.94
   2   5  -6    1.44    0.19
   2   5  -6    1.44    0.20
   2   5  -6    1.88    0.25
   2   5  -6    1.97    0.43
   2   5  -6    1.45    0.19
   2   5  -6    1.51    0.18
  -2  -5   6    1.90    0.59
  -2  -5   6    1.30    0.40
  -2  -5   6    1.67    0.24
  -2  -5   6    1.50    0.33
   1   5  -6    0.41    0.12
   1   5  -6    0.11    0.17
   1   5  -6    0.22    0.12
   1   5  -6    0.17    0.10
  -1  -5   6   -0.02    0.27
  -1  -5   6    0.13    0.16
   0   5  -6   66.60    2.34
   0   5  -6   66.02    2.17
   0   5  -6   66.03    2.34
   0   5  -6   68.28    3.00
   0   5  -6   73.99    3.31
   0  -5   6   69.93    2.33
   0  -5   6   68.60    2.76
   0  -5   6   66.54    3.85
   0  -5   6   64.86    3.10
  -1   5  -6   44.39    1.48
  -1   5  -6   39.33    1.52
  -1   5  -6   42.37    2.02
   1  -5   6   41.67    1.87
   1  -5   6   42.86    1.59
   1  -5   6   42.33    1.47
  -2   5  -6  162.37    6.69
  -2   5  -6  153.09    4.80
   2  -5   6  166.32    5.09
   2  -5   6  160.39    6.00
   2  -5   6  162.64    5.97
   2  -5   6  162.35    4.91
  -3   5  -6   41.33    1.48
  -3   5  -6   41.09    2.03
   3  -5   6   42.35    1.79
   3  -5   6   44.34    1.49
   3  -5   6   42.61    1.57
   3  -5   6   43.09    1.82
  -4   5  -6   14.92    0.86
  -4   5  -6   15.77    0.61
   4  -5   6   13.79    0.72
   4  -5   6   14.68    0.58
   4  -5   6   15.42    0.63
  -5   5  -6    2.00    0.18
  -5   5  -6    1.59    0.11
   5  -5   6    1.56    0.11
   9   4  -6    4.68    0.26
  -9  -4   6    5.50    0.37
  -9  -4   6    5.36    0.27
  -9  -4   6    5.27    0.28
   8   4  -6    9.91    0.51
   8   4  -6   10.00    0.46
  -8  -4   6    9.56    0.50
  -8  -4   6    9.81    0.56
   7   4  -6    6.05    0.44
   7   4  -6    5.99    0.36
   7   4  -6    6.21    0.27
  -7  -4   6    4.98    0.71
  -7  -4   6    6.01    0.47
   6   4  -6   14.55    0.79
   6   4  -6   15.05    0.56
   6   4  -6   14.34    0.67
   6   4  -6   14.48    0.60
  -6  -4   6   14.17    1.24
   5   4  -6    9.70    0.46
   5   4  -6   10.27    0.49
   5   4  -6    9.13    1.07
   5   4  -6   10.18    0.51
  -5  -4   6    8.71    1.23
  -5  -4   6   10.14    1.34
  -5  -4   6    9.25    0.91
   4   4  -6  374.81   10.46
   4   4  -6  369.85   11.13
   4   4  -6  372.08   14.32
  -4  -4   6  367.21   15.11
  -4  -4   6  359.78   12.89
  -4  -4   6  381.87   16.69
   3   4  -6   22.78    0.90
   3   4  -6   22.10    1.57
   3   4  -6   20.64    0.89
   3   4  -6   22.02    0.93
   3   4  -6   22.12    0.84
  -3  -4   6   22.44    1.75
  -3  -4   6   21.47    1.25
  -3  -4   6   22.79    1.85
  -3  -4   6   20.30    1.29
   2   4  -6  181.67    5.79
   2   4  -6  183.94    7.26
   2   4  -6  164.90    5.53
   2   4  -6  182.41    5.23
   2   4  -6  188.10    7.31
  -2  -4   6  176.86    5.91
  -2  -4   6  172.03    6.57
  -2  -4   6  187.51    8.03
   1   4  -6    6.41    0.37
   1   4  -6    6.19    0.50
   1   4  -6    5.87    0.37
   1   4  -6    6.18    0.68
  -1  -4   6    6.55    0.93
  -1  -4   6    5.73    0.53
   0   4  -6    0.14    0.10
   0   4  -6    0.56    0.12
   0   4  -6    0.15    0.16
   0   4  -6    0.49    0.17
   0  -4   6    0.10    0.10
   0  -4   6    0.58    0.29
   0  -4   6    0.05    0.08
   0  -4   6    0.07    0.21
  -1   4  -6    1.76    0.22
  -1   4  -6    1.69    0.29
  -1   4  -6    1.47    0.19
  -1   4  -6    1.71    0.39
   1  -4   6    1.93    0.20
   1  -4   6    1.42    0.42
  -2   4  -6   67.02    2.28
  -2   4  -6   68.31    3.15
  -2   4  -6   66.95    2.38
   2  -4   6   71.82    2.39
   2  -4   6   69.98    2.27
  -3   4  -6   22.22    0.93
  -3   4  -6   21.05    1.29
   3  -4   6   22.18    1.09
   3  -4   6   22.24    0.89
   3  -4   6   22.71    0.96
  -4   4  -6  122.76    3.48
  -4   4  -6  119.43    4.97
   4  -4   6  115.74    3.69
   4  -4   6  113.01    3.53
   4  -4   6  116.83    3.41
   4  -4   6  118.74    3.58
   4  -4   6  112.52    4.30
  -5   4  -6    8.12    0.51
   5  -4   6    6.97    0.31
   5  -4   6    7.48    0.33
   5  -4   6    7.77    0.35
   9   3  -6    0.26    0.07
  -9  -3   6    0.21    0.08
  -9  -3   6    0.42    0.09
   8   3  -6  193.59    5.72
   8   3  -6  195.44    4.82
   8   3  -6  193.13    6.56
  -8  -3   6  191.06    6.41
  -8  -3   6  188.67    7.44
   7   3  -6    7.87    0.34
   7   3  -6    7.96    0.51
   7   3  -6    7.92    0.43
   7   3  -6    6.96    0.35
  -7  -3   6    7.54    0.89
   6   3  -6    0.02    0.11
   6   3  -6    0.09    0.09
   6   3  -6    0.12    0.08
  -6  -3   6    0.32    0.27
  -6  -3   6   -0.11    0.35
   5   3  -6   20.69    0.71
   5   3  -6   21.04    1.00
   5   3  -6   17.22    1.44
   5   3  -6   20.27    0.78
  -5  -3   6   17.54    1.80
  -5  -3   6   21.64    1.80
  -5  -3   6   20.17    1.35
   4   3  -6    5.68    0.37
   4   3  -6    5.24    0.31
   4   3  -6    5.21    0.34
   4   3  -6    5.49    0.32
   4   3  -6    4.99    0.68
  -4  -3   6    6.29    0.87
  -4  -3   6    5.49    0.84
  -4  -3   6    4.97    0.58
  -4  -3   6    5.41    0.60
   3   3  -6   14.43    1.12
  -3  -3   6   12.22    0.90
  -3  -3   6   12.55    0.73
  -3  -3   6   16.13    0.97
  -3  -3   6   11.90    1.25
   2   3  -6  395.79   14.67
  -2  -3   6  391.02   13.46
  -2  -3   6  396.59   10.92
  -2  -3   6  397.06   12.07
   1   3  -6    8.61    0.80
  -1  -3   6    9.81    0.70
   0   3  -6   93.08    2.76
   0   3  -6   87.76    3.98
   0   3  -6   96.21    4.06
   0   3  -6   94.04    3.12
   0   3  -6   86.26    2.83
   0  -3   6   94.58    3.19
   0  -3   6   98.94    3.89
  -1   3  -6    1.47    0.28
  -1   3  -6    1.52    0.21
  -1   3  -6    1.35    0.18
  -1   3  -6    1.32    0.34
   1  -3   6    1.61    0.32
   1  -3   6    1.60    0.18
   1  -3   6    1.40    0.40
  -2   3  -6    1.63    0.32
  -2   3  -6    1.54    0.20
  -2   3  -6    1.57    0.23
   2  -3   6    1.61    0.22
   2  -3   6    1.56    0.20
   2  -3   6    1.48    0.16
  -3   3  -6    1.70    0.21
  -3   3  -6    1.68    0.22
  -3   3  -6    1.97    0.36
   3  -3   6    2.00    0.24
   3  -3   6    1.70    0.19
   3  -3   6    1.99    0.18
  -4   3  -6   86.59    2.58
  -4   3  -6   94.85    3.93
   4  -3   6   89.59    2.73
   4  -3   6   84.64    2.59
   4  -3   6   84.64    2.83
   4  -3   6   83.58    3.27
  -5   3  -6   25.44    1.22
   5  -3   6   23.80    0.83
   5  -3   6   22.83    0.79
   5  -3   6   23.72    0.84
  10   2  -6    0.24    0.06
   9   2  -6    4.06    0.28
   9   2  -6    4.43    0.23
  -9  -2   6    4.24    0.28
   8   2  -6  119.24    4.19
   8   2  -6  119.91    3.66
   8   2  -6  120.26    3.08
  -8  -2   6  117.71    4.13
   7   2  -6    6.29    0.39
   7   2  -6    6.86    0.32
   7   2  -6    6.21    0.45
  -7  -2   6    5.91    0.80
   6   2  -6  265.97    7.33
   6   2  -6  246.52    8.47
   6   2  -6  241.99    6.49
   6   2  -6  230.88    6.51
  -6  -2   6  243.02   11.87
  -6  -2   6  252.50    9.32
   5   2  -6    0.27    0.10
   5   2  -6    0.27    0.11
   5   2  -6    0.30    0.11
   5   2  -6    0.40    0.19
   5   2  -6    0.24    0.09
   5   2  -6    0.29    0.12
  -5  -2   6    0.43    0.22
  -5  -2   6   -0.01    0.23
  -5  -2   6    0.22    0.30
   4   2  -6    2.44    0.43
  -4  -2   6    2.10    0.34
  -4  -2   6    1.69    0.46
  -4  -2   6    2.84    0.41
   3   2  -6   14.33    1.07
  -3  -2   6   15.58    1.46
  -3  -2   6   16.15    0.79
  -3  -2   6   14.07    0.93
  -3  -2   6   16.41    0.97
   2   2  -6   27.64    1.59
  -2  -2   6   29.37    1.25
  -2  -2   6   30.98    1.46
  -2  -2   6   25.75    2.11
   1   2  -6    1.72    0.33
  -1  -2   6    1.19    0.25
  -1  -2   6    0.97    0.39
   0   2  -6  335.56   12.32
   0  -2   6  328.23    9.24
   0  -2   6  342.13   11.08
   0  -2   6  304.76   15.25
  -1   2  -6    0.83    0.23
   1  -2   6    1.19    0.14
   1  -2   6    0.92    0.25
   1  -2   6    0.93    0.36
   1  -2   6    1.11    0.41
  -2   2  -6   37.31    1.34
  -2   2  -6   36.48    2.04
   2  -2   6   35.87    1.62
   2  -2   6   39.33    1.25
   2  -2   6   38.14    1.24
  -3   2  -6    0.58    0.15
  -3   2  -6    0.64    0.27
   3  -2   6    0.56    0.20
   3  -2   6    0.54    0.11
   3  -2   6    0.65    0.15
   3  -2   6    0.57    0.13
   3  -2   6    0.53    0.10
  -4   2  -6    2.07    0.21
  -4   2  -6    2.84    0.41
   4  -2   6    1.97    0.17
   4  -2   6    2.22    0.20
   4  -2   6    1.76    0.21
  -5   2  -6    0.66    0.18
  -5   2  -6    0.70    0.10
   5  -2   6    1.00    0.11
   5  -2   6    0.66    0.09
  10   1  -6   10.83    0.46
   9   1  -6   20.72    0.74
   9   1  -6   20.52    0.90
  -9  -1   6   21.11    0.80
   8   1  -6    0.17    0.09
  -8  -1   6    0.23    0.13
  -8  -1   6    0.09    0.21
   7   1  -6    0.06    0.11
   7   1  -6    0.33    0.15
   7   1  -6    0.06    0.08
   7   1  -6    0.07    0.09
  -7  -1   6    0.30    0.25
   6   1  -6   98.20    3.19
   6   1  -6   99.50    3.51
   6   1  -6   98.98    2.83
   6   1  -6  100.15    3.69
   6   1  -6  102.21    3.89
  -6  -1   6  108.84    5.80
  -6  -1   6  109.36    4.46
   5   1  -6   34.42    1.16
   5   1  -6   34.07    1.45
   5   1  -6   35.48    1.61
   5   1  -6   31.76    1.38
   5   1  -6   33.88    1.07
   5   1  -6   33.52    1.07
  -5  -1   6   34.79    2.40
  -5  -1   6   33.59    2.19
  -5  -1   6   35.06    1.73
   4   1  -6  140.81    5.59
  -4  -1   6  147.35    4.80
  -4  -1   6  130.78    6.93
   3   1  -6    2.50    0.33
   3   1  -6    2.41    0.38
  -3  -1   6    2.25    0.30
  -3  -1   6    3.30    0.57
   2   1  -6    2.04    0.35
   2   1  -6    1.95    0.28
  -2  -1   6    1.92    0.45
  -2  -1   6    1.93    0.29
   1   1  -6    4.35    0.52
   1   1  -6    4.26    0.39
  -1  -1   6    4.42    0.51
  -1  -1   6    4.12    0.68
  -1  -1   6    4.33    0.47
   0   1  -6   48.98    2.40
   0  -1   6   46.77    2.09
   0  -1   6   47.09    2.99
   0  -1   6   47.09    2.27
  -1   1  -6    3.00    0.28
  -1   1  -6    3.29    0.42
   1  -1   6    3.64    0.67
   1  -1   6    3.88    0.43
   1  -1   6    3.79    0.60
  -2   1  -6  209.16    6.10
  -2   1  -6  194.23    8.90
   2  -1   6  222.13    6.08
   2  -1   6  217.79    5.92
   2  -1   6  223.81    6.30
   2  -1   6  208.97    6.25
   2  -1   6  211.54    7.81
  -3   1  -6    0.79    0.29
  -3   1  -6    0.62    0.17
   3  -1   6    0.81    0.20
   3  -1   6    0.72    0.21
   3  -1   6    0.56    0.12
   3  -1   6    0.75    0.12
  -4   1  -6    2.11    0.23
  -4   1  -6    1.77    0.33
   4  -1   6    1.34    0.24
   4  -1   6    1.46    0.15
   4  -1   6    1.27    0.17
   4  -1   6    1.84    0.16
   4  -1   6    1.39    0.16
  -5   1  -6    1.68    0.23
  -5   1  -6    1.54    0.15
   5  -1   6    1.68    0.15
   5  -1   6    1.76    0.14
  10   0  -6   31.50    1.15
   9   0  -6    5.64    0.29
   9   0  -6    5.62    0.36
  -9   0   6    6.12    0.32
   8   0  -6   17.81    0.60
   8   0  -6   17.51    0.89
   8   0  -6   16.22    0.71
  -8   0   6   16.23    1.34
   7   0  -6   25.25    0.89
   7   0  -6   23.68    1.26
   7   0  -6   25.64    0.82
   7   0  -6   24.80    1.22
  -7   0   6   24.70    1.44
   6   0  -6   19.75    0.93
   6   0  -6   19.82    0.73
   6   0  -6   19.96    0.98
   6   0  -6   19.95    1.05
   6   0  -6   20.01    0.74
   6   0  -6   19.98    1.11
  -6   0   6   20.60    1.39
  -6   0   6   20.62    1.89
   5   0  -6   12.12    0.82
   5   0  -6   13.30    0.52
   5   0  -6   13.32    0.72
   5   0  -6   14.90    0.88
   5   0  -6   13.06    0.51
   5   0  -6   12.79    0.70
   5   0  -6   14.38    0.79
  -5   0   6   13.40    1.29
  -5   0   6   13.48    0.95
   4   0  -6  163.68    5.83
  -4   0   6  165.57    7.87
  -4   0   6  163.64    5.47
   3   0  -6   79.72    3.12
   3   0  -6   79.80    3.45
  -3   0   6   79.40    2.42
  -3   0   6   84.78    2.99
   2   0  -6   71.03    2.75
   2   0  -6   70.88    3.16
  -2   0   6   71.52    2.24
  -2   0   6   75.15    2.78
   1   0  -6    0.50    0.15
   1   0  -6    0.61    0.21
  -1   0   6    0.59    0.19
   0   0  -6    0.16    0.12
   0   0   6    0.11    0.16
  -1   0  -6    0.83    0.17
  -1   0  -6    0.86    0.23
  -1   0  -6    0.84    0.23
   1   0   6    0.71    0.31
   1   0   6    1.89    0.27
   1   0   6    0.86    0.27
   1   0   6    0.67    0.30
   1   0   6    1.17    0.13
  -2   0  -6   49.12    1.77
  -2   0  -6   46.72    2.55
   2   0   6   53.21    1.62
   2   0   6   50.08    1.93
   2   0   6   53.61    1.93
  -3   0  -6   49.83    2.54
  -3   0  -6   49.74    1.76
   3   0   6   49.67    1.58
   3   0   6   50.07    1.56
   3   0   6   48.37    1.87
  -4   0  -6  123.59    5.20
  -4   0  -6  125.29    3.63
   4   0   6  124.02    3.47
   4   0   6  122.91    3.55
   4   0   6  117.67    3.80
   4   0   6  118.84    3.68
  -5   0  -6    0.52    0.11
  -5   0  -6    0.50    0.10
   5   0   6    0.47    0.08
   5   0   6    0.38    0.07
  10  -1  -6    8.63    0.40
   9  -1  -6   76.17    2.64
   9  -1  -6   77.45    2.71
   9  -1  -6   75.18    2.37
   8  -1  -6   11.16    0.53
   8  -1  -6   11.60    0.73
   8  -1  -6   10.29    0.70
   8  -1  -6   11.51    0.44
  -8   1   6    8.99    0.95
   7  -1  -6    9.26    0.39
   7  -1  -6    8.76    0.67
   7  -1  -6    8.71    0.44
   7  -1  -6    8.48    0.48
   7  -1  -6    8.05    0.67
   6  -1  -6    3.16    0.40
   6  -1  -6    2.98    0.36
   6  -1  -6    3.04    0.41
   6  -1  -6    3.66    0.44
   6  -1  -6    3.03    0.24
   6  -1  -6    2.78    0.30
   6  -1  -6    3.19    0.21
  -6   1   6    3.37    0.48
   5  -1  -6   32.50    1.06
   5  -1  -6   33.64    1.39
   5  -1  -6   32.92    1.64
   5  -1  -6   34.90    1.50
   5  -1  -6   35.26    1.72
   5  -1  -6   32.24    1.03
   5  -1  -6   33.78    1.47
   5  -1  -6   34.57    1.63
  -5   1   6   33.79    1.65
  -5   1   6   34.82    2.29
   4  -1  -6   16.21    1.04
  -4   1   6   14.13    0.72
   3  -1  -6   85.96    3.32
  -3   1   6   83.91    2.59
   2  -1  -6  135.66    4.82
  -2   1   6  134.13    3.89
   1  -1  -6   70.52    2.84
  -1   1   6   72.22    2.83
   0  -1  -6   16.26    1.06
   0  -1  -6   16.79    0.74
   0   1   6   17.49    1.10
   0   1   6   16.16    1.06
  -1  -1  -6   20.06    1.32
  -1  -1  -6   20.92    0.92
   1   1   6   20.41    1.26
  -2  -1  -6    2.93    0.33
   2   1   6    3.40    0.32
   2   1   6    3.62    0.40
   2   1   6    3.66    0.25
   2   1   6    3.29    0.37
  -3  -1  -6    4.83    0.41
   3   1   6    4.45    0.43
   3   1   6    4.81    0.29
   3   1   6    4.78    0.30
  -4  -1  -6   49.41    1.67
   4   1   6   51.01    1.57
   4   1   6   50.20    1.54
  -5  -1  -6   35.76    1.12
   5   1   6   33.83    1.11
   5   1   6   37.22    1.10
  10  -2  -6   10.36    0.44
   9  -2  -6    1.22    0.13
   9  -2  -6    1.39    0.18
   9  -2  -6    1.62    0.23
   8  -2  -6   26.17    1.16
   8  -2  -6   27.12    0.98
   8  -2  -6   27.27    1.30
   8  -2  -6   25.59    1.26
   8  -2  -6   25.81    1.28
  -8   2   6   24.05    1.57
   7  -2  -6  107.44    4.02
   7  -2  -6  104.56    2.77
   7  -2  -6  103.65    3.78
   7  -2  -6   92.98    3.79
   7  -2  -6  114.05    4.31
   7  -2  -6  108.30    3.36
  -7   2   6  104.78    4.51
   6  -2  -6   15.72    0.98
   6  -2  -6   14.05    0.58
   6  -2  -6   15.07    0.69
   6  -2  -6   14.61    0.54
   6  -2  -6   14.85    0.80
   6  -2  -6   14.17    0.91
   6  -2  -6   14.34    0.92
   6  -2  -6   14.03    1.02
  -6   2   6   13.53    0.98
   5  -2  -6    1.94    0.35
   5  -2  -6    2.07    0.25
   5  -2  -6    1.71    0.15
   5  -2  -6    1.99    0.32
   5  -2  -6    1.72    0.25
   5  -2  -6    1.65    0.20
   5  -2  -6    1.72    0.15
   5  -2  -6    1.96    0.17
   5  -2  -6    1.90    0.36
   5  -2  -6    1.71    0.36
  -5   2   6    1.66    0.32
  -5   2   6    1.44    0.29
   4  -2  -6    4.97    0.37
   4  -2  -6    5.32    0.41
   4  -2  -6    5.61    0.58
   4  -2  -6    5.25    0.51
   4  -2  -6    4.81    0.53
   4  -2  -6    4.69    0.53
   4  -2  -6    4.49    0.31
   4  -2  -6    4.96    0.57
   4  -2  -6    5.01    0.28
  -4   2   6    4.25    0.45
   3  -2  -6   17.69    1.09
   3  -2  -6   15.63    1.07
   3  -2  -6   16.24    1.02
   3  -2  -6   16.06    0.86
   3  -2  -6   15.85    1.03
   3  -2  -6   15.36    1.02
  -3   2   6   16.07    0.81
  -3   2   6   15.74    0.91
   2  -2  -6   36.86    1.72
   2  -2  -6   32.28    1.77
   2  -2  -6   35.18    1.56
   2  -2  -6   33.71    1.70
   2  -2  -6   33.98    1.91
   2  -2  -6   34.56    1.69
  -2   2   6   35.62    1.36
   1  -2  -6  141.12    5.04
   1  -2  -6  128.37    6.20
   1  -2  -6  129.37    5.29
   1  -2  -6  134.13    5.28
   1  -2  -6  132.28    5.60
  -1   2   6  139.89    4.88
  -1   2   6  139.47    4.07
  -1   2   6  149.13    5.43
   0  -2  -6   80.92    2.59
   0  -2  -6   76.64    4.05
   0  -2  -6   82.53    3.44
   0  -2  -6   85.77    3.20
   0   2   6   89.73    3.36
   0   2   6   88.87    3.66
  -1  -2  -6   93.84    2.99
  -1  -2  -6   90.29    3.59
  -1  -2  -6   95.43    4.49
   1   2   6   97.89    3.72
  -2  -2  -6   14.81    0.81
   2   2   6   17.56    0.91
   2   2   6   15.94    1.11
  -3  -2  -6   15.96    0.79
   3   2   6   16.21    0.83
   3   2   6   14.79    0.84
   3   2   6   16.55    0.64
  -4  -2  -6    0.47    0.13
   4   2   6    0.44    0.09
   4   2   6    0.31    0.08
  -5  -2  -6    6.38    0.28
   5   2   6    6.37    0.26
   9  -3  -6    5.11    0.32
   9  -3  -6    4.68    0.35
   9  -3  -6    4.10    0.34
   8  -3  -6    9.42    0.65
   8  -3  -6    9.59    0.66
   8  -3  -6   10.01    0.58
   8  -3  -6    9.29    0.67
   8  -3  -6    9.72    0.47
   7  -3  -6    9.54    0.73
   7  -3  -6    9.23    0.60
   7  -3  -6    9.50    0.67
   7  -3  -6    9.01    0.71
   7  -3  -6   10.39    0.82
   7  -3  -6    9.74    0.52
  -7   3   6    9.12    0.79
   6  -3  -6    4.21    0.25
   6  -3  -6    4.02    0.47
   6  -3  -6    4.16    0.49
   6  -3  -6    4.01    0.26
   6  -3  -6    3.80    0.56
   6  -3  -6    4.95    0.41
   6  -3  -6    4.32    0.34
   5  -3  -6  138.72    5.81
   5  -3  -6  152.34    5.85
   5  -3  -6  141.47    4.97
   5  -3  -6  146.79    5.41
   5  -3  -6  150.48    5.04
   5  -3  -6  143.53    4.52
   5  -3  -6  142.82    5.90
  -5   3   6  142.85    5.19
   4  -3  -6   15.52    0.57
   4  -3  -6   14.66    1.07
   4  -3  -6   14.68    1.01
   4  -3  -6   14.71    0.77
   4  -3  -6   16.02    1.12
   4  -3  -6   15.18    1.05
   4  -3  -6   15.08    0.67
   4  -3  -6   15.84    0.84
   4  -3  -6   13.48    1.04
  -4   3   6   14.22    0.93
   3  -3  -6    4.88    0.57
   3  -3  -6    5.14    0.59
   3  -3  -6    5.62    0.61
   3  -3  -6    5.43    0.45
   3  -3  -6    5.02    0.57
   3  -3  -6    5.26    0.41
   3  -3  -6    5.49    0.34
   3  -3  -6    5.33    0.56
  -3   3   6    4.90    0.45
  -3   3   6    4.82    0.50
   2  -3  -6    1.04    0.28
   2  -3  -6    1.51    0.34
   2  -3  -6    0.96    0.26
   2  -3  -6    0.86    0.28
   2  -3  -6    1.27    0.33
   2  -3  -6    1.81    0.27
  -2   3   6    0.80    0.19
  -2   3   6    0.54    0.21
   1  -3  -6   18.79    1.10
   1  -3  -6   19.46    1.13
   1  -3  -6   19.85    1.06
   1  -3  -6   18.78    1.22
   1  -3  -6   19.72    1.24
   1  -3  -6   18.93    1.39
  -1   3   6   19.49    1.00
  -1   3   6   18.91    1.25
   0  -3  -6    4.39    0.52
   0  -3  -6    3.94    0.59
   0   3   6    4.69    0.58
   0   3   6    4.75    0.56
  -1  -3  -6  100.88    4.01
  -1  -3  -6  104.23    5.10
  -1  -3  -6  106.97    3.30
   1   3   6  109.84    4.10
   1   3   6  111.10    4.53
  -2  -3  -6   32.55    1.30
   2   3   6   33.63    1.18
   2   3   6   34.77    1.58
   2   3   6   32.50    1.70
  -3  -3  -6   31.58    1.15
   3   3   6   31.15    1.02
   3   3   6   28.98    1.04
   3   3   6   30.46    1.00
   3   3   6   29.48    1.37
  -4  -3  -6    2.70    0.20
   4   3   6    2.67    0.16
   4   3   6    2.81    0.17
   9  -4  -6    1.72    0.18
   9  -4  -6    2.08    0.18
   9  -4  -6    1.79    0.20
   8  -4  -6   10.72    0.71
   8  -4  -6   10.58    0.57
   8  -4  -6    9.90    0.65
   7  -4  -6    9.80    0.70
   7  -4  -6   10.92    0.85
   7  -4  -6   10.56    0.53
   7  -4  -6    9.50    0.61
   7  -4  -6   10.05    0.76
   7  -4  -6    9.15    0.68
   6  -4  -6   10.92    0.97
   6  -4  -6   12.64    0.72
   6  -4  -6   12.87    0.92
   6  -4  -6   12.04    0.61
  -6   4   6   10.23    0.74
   5  -4  -6   21.12    0.90
   5  -4  -6   22.65    1.04
   5  -4  -6   21.33    1.39
   5  -4  -6   20.03    1.25
   5  -4  -6   21.27    1.39
   5  -4  -6   20.71    1.05
   5  -4  -6   21.15    1.35
  -5   4   6   19.37    1.00
   4  -4  -6    1.34    0.33
   4  -4  -6    1.65    0.37
   4  -4  -6    1.36    0.21
   4  -4  -6    1.24    0.37
   4  -4  -6    1.18    0.23
   4  -4  -6    1.13    0.21
  -4   4   6    0.83    0.20
  -4   4   6    1.06    0.27
  -4   4   6    1.36    0.26
   3  -4  -6  104.48    3.92
   3  -4  -6   94.56    4.29
   3  -4  -6   98.76    4.49
   3  -4  -6   99.50    4.13
   3  -4  -6  103.14    4.82
  -3   4   6  102.54    3.24
  -3   4   6  105.17    4.31
   2  -4  -6   21.34    1.10
   2  -4  -6   19.03    1.37
   2  -4  -6   23.18    1.24
   2  -4  -6   21.24    1.27
   2  -4  -6   20.83    1.50
  -2   4   6   21.27    1.06
  -2   4   6   21.50    1.38
   1  -4  -6    2.86    0.55
   1  -4  -6    3.99    0.41
   1  -4  -6    3.55    0.46
   1  -4  -6    3.73    0.52
   1  -4  -6    3.98    0.44
  -1   4   6    3.33    0.50
  -1   4   6    3.27    0.39
   0  -4  -6   19.34    1.19
   0  -4  -6   17.66    1.46
   0  -4  -6   20.83    1.13
   0  -4  -6   19.82    1.19
   0   4   6   21.03    1.28
   0   4   6   20.16    1.36
  -1  -4  -6    5.50    0.60
  -1  -4  -6    5.58    0.69
   1   4   6    5.81    0.34
   1   4   6    5.12    0.58
   1   4   6    5.47    0.64
  -2  -4  -6    0.92    0.24
  -2  -4  -6    1.37    0.18
   2   4   6    1.60    0.15
   2   4   6    1.28    0.21
  -3  -4  -6   70.53    2.09
   3   4   6   68.38    2.01
   3   4   6   70.94    2.08
   3   4   6   69.75    2.84
  -4  -4  -6    7.72    0.41
   4   4   6    7.91    0.29
   8  -5  -6    2.11    0.28
   8  -5  -6    2.05    0.22
   8  -5  -6    1.87    0.25
   7  -5  -6    1.02    0.30
   7  -5  -6    0.85    0.25
   7  -5  -6    0.97    0.23
   7  -5  -6    0.97    0.20
   6  -5  -6   33.65    1.74
   6  -5  -6   32.90    1.41
   6  -5  -6   30.64    1.75
  -6   5   6   32.08    1.37
   5  -5  -6   21.20    1.30
   5  -5  -6   21.44    1.45
   5  -5  -6   22.24    1.06
   5  -5  -6   23.34    1.08
   5  -5  -6   22.40    1.38
  -5   5   6   21.67    1.05
   4  -5  -6    0.37    0.14
   4  -5  -6    0.35    0.30
   4  -5  -6    0.28    0.24
   4  -5  -6    0.27    0.21
   4  -5  -6    0.63    0.27
  -4   5   6    0.39    0.16
   3  -5  -6   17.85    0.93
   3  -5  -6   17.10    1.06
   3  -5  -6   18.34    1.27
   3  -5  -6   17.10    1.20
   3  -5  -6   17.41    1.29
  -3   5   6   18.83    1.29
   2  -5  -6   12.41    0.81
   2  -5  -6   11.03    1.01
   2  -5  -6   11.83    0.72
   2  -5  -6   12.09    0.87
   2  -5  -6   12.18    1.06
  -2   5   6   12.72    1.02
   1  -5  -6   29.50    1.99
   1  -5  -6   31.17    1.76
   1  -5  -6   30.25    1.42
  -1   5   6   29.47    1.60
  -1   5   6   30.36    1.77
   0  -5  -6    7.69    0.87
   0  -5  -6    8.23    0.66
   0  -5  -6    7.53    0.58
   0   5   6    7.79    0.72
   0   5   6    7.97    0.78
  -1  -5  -6   18.21    1.00
  -1  -5  -6   18.27    1.30
   1   5   6   19.63    0.99
   1   5   6   17.92    0.72
  -2  -5  -6    9.69    0.59
  -2  -5  -6    8.90    0.65
   2   5   6    9.35    0.54
   2   5   6    8.89    0.39
  -3  -5  -6    0.98    0.13
   3   5   6    0.71    0.08
   3   5   6    0.74    0.07
   8  -6  -6    5.96    0.37
   8  -6  -6    5.59    0.34
   7  -6  -6    5.43    0.47
   7  -6  -6    5.31    0.44
   7  -6  -6    5.39    0.42
   6  -6  -6    2.36    0.36
   6  -6  -6    2.16    0.36
   5  -6  -6    1.75    0.39
   5  -6  -6    1.77    0.31
   5  -6  -6    1.65    0.34
   4  -6  -6   54.74    2.64
   4  -6  -6   58.16    2.69
   4  -6  -6   54.72    2.73
   4  -6  -6   53.73    2.18
   4  -6  -6   54.32    2.39
   3  -6  -6   13.38    1.07
   3  -6  -6   14.34    1.02
   3  -6  -6   12.48    0.70
   3  -6  -6   14.15    0.97
   3  -6  -6   13.74    0.82
  -3   6   6   12.19    1.01
   2  -6  -6    3.32    0.31
   2  -6  -6    2.81    0.36
   2  -6  -6    3.78    0.55
   2  -6  -6    4.17    0.55
  -2   6   6    2.69    0.45
   1  -6  -6    7.32    0.79
   1  -6  -6    6.95    0.48
   1  -6  -6    7.61    0.68
  -1   6   6    7.28    0.38
   0  -6  -6   15.30    0.80
   0  -6  -6   15.74    1.17
   0  -6  -6   15.64    0.88
   0   6   6   15.18    0.63
  -1  -6  -6    3.84    0.31
  -1  -6  -6    5.28    0.50
   1   6   6    3.95    0.23
   1   6   6    4.34    0.34
  -2  -6  -6    5.31    0.30
   2   6   6    5.60    0.32
   2   6   6    4.75    0.22
   2   6   6    5.61    0.23
   2   6   6    4.83    0.20
   7  -7  -6    1.91    0.19
   7  -7  -6    2.08    0.19
   6  -7  -6   25.69    1.24
   6  -7  -6   29.81    1.33
   6  -7  -6   29.26    1.23
   5  -7  -6    0.78    0.20
   5  -7  -6    0.81    0.20
   5  -7  -6    0.81    0.23
   4  -7  -6    6.52    0.50
   4  -7  -6    6.15    0.55
   4  -7  -6    7.13    0.60
   4  -7  -6    6.17    0.45
   3  -7  -6    9.94    0.65
   3  -7  -6    9.21    0.50
   3  -7  -6   10.65    0.81
   3  -7  -6    9.91    0.72
   2  -7  -6   23.53    1.04
   2  -7  -6   26.84    1.42
   2  -7  -6   25.99    1.46
  -2   7   6   24.61    0.90
   1  -7  -6   14.54    0.69
   1  -7  -6   17.06    1.06
   1  -7  -6   17.01    0.91
  -1   7   6   14.22    0.57
   0  -7  -6    1.53    0.27
   0  -7  -6    1.37    0.13
   0   7   6    1.01    0.15
   0   7   6    1.55    0.12
  -1  -7  -6    1.66    0.19
   1   7   6    1.43    0.10
   1   7   6    1.46    0.13
   5  -8  -6    6.44    0.38
   4  -8  -6   14.36    0.69
   3  -8  -6    4.02    0.34
  -3   8   6    3.29    0.19
   2  -8  -6    1.64    0.20
  -2   8   6    1.37    0.10
   1  -8  -6   13.00    0.68
  -1   8   6   11.17    0.55
   4   9  -7   17.79    0.70
  -4  -9   7   19.25    0.70
   3   9  -7    4.36    0.25
  -3  -9   7    4.96    0.29
   2   9  -7    2.80    0.18
  -2  -9   7    2.75    0.21
  -2  -9   7    2.61    0.20
   1   9  -7    1.77    0.14
  -1  -9   7    1.83    0.16
  -1  -9   7    1.82    0.16
   0   9  -7    7.64    0.31
   0  -9   7    6.73    0.40
   0  -9   7    6.50    0.35
   6   8  -7    4.05    0.21
  -6  -8   7    3.62    0.21
   5   8  -7   12.00    0.54
  -5  -8   7   10.93    0.50
  -5  -8   7   11.60    0.53
   4   8  -7   95.62    3.22
  -4  -8   7   90.32    3.05
  -4  -8   7   88.29    2.77
  -4  -8   7   91.95    3.15
   3   8  -7   27.56    0.82
   3   8  -7   27.45    0.99
  -3  -8   7   26.55    1.18
  -3  -8   7   27.36    1.02
  -3  -8   7   27.65    1.11
   2   8  -7   16.71    0.67
   2   8  -7   15.30    0.55
   2   8  -7   16.36    0.67
  -2  -8   7   15.84    0.83
  -2  -8   7   15.84    0.78
  -2  -8   7   16.27    0.71
  -2  -8   7   16.40    0.76
  -2  -8   7   15.98    0.82
   1   8  -7    5.60    0.27
   1   8  -7    5.90    0.33
   1   8  -7    5.58    0.32
  -1  -8   7    5.45    0.41
  -1  -8   7    5.55    0.41
  -1  -8   7    5.73    0.45
  -1  -8   7    5.47    0.36
   0   8  -7    0.12    0.07
   0   8  -7    0.16    0.06
   0   8  -7    0.14    0.07
   0  -8   7    0.17    0.09
   0  -8   7    0.32    0.12
   0  -8   7    0.09    0.13
  -1   8  -7    4.89    0.26
  -1   8  -7    4.83    0.24
   1  -8   7    4.93    0.36
   1  -8   7    4.91    0.36
   1  -8   7    4.36    0.26
   1  -8   7    4.42    0.25
  -2   8  -7   21.67    0.70
   2  -8   7   21.54    0.92
   7   7  -7   10.11    0.43
  -7  -7   7   10.03    0.43
  -7  -7   7   10.04    0.44
   6   7  -7    4.14    0.28
   6   7  -7    3.74    0.20
  -6  -7   7    3.62    0.29
  -6  -7   7    3.75    0.26
   5   7  -7   12.04    0.62
   5   7  -7   12.05    0.45
  -5  -7   7   11.52    0.65
  -5  -7   7   11.51    0.52
  -5  -7   7   12.03    0.62
   4   7  -7    9.25    0.40
   4   7  -7    8.78    0.46
  -4  -7   7    8.83    0.48
  -4  -7   7    8.90    0.54
  -4  -7   7    8.87    0.61
   3   7  -7    1.00    0.12
   3   7  -7    1.37    0.15
   3   7  -7    1.28    0.18
  -3  -7   7    1.02    0.20
  -3  -7   7    1.37    0.21
  -3  -7   7    1.18    0.26
   2   7  -7   75.98    2.56
   2   7  -7   80.37    2.21
   2   7  -7   81.23    2.58
   2   7  -7   77.74    2.35
  -2  -7   7   72.78    2.56
  -2  -7   7   78.06    3.03
  -2  -7   7   78.13    3.09
  -2  -7   7   79.58    2.94
   1   7  -7    1.84    0.18
   1   7  -7    1.78    0.19
   1   7  -7    2.05    0.22
  -1  -7   7    1.77    0.26
  -1  -7   7    1.90    0.30
  -1  -7   7    2.05    0.31
   0   7  -7    0.87    0.13
   0   7  -7    0.99    0.13
   0   7  -7    0.75    0.14
   0  -7   7    1.75    0.28
   0  -7   7    0.83    0.19
   0  -7   7    0.67    0.18
  -1   7  -7    2.37    0.20
  -1   7  -7    2.07    0.19
   1  -7   7    2.36    0.29
   1  -7   7    2.03    0.26
   1  -7   7    2.17    0.22
  -2   7  -7    0.77    0.10
  -2   7  -7    0.92    0.12
   2  -7   7    0.75    0.14
   2  -7   7    0.81    0.15
  -3   7  -7    1.36    0.11
   3  -7   7    1.14    0.13
  -8  -6   7   58.75    1.98
   7   6  -7    4.60    0.30
   7   6  -7    4.35    0.23
  -7  -6   7    4.58    0.32
   6   6  -7   26.42    1.13
   6   6  -7   27.12    0.93
   6   6  -7   26.03    0.83
  -6  -6   7   25.32    1.05
  -6  -6   7   23.61    1.07
  -6  -6   7   25.55    1.10
   5   6  -7    9.94    0.43
   5   6  -7   10.38    0.62
   5   6  -7   10.60    0.46
  -5  -6   7    9.95    0.52
  -5  -6   7   10.50    0.68
  -5  -6   7   10.15    0.60
   4   6  -7    6.49    0.36
   4   6  -7    7.15    0.43
   4   6  -7    6.95    0.36
  -4  -6   7    7.26    0.47
   3   6  -7   16.62    0.76
   3   6  -7   17.43    0.69
   3   6  -7   17.26    0.78
  -3  -6   7   16.94    0.94
  -3  -6   7   17.15    1.81
   2   6  -7   43.23    1.62
   2   6  -7   45.96    1.51
   2   6  -7   46.63    1.67
  -2  -6   7   46.30    2.03
  -2  -6   7   43.69    3.13
  -2  -6   7   47.20    1.95
   1   6  -7    0.49    0.12
   1   6  -7    0.30    0.14
   1   6  -7    0.40    0.11
  -1  -6   7    0.48    0.21
  -1  -6   7    0.25    0.16
  -1  -6   7    0.09    0.31
   0   6  -7   94.51    3.10
   0   6  -7   98.04    4.03
   0   6  -7   91.59    3.19
   0   6  -7   96.92    2.94
   0  -6   7   96.36    3.79
   0  -6   7   97.37    3.75
  -1   6  -7    0.80    0.15
  -1   6  -7    0.71    0.16
   1  -6   7    0.63    0.20
   1  -6   7    0.74    0.13
   1  -6   7    0.66    0.20
  -2   6  -7    1.28    0.16
  -2   6  -7    1.05    0.18
   2  -6   7    1.50    0.22
   2  -6   7    1.29    0.15
   2  -6   7    1.35    0.22
  -3   6  -7    0.28    0.09
  -3   6  -7    0.38    0.08
   3  -6   7    0.15    0.08
   8   5  -7    0.38    0.07
   8   5  -7    0.30    0.08
  -8  -5   7    0.47    0.11
  -8  -5   7    0.44    0.10
   7   5  -7    3.00    0.27
   7   5  -7    2.72    0.21
  -7  -5   7    3.33    0.30
   6   5  -7   84.89    2.41
   6   5  -7   85.91    2.69
   6   5  -7   86.67    3.17
  -6  -5   7   83.95    3.05
   5   5  -7   26.86    0.96
   5   5  -7   27.57    1.27
   5   5  -7   27.51    0.96
  -5  -5   7   26.68    2.30
  -5  -5   7   26.18    1.74
   4   5  -7    8.02    0.49
   4   5  -7    9.30    0.45
  -4  -5   7    7.71    1.17
  -4  -5   7    8.44    1.18
   3   5  -7    1.54    0.18
   3   5  -7    1.35    0.18
   3   5  -7    1.99    0.23
  -3  -5   7    1.98    0.28
  -3  -5   7    1.32    0.55
  -3  -5   7    1.46    0.47
   2   5  -7   10.62    0.56
   2   5  -7   11.26    0.58
   2   5  -7   11.40    0.61
  -2  -5   7   10.63    1.16
  -2  -5   7   11.94    0.70
  -2  -5   7   11.10    1.36
   1   5  -7    4.07    0.30
   1   5  -7    3.14    0.27
   1   5  -7    2.86    0.33
   1   5  -7    2.89    0.26
  -1  -5   7    3.24    0.35
  -1  -5   7    3.02    0.70
   0   5  -7   42.65    1.59
   0   5  -7   47.34    2.07
   0   5  -7   43.08    1.51
   0  -5   7   41.56    2.78
   0  -5   7   41.26    1.59
   0  -5   7   42.73    1.90
  -1   5  -7    8.98    0.51
  -1   5  -7    8.98    0.48
  -1   5  -7    9.17    0.67
   1  -5   7    9.00    0.47
   1  -5   7    9.51    0.64
   1  -5   7    9.78    0.55
   1  -5   7    9.99    0.68
  -2   5  -7   66.96    2.17
  -2   5  -7   65.02    2.97
   2  -5   7   68.93    2.29
   2  -5   7   67.57    2.66
   2  -5   7   68.77    2.69
   2  -5   7   66.62    2.19
  -3   5  -7   -0.02    0.09
  -3   5  -7    0.09    0.07
   3  -5   7    0.20    0.10
   3  -5   7    0.10    0.07
  -4   5  -7    7.69    0.44
   4  -5   7    7.57    0.33
  -9  -4   7    0.22    0.11
   8   4  -7    0.34    0.10
   8   4  -7    0.22    0.08
  -8  -4   7    0.08    0.09
  -8  -4   7    0.18    0.10
   7   4  -7   17.19    0.57
   7   4  -7   18.24    0.86
   7   4  -7   17.38    0.71
   7   4  -7   16.88    0.61
  -7  -4   7   17.18    0.88
   6   4  -7    5.66    0.32
   6   4  -7    4.99    0.28
   6   4  -7    4.68    0.33
   6   4  -7    5.03    0.42
  -6  -4   7    4.12    0.65
   5   4  -7   16.01    0.66
   5   4  -7   15.72    0.58
   5   4  -7   15.69    0.88
  -5  -4   7   15.39    1.63
  -5  -4   7   15.14    1.69
   4   4  -7  100.44    3.86
   4   4  -7  100.18    3.34
   4   4  -7  105.02    3.13
  -4  -4   7  105.81    5.64
  -4  -4   7  108.14    5.38
   3   4  -7   13.00    0.81
   3   4  -7   15.58    0.66
   3   4  -7   14.86    0.70
   3   4  -7   15.11    1.30
   3   4  -7   14.20    0.70
  -3  -4   7   14.80    1.43
  -3  -4   7   14.29    1.02
  -3  -4   7   15.50    1.55
  -3  -4   7   13.84    1.06
   2   4  -7    4.97    0.45
   2   4  -7    5.08    0.30
   2   4  -7    4.78    0.34
   2   4  -7    4.86    0.67
  -2  -4   7    5.14    0.88
  -2  -4   7    4.95    0.55
   1   4  -7   12.65    0.63
   1   4  -7   13.24    0.83
   1   4  -7   12.70    0.61
  -1  -4   7   11.95    1.37
  -1  -4   7   12.97    0.64
   0   4  -7    8.18    0.47
   0   4  -7    8.18    0.64
   0   4  -7    7.88    0.48
   0  -4   7    8.46    0.50
   0  -4   7    8.44    0.43
   0  -4   7    7.80    1.05
  -1   4  -7    1.49    0.28
  -1   4  -7    0.94    0.15
  -1   4  -7    0.55    0.15
   1  -4   7    0.62    0.16
   1  -4   7    0.95    0.14
  -2   4  -7   60.52    2.05
  -2   4  -7   59.48    2.16
  -2   4  -7   61.78    2.88
   2  -4   7   65.93    2.16
   2  -4   7   63.91    2.05
  -3   4  -7   11.51    0.77
  -3   4  -7   12.27    0.52
   3  -4   7   11.28    0.56
   3  -4   7   11.00    0.47
   3  -4   7   11.54    0.63
   3  -4   7   11.50    0.52
  -4   4  -7   49.08    1.98
   4  -4   7   40.30    1.66
   4  -4   7   45.94    1.42
   4  -4   7   42.09    1.37
   9   3  -7   53.35    1.67
  -9  -3   7   55.05    1.69
   8   3  -7   11.03    0.39
   8   3  -7   10.52    0.57
  -8  -3   7   11.17    0.62
   7   3  -7    1.48    0.21
   7   3  -7    1.18    0.16
   7   3  -7    1.13    0.14
   6   3  -7    0.17    0.13
   6   3  -7    0.08    0.08
   6   3  -7    0.21    0.11
   6   3  -7    0.07    0.08
  -6  -3   7    0.43    0.38
  -6  -3   7    0.16    0.18
   5   3  -7    3.24    0.23
   5   3  -7    3.34    0.26
   5   3  -7    3.56    0.37
  -5  -3   7    2.76    0.66
  -5  -3   7    3.43    0.77
   4   3  -7   11.82    0.60
   4   3  -7   11.23    0.72
   4   3  -7   11.34    1.11
   4   3  -7   11.80    0.51
   4   3  -7   11.71    0.55
  -4  -3   7   12.03    0.96
  -4  -3   7   11.39    0.93
  -4  -3   7   12.32    1.32
  -4  -3   7   11.98    1.34
   3   3  -7   66.00    2.70
   3   3  -7   70.86    2.22
   3   3  -7   72.36    2.00
   3   3  -7   72.58    2.46
   3   3  -7   71.05    3.45
  -3  -3   7   71.98    2.86
  -3  -3   7   75.42    2.52
  -3  -3   7   62.49    3.77
  -3  -3   7   70.34    3.03
   2   3  -7   54.48    2.52
   2   3  -7   55.34    2.83
   2   3  -7   54.31    1.97
   2   3  -7   55.68    1.60
  -2  -3   7   56.24    2.34
  -2  -3   7   56.82    2.16
   1   3  -7   25.55    1.63
   1   3  -7   22.77    0.95
   1   3  -7   25.67    1.36
   1   3  -7   25.00    1.04
  -1  -3   7   26.87    1.35
  -1  -3   7   26.31    1.61
   0   3  -7    3.34    0.41
   0   3  -7    3.28    0.29
   0   3  -7    3.70    0.30
   0  -3   7    4.16    0.51
   0  -3   7    3.82    0.27
  -1   3  -7   22.42    0.97
  -1   3  -7   23.28    1.35
  -1   3  -7   21.47    0.94
   1  -3   7   22.97    0.90
   1  -3   7   22.66    1.26
  -2   3  -7    8.92    0.74
  -2   3  -7    7.70    0.47
   2  -3   7    8.87    0.51
   2  -3   7    8.92    0.46
  -3   3  -7    6.96    0.60
  -3   3  -7    5.78    0.35
   3  -3   7    6.24    0.39
   3  -3   7    6.61    0.36
  -4   3  -7   14.87    0.80
   4  -3   7   13.71    0.53
   4  -3   7   13.17    0.51
   4  -3   7   12.23    0.60
   4  -3   7   12.80    0.47
   9   2  -7   17.65    0.64
  -9  -2   7   17.85    0.68
   8   2  -7    1.74    0.15
   8   2  -7    1.72    0.22
  -8  -2   7    2.75    0.28
   7   2  -7   64.38    2.20
   7   2  -7   70.09    1.96
   7   2  -7   66.17    2.53
  -7  -2   7   67.42    3.30
   6   2  -7    7.33    0.38
   6   2  -7    6.84    0.50
   6   2  -7    6.74    0.37
   6   2  -7    6.81    0.42
  -6  -2   7    5.97    1.06
  -6  -2   7    6.74    0.84
   5   2  -7   35.42    1.14
   5   2  -7   34.20    1.54
   5   2  -7   35.01    1.50
   5   2  -7   35.20    1.12
   5   2  -7   35.10    1.23
  -5  -2   7   36.60    2.48
  -5  -2   7   36.71    1.90
  -5  -2   7   35.91    2.63
   4   2  -7    0.26    0.11
   4   2  -7    0.60    0.12
   4   2  -7    0.27    0.19
   4   2  -7    0.74    0.13
   4   2  -7    0.32    0.22
   4   2  -7    0.52    0.16
  -4  -2   7    0.09    0.28
  -4  -2   7    0.34    0.19
   3   2  -7    7.02    0.35
   3   2  -7    7.05    0.79
   3   2  -7    7.90    0.56
   3   2  -7    7.12    0.39
   3   2  -7    8.99    0.46
  -3  -2   7    6.94    1.04
  -3  -2   7    6.68    0.55
  -3  -2   7    6.98    0.67
   2   2  -7    7.70    0.42
   2   2  -7    8.36    0.37
   2   2  -7    7.68    0.59
   2   2  -7    8.13    0.46
   2   2  -7    8.15    0.81
  -2  -2   7    7.74    0.63
  -2  -2   7    7.68    1.13
   1   2  -7  110.80    3.82
   1   2  -7  112.39    4.79
   1   2  -7  104.24    4.67
   1   2  -7  111.17    3.69
   1   2  -7  108.30    2.97
  -1  -2   7  108.60    4.35
  -1  -2   7  111.28    6.22
  -1  -2   7  114.08    3.65
   0   2  -7   32.27    1.77
   0   2  -7   34.90    1.24
   0  -2   7   37.14    1.62
   0  -2   7   34.49    2.02
   0  -2   7   34.90    2.74
  -1   2  -7    1.40    0.20
  -1   2  -7    1.74    0.33
   1  -2   7    1.38    0.30
   1  -2   7    1.78    0.17
  -2   2  -7    3.85    0.32
  -2   2  -7    4.22    0.52
   2  -2   7    4.42    0.30
   2  -2   7    4.18    0.27
   2  -2   7    3.91    0.46
  -3   2  -7   26.34    0.98
  -3   2  -7   26.87    1.50
   3  -2   7   25.12    0.86
   3  -2   7   26.08    1.02
   3  -2   7   25.76    0.88
   3  -2   7   26.60    0.96
  -4   2  -7    1.34    0.22
  -4   2  -7    0.88    0.11
   4  -2   7    0.96    0.13
   4  -2   7    1.10    0.12
   4  -2   7    1.18    0.10
   9   1  -7   23.08    0.81
   9   1  -7   23.68    0.96
  -9  -1   7   22.21    0.81
   8   1  -7    3.06    0.20
  -8  -1   7    2.90    0.29
   7   1  -7   56.37    2.14
   7   1  -7   54.76    1.66
   7   1  -7   55.17    1.55
  -7  -1   7   50.83    2.74
   6   1  -7    0.06    0.10
   6   1  -7    0.12    0.11
  -6  -1   7   -0.08    0.31
  -6  -1   7    0.15    0.21
   5   1  -7   61.28    2.50
   5   1  -7   65.50    2.05
   5   1  -7   65.64    1.88
   5   1  -7   65.03    2.42
  -5  -1   7   69.97    3.95
  -5  -1   7   59.28    3.52
  -5  -1   7   68.82    2.82
   4   1  -7    0.92    0.13
   4   1  -7    1.38    0.15
   4   1  -7    0.90    0.30
   4   1  -7    0.85    0.18
   4   1  -7    1.10    0.30
   4   1  -7    1.06    0.16
   4   1  -7    1.17    0.25
  -4  -1   7    0.52    0.34
  -4  -1   7    1.18    0.30
   3   1  -7   41.85    1.44
   3   1  -7   42.16    2.05
   3   1  -7   43.68    1.32
   3   1  -7   45.19    2.34
   3   1  -7   44.01    1.62
   3   1  -7   44.42    1.78
   3   1  -7   43.24    1.97
  -3  -1   7   49.06    3.08
  -3  -1   7   45.74    1.75
   2   1  -7    7.10    0.55
   2   1  -7    6.97    0.75
   2   1  -7    8.56    0.37
   2   1  -7    7.49    0.55
   2   1  -7    7.69    0.44
   2   1  -7    7.19    0.39
  -2  -1   7    7.00    0.99
  -2  -1   7    6.95    0.63
   1   1  -7    7.82    0.54
   1   1  -7    7.19    0.40
   1   1  -7    7.47    0.37
   1   1  -7    7.42    0.60
   1   1  -7    8.06    0.82
  -1  -1   7    8.01    1.09
  -1  -1   7    7.79    0.70
  -1  -1   7    8.04    0.65
   0   1  -7    0.26    0.12
   0   1  -7    0.30    0.16
   0  -1   7    0.41    0.33
   0  -1   7    0.72    0.24
  -1   1  -7  110.21    5.06
  -1   1  -7  119.59    3.49
   1  -1   7  117.83    3.78
   1  -1   7  114.14    6.28
  -2   1  -7    0.57    0.25
  -2   1  -7    0.68    0.16
   2  -1   7    0.69    0.13
   2  -1   7    0.54    0.19
   2  -1   7    0.77    0.12
  -3   1  -7    0.33    0.12
  -3   1  -7    0.36    0.20
   3  -1   7    0.50    0.11
   3  -1   7    0.43    0.10
   3  -1   7    0.36    0.08
   3  -1   7    0.48    0.12
  -4   1  -7    0.02    0.07
  -4   1  -7    0.29    0.12
   4  -1   7    0.15    0.07
   4  -1   7    0.14    0.05
   4  -1   7    0.15    0.06
   9   0  -7    1.38    0.18
   9   0  -7    1.66    0.15
   8   0  -7   12.98    0.72
   8   0  -7   13.94    0.50
   8   0  -7   13.40    0.59
  -8   0   7   12.65    1.10
   7   0  -7   51.75    1.98
   7   0  -7   55.17    1.63
   7   0  -7   53.81    1.52
   7   0  -7   52.61    2.27
   6   0  -7    0.76    0.18
   6   0  -7    0.56    0.22
   6   0  -7    0.97    0.32
   6   0  -7    0.41    0.12
   6   0  -7    0.51    0.13
   6   0  -7    0.60    0.17
   6   0  -7    0.64    0.25
   6   0  -7    0.66    0.20
  -6   0   7    0.54    0.39
   5   0  -7   49.25    1.95
   5   0  -7   46.99    2.00
   5   0  -7   48.87    1.48
   5   0  -7   51.71    2.25
   5   0  -7   49.78    2.29
   5   0  -7   50.65    2.28
   5   0  -7   49.08    1.50
  -5   0   7   53.11    2.34
  -5   0   7   52.25    3.20
   4   0  -7    9.90    0.60
   4   0  -7    9.81    0.83
   4   0  -7    9.90    0.78
   4   0  -7    9.77    0.77
   4   0  -7   10.08    0.47
   4   0  -7   11.16    0.81
   4   0  -7   10.57    0.60
   4   0  -7    9.85    0.63
   4   0  -7    9.93    0.44
  -4   0   7   11.35    1.20
  -4   0   7   10.91    0.86
   3   0  -7   28.26    1.24
   3   0  -7   27.95    1.09
   3   0  -7   28.13    0.91
   3   0  -7   27.30    1.48
   3   0  -7   27.16    0.97
   3   0  -7   27.20    1.45
   3   0  -7   27.77    1.66
   3   0  -7   23.53    1.41
  -3   0   7   29.68    2.17
  -3   0   7   26.88    1.40
   2   0  -7    1.17    0.24
   2   0  -7    1.11    0.30
   2   0  -7    1.25    0.15
   2   0  -7    1.30    0.35
   2   0  -7    1.62    0.19
   2   0  -7    1.46    0.22
   2   0  -7    1.53    0.23
   2   0  -7    1.15    0.26
  -2   0   7    0.75    0.24
  -2   0   7    0.95    0.38
   1   0  -7   94.14    3.63
   1   0  -7   90.45    4.47
   1   0  -7   96.10    3.71
   1   0  -7   90.87    2.87
   1   0  -7   96.22    4.08
   1   0  -7   99.58    3.38
  -1   0   7   98.63    5.36
  -1   0   7   99.80    3.70
   0   0  -7    6.03    0.55
   0   0  -7    6.98    0.43
   0   0   7    6.64    0.68
   0   0   7    7.27    0.99
  -1   0  -7    7.90    0.49
  -1   0  -7    6.60    0.62
   1   0   7    6.93    0.96
   1   0   7    7.30    0.61
   1   0   7    7.31    0.36
  -2   0  -7    0.16    0.17
  -2   0  -7    0.31    0.17
   2   0   7    0.17    0.14
   2   0   7    0.19    0.07
   2   0   7    0.24    0.10
  -3   0  -7   40.37    1.37
  -3   0  -7   36.68    1.84
   3   0   7   37.41    1.22
   3   0   7   38.91    1.22
  -4   0  -7    0.28    0.09
   4   0   7    0.52    0.08
   4   0   7    0.34    0.07
   9  -1  -7   17.31    0.77
   9  -1  -7   17.77    0.66
   8  -1  -7    3.87    0.28
   8  -1  -7    4.59    0.37
   8  -1  -7    3.63    0.22
  -8   1   7    2.82    0.51
   7  -1  -7   13.75    0.90
   7  -1  -7   15.64    0.91
   7  -1  -7   15.14    0.94
   7  -1  -7   14.03    0.53
   7  -1  -7   14.48    0.73
   7  -1  -7   12.78    0.77
   7  -1  -7   14.34    0.67
   7  -1  -7   14.97    0.60
   6  -1  -7   13.66    0.94
   6  -1  -7   12.98    0.73
   6  -1  -7   12.64    0.73
   6  -1  -7   14.42    0.93
   6  -1  -7   12.70    0.53
   6  -1  -7   13.00    0.55
   6  -1  -7   13.28    0.65
   6  -1  -7   13.36    0.87
   6  -1  -7   12.53    0.50
  -6   1   7   11.99    0.93
   5  -1  -7   35.64    1.34
   5  -1  -7   35.92    1.14
   5  -1  -7   36.80    1.58
   5  -1  -7   37.17    1.83
   5  -1  -7   35.16    1.75
   5  -1  -7   36.56    1.13
   5  -1  -7   35.61    1.48
   5  -1  -7   35.61    1.85
  -5   1   7   35.01    1.81
  -5   1   7   36.51    2.49
   4  -1  -7    3.56    0.27
   4  -1  -7    3.09    0.32
   4  -1  -7    3.23    0.44
   4  -1  -7    3.84    0.51
   4  -1  -7    3.33    0.46
   4  -1  -7    2.87    0.22
   4  -1  -7    2.96    0.44
  -4   1   7    2.89    0.59
   3  -1  -7   15.15    1.03
   3  -1  -7   15.94    0.62
   3  -1  -7   15.99    1.11
   3  -1  -7   16.05    1.14
   3  -1  -7   17.88    1.00
   3  -1  -7   16.06    0.86
   3  -1  -7   16.86    1.09
  -3   1   7   16.72    1.06
  -3   1   7   16.51    0.85
   2  -1  -7   56.15    2.57
   2  -1  -7   58.70    2.38
   2  -1  -7   58.37    2.52
   2  -1  -7   56.09    2.57
   2  -1  -7   55.80    2.92
  -2   1   7   60.29    2.51
   1  -1  -7   12.04    0.97
   1  -1  -7   12.29    0.60
   1  -1  -7   12.19    0.92
   1  -1  -7   13.02    0.79
  -1   1   7   13.53    0.97
   0  -1  -7    0.17    0.11
   0  -1  -7    0.04    0.19
   0   1   7    0.12    0.16
  -1  -1  -7   52.82    1.94
   1   1   7   56.55    2.12
   1   1   7   60.50    1.78
   1   1   7   52.52    3.39
   1   1   7   59.33    2.56
  -2  -1  -7    0.24    0.15
   2   1   7    0.39    0.17
   2   1   7    0.11    0.07
  -3  -1  -7    1.53    0.20
   3   1   7    0.99    0.11
   3   1   7    1.04    0.13
  -4  -1  -7    6.40    0.37
  -4  -1  -7    6.66    0.32
   4   1   7    6.31    0.28
   4   1   7    6.51    0.27
   4   1   7    6.82    0.28
   9  -2  -7    4.71    0.31
   9  -2  -7    4.57    0.25
   8  -2  -7   83.57    2.66
   8  -2  -7   82.34    3.18
   8  -2  -7   85.29    3.28
   8  -2  -7   83.73    3.02
   7  -2  -7    3.99    0.47
   7  -2  -7    3.91    0.34
   7  -2  -7    3.98    0.48
   7  -2  -7    4.04    0.40
   7  -2  -7    3.38    0.36
   7  -2  -7    3.82    0.23
   6  -2  -7    5.86    0.39
   6  -2  -7    5.18    0.53
   6  -2  -7    5.09    0.60
   6  -2  -7    4.57    0.41
   6  -2  -7    4.91    0.30
   6  -2  -7    5.50    0.59
   6  -2  -7    5.32    0.28
   6  -2  -7    4.85    0.42
   5  -2  -7   34.71    1.45
   5  -2  -7   33.39    1.09
   5  -2  -7   34.80    1.04
   5  -2  -7   34.97    1.08
   5  -2  -7   36.22    1.56
   5  -2  -7   33.69    1.80
   5  -2  -7   34.35    1.86
   5  -2  -7   34.59    1.75
   5  -2  -7   34.80    1.30
   4  -2  -7    9.81    0.86
   4  -2  -7    9.56    0.81
   4  -2  -7   10.27    0.51
   4  -2  -7    8.98    0.56
   4  -2  -7    9.62    0.44
   4  -2  -7    9.39    0.75
   4  -2  -7    9.85    0.83
   4  -2  -7    9.89    0.63
  -4   2   7    9.16    0.64
   3  -2  -7   42.31    2.06
   3  -2  -7   39.06    1.95
   3  -2  -7   39.38    1.74
   3  -2  -7   38.98    2.19
   3  -2  -7   38.28    1.99
   3  -2  -7   38.87    1.23
  -3   2   7   39.44    1.57
   2  -2  -7   27.71    1.49
   2  -2  -7   26.35    1.47
   2  -2  -7   28.82    1.57
   2  -2  -7   27.06    1.69
   2  -2  -7   26.23    1.32
  -2   2   7   27.30    1.52
   1  -2  -7    0.44    0.19
   1  -2  -7    0.18    0.21
   1  -2  -7    0.25    0.24
  -1   2   7    0.35    0.20
   0  -2  -7   44.16    2.09
   0  -2  -7   45.39    1.56
   0  -2  -7   43.43    2.43
   0   2   7   47.66    2.18
  -1  -2  -7    6.64    0.47
   1   2   7    6.70    0.46
   1   2   7    7.17    0.70
   1   2   7    6.99    0.54
  -2  -2  -7    0.03    0.12
   2   2   7    0.16    0.09
   2   2   7    0.10    0.07
  -3  -2  -7   57.18    1.73
   3   2   7   51.67    1.63
   3   2   7   54.06    1.61
  -4  -2  -7    2.82    0.16
   4   2   7    2.59    0.13
   9  -3  -7   12.73    0.58
   8  -3  -7    3.97    0.27
   8  -3  -7    4.13    0.40
   8  -3  -7    3.83    0.41
   8  -3  -7    3.75    0.32
   7  -3  -7    8.10    0.62
   7  -3  -7    8.72    0.75
   7  -3  -7    9.20    0.49
   7  -3  -7    8.00    0.54
   7  -3  -7    6.97    0.47
   7  -3  -7    8.37    0.68
   6  -3  -7  106.78    3.09
   6  -3  -7  113.70    3.65
   6  -3  -7  114.56    2.96
   6  -3  -7  124.34    4.51
   6  -3  -7  119.34    4.66
   6  -3  -7  113.86    4.07
   6  -3  -7  110.38    4.78
   5  -3  -7   10.35    0.86
   5  -3  -7   11.46    0.69
   5  -3  -7   11.45    0.58
   5  -3  -7   10.43    0.93
   5  -3  -7   10.97    0.45
   5  -3  -7   12.06    0.95
   5  -3  -7   10.74    0.65
   4  -3  -7   15.53    0.86
   4  -3  -7   14.65    0.79
   4  -3  -7   15.34    1.03
   4  -3  -7   15.14    0.68
   4  -3  -7   15.44    1.14
   4  -3  -7   15.38    1.09
   4  -3  -7   15.14    0.59
   4  -3  -7   15.17    1.13
  -4   3   7   15.16    0.89
   3  -3  -7   22.31    1.45
   3  -3  -7   23.43    1.41
   3  -3  -7   22.99    1.36
   3  -3  -7   23.78    1.18
   3  -3  -7   23.69    1.53
  -3   3   7   23.26    1.13
   2  -3  -7    3.73    0.56
   2  -3  -7    3.79    0.51
   2  -3  -7    3.80    0.40
   2  -3  -7    3.94    0.53
   2  -3  -7    3.44    0.48
  -2   3   7    3.75    0.52
  -2   3   7    3.21    0.40
   1  -3  -7   15.36    1.24
   1  -3  -7   16.71    0.98
   1  -3  -7   16.14    0.98
  -1   3   7   16.53    1.13
   0  -3  -7   72.12    3.79
   0  -3  -7   77.47    3.18
   0   3   7   77.92    3.14
  -1  -3  -7    0.26    0.20
  -1  -3  -7    0.92    0.25
  -1  -3  -7    0.03    0.09
   1   3   7    0.35    0.20
   1   3   7    0.25    0.12
  -2  -3  -7   55.96    2.34
  -2  -3  -7   55.22    1.74
   2   3   7   52.24    2.24
   2   3   7   54.78    1.67
  -3  -3  -7   13.17    0.66
  -3  -3  -7   12.98    0.48
   3   3   7   12.15    0.45
   3   3   7   12.05    0.44
   9  -4  -7    3.57    0.22
   8  -4  -7    7.40    0.52
   8  -4  -7    7.58    0.54
   8  -4  -7    7.60    0.45
   7  -4  -7   16.99    0.95
   7  -4  -7   17.26    0.99
   7  -4  -7   14.92    0.72
   7  -4  -7   18.46    1.11
   7  -4  -7   15.19    0.81
   6  -4  -7   25.31    1.17
   6  -4  -7   26.54    1.44
   6  -4  -7   28.87    1.51
   6  -4  -7   24.16    1.53
   6  -4  -7   24.72    1.01
   5  -4  -7   15.60    0.82
   5  -4  -7   16.02    0.84
   5  -4  -7   15.38    1.14
   5  -4  -7   13.83    1.04
   5  -4  -7   15.72    0.71
   5  -4  -7   15.83    1.14
   4  -4  -7  146.90    5.64
   4  -4  -7  149.02    6.00
   4  -4  -7  147.54    5.31
   4  -4  -7  139.33    3.76
   4  -4  -7  135.17    5.28
   4  -4  -7  142.43    6.49
   4  -4  -7  131.19    5.77
   3  -4  -7   36.96    1.19
   3  -4  -7   39.52    1.69
   3  -4  -7   36.63    1.95
   3  -4  -7   38.04    2.20
   3  -4  -7   37.40    2.11
   3  -4  -7   38.58    1.87
   2  -4  -7    6.94    0.64
   2  -4  -7    6.91    0.64
   2  -4  -7    7.46    0.55
   2  -4  -7    7.60    0.77
   2  -4  -7    7.35    0.81
  -2   4   7    6.81    0.70
   1  -4  -7   48.71    2.06
   1  -4  -7   42.36    2.61
  -1   4   7   46.71    2.35
  -1   4   7   49.54    2.22
   0  -4  -7    0.53    0.19
   0  -4  -7    0.20    0.24
  -1  -4  -7   20.76    1.06
  -1  -4  -7   17.62    1.16
   1   4   7   19.53    0.95
  -2  -4  -7  105.80    3.77
   2   4   7   96.99    2.85
   2   4   7   94.72    3.88
  -3  -4  -7    1.92    0.15
   3   4   7    1.80    0.10
   8  -5  -7   33.91    1.40
   8  -5  -7   31.78    1.32
   7  -5  -7   17.37    1.01
   7  -5  -7   16.55    0.91
   7  -5  -7   17.94    0.94
   6  -5  -7    0.06    0.21
   6  -5  -7    0.01    0.27
   6  -5  -7    0.06    0.19
   5  -5  -7    9.47    0.76
   5  -5  -7   10.33    0.82
   5  -5  -7   10.01    0.87
   4  -5  -7   42.12    2.00
   4  -5  -7   41.31    2.15
   4  -5  -7   41.68    2.20
   4  -5  -7   44.18    1.77
   4  -5  -7   41.61    2.26
   3  -5  -7   24.35    1.35
   3  -5  -7   21.41    1.47
   3  -5  -7   23.05    0.77
   3  -5  -7   24.05    1.12
   3  -5  -7   23.07    1.24
   3  -5  -7   23.34    1.51
   2  -5  -7  133.21    5.32
   2  -5  -7  141.62    5.87
   2  -5  -7  134.38    5.26
   2  -5  -7  143.30    5.19
   2  -5  -7  141.63    6.47
   1  -5  -7   24.83    1.18
   1  -5  -7   24.09    1.63
   0  -5  -7    4.26    0.53
   0  -5  -7    4.51    0.38
   0   5   7    4.15    0.34
  -1  -5  -7   27.49    1.17
  -1  -5  -7   25.18    1.36
   1   5   7   26.31    0.85
   1   5   7   25.77    1.15
  -2  -5  -7    2.81    0.20
   2   5   7    2.73    0.14
   2   5   7    2.48    0.13
   7  -6  -7   25.13    1.15
   7  -6  -7   26.74    1.09
   7  -6  -7   25.50    1.11
   6  -6  -7   19.97    0.98
   6  -6  -7   21.77    1.09
   6  -6  -7   18.54    1.02
   5  -6  -7   15.42    0.96
   5  -6  -7   14.42    0.85
   5  -6  -7   14.30    0.79
   4  -6  -7    1.63    0.19
   4  -6  -7    1.69    0.28
   4  -6  -7    1.65    0.29
   4  -6  -7    2.46    0.39
   3  -6  -7   20.59    1.02
   3  -6  -7   22.06    1.32
   3  -6  -7   21.86    1.32
   3  -6  -7   20.45    1.11
   3  -6  -7   21.42    0.96
   2  -6  -7   66.22    3.13
   2  -6  -7   61.47    2.42
   2  -6  -7   60.00    1.72
   1  -6  -7   36.57    1.98
   1  -6  -7   36.62    1.50
   0  -6  -7   99.86    3.74
   0  -6  -7  110.06    4.59
   0   6   7   97.37    4.02
  -1  -6  -7   11.95    0.38
   1   6   7   11.44    0.39
   5  -7  -7   24.70    1.13
   4  -7  -7   13.67    0.70
   2  -7  -7    3.06    0.33
   1  -7  -7   19.66    0.97
  -1   7   7   16.14    0.77
  -5  -8   8   24.54    0.82
   4   8  -8   16.00    0.66
  -4  -8   8   16.66    0.67
  -4  -8   8   15.63    0.62
  -4  -8   8   16.47    0.71
   3   8  -8    2.39    0.12
  -3  -8   8    2.12    0.23
  -3  -8   8    2.16    0.19
  -3  -8   8    2.28    0.21
   2   8  -8    3.52    0.17
  -2  -8   8    3.90    0.26
  -2  -8   8    3.68    0.27
  -2  -8   8    3.75    0.29
  -2  -8   8    3.58    0.28
   1   8  -8   14.51    0.49
  -1  -8   8   14.61    0.62
  -1  -8   8   12.35    0.58
  -1  -8   8   14.70    0.71
  -1  -8   8   14.37    0.67
  -1  -8   8   15.09    0.59
   0   8  -8    3.74    0.18
   0  -8   8    3.17    0.20
   0  -8   8    3.76    0.27
   0  -8   8    3.47    0.20
   0  -8   8    3.62    0.26
   6   7  -8    1.96    0.16
  -6  -7   8    1.77    0.18
   5   7  -8    2.61    0.16
   5   7  -8    2.88    0.24
  -5  -7   8    2.49    0.25
  -5  -7   8    2.91    0.23
   4   7  -8    2.13    0.16
   4   7  -8    1.74    0.13
   4   7  -8    2.06    0.22
  -4  -7   8    1.77    0.19
  -4  -7   8    1.94    0.22
  -4  -7   8    2.04    0.27
   3   7  -8   60.18    1.92
   3   7  -8   55.75    2.14
   3   7  -8   56.37    1.74
   3   7  -8   57.63    1.65
  -3  -7   8   58.36    1.91
  -3  -7   8   59.72    2.21
  -3  -7   8   57.43    2.26
   2   7  -8   18.95    0.69
   2   7  -8   20.61    0.79
   2   7  -8   19.72    0.66
  -2  -7   8   18.86    0.90
  -2  -7   8   18.92    0.97
  -2  -7   8   19.20    0.83
  -2  -7   8   19.52    0.96
   1   7  -8    0.51    0.10
   1   7  -8    0.27    0.07
   1   7  -8    0.27    0.08
  -1  -7   8    0.05    0.09
  -1  -7   8    0.10    0.11
  -1  -7   8    0.21    0.14
  -1  -7   8    0.07    0.13
   0   7  -8    5.47    0.29
   0  -7   8    5.61    0.42
   0  -7   8    5.20    0.39
   0  -7   8    5.44    0.34
  -1   7  -8   10.77    0.43
   1  -7   8    9.63    0.41
   1  -7   8   10.95    0.57
   1  -7   8   10.87    0.56
   7   6  -8   23.72    0.92
  -7  -6   8   23.61    0.87
   6   6  -8    0.84    0.10
   6   6  -8    0.60    0.13
  -6  -6   8    0.76    0.15
   5   6  -8   28.75    0.91
   5   6  -8   28.87    1.23
   5   6  -8   27.63    0.92
  -5  -6   8   27.80    1.01
  -5  -6   8   27.34    1.23
  -5  -6   8   27.57    1.13
   4   6  -8    2.70    0.21
   4   6  -8    2.66    0.20
   4   6  -8    2.94    0.31
  -4  -6   8    2.56    0.26
   3   6  -8    1.87    0.21
   3   6  -8    1.50    0.16
   3   6  -8    1.27    0.20
  -3  -6   8    1.79    0.60
  -3  -6   8    1.40    0.24
   2   6  -8    0.82    0.14
   2   6  -8    0.79    0.16
   2   6  -8    1.10    0.15
  -2  -6   8    1.21    0.20
  -2  -6   8    1.21    0.51
  -2  -6   8    0.96    0.24
   1   6  -8   55.63    1.77
  -1  -6   8   54.56    2.25
  -1  -6   8   54.24    2.31
   0   6  -8    2.21    0.25
   0  -6   8    2.44    0.29
   0  -6   8    2.38    0.33
  -1   6  -8    1.06    0.16
   1  -6   8    0.73    0.17
   1  -6   8    0.91    0.18
  -2   6  -8    2.66    0.18
  -2   6  -8    2.80    0.22
   2  -6   8    2.71    0.23
   2  -6   8    2.46    0.20
   8   5  -8    4.01    0.23
  -8  -5   8    3.79    0.23
   7   5  -8   30.17    1.16
   7   5  -8   27.92    0.78
  -7  -5   8   27.59    1.16
   6   5  -8   17.71    0.85
   6   5  -8   16.08    0.61
  -6  -5   8   16.64    0.84
   5   5  -8   15.35    0.60
   5   5  -8   15.40    0.84
   5   5  -8   14.37    0.59
  -5  -5   8   12.21    1.49
   4   5  -8    0.89    0.14
   4   5  -8    0.96    0.21
  -4  -5   8    0.84    0.47
   3   5  -8   59.87    2.44
   3   5  -8   62.91    1.99
   3   5  -8   63.78    2.17
  -3  -5   8   62.45    3.80
  -3  -5   8   63.89    2.56
   2   5  -8    5.90    0.38
   2   5  -8    5.51    0.36
  -2  -5   8    6.36    0.46
  -2  -5   8    4.77    0.89
   1   5  -8    1.24    0.17
   1   5  -8    1.14    0.21
   1   5  -8    1.17    0.18
  -1  -5   8    1.74    0.54
   0   5  -8    2.86    0.25
   0   5  -8    3.84    0.36
   0  -5   8    2.59    0.25
   0  -5   8    3.05    0.33
   0  -5   8    2.95    0.36
  -1   5  -8   21.74    1.14
  -1   5  -8   21.73    0.85
  -1   5  -8   21.48    0.85
   1  -5   8   21.49    0.81
   1  -5   8   21.63    0.88
   1  -5   8   21.95    1.07
   1  -5   8   22.54    1.06
  -2   5  -8    2.31    0.25
   2  -5   8    2.09    0.21
   2  -5   8    2.19    0.17
   2  -5   8    2.25    0.23
  -3   5  -8    1.43    0.15
   3  -5   8    1.05    0.11
   8   4  -8    4.38    0.17
   8   4  -8    4.59    0.29
   7   4  -8   14.18    0.69
   7   4  -8   12.86    0.45
   7   4  -8   13.13    0.48
   6   4  -8   24.81    0.83
   6   4  -8   22.71    0.76
   6   4  -8   23.47    1.11
  -6  -4   8   20.66    1.94
   5   4  -8   32.06    0.98
   5   4  -8   31.85    1.11
   5   4  -8   29.96    1.43
  -5  -4   8   30.18    2.38
   4   4  -8   62.28    1.92
   4   4  -8   53.55    2.38
  -4  -4   8   63.64    3.69
   3   4  -8    1.84    0.20
   3   4  -8    1.69    0.21
  -3  -4   8    1.68    0.50
  -3  -4   8    1.25    0.48
   2   4  -8    0.14    0.13
   2   4  -8    0.20    0.11
   2   4  -8    0.19    0.12
  -2  -4   8    0.19    0.32
   1   4  -8   63.80    2.90
   1   4  -8   64.97    2.14
   1   4  -8   66.57    2.29
  -1  -4   8   62.66    3.75
  -1  -4   8   65.28    2.21
   0   4  -8    6.46    0.40
   0   4  -8    6.53    0.54
   0  -4   8    6.49    0.36
   0  -4   8    6.02    0.41
  -1   4  -8    1.64    0.18
  -1   4  -8    1.39    0.26
  -1   4  -8    1.30    0.17
   1  -4   8    1.46    0.20
   1  -4   8    1.13    0.15
  -2   4  -8   21.86    1.18
  -2   4  -8   22.03    0.85
   2  -4   8   23.21    1.03
   2  -4   8   23.39    0.88
   2  -4   8   22.73    0.83
   2  -4   8   20.79    0.99
  -3   4  -8    6.13    0.41
   3  -4   8    6.04    0.28
   3  -4   8    5.25    0.32
   9   3  -8    3.61    0.18
   8   3  -8   22.89    0.69
  -8  -3   8   24.30    1.02
   7   3  -8   19.73    0.67
   7   3  -8   18.44    0.64
   7   3  -8   18.71    0.91
   6   3  -8    2.49    0.30
   6   3  -8    2.21    0.20
   6   3  -8    2.16    0.19
  -6  -3   8    1.54    0.55
  -6  -3   8    2.16    0.50
   5   3  -8   20.79    0.72
   5   3  -8   19.33    0.79
   5   3  -8   19.44    1.03
  -5  -3   8   20.47    1.83
   4   3  -8   92.21    2.54
   4   3  -8   89.60    2.78
   4   3  -8   90.71    3.09
   4   3  -8   82.75    3.38
  -4  -3   8   96.51    4.92
  -4  -3   8   94.15    5.07
   3   3  -8   31.86    1.19
   3   3  -8   34.04    1.32
   3   3  -8   34.34    1.08
  -3  -3   8   34.96    1.55
  -3  -3   8   31.44    2.43
   2   3  -8   73.99    2.47
   2   3  -8   73.30    3.42
   2   3  -8   79.16    2.71
   2   3  -8   76.55    2.20
  -2  -3   8   95.07    4.58
  -2  -3   8   78.42    2.86
   1   3  -8   11.08    0.77
   1   3  -8   11.32    0.59
   1   3  -8    9.63    0.55
  -1  -3   8    9.98    0.81
   0   3  -8    8.05    0.67
   0   3  -8    8.64    0.49
   0  -3   8    7.10    0.99
   0  -3   8    8.33    0.43
  -1   3  -8   32.25    1.29
  -1   3  -8   33.55    1.76
   1  -3   8   34.28    1.28
   1  -3   8   34.05    1.19
  -2   3  -8    6.08    0.54
  -2   3  -8    5.87    0.35
   2  -3   8    6.11    0.37
   2  -3   8    5.98    0.33
  -3   3  -8    5.95    0.42
  -3   3  -8    5.06    0.25
   3  -3   8    5.26    0.29
   3  -3   8    5.37    0.27
   3  -3   8    4.58    0.22
   3  -3   8    5.21    0.32
   9   2  -8    0.71    0.09
   8   2  -8  146.31    3.65
  -8  -2   8  141.71    4.84
   7   2  -8    0.30    0.12
   7   2  -8    0.24    0.13
   6   2  -8   29.83    0.99
   6   2  -8   31.42    1.00
   6   2  -8   29.38    1.35
  -6  -2   8   29.48    1.90
   5   2  -8   21.60    1.15
   5   2  -8   25.96    0.85
   5   2  -8   24.53    0.87
   5   2  -8   24.94    0.93
  -5  -2   8   24.74    2.02
  -5  -2   8   27.23    2.20
   4   2  -8    0.22    0.11
   4   2  -8    0.04    0.20
   4   2  -8    0.44    0.12
   4   2  -8    0.64    0.16
   4   2  -8    0.18    0.10
  -4  -2   8    0.31    0.33
   3   2  -8   14.83    0.66
   3   2  -8   15.46    0.60
   3   2  -8   14.85    0.72
   3   2  -8   15.98    0.90
  -3  -2   8   15.57    0.94
   2   2  -8  152.82    4.05
   2   2  -8  140.59    6.30
   2   2  -8  152.61    4.51
   2   2  -8  151.55    5.00
  -2  -2   8  163.11    8.34
  -2  -2   8  155.35    4.83
   1   2  -8   13.33    0.90
   1   2  -8   13.04    0.64
   1   2  -8   13.40    0.53
   1   2  -8   14.31    0.69
  -1  -2   8   14.61    0.96
  -1  -2   8   14.73    1.69
   0   2  -8   86.96    4.10
   0   2  -8   92.90    2.89
   0   2  -8   95.33    3.21
   0  -2   8   99.43    3.31
  -1   2  -8   20.36    1.27
  -1   2  -8   20.79    0.93
   1  -2   8   21.85    0.83
   1  -2   8   21.24    0.73
   1  -2   8   20.16    1.12
  -2   2  -8   11.71    0.82
  -2   2  -8   11.35    0.57
   2  -2   8   11.34    0.55
   2  -2   8   11.26    0.50
  -3   2  -8   33.44    1.22
  -3   2  -8   38.22    1.64
   3  -2   8   34.13    1.37
   3  -2   8   34.77    1.14
   3  -2   8   34.42    1.19
   9   1  -8    3.45    0.20
   9   1  -8    3.11    0.21
   8   1  -8   59.45    2.23
   8   1  -8   62.08    1.65
   8   1  -8   61.60    1.99
   7   1  -8    5.94    0.30
   7   1  -8    7.00    0.37
   6   1  -8  268.07    8.62
   6   1  -8  264.73    6.96
   6   1  -8  262.98    9.11
   5   1  -8    1.00    0.15
   5   1  -8    1.02    0.33
   5   1  -8    0.81    0.24
   5   1  -8    0.93    0.20
   5   1  -8    1.02    0.16
  -5  -1   8    0.45    0.34
  -5  -1   8    0.91    0.41
   4   1  -8   19.33    0.96
   4   1  -8   19.97    0.71
   4   1  -8   19.95    1.03
   4   1  -8   19.92    0.86
   4   1  -8   18.58    1.22
   4   1  -8   18.55    0.77
  -4  -1   8   22.11    2.00
   3   1  -8   43.79    1.30
   3   1  -8   41.26    1.42
   3   1  -8   41.17    1.57
   3   1  -8   42.24    1.77
  -3  -1   8   39.64    3.10
  -3  -1   8   43.92    1.80
   2   1  -8   30.24    0.97
   2   1  -8   28.20    1.05
   2   1  -8   26.11    1.46
   2   1  -8   29.34    1.18
   2   1  -8   30.34    1.35
  -2  -1   8   29.73    1.44
  -2  -1   8   31.72    2.55
   1   1  -8    2.03    0.24
   1   1  -8    1.98    0.31
   1   1  -8    2.23    0.20
  -1  -1   8    2.19    0.37
  -1  -1   8    2.13    0.64
   0   1  -8  142.17    6.57
   0   1  -8  153.79    4.16
   0  -1   8  168.87    4.41
   0  -1   8  163.79    4.94
  -1   1  -8    2.80    0.28
  -1   1  -8    2.57    0.38
   1  -1   8    2.83    0.20
   1  -1   8    2.51    0.36
  -2   1  -8   62.14    1.98
  -2   1  -8   60.45    2.80
   2  -1   8   62.31    1.81
   2  -1   8   62.17    1.96
  -3   1  -8   10.94    0.60
  -3   1  -8   11.05    0.49
   3  -1   8   10.66    0.47
   3  -1   8   11.12    0.44
   9   0  -8    3.51    0.24
   9   0  -8    3.26    0.20
   8   0  -8    3.83    0.27
   8   0  -8    3.82    0.21
   8   0  -8    3.54    0.31
   7   0  -8    3.39    0.26
   7   0  -8    2.97    0.20
   7   0  -8    2.62    0.30
   7   0  -8    2.97    0.26
   6   0  -8  108.61    3.00
   6   0  -8  107.72    3.02
   6   0  -8  115.11    4.35
   6   0  -8  110.62    3.50
   6   0  -8  104.16    3.77
   5   0  -8   22.66    1.12
   5   0  -8   23.18    1.34
   5   0  -8   23.33    0.81
   5   0  -8   23.26    0.82
  -5   0   8   24.35    2.01
   4   0  -8  265.82    8.81
   4   0  -8  271.10   10.34
   4   0  -8  274.89    8.32
   4   0  -8  280.61    7.91
   4   0  -8  272.18    7.19
   4   0  -8  271.15    9.95
   4   0  -8  282.77    9.08
  -4   0   8  281.56    7.94
  -4   0   8  300.61   13.38
   3   0  -8    3.01    0.23
   3   0  -8    3.55    0.31
   3   0  -8    3.13    0.39
   3   0  -8    2.95    0.23
   3   0  -8    2.98    0.27
   3   0  -8    3.30    0.56
  -3   0   8    2.75    0.67
   2   0  -8    8.07    0.60
   2   0  -8    7.86    0.48
   2   0  -8    8.33    0.54
   2   0  -8    8.64    0.41
  -2   0   8    8.00    0.74
  -2   0   8    8.38    1.19
   1   0  -8   25.20    1.20
   1   0  -8   25.12    0.88
   1   0  -8   23.38    1.31
  -1   0   8   26.68    2.22
  -1   0   8   26.28    1.48
  -1   0   8   25.70    1.31
   0   0  -8   57.07    2.35
   0   0  -8   54.28    2.58
   0   0  -8   54.28    1.66
   0   0  -8   56.76    1.90
   0   0   8   58.79    2.19
  -1   0  -8    4.52    0.26
  -1   0  -8    4.83    0.45
  -1   0  -8    4.08    0.39
  -1   0  -8    4.86    0.38
   1   0   8    5.04    0.28
   1   0   8    4.58    0.46
  -2   0  -8  188.61    5.44
   2   0   8  195.41    5.25
   2   0   8  187.30    5.37
  -3   0  -8    0.21    0.08
   3   0   8    0.09    0.04
   3   0   8    0.07    0.06
   3   0   8    0.27    0.06
   3   0   8    0.35    0.07
   9  -1  -8   18.40    0.65
   9  -1  -8   17.57    0.74
   8  -1  -8   55.58    1.48
   8  -1  -8   52.16    2.05
   8  -1  -8   57.11    1.81
   7  -1  -8    0.13    0.10
   7  -1  -8    0.17    0.12
   7  -1  -8    0.18    0.08
   7  -1  -8    0.25    0.14
   7  -1  -8    0.17    0.14
   7  -1  -8    0.35    0.23
   6  -1  -8    8.70    0.55
   6  -1  -8    8.04    0.48
   6  -1  -8    8.45    0.40
   6  -1  -8    7.97    0.40
   6  -1  -8    8.42    0.73
   6  -1  -8    8.12    0.36
   6  -1  -8    8.36    0.57
   6  -1  -8    9.28    0.77
   6  -1  -8    8.84    0.70
   5  -1  -8    8.40    0.40
   5  -1  -8    8.62    0.48
   5  -1  -8    8.62    0.77
   5  -1  -8    8.30    0.40
   5  -1  -8    8.53    0.56
   5  -1  -8    8.24    0.60
   5  -1  -8    9.09    0.77
   5  -1  -8    9.10    0.77
   4  -1  -8  274.87    9.23
   4  -1  -8  247.83    9.56
   4  -1  -8  249.23    7.64
   4  -1  -8  257.51    8.40
   4  -1  -8  250.02    6.63
   4  -1  -8  254.17    9.69
  -4   1   8  247.63   12.14
   3  -1  -8   14.52    0.80
   3  -1  -8   14.71    0.59
   3  -1  -8   13.79    1.06
   3  -1  -8   13.89    0.86
   3  -1  -8   14.31    1.05
  -3   1   8   15.28    1.06
  -3   1   8   14.32    1.54
   2  -1  -8  195.55    6.29
   2  -1  -8  180.10    6.87
   2  -1  -8  177.85    6.04
   2  -1  -8  187.90    4.96
  -2   1   8  191.50    6.54
  -2   1   8  185.43    9.43
   1  -1  -8    6.32    0.47
   1  -1  -8    5.44    0.35
   1  -1  -8    5.76    0.50
  -1   1   8    6.28    0.67
   0  -1  -8    3.23    0.38
   0  -1  -8    3.00    0.25
   0  -1  -8    3.00    0.29
   0   1   8    2.85    0.38
  -1  -1  -8    4.87    0.46
  -1  -1  -8    5.51    0.30
  -1  -1  -8    5.62    0.41
   1   1   8    6.26    0.29
  -2  -1  -8   53.58    1.69
  -2  -1  -8   50.72    2.10
   2   1   8   52.25    1.54
   2   1   8   50.54    1.55
  -3  -1  -8    4.71    0.26
   3   1   8    4.57    0.22
   3   1   8    4.33    0.20
   9  -2  -8   22.67    0.88
   8  -2  -8  119.13    3.49
   8  -2  -8  111.36    4.22
   8  -2  -8  108.88    3.91
   7  -2  -8   34.60    0.98
   7  -2  -8   32.91    1.34
   7  -2  -8   29.25    1.39
   7  -2  -8   36.89    1.67
   7  -2  -8   37.54    1.70
   7  -2  -8   35.49    1.60
   7  -2  -8   33.11    1.24
   6  -2  -8   40.89    1.16
   6  -2  -8   39.47    1.23
   6  -2  -8   40.06    1.21
   6  -2  -8   41.38    1.95
   6  -2  -8   39.11    1.45
   6  -2  -8   39.86    2.03
   6  -2  -8   38.99    1.63
   6  -2  -8   39.93    1.63
   6  -2  -8   43.82    1.98
   5  -2  -8    3.03    0.36
   5  -2  -8    2.56    0.45
   5  -2  -8    3.12    0.33
   5  -2  -8    2.96    0.21
   5  -2  -8    3.30    0.28
   5  -2  -8    3.32    0.51
   5  -2  -8    2.96    0.52
   5  -2  -8    3.02    0.22
   4  -2  -8    5.99    0.59
   4  -2  -8    5.34    0.64
   4  -2  -8    5.87    0.36
   4  -2  -8    5.81    0.33
   4  -2  -8    5.70    0.68
   4  -2  -8    5.28    0.44
   3  -2  -8   17.10    1.24
   3  -2  -8   15.42    0.88
   3  -2  -8   16.01    1.12
   3  -2  -8   16.20    1.13
   3  -2  -8   16.34    0.65
  -3   2   8   14.74    1.10
   2  -2  -8  245.05    6.35
   2  -2  -8  229.28    8.80
   2  -2  -8  233.63   10.64
  -2   2   8  256.49    8.28
   1  -2  -8   18.88    1.37
   1  -2  -8   19.74    1.11
   1  -2  -8   22.32    1.00
  -1   2   8   21.59    1.30
   0  -2  -8  121.46    4.88
   0   2   8  130.66    3.66
  -1  -2  -8    1.19    0.24
  -1  -2  -8    1.29    0.18
  -1  -2  -8    1.77    0.17
   1   2   8    1.52    0.13
  -2  -2  -8    1.23    0.10
  -2  -2  -8    1.51    0.20
   2   2   8    1.28    0.10
   2   2   8    1.46    0.12
   8  -3  -8   49.58    2.00
   8  -3  -8   48.95    1.82
   7  -3  -8   37.71    1.51
   7  -3  -8   43.72    1.95
   7  -3  -8   35.71    1.60
   7  -3  -8   45.90    1.88
   7  -3  -8   41.47    1.83
   7  -3  -8   42.07    1.43
   6  -3  -8  158.18    5.66
   6  -3  -8  137.20    4.77
   6  -3  -8  137.08    4.91
   6  -3  -8  139.23    4.39
   6  -3  -8  144.71    5.34
   6  -3  -8  136.38    5.64
   5  -3  -8    5.83    0.62
   5  -3  -8    6.09    0.71
   5  -3  -8    6.72    0.48
   5  -3  -8    5.96    0.30
   5  -3  -8    6.57    0.39
   5  -3  -8    6.70    0.71
   4  -3  -8   18.86    1.21
   4  -3  -8   18.38    0.66
   4  -3  -8   18.98    1.25
   4  -3  -8   17.13    0.92
  -4   3   8   15.24    1.16
   3  -3  -8    3.90    0.51
   3  -3  -8    3.33    0.26
   3  -3  -8    4.14    0.59
   3  -3  -8    3.71    0.37
   3  -3  -8    3.46    0.54
  -3   3   8    3.45    0.50
   2  -3  -8   12.36    1.06
   2  -3  -8   12.16    0.55
   2  -3  -8   12.49    0.76
  -2   3   8   11.57    0.94
   1  -3  -8   14.36    0.73
   1  -3  -8   14.51    0.85
   1  -3  -8   13.27    1.08
   0  -3  -8  152.72    5.84
   0  -3  -8  153.45    6.89
   0   3   8  159.06    4.44
  -1  -3  -8   19.33    0.68
  -1  -3  -8   20.50    1.01
   1   3   8   19.79    0.67
  -2  -3  -8   56.80    2.03
  -2  -3  -8   52.25    1.75
   2   3   8   54.04    1.51
   2   3   8   48.49    1.52
   8  -4  -8   13.87    0.69
   7  -4  -8    0.05    0.20
   7  -4  -8    0.29    0.11
   7  -4  -8    0.08    0.20
   7  -4  -8    0.24    0.16
   6  -4  -8   24.19    1.29
   6  -4  -8   22.39    1.35
   6  -4  -8   26.66    1.37
   6  -4  -8   23.43    1.05
   5  -4  -8   77.53    2.84
   5  -4  -8   66.35    3.19
   5  -4  -8   75.31    3.17
   5  -4  -8   70.55    2.90
   4  -4  -8   84.01    2.33
   4  -4  -8   87.44    3.56
   4  -4  -8   90.19    3.29
   4  -4  -8   78.24    3.63
   3  -4  -8    1.13    0.20
   3  -4  -8    0.87    0.29
   3  -4  -8    1.25    0.36
   3  -4  -8    1.73    0.39
   3  -4  -8    0.90    0.13
   2  -4  -8    7.10    0.37
   2  -4  -8    7.27    0.51
   2  -4  -8    6.05    0.72
   1  -4  -8    5.00    0.42
   1  -4  -8    4.93    0.59
  -1   4   8    5.04    0.36
   0  -4  -8    9.15    0.56
   0  -4  -8    8.38    0.66
   0   4   8    8.35    0.45
   0   4   8    8.64    0.35
  -1  -4  -8   14.62    0.48
  -1  -4  -8   15.01    0.69
   1   4   8   13.17    0.46
   1   4   8   13.30    0.47
   7  -5  -8   15.48    0.79
   7  -5  -8   14.20    0.73
   6  -5  -8    8.32    0.47
   6  -5  -8    8.68    0.57
   6  -5  -8   10.31    0.67
   6  -5  -8    8.40    0.64
   5  -5  -8    1.27    0.31
   5  -5  -8    1.49    0.33
   4  -5  -8   20.69    1.11
   4  -5  -8   20.63    1.17
   4  -5  -8   21.04    0.96
   3  -5  -8   60.38    2.99
   3  -5  -8   55.43    1.63
   3  -5  -8   64.21    2.33
   3  -5  -8   55.91    2.45
   2  -5  -8   33.69    1.04
   2  -5  -8   34.29    1.45
   2  -5  -8   34.98    1.94
   1  -5  -8    0.16    0.09
   1  -5  -8    0.31    0.19
   1  -5  -8    0.43    0.09
  -1   5   8    0.11    0.08
   0  -5  -8    4.15    0.28
   0  -5  -8    4.20    0.21
   0   5   8    3.61    0.17
   6  -6  -8   10.22    0.55
   5  -6  -8   15.57    0.83
   5  -6  -8   16.36    0.71
   3  -6  -8    5.64    0.33
   2  -6  -8    3.25    0.22
   5   7  -9    1.89    0.11
  -5  -7   9    1.90    0.18
   4   7  -9   74.81    1.96
  -4  -7   9   72.49    2.40
  -4  -7   9   74.76    2.51
  -4  -7   9   70.37    2.19
   3   7  -9   13.05    0.47
   3   7  -9   14.75    0.46
  -3  -7   9   13.95    0.61
  -3  -7   9   14.56    0.57
  -3  -7   9   14.05    0.67
  -3  -7   9   11.92    0.61
   2   7  -9   53.18    1.57
   2   7  -9   52.19    1.44
  -2  -7   9   53.43    1.68
  -2  -7   9   52.01    2.02
  -2  -7   9   52.28    1.87
   1   7  -9    0.07    0.05
  -1  -7   9    0.15    0.08
  -1  -7   9    0.05    0.09
  -1  -7   9    0.13    0.07
   0   7  -9    2.89    0.15
   0  -7   9    2.75    0.21
   6   6  -9   11.62    0.38
   6   6  -9   12.16    0.51
  -6  -6   9    9.78    0.48
   5   6  -9    5.63    0.26
   5   6  -9    5.93    0.35
  -5  -6   9    5.43    0.32
  -5  -6   9    5.61    0.40
   4   6  -9   22.79    0.79
   4   6  -9   24.07    0.77
  -4  -6   9   23.98    0.89
   3   6  -9    3.92    0.24
  -3  -6   9    4.19    0.34
   2   6  -9  127.08    3.56
  -2  -6   9  120.31    4.50
  -2  -6   9  117.64    4.42
   1   6  -9    6.03    0.31
  -1  -6   9    5.99    0.45
  -1  -6   9    5.69    0.39
   0   6  -9   45.63    1.39
   0  -6   9   42.48    1.75
   0  -6   9   45.45    1.77
  -1   6  -9    2.42    0.14
   1  -6   9    2.51    0.19
   7   5  -9    3.30    0.22
   7   5  -9    2.57    0.12
  -7  -5   9    2.72    0.21
   6   5  -9  146.66    4.78
   6   5  -9  136.62    3.67
  -6  -5   9  132.43    4.54
   5   5  -9    0.59    0.10
   5   5  -9    0.70    0.11
   5   5  -9    0.57    0.14
  -5  -5   9    0.70    0.13
   4   5  -9    9.73    0.44
  -4  -5   9    9.11    0.55
   3   5  -9    0.14    0.08
   3   5  -9    0.17    0.06
  -3  -5   9    0.26    0.14
   2   5  -9   31.12    1.08
   2   5  -9   30.69    1.17
  -2  -5   9   29.68    1.40
  -2  -5   9   30.04    1.32
   1   5  -9    4.29    0.29
   1   5  -9    3.86    0.28
  -1  -5   9    3.85    0.38
  -1  -5   9    4.20    0.35
   0   5  -9  179.93    5.77
   0   5  -9  179.23    5.23
   0  -5   9  187.00    6.52
   0  -5   9  179.02    6.54
  -1   5  -9   16.05    0.56
   1  -5   9   16.13    0.73
   1  -5   9   14.68    0.71
   8   4  -9   10.54    0.40
   7   4  -9    0.19    0.06
   7   4  -9    0.08    0.05
   7   4  -9    0.14    0.09
   6   4  -9  174.96    4.75
   6   4  -9  180.68    4.82
   6   4  -9  191.33    6.28
   5   4  -9    0.32    0.13
   5   4  -9    0.40    0.09
   5   4  -9    0.55    0.12
   4   4  -9  129.17    3.82
   4   4  -9  130.28    3.43
  -4  -4   9  127.30    6.21
   3   4  -9    0.25    0.11
   3   4  -9    0.14    0.11
  -3  -4   9    0.30    0.31
   2   4  -9    7.11    0.42
   2   4  -9    6.74    0.41
  -2  -4   9    6.91    0.47
  -2  -4   9    6.23    0.96
   1   4  -9    0.14    0.09
   1   4  -9    0.34    0.12
   1   4  -9    0.13    0.14
  -1  -4   9    0.08    0.10
  -1  -4   9    0.08    0.08
   0   4  -9   42.60    1.94
   0   4  -9   41.22    1.39
   0   4  -9   40.29    1.49
   0  -4   9   41.06    1.72
   0  -4   9   41.12    1.44
  -1   4  -9    0.85    0.17
  -1   4  -9    0.93    0.12
  -1   4  -9    0.85    0.10
   1  -4   9    0.95    0.15
   1  -4   9    0.77    0.12
   1  -4   9    0.94    0.15
   1  -4   9    0.74    0.09
  -2   4  -9  136.65    5.14
   2  -4   9  119.53    4.55
   8   3  -9   13.81    0.42
   8   3  -9   13.72    0.53
   7   3  -9   15.63    0.51
   7   3  -9   14.87    0.50
   6   3  -9   12.80    0.50
   6   3  -9   12.98    0.51
   6   3  -9   12.51    0.71
   5   3  -9    0.97    0.15
   5   3  -9    0.97    0.19
   5   3  -9    1.21    0.14
  -5  -3   9    0.84    0.41
   4   3  -9  173.27    5.09
   4   3  -9  172.46    5.66
  -4  -3   9  178.85    7.97
   3   3  -9    0.56    0.14
   3   3  -9    0.20    0.11
   3   3  -9    0.25    0.12
  -3  -3   9    0.13    0.26
   2   3  -9  102.23    3.20
   2   3  -9  102.17    2.84
   2   3  -9  106.54    3.50
  -2  -3   9  107.18    3.30
  -2  -3   9  101.21    5.28
   1   3  -9   13.35    0.62
   1   3  -9   13.85    0.65
   1   3  -9   12.90    0.84
  -1  -3   9   13.45    0.63
  -1  -3   9   12.16    1.33
   0   3  -9    0.10    0.08
   0   3  -9    0.14    0.10
   0   3  -9    0.16    0.14
   0  -3   9    0.11    0.09
   0  -3   9    0.09    0.06
  -1   3  -9    0.13    0.12
  -1   3  -9    0.05    0.07
   1  -3   9    0.06    0.06
   1  -3   9    0.02    0.07
  -2   3  -9   44.66    1.47
  -2   3  -9   49.08    1.94
   2  -3   9   43.60    1.68
   2  -3   9   41.99    1.44
   2  -3   9   43.48    1.37
   8   2  -9  115.76    2.96
   8   2  -9  118.25    3.56
   7   2  -9    0.65    0.10
   7   2  -9    0.60    0.13
   6   2  -9    6.30    0.33
   6   2  -9    5.94    0.31
   5   2  -9   12.64    0.51
   5   2  -9   12.11    0.56
   5   2  -9   12.12    0.52
  -5  -2   9   11.51    1.29
   4   2  -9   29.55    1.07
   4   2  -9   29.22    1.17
   4   2  -9   30.34    0.99
  -4  -2   9   28.97    2.25
   3   2  -9    1.59    0.18
   3   2  -9    1.24    0.17
  -3  -2   9    2.96    0.67
  -3  -2   9    1.06    0.27
   2   2  -9  144.89    4.71
   2   2  -9  141.78    3.83
   2   2  -9  140.05    4.25
  -2  -2   9  147.72    4.62
   1   2  -9    6.09    0.36
   1   2  -9    6.13    0.54
   1   2  -9    6.37    0.41
   1   2  -9    5.99    0.31
  -1  -2   9    6.41    0.60
   0   2  -9   46.95    1.75
   0   2  -9   47.73    2.27
   0  -2   9   49.18    1.56
  -1   2  -9   12.45    0.59
  -1   2  -9   12.45    0.78
   1  -2   9   13.51    0.57
   1  -2   9   12.28    0.51
  -2   2  -9    0.17    0.06
  -2   2  -9    0.20    0.08
   2  -2   9    0.15    0.07
   2  -2   9    0.46    0.08
   2  -2   9    0.14    0.05
   9   1  -9    2.80    0.15
   8   1  -9   37.01    1.25
   8   1  -9   36.93    1.02
   7   1  -9   24.04    0.82
   7   1  -9   24.71    0.76
   7   1  -9   24.17    0.94
   6   1  -9   55.07    1.61
   6   1  -9   53.85    1.87
   5   1  -9    5.43    0.31
   5   1  -9    5.20    0.48
   5   1  -9    5.36    0.31
   5   1  -9    4.84    0.35
  -5  -1   9    5.02    0.87
   4   1  -9    1.40    0.18
   4   1  -9    1.42    0.17
   4   1  -9    1.83    0.19
   4   1  -9    1.53    0.31
   3   1  -9   41.97    1.58
   3   1  -9   44.97    1.82
   3   1  -9   41.41    1.43
   3   1  -9   43.41    1.31
  -3  -1   9   41.13    1.77
   2   1  -9    8.31    0.40
   2   1  -9    8.54    0.49
  -2  -1   9    8.41    0.69
   1   1  -9    8.24    0.63
   1   1  -9    9.15    0.52
   1   1  -9    8.15    0.39
  -1  -1   9    9.15    0.70
   0   1  -9   89.98    4.09
   0   1  -9   97.39    3.27
   0   1  -9   95.96    2.57
   0  -1   9  100.57    2.94
  -1   1  -9    2.23    0.26
  -1   1  -9    2.26    0.22
   1  -1   9    2.04    0.16
   1  -1   9    1.80    0.13
   1  -1   9    1.93    0.19
  -2   1  -9    8.82    0.40
   2  -1   9    8.62    0.37
   2  -1   9    8.56    0.34
   9   0  -9   26.86    0.87
   8   0  -9    4.65    0.21
   8   0  -9    4.54    0.27
   7   0  -9    1.15    0.17
   7   0  -9    1.36    0.13
   7   0  -9    1.41    0.16
   6   0  -9   42.78    1.22
   6   0  -9   42.40    1.69
   6   0  -9   41.63    1.51
   6   0  -9   42.52    1.30
   6   0  -9   43.40    1.30
   5   0  -9   35.97    1.12
   5   0  -9   36.95    1.54
   5   0  -9   33.81    1.27
   5   0  -9   35.30    1.12
   4   0  -9   23.16    0.79
   4   0  -9   20.91    0.90
   4   0  -9   23.22    1.14
   3   0  -9    2.47    0.24
   3   0  -9    3.05    0.23
   3   0  -9    2.67    0.37
  -3   0   9    2.65    0.39
   2   0  -9    1.03    0.17
   2   0  -9    0.92    0.23
   2   0  -9    1.10    0.15
  -2   0   9    0.97    0.25
   1   0  -9   19.76    0.74
   1   0  -9   21.88    0.94
  -1   0   9   21.20    1.11
   0   0  -9    5.10    0.38
   0   0  -9    5.09    0.27
   0   0   9    5.39    0.26
  -1   0  -9   20.95    0.87
   1   0   9   20.76    0.73
   1   0   9   20.43    0.66
  -2   0  -9   37.96    1.26
   2   0   9   34.66    1.17
   2   0   9   36.13    1.13
   8  -1  -9    2.34    0.19
   7  -1  -9   43.46    1.82
   7  -1  -9   39.68    1.13
   7  -1  -9   38.34    1.21
   7  -1  -9   43.64    1.43
   6  -1  -9    0.41    0.31
   6  -1  -9    0.75    0.12
   6  -1  -9    0.59    0.12
   6  -1  -9    0.69    0.15
   6  -1  -9    0.81    0.21
   6  -1  -9    0.69    0.09
   5  -1  -9    2.12    0.33
   5  -1  -9    2.04    0.19
   5  -1  -9    1.98    0.18
   5  -1  -9    2.25    0.52
   5  -1  -9    1.80    0.20
   5  -1  -9    2.29    0.16
   4  -1  -9    3.30    0.31
   4  -1  -9    3.73    0.25
   4  -1  -9    3.71    0.42
   3  -1  -9   35.72    1.59
   3  -1  -9   39.04    1.20
   3  -1  -9   39.42    1.65
  -3   1   9   35.55    1.63
   2  -1  -9    6.05    0.39
   2  -1  -9    5.74    0.44
   2  -1  -9    6.47    0.36
   2  -1  -9    7.06    0.51
  -2   1   9    6.13    0.58
   1  -1  -9   14.83    0.73
   1  -1  -9   15.43    0.61
   1  -1  -9   15.53    0.82
   0  -1  -9    0.54    0.14
   0  -1  -9    0.63    0.11
   0  -1  -9    0.59    0.14
   0   1   9    0.61    0.09
  -1  -1  -9   10.25    0.50
   1   1   9    9.65    0.36
   8  -2  -9    0.04    0.08
   7  -2  -9    0.14    0.10
   7  -2  -9    0.26    0.13
   7  -2  -9    0.70    0.25
   6  -2  -9    1.36    0.41
   6  -2  -9    1.79    0.26
   6  -2  -9    1.55    0.19
   6  -2  -9    1.55    0.15
   6  -2  -9    1.51    0.14
   5  -2  -9   17.96    0.65
   5  -2  -9   18.09    0.73
   5  -2  -9   18.90    1.24
   5  -2  -9   19.94    0.99
   5  -2  -9   18.22    0.63
   4  -2  -9    1.45    0.29
   4  -2  -9    1.35    0.22
   4  -2  -9    1.78    0.51
   4  -2  -9    1.81    0.17
   4  -2  -9    1.78    0.15
   3  -2  -9   12.16    0.72
   3  -2  -9   13.72    0.82
   3  -2  -9   14.01    0.56
   2  -2  -9    0.17    0.13
   2  -2  -9    0.15    0.11
   2  -2  -9    0.03    0.15
   1  -2  -9   32.83    1.47
   1  -2  -9   33.02    1.24
   1  -2  -9   32.31    1.07
   0  -2  -9    0.85    0.14
   0  -2  -9    0.70    0.16
   0  -2  -9    1.06    0.13
   0   2   9    1.36    0.12
  -1  -2  -9    9.65    0.42
   1   2   9    9.28    0.33
   7  -3  -9   24.09    1.00
   7  -3  -9   29.52    1.32
   6  -3  -9    6.82    0.66
   6  -3  -9    6.53    0.45
   5  -3  -9    1.16    0.12
   5  -3  -9    1.44    0.27
   5  -3  -9    1.21    0.42
   4  -3  -9    1.22    0.28
   4  -3  -9    1.36    0.21
   4  -3  -9    1.30    0.14
   3  -3  -9   20.88    1.02
   3  -3  -9   21.71    1.08
   3  -3  -9   21.64    0.75
   2  -3  -9    1.96    0.24
   2  -3  -9    1.81    0.24
   2  -3  -9    1.80    0.19
   1  -3  -9   16.18    0.83
   1  -3  -9   16.09    0.61
   0  -3  -9    5.39    0.25
   0  -3  -9    5.27    0.35
   0   3   9    5.34    0.23
   7  -4  -9    1.59    0.23
   6  -4  -9   11.96    0.80
   6  -4  -9   12.48    0.61
   5  -4  -9   18.97    0.92
   5  -4  -9   19.23    1.11
   4  -4  -9    4.98    0.23
   4  -4  -9    5.26    0.36
   4  -4  -9    4.68    0.43
   3  -4  -9    1.23    0.18
   3  -4  -9    1.56    0.24
   3  -4  -9    1.26    0.13
   2  -4  -9    3.41    0.21
   2  -4  -9    3.41    0.29
   1  -4  -9    4.85    0.24
   1  -4  -9    4.69    0.32
   5  -5  -9    0.40    0.11
   4  -5  -9   38.32    1.43
   5   6 -10   21.39    0.62
   4   6 -10    3.66    0.17
  -4  -6  10    3.29    0.26
   3   6 -10    1.23    0.10
   3   6 -10    1.28    0.10
  -3  -6  10    1.09    0.16
  -3  -6  10    1.47    0.13
   2   6 -10   51.29    1.44
  -2  -6  10   44.77    1.79
  -2  -6  10   47.58    1.50
   6   5 -10    1.72    0.10
   6   5 -10    1.54    0.09
   5   5 -10   11.26    0.40
  -5  -5  10   10.78    0.56
   4   5 -10    9.14    0.36
   4   5 -10    9.43    0.39
  -4  -5  10    8.27    0.40
   3   5 -10   10.03    0.42
  -3  -5  10    9.20    0.53
   2   5 -10    1.31    0.13
  -2  -5  10    0.97    0.17
   1   5 -10    5.38    0.25
  -1  -5  10    4.32    0.28
  -1  -5  10    4.65    0.33
   7   4 -10    2.91    0.13
   6   4 -10    2.05    0.13
   6   4 -10    2.33    0.16
  -6  -4  10    1.91    0.19
   5   4 -10   17.04    0.54
   5   4 -10   16.64    0.58
   4   4 -10    1.06    0.10
   4   4 -10    1.02    0.13
  -4  -4  10    1.26    0.17
   3   4 -10   31.55    1.06
  -3  -4  10   29.34    1.31
   2   4 -10    9.14    0.45
   2   4 -10    9.13    0.43
  -2  -4  10    9.27    0.56
  -2  -4  10    8.55    0.48
   1   4 -10    2.02    0.16
   1   4 -10    2.17    0.18
  -1  -4  10    1.93    0.20
  -1  -4  10    2.18    0.24
   0   4 -10    3.31    0.19
   0  -4  10    2.86    0.22
   0  -4  10    2.21    0.20
   7   3 -10   14.17    0.54
   7   3 -10   13.67    0.43
   6   3 -10    3.16    0.22
   6   3 -10    2.90    0.17
   6   3 -10    3.12    0.19
   5   3 -10   25.30    0.79
   4   3 -10    1.14    0.15
   4   3 -10    1.00    0.11
   3   3 -10   18.33    0.73
   3   3 -10   18.28    0.77
   2   3 -10    4.14    0.28
   2   3 -10    3.59    0.25
  -2  -3  10    3.69    0.29
   1   3 -10   16.14    0.67
  -1  -3  10   15.57    0.74
  -1  -3  10   14.79    0.60
   0   3 -10    8.38    0.39
   0  -3  10    7.48    0.35
   0  -3  10    8.24    0.44
   0  -3  10    8.27    0.44
   7   2 -10    5.28    0.23
   7   2 -10    5.35    0.29
   6   2 -10    0.03    0.08
   6   2 -10    0.18    0.09
   5   2 -10   20.48    0.69
   4   2 -10   10.16    0.47
   4   2 -10    9.71    0.43
   3   2 -10   42.98    1.54
   3   2 -10   42.27    1.27
   3   2 -10   41.83    1.39
   2   2 -10    2.11    0.21
   2   2 -10    1.91    0.16
  -2  -2  10    2.20    0.19
   1   2 -10    6.88    0.39
  -1  -2  10    6.04    0.34
   0   2 -10    1.82    0.17
   0  -2  10    1.80    0.15
   8   1 -10   28.39    0.76
   7   1 -10   31.60    0.89
   7   1 -10   31.53    1.10
   7   1 -10   33.03    0.96
   6   1 -10   11.11    0.43
   6   1 -10   10.81    0.39
   6   1 -10    8.99    0.45
   5   1 -10    6.88    0.34
   5   1 -10    6.48    0.33
   4   1 -10    0.29    0.11
   4   1 -10    0.38    0.10
   3   1 -10    3.25    0.26
   3   1 -10    3.80    0.24
   2   1 -10   16.83    0.73
   2   1 -10   15.82    0.58
   1   1 -10   39.03    1.43
   1   1 -10   38.71    1.11
   0   1 -10   16.22    0.67
   0  -1  10   15.85    0.61
   7   0 -10    5.04    0.28
   7   0 -10    4.88    0.21
   6   0 -10   63.02    1.62
   6   0 -10   56.32    1.94
   6   0 -10   63.56    1.73
   5   0 -10   20.26    0.69
   5   0 -10   19.33    0.67
   5   0 -10   18.97    0.61
   4   0 -10    3.75    0.24
   4   0 -10    4.27    0.26
   3   0 -10   18.27    0.65
   3   0 -10   16.47    0.72
   2   0 -10    0.14    0.08
   2   0 -10    0.12    0.09
   1   0 -10    2.17    0.21
   1   0 -10    2.21    0.16
   0   0 -10   15.81    0.64
   0   0  10   15.20    0.58
   7  -1 -10    4.97    0.26
   6  -1 -10    8.91    0.36
   5  -1 -10    3.98    0.23
   5  -1 -10    4.01    0.24
   5  -1 -10    4.61    0.41
   4  -1 -10   74.00    2.07
   4  -1 -10   75.32    2.74
   4  -1 -10   75.62    2.09
   3  -1 -10    5.34    0.42
   3  -1 -10    4.95    0.28
   3  -1 -10    4.76    0.25
   2  -1 -10    4.41    0.26
   2  -1 -10    4.08    0.26
   1  -1 -10   10.47    0.39
   1  -1 -10   10.50    0.47
   0   1  10    0.46    0.07
   6  -2 -10    5.48    0.39
   5  -2 -10    9.81    0.60
   5  -2 -10    9.08    0.38
   4  -2 -10   19.26    0.67
   4  -2 -10   20.17    0.96
   3  -2 -10    0.20    0.09
   3  -2 -10    0.23    0.10
   3  -2 -10    0.04    0.14
   2  -2 -10   53.34    1.46
   2  -2 -10   47.54    1.92
   1  -2 -10    0.49    0.07
   5  -3 -10    3.88    0.33
   4  -3 -10    1.79    0.14
   4  -3 -10    1.89    0.25
   3  -3 -10    5.57    0.26
   2  -3 -10   33.17    0.96
   4   3 -11   72.64    1.94
   3   3 -11    0.23    0.06
   5   2 -11    3.39    0.19
   4   2 -11   55.99    1.56
   3   2 -11    0.31    0.07
   2   2 -11   61.37    1.67
   6   1 -11   12.38    0.42
   5   1 -11    3.31    0.19
   4   1 -11    0.75    0.10
   3   1 -11   10.46    0.40
   5   0 -11    8.72    0.34
   4   0 -11    3.63    0.20
   0   0   0    0.00    0.00
;
_shelx_hkl_checksum              32304
#END Tags that were not found in dictionaries
loop_
_space_group_symop_operation_xyz
'x, y, z'
'-x, -y, -z'
loop_
_atom_site_label
_atom_site_type_symbol
_atom_site_fract_x
_atom_site_fract_y
_atom_site_fract_z
_atom_site_U_iso_or_equiv
_atom_site_adp_type
_atom_site_occupancy
_atom_site_site_symmetry_order
_atom_site_calc_flag
_atom_site_refinement_flags_posn
_atom_site_refinement_flags_adp
Br1 Br -0.24984(3) 0.01462(3) -0.32121(3) 0.01782(8) Uani 1 1 d . .
S1 S -0.24434(8) 0.06939(8) -0.07265(8) 0.01647(14) Uani 1 1 d . .
N1 N 0.0304(3) 0.2736(3) -0.0585(3) 0.0142(4) Uani 1 1 d . .
N2 N -0.0027(3) 0.2866(3) 0.1734(3) 0.0156(4) Uani 1 1 d . .
C1 C -0.0657(3) 0.2152(3) 0.0145(3) 0.0151(5) Uani 1 1 d . .
C2 C 0.1620(3) 0.3866(3) 0.0562(3) 0.0141(5) Uani 1 1 d . .
C3 C 0.2934(3) 0.4808(3) 0.0403(4) 0.0170(5) Uani 1 1 d . .
H3 H 0.3069 0.4746 -0.0613 0.020 Uiso 1 1 calc R U
C4 C 0.4032(3) 0.5842(3) 0.1822(4) 0.0186(5) Uani 1 1 d . .
H4 H 0.4953 0.6505 0.1779 0.022 Uiso 1 1 calc R U
C5 C 0.3825(3) 0.5938(3) 0.3313(4) 0.0183(5) Uani 1 1 d . .
H5 H 0.4608 0.6664 0.4250 0.022 Uiso 1 1 calc R U
C6 C 0.2508(3) 0.5006(3) 0.3466(3) 0.0176(5) Uani 1 1 d . .
H6 H 0.2361 0.5078 0.4476 0.021 Uiso 1 1 calc R U
C7 C 0.1418(3) 0.3958(3) 0.2046(3) 0.0150(5) Uani 1 1 d . .
Br2 Br 0.25038(3) 0.04200(3) -0.31180(3) 0.01745(9) Uani 1 1 d . .
Br3 Br 0.09892(4) 0.28911(3) -0.40080(3) 0.01864(9) Uani 1 1 d . .
Br4 Br 0.38590(4) -0.20310(3) -0.23264(4) 0.02109(9) Uani 1 1 d . .
H1 H 0.014(4) 0.255(4) -0.152(5) 0.011(8) Uiso 1 1 d . .
H2 H -0.049(5) 0.269(4) 0.239(5) 0.018(8) Uiso 1 1 d . .
loop_
_atom_site_aniso_label
_atom_site_aniso_U_11
_atom_site_aniso_U_22
_atom_site_aniso_U_33
_atom_site_aniso_U_23
_atom_site_aniso_U_13
_atom_site_aniso_U_12
Br1 0.01605(14) 0.01880(14) 0.01720(15) 0.00064(10) 0.00649(11) -0.00200(10)
S1 0.0127(3) 0.0186(3) 0.0168(3) 0.0025(2) 0.0055(2) -0.0052(2)
N1 0.0127(10) 0.0158(11) 0.0133(11) 0.0016(8) 0.0051(8) -0.0014(8)
N2 0.0124(10) 0.0192(11) 0.0143(11) 0.0037(9) 0.0046(9) -0.0018(8)
C1 0.0102(11) 0.0177(12) 0.0172(12) 0.0049(10) 0.0047(10) 0.0015(9)
C2 0.0089(11) 0.0144(12) 0.0163(12) 0.0031(10) 0.0023(9) 0.0008(9)
C3 0.0111(11) 0.0189(13) 0.0212(13) 0.0031(10) 0.0072(10) -0.0001(9)
C4 0.0090(11) 0.0177(13) 0.0266(14) 0.0045(11) 0.0046(10) -0.0006(9)
C5 0.0120(11) 0.0170(12) 0.0196(13) 0.0026(10) 0.0001(10) 0.0000(10)
C6 0.0152(12) 0.0208(13) 0.0145(12) 0.0033(10) 0.0035(10) 0.0019(10)
C7 0.0102(11) 0.0167(12) 0.0178(13) 0.0057(10) 0.0046(10) 0.0014(9)
Br2 0.01246(14) 0.02322(16) 0.01470(15) -0.00079(11) 0.00562(11) -0.00586(10)
Br3 0.01598(14) 0.02282(15) 0.01586(15) 0.00210(11) 0.00602(11) -0.00254(10)
Br4 0.01677(14) 0.02347(16) 0.02290(16) 0.00360(12) 0.00849(12) -0.00231(11)
loop_
_atom_type_symbol
_atom_type_description
_atom_type_scat_dispersion_real
_atom_type_scat_dispersion_imag
_atom_type_scat_source
C C 0.0181 0.0091 'International Tables Vol C Tables 4.2.6.8 and 6.1.1.4'
H H 0.0000 0.0000 'International Tables Vol C Tables 4.2.6.8 and 6.1.1.4'
N N 0.0311 0.0180 'International Tables Vol C Tables 4.2.6.8 and 6.1.1.4'
S S 0.3331 0.5567 'International Tables Vol C Tables 4.2.6.8 and 6.1.1.4'
Br Br -0.6763 1.2805 'International Tables Vol C Tables 4.2.6.8 and 6.1.1.4'
loop_
_geom_angle_atom_site_label_1
_geom_angle_atom_site_label_2
_geom_angle_atom_site_label_3
_geom_angle
_geom_angle_site_symmetry_3
_geom_angle_publ_flag
S1 Br1 Br2 176.16(2) 2_554 yes
C1 S1 Br1 99.08(9) . ?
C1 N1 C2 109.3(2) . ?
C1 N1 H1 127(2) . ?
C2 N1 H1 123(2) . ?
C1 N2 C7 108.8(2) . ?
C1 N2 H2 124(2) . ?
C7 N2 H2 127(2) . ?
N1 C1 N2 109.0(2) . ?
N1 C1 S1 127.9(2) . ?
N2 C1 S1 123.1(2) . ?
C7 C2 N1 106.7(2) . ?
C7 C2 C3 122.2(2) . ?
N1 C2 C3 131.1(3) . ?
C4 C3 C2 115.8(3) . ?
C4 C3 H3 122.1 . ?
C2 C3 H3 122.1 . ?
C3 C4 C5 122.0(2) . ?
C3 C4 H4 119.0 . ?
C5 C4 H4 119.0 . ?
C6 C5 C4 122.1(3) . ?
C6 C5 H5 118.9 . ?
C4 C5 H5 118.9 . ?
C5 C6 C7 115.8(3) . ?
C5 C6 H6 122.1 . ?
C7 C6 H6 122.1 . ?
C2 C7 C6 122.1(2) . ?
C2 C7 N2 106.1(2) . ?
C6 C7 N2 131.8(3) . ?
Br4 Br2 Br3 177.828(14) . yes
loop_
_geom_bond_atom_site_label_1
_geom_bond_atom_site_label_2
_geom_bond_distance
_geom_bond_site_symmetry_2
_geom_bond_publ_flag
Br1 S1 2.1824(7) . yes
Br1 Br2 3.2395(4) 2_554 yes
S1 C1 1.743(3) . yes
N1 C1 1.335(3) . yes
N1 C2 1.391(3) . yes
N1 H1 0.78(4) . ?
N2 C1 1.343(4) . yes
N2 C7 1.403(3) . yes
N2 H2 0.84(4) . ?
C2 C7 1.390(4) . ?
C2 C3 1.395(4) . ?
C3 C4 1.390(4) . ?
C3 H3 0.9500 . ?
C4 C5 1.398(4) . ?
C4 H4 0.9500 . ?
C5 C6 1.390(4) . ?
C5 H5 0.9500 . ?
C6 C7 1.394(4) . ?
C6 H6 0.9500 . ?
Br2 Br4 2.5115(4) . yes
Br2 Br3 2.5980(4) . yes
loop_
_geom_hbond_atom_site_label_D
_geom_hbond_atom_site_label_H
_geom_hbond_atom_site_label_A
_geom_hbond_distance_DH
_geom_hbond_distance_HA
_geom_hbond_distance_DA
_geom_hbond_angle_DHA
_geom_hbond_site_symmetry_A
_geom_hbond_publ_flag
C3 H3 Br3 0.95 3.00 3.707(3) 132.7 . yes
C6 H6 Br3 0.95 2.92 3.644(3) 134.4 1_556 yes
N1 H1 Br1 0.78(4) 2.74(3) 3.110(2) 111(3) . yes
N1 H1 Br3 0.78(4) 2.63(4) 3.339(2) 152(3) . yes
N2 H2 Br3 0.84(4) 2.93(4) 3.552(2) 133(3) 1_556 yes
N2 H2 Br4 0.84(4) 2.80(4) 3.470(2) 139(3) 2 yes
loop_
_geom_torsion_atom_site_label_1
_geom_torsion_atom_site_label_2
_geom_torsion_atom_site_label_3
_geom_torsion_atom_site_label_4
_geom_torsion
C2 N1 C1 N2 0.4(3)
C2 N1 C1 S1 -179.18(19)
C7 N2 C1 N1 -0.3(3)
C7 N2 C1 S1 179.26(19)
Br1 S1 C1 N1 1.6(2)
Br1 S1 C1 N2 -177.9(2)
C1 N1 C2 C7 -0.3(3)
C1 N1 C2 C3 -179.5(3)
C7 C2 C3 C4 0.2(4)
N1 C2 C3 C4 179.2(3)
C2 C3 C4 C5 -0.4(4)
C3 C4 C5 C6 0.0(4)
C4 C5 C6 C7 0.6(4)
N1 C2 C7 C6 -178.8(2)
C3 C2 C7 C6 0.5(4)
N1 C2 C7 N2 0.1(3)
C3 C2 C7 N2 179.4(2)
C5 C6 C7 C2 -0.8(4)
C5 C6 C7 N2 -179.4(3)
C1 N2 C7 C2 0.1(3)
C1 N2 C7 C6 178.9(3)
