#------------------------------------------------------------------------------
#$Date: 2016-03-24 14:44:50 +0200 (Thu, 24 Mar 2016) $
#$Revision: 179672 $
#$URL: svn://www.crystallography.net/cod/cif/4/51/25/4512517.cif $
#------------------------------------------------------------------------------
#
# This file is available in the Crystallography Open Database (COD),
# http://www.crystallography.net/
#
# All data on this site have been placed in the public domain by the
# contributors.
#
data_4512517
loop_
_publ_author_name
'B\;ak, Joanna M.'
'Gajda, Roman'
'Wo\'zniak, Krzysztof'
_publ_section_title
;
 New High Pressure Crystal Structures of 2,2-Dimethylbutane and
 2,3-Dimethylaniline: Combined X-ray, Raman, and Theoretical Studies
;
_journal_issue                   1
_journal_name_full               'Crystal Growth &amp; Design'
_journal_page_first              45
_journal_paper_doi               10.1021/cg500998g
_journal_volume                  15
_journal_year                    2015
_chemical_formula_moiety         'C8 H11 N'
_chemical_formula_sum            'C8 H11 N'
_chemical_formula_weight         121.18
_chemical_name_systematic
;
 ?
;
_space_group_crystal_system      monoclinic
_space_group_IT_number           4
_space_group_name_Hall           'P 2yb'
_space_group_name_H-M_alt        'P 1 21 1'
_symmetry_space_group_name_Hall  'P 2yb'
_symmetry_space_group_name_H-M   'P 1 21 1'
_atom_sites_solution_hydrogens   geom
_audit_creation_date             2014-05-07
_audit_creation_method
;
Olex2 1.2
(compiled 2014.03.20 svn.r2914 for OlexSys, GUI svn.r4816)
;
_cell_angle_alpha                90
_cell_angle_beta                 100.871(15)
_cell_angle_gamma                90
_cell_formula_units_Z            2
_cell_length_a                   5.1685(4)
_cell_length_b                   5.5274(3)
_cell_length_c                   12.422(4)
_cell_measurement_reflns_used    1495
_cell_measurement_temperature    293.(2)
_cell_measurement_theta_max      24.2120
_cell_measurement_theta_min      5.9520
_cell_volume                     348.51(12)
_computing_molecular_graphics    'Olex2 (Dolomanov et al., 2009)'
_computing_publication_material  'Olex2 (Dolomanov et al., 2009)'
_computing_structure_refinement  'ShelXL (Sheldrick, 2008)'
_computing_structure_solution    'ShelXS (Sheldrick, 2008)'
_diffrn_ambient_temperature      293.(2)
_diffrn_measured_fraction_theta_full 0.267
_diffrn_measured_fraction_theta_max 0.213
_diffrn_measurement_device_type  'SuperNova, Single source at offset, Eos'
_diffrn_measurement_method       '\w scans'
_diffrn_radiation_monochromator  graphite
_diffrn_radiation_type           'Mo K\a'
_diffrn_radiation_wavelength     0.7107
_diffrn_reflns_av_R_equivalents  0.0572
_diffrn_reflns_av_unetI/netI     0.0226
_diffrn_reflns_Laue_measured_fraction_full 0.267
_diffrn_reflns_Laue_measured_fraction_max 0.213
_diffrn_reflns_limit_h_max       7
_diffrn_reflns_limit_h_min       -7
_diffrn_reflns_limit_k_max       7
_diffrn_reflns_limit_k_min       -7
_diffrn_reflns_limit_l_max       5
_diffrn_reflns_limit_l_min       -5
_diffrn_reflns_number            3839
_diffrn_reflns_point_group_measured_fraction_full 0.273
_diffrn_reflns_point_group_measured_fraction_max 0.216
_diffrn_reflns_theta_full        19.665
_diffrn_reflns_theta_max         23.288
_diffrn_reflns_theta_min         4.321
_diffrn_source                   'Enhance (Mo) X-ray Source'
_exptl_absorpt_coefficient_mu    0.068
_exptl_absorpt_correction_T_max  0.498
_exptl_absorpt_correction_T_min  0.365
_exptl_absorpt_correction_type   gaussian
_exptl_absorpt_process_details
;
CrysAlisPro, Agilent Technologies,
Version 1.171.36.32 (release 02-08-2013 CrysAlis171 .NET)
(compiled Aug  2 2013,16:46:58)
Numerical absorption correction based on gaussian integration over
            a multifaceted crystal model (Absorb Angel (2004) J. Appl. Cryst. 37:486-492)
;
_exptl_crystal_colour            yellow
_exptl_crystal_density_diffrn    1.155
_exptl_crystal_density_method    'not measured'
_exptl_crystal_F_000             132
_exptl_crystal_preparation       'mounted in a diamond-anvil cell '
_exptl_crystal_size_max          0.30
_exptl_crystal_size_mid          0.25
_exptl_crystal_size_min          0.15
_refine_diff_density_max         0.055
_refine_diff_density_min         -0.041
_refine_diff_density_rms         0.012
_refine_ls_abs_structure_details
;
 Flack x determined using 148 quotients [(I+)-(I-)]/[(I+)+(I-)]
 (Parsons and Flack (2004), Acta Cryst. A60, s61).
;
_refine_ls_extinction_method     none
_refine_ls_goodness_of_fit_ref   1.053
_refine_ls_hydrogen_treatment    constr
_refine_ls_matrix_type           full
_refine_ls_number_parameters     84
_refine_ls_number_reflns         445
_refine_ls_number_restraints     37
_refine_ls_restrained_S_all      1.012
_refine_ls_R_factor_all          0.0480
_refine_ls_R_factor_gt           0.0347
_refine_ls_shift/su_max          0.000
_refine_ls_shift/su_mean         0.000
_refine_ls_structure_factor_coef Fsqd
_refine_ls_weighting_details
'w=1/[\s^2^(Fo^2^)+(0.0595P)^2^+0.0076P] where P=(Fo^2^+2Fc^2^)/3'
_refine_ls_weighting_scheme      calc
_refine_ls_wR_factor_gt          0.0840
_refine_ls_wR_factor_ref         0.0932
_reflns_Friedel_coverage         0.846
_reflns_Friedel_fraction_full    0.280
_reflns_Friedel_fraction_max     0.219
_reflns_number_gt                362
_reflns_number_total             445
_reflns_threshold_expression     'I > 2\s(I)'
_cod_data_source_file            cg500998g_si_001.cif
_cod_data_source_block           DMA
_cod_depositor_comments
'Adding full bibliography for 4512517--4512518.cif.'
_cod_original_cell_volume        348.50(12)
_cod_database_code               4512517
#BEGIN Tags that were not found in dictionaries:
_shelxl_version_number           2013-4
_shelx_space_group_comment
;
The symmetry employed for this shelxl refinement is uniquely defined
by the following loop, which should always be used as a source of
symmetry information in preference to the above space-group names.
They are only intended as comments.
;
_olex2_refinement_description
;
1. Fixed Uiso
 At 1.2 times of:
  All C(H) groups, All N(H,H) groups
 At 1.5 times of:
  All C(H,H,H) groups
2. Uiso/Uaniso restraints and constraints
C4 \\sim C8 \\sim C1 \\sim C2 \\sim C6 \\sim C5: within 1.7A with sigma of 0.02
and sigma for terminal atoms of 0.04
C7 \\sim C9 \\sim N3: within 1.7A with sigma of 0.04 and sigma for terminal
atoms of 0.08
3.a Aromatic/amide H refined with riding coordinates:
 C2(H2), C5(H5), C6(H6)
3.b X=CH2 refined with riding coordinates:
 N3(H3A,H3B)
3.c Idealised Me refined as rotating group:
 C9(H9A,H9B,H9C), C7(H7A,H7B,H7C)
;
_shelx_res_file
;
TITL abs in P21 #4
CELL 0.56086 5.1685 5.5274 12.4216 90 100.871 90
ZERR 2 0.0004 0.0003 0.0041 0 0.015 0
LATT -1
SYMM -X,0.5+Y,-Z

SFAC C H N
UNIT 16 22 2
SIMU 0.02 0.04 1.7 C4 C8 C1 C2 C6 C5
SIMU 0.04 0.08 1.7 C7 C9 N3

L.S. 10
PLAN  2
REM reset to P21 #4
BOND
fmap 2
acta
MORE -1
CONF
REM <HKL>D:/CISNIENIA/Xray/DMA_Dual/R_DMA_Dual/abs.hkl</HKL>

WGHT    0.059500    0.007600
FVAR       2.66158
C2    1   -0.445278   -0.985432   -0.129474    11.00000    0.05825    0.07111 =
         0.01797    0.00369    0.00797    0.00689
AFIX  43
H2    2   -0.467848   -0.960911   -0.057751    11.00000   -1.20000
AFIX   0
N3    3   -0.346070   -1.110120   -0.451024    11.00000    0.09466    0.05674 =
         0.09512    0.00859    0.03894   -0.00133
AFIX  93
H3A   2   -0.435439   -1.222527   -0.488987    11.00000   -1.20000
H3B   2   -0.238948   -1.022822   -0.479609    11.00000   -1.20000
AFIX   0
C4    1   -0.374045   -1.070554   -0.346159    11.00000    0.05712    0.04679 =
         0.03499    0.00268    0.01660    0.00386
C5    1   -0.547477   -1.209436   -0.296043    11.00000    0.06697    0.04900 =
         0.03733    0.00090    0.00532   -0.01136
AFIX  43
H5    2   -0.638930   -1.336453   -0.335070    11.00000   -1.20000
AFIX   0
C6    1   -0.585157   -1.163911   -0.193030    11.00000    0.05994    0.06762 =
         0.03165    0.01234    0.00869   -0.01212
AFIX  43
H6    2   -0.707859   -1.254811   -0.164508    11.00000   -1.20000
AFIX   0
C9    1   -0.050370   -0.726150   -0.332308    11.00000    0.06804    0.06271 =
         0.07091    0.01476    0.02905   -0.00876
AFIX 137
H9A   2   -0.114722   -0.721048   -0.409997    11.00000   -1.50000
H9B   2    0.123587   -0.794300   -0.317928    11.00000   -1.50000
H9C   2   -0.044810   -0.565085   -0.303045    11.00000   -1.50000
AFIX   0
C1    1   -0.269129   -0.841761   -0.174104    11.00000    0.05030    0.05007 =
         0.03691    0.00483    0.01437    0.01123
C7    1   -0.113880   -0.654270   -0.100873    11.00000    0.07238    0.06061 =
         0.07582   -0.01322    0.01193   -0.00238
AFIX 137
H7A   2   -0.169286   -0.652923   -0.031329    11.00000   -1.50000
H7B   2   -0.143795   -0.497819   -0.134475    11.00000   -1.50000
H7C   2    0.070364   -0.692602   -0.090153    11.00000   -1.50000
AFIX   0
C8    1   -0.232930   -0.881528   -0.278341    11.00000    0.04313    0.04103 =
         0.03696    0.00124    0.00844    0.00408
HKLF 4

REM  abs in P21 #4
REM R1 =  0.0347 for     362 Fo > 4sig(Fo)  and  0.0480 for all     445 data
REM     84 parameters refined using     37 restraints

END

WGHT      0.0595      0.0076

REM Highest difference peak  0.055,  deepest hole -0.041,  1-sigma level  0.012
Q1    1  -0.1274 -1.1258 -0.4305  11.00000  0.05    0.06
Q2    1  -0.1504 -1.1329 -0.4746  11.00000  0.05    0.05
;
_shelx_res_checksum              68856
_shelx_hkl_file
;
   0  -7   0   -4.03    3.15
   0  -7   0    0.39    3.18
   0  -7   0   -3.73    3.51
   0  -7   0   -2.01    3.22
   0  -7   0    6.72    4.75
   0  -7   0   -1.29    3.21
   0  -7   1    1.09    3.18
   0  -7   1    3.76    4.40
   0  -7   1    1.52    2.24
   0  -7  -1    2.74    3.65
   0  -7  -1    1.40    3.32
   0  -7   1    2.99    3.43
   0  -7   1   -2.25    3.71
   0  -7  -1   -1.95    3.53
   0  -7   2    9.81    4.22
   0  -7   2    5.10    3.94
   0  -6   0   30.39    5.85
   0  -6   0   29.91    5.59
   0  -6   0   34.54    5.91
   0  -6   0   29.21    6.01
   0  -6   0   33.87    6.72
   0  -6   0   39.86    5.87
   0  -6   1   75.35   10.25
   0  -6   1   74.41    8.73
   0  -6  -1   61.31    8.06
   0  -6  -1   78.83    8.65
   0  -6   1   78.06    8.19
   0  -6   1   73.08    9.31
   0  -6  -1   70.86    9.91
   0  -6  -1   74.50   10.45
   0  -6   1   72.96    9.06
   0  -6   1   63.67    7.63
   0  -6  -2   77.36    8.52
   0  -6   2   91.78   10.08
   0  -6   2   79.68    9.58
   0  -6   2   91.92    8.89
   0  -6   2   93.53    9.25
   0  -5   0   -1.22    1.35
   0  -5   0    0.55    1.76
   0  -5   0    1.34    2.07
   0  -5   0    2.43    2.45
   0  -5   0   -0.56    2.04
   0  -5   0   -1.41    1.50
   0  -5   0   -0.30    1.49
   0  -5   1   45.66    6.29
   0  -5  -1   40.21    6.90
   0  -5   1   41.82    6.33
   0  -5   1   35.81    4.97
   0  -5  -1   46.38    5.92
   0  -5   1   41.53    4.80
   0  -5   1   44.93    5.50
   0  -5  -1   39.04    5.72
   0  -5  -1   37.15    4.88
   0  -5   1   38.68    5.95
   0  -5  -1   37.18    6.54
   0  -5  -2  106.06   10.94
   0  -5   2  112.70    7.99
   0  -5   2  102.13    8.54
   0  -5   2  107.55    9.92
   0  -5   2  106.17    8.39
   0  -5   2  100.90    9.47
   0  -5  -2  100.18    8.46
   0  -5  -2  106.66   10.83
   0  -5   3    9.40    2.60
   0  -5   3    9.54    3.16
   0  -5   3    9.53    3.42
   0  -5   3    7.01    1.85
   0  -4   0  237.92    7.57
   0  -4   0  234.79   10.69
   0  -4   0  198.44   10.90
   0  -4   0  228.09   11.15
   0  -4   0  216.29   10.28
   0  -4   0  239.08   10.15
   0  -4  -1   86.27    4.00
   0  -4   1   88.15    7.23
   0  -4  -1   72.34    7.01
   0  -4  -1   95.59    7.10
   0  -4  -1   90.93    6.83
   0  -4   1   78.47    6.30
   0  -4  -1   84.07    6.64
   0  -4  -1   87.82    8.29
   0  -4   1   91.77    7.20
   0  -4   1   82.21    7.20
   0  -4   1   81.25    5.85
   0  -4  -1   94.87    6.93
   0  -4   1   84.42    7.22
   0  -4   2   31.13    4.10
   0  -4   2   29.26    3.53
   0  -4  -2   29.40    4.19
   0  -4  -2   29.37    5.05
   0  -4   2   31.70    4.66
   0  -4  -2   31.46    5.11
   0  -4  -2   32.05    2.83
   0  -4   2   33.24    4.54
   0  -4   3   89.19    7.95
   0  -4   3   91.44    6.70
   0  -4   3   89.82    7.89
   0  -3   0   -0.12    0.74
   0  -3   0   -0.15    1.00
   0  -3   0    0.57    0.63
   0  -3   0    0.24    0.41
   0  -3  -1  224.36    9.10
   0  -3   1  214.70    8.03
   0  -3  -1  242.48    6.43
   0  -3  -1  244.11    9.49
   0  -3  -1  208.14    8.95
   0  -3   1  205.25    8.51
   0  -3  -1  244.64    9.65
   0  -3  -1  225.35   11.12
   0  -3   1  230.55    9.51
   0  -3  -1  261.91    9.35
   0  -3   2  621.62   14.63
   0  -3   2  660.89   15.58
   0  -3  -2  658.33   12.82
   0  -2  -1  510.10    8.69
   0  -2  -1  486.78   11.01
   0  -2   1  465.20   11.01
   0  -2  -1  489.37   11.12
   0  -2  -1  482.92   13.23
   0  -2   2 1176.82   17.95
   0  -2  -2 1166.88   13.86
   0  -1   0   -0.22    0.17
   0  -1   0    0.06    0.23
   0  -1   0    0.46    0.36
   0  -1   0    0.32    0.30
   0   1   0    0.25    0.23
   0   1   0    0.26    0.34
   0   1   0    0.79    0.43
   0   1   0    0.53    0.36
   0   1   0   -0.16    0.20
   0   1   0    0.07    0.22
   0   1   0   -0.06    0.24
   0   1   0    0.14    0.26
   0   2   0 2758.68   31.23
   0   2   0 2757.55   29.16
   0   2   1  453.78   10.93
   0   2  -1  468.42   10.66
   0   2   1  467.66   11.51
   0   2  -1  445.71   12.50
   0   2  -1  503.68   12.71
   0   2   1  476.44   13.12
   0   2   1  480.94   12.51
   0   2  -1  469.31   11.46
   0   2   1  429.91   10.13
   0   2  -1  487.15   14.54
   0   2  -1  437.01   11.87
   0   2   1  450.94   10.76
   0   2  -1  466.60   13.86
   0   2   1  468.17   11.22
   0   2  -1  491.28   11.28
   0   2   1  466.17   14.57
   0   2   1  494.35   14.56
   0   2   2 1113.62   18.86
   0   2  -2 1064.53   23.56
   0   2   2 1093.92   24.39
   0   2   2 1107.51   18.52
   0   2  -2 1133.39   23.41
   0   2   2 1161.66   18.99
   0   2  -2 1149.27   19.32
   0   3   0    0.34    1.07
   0   3   0   -0.10    0.80
   0   3   0   -0.34    1.02
   0   3   0   -0.46    0.79
   0   3   0   -0.55    0.84
   0   3  -1  234.95   11.13
   0   3   1  227.91    9.15
   0   3  -1  205.09   10.13
   0   3  -1  206.09    8.51
   0   3  -1  217.07    9.74
   0   3   1  228.62   10.55
   0   3   1  213.88    9.16
   0   3   1  213.66    9.30
   0   3  -1  231.59   12.03
   0   3  -1  241.93    9.47
   0   3   1  217.25   10.84
   0   3  -1  219.30    4.97
   0   3   1  216.18    8.57
   0   3   1  235.66    9.92
   0   3   1  221.55   12.07
   0   3   2  619.65   16.18
   0   3   2  604.22   21.15
   0   3   2  622.11   16.15
   0   3  -2  683.43   19.02
   0   3   2  617.51   18.11
   0   3  -2  631.71   20.46
   0   3   2  649.72   17.47
   0   3   2  591.48   15.09
   0   3  -2  612.33   15.51
   0   4   0  238.46   17.62
   0   4   0  184.63   12.33
   0   4   0  227.75   11.51
   0   4   0  229.44   11.75
   0   4   0  217.54   12.20
   0   4   0  206.88   13.43
   0   4   0  204.31   10.60
   0   4   0  185.48   11.52
   0   4   0  214.75   11.80
   0   4   0  222.25   10.44
   0   4   1   81.76    6.92
   0   4   1   90.28    7.84
   0   4  -1   76.39   10.00
   0   4   1   81.92    6.75
   0   4  -1   76.96    6.12
   0   4   1   87.32    6.83
   0   4  -1   76.87    8.08
   0   4  -1   88.17    7.33
   0   4  -1   72.04    6.82
   0   4  -1   83.26    7.92
   0   4  -1   83.89    7.74
   0   4   1   79.08    8.34
   0   4   1   84.47    7.69
   0   4   1   90.67    7.15
   0   4  -1   88.87    7.19
   0   4   1  100.33   12.17
   0   4  -1   85.91    8.75
   0   4   1   82.49    6.83
   0   4  -1   94.31    7.90
   0   4   1   88.15    8.81
   0   4   2   33.03    4.44
   0   4  -2   22.14    5.91
   0   4   2   29.94    4.70
   0   4   2   31.80    6.98
   0   4   2   29.71    4.72
   0   4   2   31.34    4.34
   0   4   2   30.68    4.33
   0   4  -2   30.86    4.05
   0   4   2    5.15    1.12
   0   4  -2   22.74    4.56
   0   4   2   28.37    5.52
   0   4  -2   31.07    5.56
   0   4  -2   22.57    4.08
   0   4  -2   27.46    4.32
   0   4   2   31.65    4.56
   0   4  -2   25.63    4.32
   0   4  -2   28.28    2.23
   0   4   2   35.02    5.71
   0   4  -3   54.46    7.28
   0   4  -3   59.65    9.61
   0   4  -3   88.48    8.08
   0   4  -3   79.92    6.81
   0   5   0   -0.29    1.53
   0   5   0   -0.63    1.90
   0   5   0   -0.37    1.35
   0   5   0   -2.00    2.66
   0   5   0    3.97    2.94
   0   5   0   -4.18    3.78
   0   5   0    1.70    3.02
   0   5   0   -0.43    1.94
   0   5   0    0.02    1.38
   0   5   0   -0.93    1.62
   0   5   0    0.54    1.62
   0   5   0    2.00    1.62
   0   5   1   39.03    8.65
   0   5   1   40.09    5.81
   0   5  -1   29.86    6.02
   0   5  -1   34.02    5.88
   0   5   1   52.44    8.10
   0   5   1   40.65    5.46
   0   5  -1   46.58    6.15
   0   5   1   37.77    5.19
   0   5   1   43.43    5.13
   0   5  -1   39.75    7.11
   0   5   1   37.53    5.39
   0   5  -1   32.98    7.84
   0   5  -1   34.25    5.32
   0   5  -1   39.39    5.11
   0   5   1   30.74    5.95
   0   5   1   43.41    5.92
   0   5  -1   28.78    5.59
   0   5   1   42.68    5.41
   0   5  -1   37.62    5.49
   0   5   1   39.24    5.96
   0   5  -2  109.19    9.64
   0   5   2   95.88    9.55
   0   5   2   95.23    8.44
   0   5   2  116.83    9.58
   0   5  -2  105.81   11.31
   0   5  -2   81.20   12.83
   0   5  -2  102.53    9.35
   0   5  -2   57.50    7.85
   0   5   2  104.83    9.04
   0   5  -2   97.77    8.01
   0   5   2   87.48   13.03
   0   5   2  104.24    8.67
   0   5   2   97.12    9.58
   0   5   2   91.87   11.06
   0   5  -2   67.68    8.13
   0   5  -3    0.73    2.35
   0   5  -3    1.97    3.70
   0   5  -3   11.97    3.64
   0   5  -3   10.71    3.69
   0   5  -3    5.50    2.29
   0   6   0   30.88    5.69
   0   6   0   38.59    6.65
   0   6   0   15.07    4.78
   0   6   0   34.41    6.76
   0   6   0   36.93    5.80
   0   6   0   33.82    7.52
   0   6   0   37.37    6.34
   0   6   0   27.73    5.24
   0   6   0   22.66    9.21
   0   6   1   48.03   10.96
   0   6   1   70.88    7.96
   0   6  -1   40.27    8.14
   0   6  -1   69.99    9.00
   0   6   1   68.46    8.19
   0   6   1   80.06    9.73
   0   6  -1   40.29    7.41
   0   6  -1   72.61    7.75
   0   6   1   78.76   11.44
   0   6   1   51.50    9.14
   0   6  -1   76.32    8.61
   0   6   1   83.33    8.98
   0   6  -1   39.60    9.64
   0   6  -1   69.07    8.33
   0   6  -1   73.82   11.31
   0   6   1   74.33    9.62
   0   6   2   88.58    9.26
   0   6  -2   38.03    7.28
   0   6  -2   35.25    7.64
   0   6  -2   72.49    8.68
   0   6   2   80.87    8.90
   0   6   2   71.82   13.67
   0   6   2   79.90    9.91
   0   6  -2   67.58    8.77
   0   6  -2   46.20   11.10
   0   6   2   80.66   11.52
   0   6  -2   84.43   11.59
   0   6  -2   77.55    8.12
   0   7   0    2.98    4.53
   0   7   0    0.07    3.65
   0   7   0    1.23    4.42
   0   7   0    0.55    2.29
   0   7   0   -0.27    2.39
   0   7   0   -7.32    4.77
   0   7  -1   -0.69    3.08
   0   7   1    4.45    3.63
   0   7  -1    2.88    3.71
   0   7   1   17.87    8.26
   0   7   1    5.12    3.99
   0   7   1    3.28    2.59
   0   7  -1   -0.91    5.64
   0   7   1    7.12    6.68
   0   7  -1    5.35    3.27
   0   7  -1    0.85    3.65
   0   7  -1   -1.04    3.38
   0   7  -2   12.42    4.34
   0   7  -2   15.79    5.40
   0   7  -2    9.69    3.35
   0   7   2    8.94    4.50
   0   7  -2   -1.49    4.40
   1  -7  -2   -2.41    4.54
   1  -7  -2    3.69    3.48
  -1  -7   2   11.40    4.76
  -1  -7   2    4.88    3.15
  -1  -7   2    8.42    4.57
   1  -7  -1   -1.75    3.47
  -1  -7   1    6.87    4.74
   1  -7  -1    6.79    4.45
  -1  -7   1    3.52    2.34
   1  -7  -1    3.28    3.50
  -1  -7   1    7.80    4.91
   1  -7  -1    0.29    2.60
  -1  -7   1   -2.20    4.04
  -1  -7   1   -1.09    3.29
   1  -7   0    7.43    4.61
   1  -7   0   -0.18    2.91
  -1  -7   0    7.41    4.58
  -1  -7   0   -0.94    3.85
   1  -7   0    8.87    4.44
  -1  -7   0    3.11    4.51
  -1  -7   0    7.78    3.65
  -1  -7   0    4.38    3.86
   1  -7   0    5.14    4.35
   1  -7   0    1.41    2.56
  -1  -7  -1    7.00    4.31
  -1  -7  -1    5.08    3.90
   1  -7   1    3.64    2.70
   1  -7   1    3.25    2.82
  -1  -6   3   48.56    7.99
  -1  -6   3   56.89    6.57
  -1  -6   3   51.75    7.92
  -1  -6   2   71.90    8.18
  -1  -6   2   82.49    8.06
   1  -6  -2   62.33    8.14
  -1  -6   2   72.95    9.05
  -1  -6   2   72.93    9.08
  -1  -6   1   11.35    3.89
  -1  -6   1   15.54    3.99
  -1  -6   0   -3.21    3.16
  -1  -6   0   -0.48    2.05
   1  -6   0    2.57    2.96
   1  -6   0    6.38    3.53
   1  -6   0   -1.93    2.17
  -1  -6   0   -0.39    2.12
   1  -6   0    0.36    2.36
  -1  -6   0   -0.35    2.66
   1  -6   0   -5.94    4.38
   1  -6   0   -1.87    2.54
  -1  -6   0   -0.08    2.34
   1  -6   0   -1.74    2.84
  -1  -6   0    0.89    3.14
   1  -6   0   -3.08    3.44
   1  -6   1   14.14    4.82
  -1  -6  -1   15.96    5.72
   1  -6   1   17.82    4.69
   1  -6   1   11.68    3.53
  -1  -6  -1   10.66    4.38
  -1  -6  -1   13.95    3.34
   1  -6   1   18.15    4.32
   1  -6   1   12.20    3.83
   1  -6   1   16.11    4.16
   1  -6   2   28.85    5.44
  -1  -5   3   81.19    6.69
  -1  -5   3   92.05    9.20
   1  -5  -3   92.67    6.79
  -1  -5   3   99.61    9.71
  -1  -5   3  100.07    7.65
   1  -5  -2  267.26   15.04
   1  -5  -2  281.33   11.08
  -1  -5   2  280.98   12.05
  -1  -5   2  260.43   15.22
  -1  -5   2  292.50   13.22
   1  -5  -2  289.38   15.23
  -1  -5   2  262.41   15.29
   1  -5  -1  184.78   12.05
   1  -5  -1  163.12   12.16
   1  -5  -1  171.49   12.08
  -1  -5   1  187.50   11.15
  -1  -5   1  205.72   10.61
  -1  -5   1  161.40   11.95
  -1  -5   1  182.78    9.86
   1  -5  -1  188.98   13.19
   1  -5  -1  194.58   11.90
  -1  -5   1  170.70   12.26
  -1  -5   1  189.08   12.51
  -1  -5   1  182.26   11.02
   1  -5  -1  192.11   13.17
   1  -5   0  209.71   12.26
   1  -5   0  220.46   13.58
   1  -5   0  199.66   12.93
   1  -5   0  180.83   12.19
  -1  -5   0  234.24   13.95
  -1  -5   0  216.06   11.48
   1  -5   0  215.45   12.79
  -1  -5   0  224.54   11.01
   1  -5   0  237.12   14.77
  -1  -5   0  177.67   11.53
   1  -5   0  210.28   13.11
  -1  -5   0  230.32   16.18
   1  -5   1    5.34    2.33
   1  -5   1    5.86    2.61
   1  -5   1    4.08    2.13
   1  -5   1    6.21    2.82
  -1  -5  -1    4.47    2.63
  -1  -5  -1    6.78    3.62
  -1  -5  -1    6.18    2.46
   1  -5   1    3.22    2.13
   1  -5   2    4.24    2.45
  -1  -5  -2    9.34    4.57
   1  -5   2    6.67    2.79
  -1  -5  -2    9.28    2.78
   1  -5   2    4.13    1.85
  -1  -5  -2    5.28    2.77
   1  -5   2    7.12    2.97
  -1  -4   3   64.33    5.15
  -1  -4   3   63.00    6.67
   1  -4  -3   61.36    5.41
  -1  -4   3   61.50    4.25
  -1  -4   3   70.07    7.11
   1  -4  -2   78.11    7.05
   1  -4  -2   73.52    6.89
  -1  -4   2   72.65    6.90
  -1  -4   2   66.97    4.98
  -1  -4   2   80.15    7.28
  -1  -4   2   79.65    6.03
   1  -4  -2   77.53    5.51
  -1  -4   2   75.15    4.47
   1  -4  -2   74.26    6.71
   1  -4  -1  566.22   14.37
  -1  -4   1  551.65   14.37
  -1  -4   1  534.84   16.47
  -1  -4   1  603.72   17.62
   1  -4  -1  587.13   18.42
   1  -4  -1  571.80   18.56
   1  -4  -1  592.03   19.64
  -1  -4   1  536.31   16.85
   1  -4  -1  505.71   18.99
   1  -4  -1  501.29   18.19
  -1  -4   1  554.55   16.16
   1  -4   0    3.11    2.03
  -1  -4   0    2.71    1.30
  -1  -4   0    1.95    1.28
   1  -4   0    2.03    1.61
   1  -4   0    0.42    0.91
  -1  -4   0   -0.70    1.29
   1  -4   0   -0.28    1.34
  -1  -4   0    0.17    1.47
  -1  -4   0   -0.57    1.22
   1  -4   0    1.23    1.89
   1  -4   1   22.26    3.96
   1  -4   1   20.62    3.63
  -1  -4  -1   23.65    3.40
  -1  -4  -1   21.76    4.35
   1  -4   1   19.31    3.63
   1  -4   1   20.77    3.71
  -1  -4  -1   16.19    3.62
   1  -4   1   22.64    3.99
  -1  -4  -1   21.97    3.90
   1  -4   2   10.18    2.68
  -1  -4  -2    8.69    3.48
   1  -4   2   10.43    2.67
  -1  -4  -2   11.12    2.59
  -1  -4  -2   10.99    3.55
   1  -4   2    7.53    2.48
  -1  -3   3  227.33    7.88
  -1  -3   3  233.74    7.59
   1  -3  -3  227.53    6.14
  -1  -3   3  227.65   11.23
   1  -3  -3  214.45    9.80
  -1  -3   3  229.20   11.06
  -1  -3   2  110.29    7.54
  -1  -3   2  113.58    7.56
  -1  -3   2  115.74    5.88
   1  -3  -2  122.77    7.74
   1  -3  -2  123.59    6.75
   1  -3  -2  125.14    7.85
   1  -3  -2  100.61    7.19
   1  -3  -2  118.76    6.55
  -1  -3   1  503.44   13.45
  -1  -3   1  492.50   10.84
  -1  -3   1  555.57    9.74
   1  -3  -1  495.27   14.99
  -1  -3   1  576.18   15.33
   1  -3  -1  520.28   15.21
   1  -3  -1  494.78   15.05
   1  -3  -1  475.67   15.37
   1  -3   0   55.12    4.95
  -1  -3   0   63.43    4.89
   1  -3   0   54.11    5.24
  -1  -3   0   60.12    4.29
  -1  -3   0   59.78    4.01
   1  -3   0   53.95    4.12
   1  -3   0   61.89    5.26
  -1  -3   0   59.91    4.79
   1  -3   0   51.42    5.22
  -1  -3  -1  417.80    7.76
   1  -3   1  440.44   14.58
  -1  -3  -1  440.99   15.18
   1  -3   1  388.26   13.50
  -1  -3  -1  440.30   17.12
  -1  -3  -1  420.96   10.86
  -1  -3  -1  469.01   13.44
  -1  -3  -2  111.64    9.10
  -1  -3  -2   99.14    8.53
  -1  -3  -2  100.35    5.39
   1  -3   2  122.27    7.94
  -1  -2   2  382.30   11.55
  -1  -2   2  380.05   11.57
   1  -2  -2  386.63   11.78
   1  -2  -2  412.64   12.35
   1  -2  -2  406.21    8.13
   1  -2  -2  383.62   10.82
  -1  -2   2  390.10    7.91
   1  -2  -2  372.65   11.06
  -1  -2   2  409.32   12.31
   1  -2  -1  110.93    6.02
   1  -2  -1  111.25    6.17
   1  -2  -1  118.45    5.72
  -1  -2   1  136.59    6.60
   1  -2  -1  123.09    3.94
  -1  -2   1  119.96    3.76
   1  -2  -1  126.49    6.44
   1  -2  -1  123.12    6.15
   1  -2   0  654.60   13.37
  -1  -2   0  630.95   13.94
  -1  -2   0  675.41   10.22
  -1  -2   0  694.30   11.52
   1  -2   0  619.39   14.83
   1  -2   0  658.59   14.70
   1  -2   1 1949.78   25.33
  -1  -2  -1 1965.04   25.95
  -1  -2  -1 1878.26   28.37
   1  -2   1 1944.55   25.10
   1  -2   1 1957.31   27.69
   1  -2   1 1919.37   27.34
   1  -1  -2  620.19   12.99
   1  -1  -2  590.01   11.19
   1  -1  -2  574.33   12.51
   1  -1  -2  549.70   12.46
   1  -1  -2  588.66   12.47
   1  -1  -1 2426.96   25.25
  -1   1   2  605.12   12.63
  -1   2   2  398.59   11.87
  -1   2   2  376.11   11.62
   1   2  -2  366.55   13.40
  -1   2   2  381.61   12.96
  -1   2   2  378.59   12.08
   1   2  -2  363.66   13.56
  -1   2   2  383.88   11.83
   1   2  -2  369.96   10.31
  -1   2   2  391.34    9.19
   1   2  -2  382.49   11.19
   1   2  -2  378.63   13.24
   1   2  -2  386.64    8.08
  -1   2   2  380.79   16.46
  -1   2   2  384.21   11.77
   1   2  -1  125.63    7.64
  -1   2   1  114.00    6.19
   1   2  -1   98.84    6.75
  -1   2   1  129.15    5.30
   1   2  -1  119.35    7.28
  -1   2   1  118.22    6.28
   1   2  -1  114.82    7.21
  -1   2   1  113.78    6.01
  -1   2   1  121.22    5.88
  -1   2   1  113.88    6.10
   1   2  -1  122.51    3.81
  -1   2   1  120.97    6.72
  -1   2   1  140.69    8.95
   1   2  -1  132.80    5.46
  -1   2   1  123.81    4.50
  -1   2   1  115.45    6.28
   1   2  -1  158.03    9.82
   1   2  -1  137.06    5.43
   1   2  -1  114.34    5.06
   1   2  -1  121.38    6.02
   1   2   0  654.42   17.60
  -1   2   0  595.84   14.16
   1   2   0  633.07   16.91
  -1   2   0  621.81   13.75
   1   2   0  606.62   14.01
  -1   2   0  624.20   14.39
   1   2   0  716.52    9.13
  -1   2   0  666.30   15.92
  -1   2   0  674.24   19.03
   1   2   0  554.28   15.72
  -1   2   0  620.62   11.83
  -1   2   0  644.49   13.57
   1   2   0  646.54   17.26
   1   2   0  597.57   10.96
   1   2   0  664.07   12.08
   1   2   0  600.52   10.54
  -1   2   0  624.89   10.69
  -1   2  -1 1932.30   29.29
   1   2   1 1840.76   31.91
   1   2   1 1894.42   30.81
   1   2   1 1993.68   33.19
  -1   2  -1 1982.73   26.10
  -1   2  -1 2004.90   36.84
  -1   2  -1 1880.50   27.27
  -1   2  -1 1927.70   26.65
   1   2   1 1876.97   26.76
  -1   2  -1 1824.09   25.96
  -1   2  -1 1998.66   29.52
   1   2   1 1906.84   31.19
  -1   3   3  243.23   11.52
  -1   3   3  207.78   12.38
  -1   3   3  228.71   11.06
  -1   3   3  221.96   11.01
   1   3  -3  223.70   12.83
   1   3  -3  204.95    8.11
  -1   3   3  218.41   11.29
   1   3  -3  237.48   11.19
  -1   3   3  201.63   10.40
   1   3  -3  212.64   12.34
   1   3  -3  237.23   14.25
   1   3  -3  253.15   16.83
  -1   3   3  216.42    9.59
  -1   3   2  116.35    7.46
  -1   3   2  122.24    7.60
  -1   3   2  112.90    5.16
   1   3  -2  106.84    8.32
   1   3  -2  116.05    8.82
   1   3  -2  105.53    8.60
  -1   3   2  113.96    7.77
  -1   3   2  111.00    8.45
  -1   3   2  113.96    6.26
  -1   3   2  101.72    7.16
   1   3  -1  515.93   17.97
  -1   3   1  479.12   15.20
  -1   3   1  505.26   12.97
   1   3  -1  628.36   24.58
   1   3  -1  565.01   20.59
  -1   3   1  515.84   15.76
  -1   3   1  489.52   17.18
   1   3  -1  482.32   10.91
   1   3  -1  521.42   18.73
  -1   3   1  491.10   15.17
  -1   3   1  438.61   15.17
  -1   3   1  476.00   10.45
  -1   3   1  534.00   16.32
   1   3  -1  514.15   18.04
   1   3  -1  498.05   13.34
   1   3  -1  523.50   13.72
   1   3  -1  482.09   11.11
   1   3   0   51.37    6.18
   1   3   0   59.76    6.17
  -1   3   0   48.83    4.30
   1   3   0   62.17    4.09
   1   3   0   63.95    6.05
   1   3   0   59.54    4.35
   1   3   0   75.33    8.76
   1   3   0   60.68    3.67
  -1   3   0   53.53    5.03
   1   3   0   58.79    4.43
  -1   3   0   64.92    5.81
   1   3   0   64.16    6.74
   1   3   1  437.08   17.74
  -1   3  -1  428.00   14.30
   1   3   1  494.40   19.46
  -1   3  -1  410.29   13.95
  -1   3  -1  438.25   16.56
  -1   3  -1  468.39   15.81
   1   3   1  450.95   12.01
   1   3   1  292.64   12.14
   1   3   1  425.25   16.62
  -1   3  -1  352.54   13.70
  -1   3  -1  450.64   10.85
   1   3   1  444.99   16.36
   1   3   1  417.34   11.91
   1   3   1  413.05    9.59
   1   3   1  459.41   12.20
   1   3   1  530.58   24.53
  -1   3  -2  117.73    7.99
   1   3   2   97.80    5.08
   1   3   2  120.72    8.97
   1   3   2  114.13    8.99
  -1   3  -2  108.69    7.64
   1   3   2  117.25    8.25
  -1   3  -2   81.78    7.21
   1   3   2  111.87    9.64
   1   3   2  103.53    9.14
   1   3   2  119.25   12.17
  -1   3  -2  117.64    8.09
  -1   4   3   63.55    5.14
   1   4  -3   71.40   10.27
  -1   4   3   60.61    6.38
   1   4  -3   64.53    7.79
   1   4  -3   63.49    7.85
  -1   4   3   66.03    6.64
   1   4  -3   61.53    4.77
  -1   4   3   65.97    6.18
   1   4  -3   66.89    6.47
   1   4  -3   58.39    6.40
  -1   4   3   65.72    7.10
  -1   4   3   51.51    7.00
   1   4  -3   56.21    7.75
  -1   4   3   59.78    6.45
   1   4  -3   58.13    4.91
   1   4  -2   74.30    6.97
   1   4  -2   73.70    8.02
  -1   4   2   75.90   10.53
   1   4  -2   74.14    8.66
   1   4  -2   78.18    6.49
  -1   4   2   76.63    7.47
  -1   4   2   83.40    7.19
   1   4  -2   70.09    7.99
  -1   4   2   74.42    6.36
   1   4  -2   79.63    8.21
  -1   4   2   70.09    6.76
   1   4  -2   83.01    8.79
  -1   4   2   67.57    7.88
   1   4  -2   73.70    4.63
   1   4  -2   64.53    4.87
   1   4  -2   75.40   10.27
  -1   4   2   71.74    7.07
  -1   4   2   78.05    5.43
  -1   4   2   67.84    6.51
  -1   4   2   73.39    7.02
  -1   4   1  571.00   18.69
   1   4  -1  551.47   23.31
   1   4  -1  554.16   22.87
   1   4  -1  553.98   17.01
  -1   4   1  504.27   25.51
  -1   4   1  554.33   21.95
   1   4  -1  555.94   16.73
   1   4  -1  562.84   21.73
  -1   4   1  549.09   18.69
  -1   4   1  515.76   18.52
  -1   4   1  531.34   17.86
   1   4  -1  488.67   20.49
  -1   4   1  540.53   18.72
  -1   4   1  570.59   19.27
   1   4  -1  572.24   21.47
   1   4  -1  536.88   11.45
  -1   4   1  526.87   16.97
   1   4  -1  534.88   14.06
  -1   4   0    2.65    1.87
   1   4   0    0.41    1.28
  -1   4   0   -1.24    1.87
  -1   4   0    1.43    1.69
   1   4   0    0.30    0.94
   1   4   0    0.86    1.77
  -1   4   0    2.82    1.81
  -1   4   0   -2.03    1.75
  -1   4   0    3.48    2.08
   1   4   0    4.37    2.50
   1   4   0    3.52    2.40
   1   4   0    0.23    1.99
   1   4   0    2.30    1.36
   1   4   0   -1.45    1.96
   1   4   0    2.93    1.69
   1   4   0   -0.80    1.95
  -1   4  -1   14.19    2.97
  -1   4  -1   15.89    5.26
   1   4   1   21.80    3.28
  -1   4  -1   21.75    2.28
   1   4   1   21.42    4.11
   1   4   1   20.14    4.64
  -1   4  -1    9.72    2.25
   1   4   1   19.06    4.93
  -1   4  -1   18.33    3.87
  -1   4  -1   19.10    3.59
   1   4   1   21.07    3.23
  -1   4  -1   21.21    4.41
  -1   4  -1   19.20    3.49
   1   4   1   23.45    6.76
  -1   4  -1   23.61    3.99
   1   4   1   26.10    3.85
  -1   4  -1   20.52    3.72
   1   4   1   18.49    3.98
   1   4   1   20.92    4.21
  -1   4  -2    9.44    3.62
  -1   4  -2   10.28    2.63
   1   4   2   12.01    3.33
  -1   4  -2   12.77    4.94
   1   4   2   19.30    3.56
   1   4   2   10.19    2.58
  -1   4  -2    8.03    3.16
   1   4   2   12.53    4.94
   1   4   2    9.94    3.13
   1   4   2   13.05    4.07
   1   4   2   11.07    3.05
  -1   4  -2   12.45    2.93
   1   4   2   14.32    2.90
  -1   4  -2   11.14    1.85
   1   4   2   13.82    3.95
  -1   4  -2   10.90    2.96
  -1   5   3   92.47   11.02
   1   5  -3   76.93   12.53
   1   5  -3   62.18    8.68
  -1   5   3   91.43    8.86
   1   5  -3   85.29    8.96
   1   5  -3   62.46    9.21
   1   5  -3   95.67   11.01
  -1   5   3   84.68    8.14
   1   5  -3   80.16    6.56
  -1   5   3   81.15    9.10
   1   5  -3   79.90    7.94
  -1   5   3   82.88    8.90
  -1   5   3   92.47    9.09
  -1   5   2  284.95   14.80
   1   5  -2  278.93   17.46
  -1   5   2  245.56   21.93
  -1   5   2  273.86   14.32
  -1   5   2  301.34   15.45
  -1   5   2  289.91   15.74
   1   5  -2  266.68   18.05
   1   5  -2  292.06   15.83
  -1   5   2  277.35   18.27
  -1   5   2  295.83   15.70
  -1   5   2  288.69   16.12
   1   5  -2  273.75   17.70
   1   5  -2  260.90   11.68
  -1   5   2  278.47   15.64
   1   5  -1  146.89   13.10
   1   5  -1  180.91   13.75
   1   5  -1  177.08    9.51
   1   5  -1  192.91   18.64
   1   5  -1  169.67   13.84
   1   5  -1  170.00   12.17
   1   5  -1  172.54   14.49
  -1   5   1  142.51   16.93
  -1   5   1  176.82   11.16
   1   5  -1  170.20   10.56
   1   5  -1  149.28   13.83
  -1   5   1  180.32   12.51
  -1   5   1  175.33   11.63
  -1   5   1  168.16   11.32
  -1   5   1  180.17   12.52
  -1   5   1  165.09   13.97
  -1   5   1  177.24   12.34
  -1   5   1  108.97   10.80
   1   5  -1  189.96   11.65
  -1   5   1  174.59   12.14
  -1   5   0  223.21   13.14
  -1   5   0  225.44   13.74
   1   5   0  178.78   14.23
   1   5   0  232.80   17.07
  -1   5   0  231.91   16.61
  -1   5   0  236.34   13.26
  -1   5   0  228.44   13.78
   1   5   0  222.51   12.04
  -1   5   0  118.21   10.03
  -1   5   0  149.75   16.64
   1   5   0  200.94   16.21
  -1   5   0  224.42   13.91
   1   5   0  224.74   12.30
   1   5   0  208.47   13.54
  -1   5   0  220.34   13.88
   1   5   0  227.99   15.38
   1   5   0  243.64   21.92
  -1   5   0  131.30   11.66
   1   5   0  211.50   15.07
   1   5   0  203.63   11.31
   1   5   1    3.34    2.32
   1   5   1    8.33    2.50
  -1   5  -1    5.97    3.19
  -1   5  -1   10.28    3.50
  -1   5  -1    2.61    1.63
   1   5   1    3.49    2.88
   1   5   1    3.27    2.12
  -1   5  -1    3.63    2.46
  -1   5  -1    4.20    2.93
   1   5   1    8.81    4.05
   1   5   1    9.27    4.34
   1   5   1    6.44    3.41
  -1   5  -1    2.84    2.39
   1   5   1   -0.87    4.31
   1   5   1    8.61    2.82
  -1   5  -1    2.20    2.27
  -1   5  -1    2.83    2.94
  -1   5  -2    6.06    5.48
  -1   5  -2    6.57    2.81
   1   5   2   15.39    6.34
   1   5   2    5.37    3.03
  -1   5  -2    5.68    2.83
   1   5   2    9.90    4.67
  -1   5  -2    4.60    2.66
  -1   5  -2    7.55    3.27
  -1   5  -2    4.67    2.96
   1   5   2    5.81    2.20
   1   5   2    7.10    3.28
   1   6  -3   41.66   11.15
  -1   6   3   49.85    7.48
   1   6  -3   43.14    6.47
   1   6  -3   21.18    5.88
   1   6  -3   14.64    5.02
   1   6  -3   53.34    8.01
  -1   6   3   38.80    7.77
  -1   6   3   47.58    7.32
  -1   6   3   53.28    8.39
   1   6  -2   52.57   11.76
   1   6  -2   41.27    8.09
   1   6  -2   50.19    9.45
   1   6  -2   80.72   11.02
  -1   6   2   74.92    8.91
   1   6  -2   79.20    9.56
  -1   6   2   36.04    9.85
   1   6  -2   55.65    7.08
  -1   6   2   75.83   11.23
   1   6  -2   76.06   11.33
  -1   6   2   76.50    9.28
  -1   6   2   67.98    8.35
  -1   6   2   57.47    8.23
  -1   6   1    8.12    6.02
  -1   6   1    2.57    2.42
   1   6  -1   11.66    4.46
   1   6  -1   10.24    3.97
  -1   6   1   22.06    4.88
   1   6  -1    6.89    3.46
   1   6   0   -0.32    2.62
   1   6   0   -2.08    1.90
   1   6   0   -2.18    5.48
   1   6   0   -2.01    2.57
  -1   6   0   -6.41    4.18
  -1   6   0   -0.61    4.21
  -1   6   0   -1.37    2.54
  -1   6   0    3.97    2.91
   1   6   0   -0.69    2.43
  -1   6   0    1.17    2.33
  -1   6   0   -1.23    2.57
  -1   6   0    0.61    3.77
   1   6   0    1.05    3.40
   1   6   0   -2.78    2.28
  -1   6   0   -4.05    3.70
   1   6   0    1.26    3.14
   1   6   1   26.78    6.27
   1   6   1   16.71    3.94
  -1   6  -1   19.70    5.26
  -1   6  -1    5.84    3.46
   1   6   1   20.16    4.28
  -1   6  -1   11.19    4.28
  -1   6  -1    7.11    3.49
   1   6   1   23.28    7.21
   1   6   1   19.49    8.63
   1   6   1   16.13    4.89
   1   6   1   21.51    5.67
  -1   6  -1   11.22    3.62
  -1   6  -1   15.90    4.58
   1   6   1   30.35    8.16
  -1   6  -1   14.05    4.41
  -1   6  -1   18.21    4.71
   1   6   2   26.27    5.89
  -1   6  -2   21.04    5.12
   1   6   2   26.08    7.70
  -1   6  -2   24.47    5.00
  -1   6  -2    7.24    3.93
  -1   7   2   11.73    4.61
  -1   7   2   13.73    4.88
   1   7  -2    6.34    2.64
   1   7  -2    6.92    3.76
  -1   7   2    9.51    4.01
   1   7  -2    7.22    5.01
   1   7  -2   11.76    5.33
   1   7  -2    8.24    6.70
   1   7  -2   16.09    6.06
   1   7  -2   13.23    4.91
  -1   7   2    8.43    5.12
   1   7  -1    5.69    3.36
  -1   7   1    3.95    4.21
  -1   7   1    7.55    3.99
   1   7  -1    4.40    3.08
   1   7  -1    2.26    4.29
   1   7  -1   10.67    5.71
   1   7  -1   -0.17    4.43
  -1   7   1    5.25    5.00
   1   7  -1   -1.16    3.11
   1   7  -1   14.06    7.56
  -1   7   1    3.64    6.66
  -1   7   1    5.47    4.35
  -1   7   0    4.26    3.51
   1   7   0   -7.33    3.93
  -1   7   0    2.56    2.58
  -1   7   0    1.32    4.98
   1   7   0    3.26    3.74
   1   7   0    1.48    2.05
  -1   7   0    1.57    3.46
  -1   7   0   -2.65    3.73
   1   7   0   -3.04    5.47
  -1   7   0   -0.97    3.93
   1   7   0   -3.07    4.37
   1   7   0    2.09    2.58
  -1   7   0   -1.47    3.63
  -1   7  -1   14.40    8.47
  -1   7  -1    5.74    3.38
   1   7   1    2.67    4.57
  -1   7  -1    7.87    3.90
  -1   7  -1    8.83    4.24
   1   7   1    3.84    4.88
   1   7   1    7.95    4.40
  -2  -7   3    4.18    4.83
  -2  -7   2    5.25    3.52
  -2  -7   2   -7.19    4.61
   2  -7  -2   -1.39    3.63
   2  -7  -2   -6.30    4.52
  -2  -7   2    1.07    3.27
   2  -7  -1    6.86    3.64
  -2  -7   1   -7.36    5.46
   2  -7  -1   -0.26    3.20
  -2  -7   1   -3.19    4.57
   2  -7  -1   -0.45    4.22
  -2  -7   1   -0.03    3.55
  -2  -7   1   -7.62    4.20
  -2  -7   1    1.05    3.74
  -2  -7   1    4.03    4.03
   2  -7  -1    3.44    3.69
   2  -7  -1   -2.28    4.08
   2  -7   0    6.80    4.03
  -2  -7   0   12.29    6.48
  -2  -7   0    4.43    3.77
  -2  -7   0    7.54    5.20
  -2  -7   0    6.85    4.25
  -2  -6   3    1.33    3.23
  -2  -6   3    3.15    3.15
  -2  -6   2    6.10    3.81
  -2  -6   2   -0.20    2.51
   2  -6  -2   -0.86    2.51
   2  -6  -2   -0.30    2.48
   2  -6  -2   -1.05    2.58
  -2  -6   2    6.91    3.99
  -2  -6   2    5.14    3.98
   2  -6  -1   13.35    4.08
  -2  -6   1   12.90    4.97
   2  -6  -1   13.89    4.45
  -2  -6   1    9.01    3.97
   2  -6  -1    6.53    2.28
   2  -6  -1   16.98    5.06
   2  -6  -1    7.61    3.59
   2  -6  -1    9.48    3.93
  -2  -6   1   12.17    5.40
  -2  -6   1   14.07    5.20
  -2  -6   0   -1.98    1.84
   2  -6   0    3.33    2.93
  -2  -6   0    0.17    2.66
   2  -6   0   -1.33    2.80
   2  -6   0   -1.62    2.26
  -2  -6   0   -3.63    3.63
  -2  -6   0    4.07    3.75
   2  -6   0   -2.61    3.16
  -2  -6   0    4.19    3.71
   2  -6   1   21.06    5.20
   2  -6   1   22.24    5.56
  -2  -6  -1   18.34    6.44
  -2  -6  -1   21.74    6.26
  -2  -5   4   -1.96    2.68
  -2  -5   4   -0.33    2.46
   2  -5  -3   39.78    6.32
  -2  -5   3   37.72    5.70
   2  -5  -3   33.74    5.11
  -2  -5   3   38.10    6.40
  -2  -5   3   34.83    5.89
  -2  -5   2   43.33    5.38
  -2  -5   2   54.48    7.15
   2  -5  -2   56.36    7.23
   2  -5  -2   40.32    6.63
   2  -5  -2   45.50    5.40
  -2  -5   2   57.76    5.80
  -2  -5   2   48.91    6.33
   2  -5  -2   48.16    6.82
   2  -5  -2   50.78    7.17
  -2  -5   2   49.22    6.95
   2  -5  -1  218.10   11.87
  -2  -5   1  232.56   11.30
   2  -5  -1  203.54   14.35
   2  -5  -1  196.44   12.58
   2  -5  -1  183.50   12.21
   2  -5  -1  236.33   14.66
  -2  -5   1  228.07   12.06
   2  -5  -1  234.74   13.44
   2  -5  -1  188.86   13.83
   2  -5  -1  214.01   14.11
  -2  -5   0   18.52    3.87
   2  -5   0   20.40    4.22
   2  -5   0   21.78    5.08
   2  -5   0   22.46    4.51
   2  -5   0   22.49    4.57
   2  -5   0   13.87    3.88
  -2  -5   0   24.19    4.60
   2  -5   0   21.00    4.34
  -2  -5   0   21.69    5.57
  -2  -5   0   18.81    3.17
  -2  -5   0   24.10    5.18
  -2  -5  -1   14.86    3.60
  -2  -5  -1   14.14    4.34
   2  -5   1   18.77    4.50
   2  -5   1   17.28    4.74
  -2  -5  -1   13.93    4.68
  -2  -5  -1   11.86    3.99
  -2  -5  -1   16.15    4.49
  -2  -4   4   10.08    3.16
  -2  -4   4    2.49    1.97
   2  -4  -3   14.55    3.69
  -2  -4   3   12.53    3.35
   2  -4  -3   11.70    2.83
   2  -4  -3   14.30    3.60
  -2  -4   3    9.62    3.05
  -2  -4   3   13.98    2.29
   2  -4  -2  413.41   18.59
   2  -4  -2  449.03   18.84
   2  -4  -2  524.78   19.77
   2  -4  -2  496.31   17.15
  -2  -4   2  481.67   18.67
  -2  -4   2  493.60   18.92
   2  -4  -2  484.08   19.08
  -2  -4   2  541.44   20.15
  -2  -4   2  493.93   18.32
  -2  -4   2  512.27   14.29
  -2  -4   1  225.57    9.59
   2  -4  -1  223.61   13.39
   2  -4  -1  216.22   12.60
   2  -4  -1  212.88   10.82
   2  -4  -1  198.35   12.38
   2  -4  -1  182.75   10.50
   2  -4  -1  224.21   10.74
  -2  -4   1  217.33   11.98
   2  -4  -1  211.99   12.43
   2  -4  -1  193.71   10.62
   2  -4  -1  242.93   11.11
   2  -4  -1  205.20    7.80
  -2  -4   1  206.19   10.11
  -2  -4   1  218.55   12.42
  -2  -4   0  513.90   19.13
   2  -4   0  457.88   18.86
   2  -4   0  477.56   19.93
  -2  -4   0  479.45   13.06
   2  -4   0  469.63   18.83
   2  -4   0  472.07   18.80
  -2  -4   0  490.10   17.92
   2  -4   0  427.83   16.40
   2  -4   0  486.79   16.67
   2  -4   0  514.31   16.28
  -2  -4   0  462.96   21.73
   2  -4   0  427.22   16.25
  -2  -4   0  467.99   19.46
  -2  -4  -1  110.86   11.10
   2  -4   1  105.60    9.21
   2  -4   1  119.28    9.66
  -2  -4  -1  107.01    5.67
  -2  -4  -1  101.22   10.06
  -2  -4  -1  107.66   10.24
  -2  -4  -1  122.15    9.27
  -2  -4  -1  123.63   10.21
  -2  -4  -1  113.78    5.95
   2  -3  -4   28.52    3.30
   2  -3  -4   30.24    4.47
  -2  -3   3   10.54    2.93
   2  -3  -3    7.54    2.59
  -2  -3   3    9.14    1.24
   2  -3  -3   10.07    1.94
  -2  -3   3    9.60    2.45
   2  -3  -3   12.29    2.71
  -2  -3   3   11.68    2.80
   2  -3  -3    9.86    2.50
   2  -3  -3   11.04    2.84
  -2  -3   3   10.98    1.51
  -2  -3   2   14.20    2.03
  -2  -3   2   13.56    3.00
   2  -3  -2   12.91    2.70
  -2  -3   2   13.52    2.65
  -2  -3   2   14.44    2.89
   2  -3  -2    9.23    2.56
   2  -3  -2   11.80    2.91
   2  -3  -2   15.21    2.40
  -2  -3   1  211.77   11.27
   2  -3  -1  172.00   10.21
   2  -3  -1  199.79   10.78
   2  -3  -1  176.07   10.43
   2  -3  -1  212.12   11.10
   2  -3  -1  212.27    7.95
   2  -3  -1  214.49    8.04
   2  -3  -1  208.57   10.20
  -2  -3   1  220.57    8.69
   2  -3   0  168.32   10.01
  -2  -3   0  177.81   10.79
  -2  -3   0  172.02    6.14
   2  -3   0  174.28    9.13
  -2  -3   0  183.40   10.02
   2  -3   0  166.48   10.15
  -2  -3   0  165.06   11.54
   2  -3   0  167.16   10.22
   2  -3   0  173.02   10.18
  -2  -3  -1  244.09    6.66
  -2  -3  -1  254.14   14.50
   2  -3   1  251.84   12.66
  -2  -3  -1  242.30   14.22
  -2  -3  -1  262.02   13.85
  -2  -3  -1  269.37   12.51
  -2  -3  -1  267.99   13.53
  -2  -3  -1  250.60    9.46
   2  -2  -3  767.44   20.11
   2  -2  -3  734.85   18.85
  -2  -2   3  823.48   18.48
  -2  -2   3  806.62   18.15
   2  -2  -3  749.57   16.59
   2  -2  -3  729.28   19.34
  -2  -2   3  769.56   21.13
   2  -2  -2  161.57    8.47
   2  -2  -2  165.75    8.74
   2  -2  -2  180.56    9.10
  -2  -2   2  196.20    8.60
  -2  -2   2  179.58    8.17
   2  -2  -2  172.11    7.43
   2  -2  -2  171.51    8.99
   2  -2  -2  184.09    8.33
  -2  -2   2  172.98    7.97
  -2  -2   2  192.99   10.09
  -2  -2   1  321.31   10.62
  -2  -2   1  330.22   13.00
   2  -2  -1  290.06   11.60
   2  -2  -1  320.39   12.38
   2  -2  -1  295.45   11.38
   2  -2  -1  297.26    8.36
   2  -2  -1  302.11   11.81
   2  -2  -1  310.16   11.37
  -2  -2   1  312.46   12.36
   2  -2  -1  313.69    9.97
   2  -2  -1  282.54    8.18
  -2  -2   0  790.50   16.82
   2  -2   0  779.22   17.95
  -2  -2   0  782.72   19.80
   2  -2   0  782.54   19.43
   2  -2   0  752.53   18.60
  -2  -2  -1 1448.08   24.38
   2  -2   1 1496.17   26.52
  -2  -2  -1 1424.12   27.54
   2  -1  -3  408.20   12.95
   2  -1  -3  396.30   12.40
   2  -1  -3  391.08   12.48
  -2  -1   3  375.34   13.61
  -2  -1   2 2078.36   28.73
   2  -1  -2 2071.92   29.94
  -2  -1   2 2130.55   31.66
   2  -1  -1  278.87    9.91
  -2  -1   1  286.26   10.05
  -2  -1   1  298.58    5.27
   2  -1  -1  282.47    9.53
   2  -1  -1  311.42    8.09
  -2  -1   1  284.45    5.50
   2  -1  -1  287.08    9.82
   2  -1   0 1714.14   25.86
  -2  -1   0 1698.09   27.16
  -2  -1   0 1720.60   27.23
   2  -1   0 1731.24   25.09
  -2  -1   0 1714.29   25.89
  -2  -1  -1 1063.55   21.37
   2  -1   1 1041.73   21.41
  -2  -1  -1 1036.55   22.38
  -2  -1  -1 1046.18   22.12
  -2   0   3    6.79    1.94
   2   0  -3    5.93    1.63
  -2   0   3    6.94    1.81
  -2   0   2  272.72   10.20
   2   0  -2  287.98    8.13
   2   0  -2  239.39    9.01
  -2   0   2  276.87    7.99
  -2   0   2  246.48    8.11
   2   0  -2  278.68    8.81
   2   0  -2  274.89   11.01
   2   0  -2  319.17    9.13
   2   0  -2  247.99    9.25
  -2   0   2  294.71   10.65
   2   0  -1  609.88   13.61
   2   0  -1  493.06   12.39
  -2   0   1  520.92   10.69
   2   0  -1  521.56   12.94
  -2   0   1  570.04   14.52
   2   0  -1  510.03   10.25
   2   0  -1  514.82   11.51
  -2   0   1  505.82   13.51
  -2   0   1  494.16    8.55
   2   0  -1  619.90   12.25
   2   0  -1  523.03   13.33
  -2   0   0   89.67    3.62
  -2   0   0   85.02    5.11
   2   0   0   91.40    5.44
   2   0   0   88.51    4.86
   2   0   0   84.42    5.08
  -2   0   0   90.53    5.82
  -2   0   0   91.99    5.78
  -2   0   0  101.14    3.98
  -2   0   0   88.91    4.21
  -2   0  -1  101.17    4.37
  -2   1   3  443.22   13.09
   2   1  -3  456.99   15.25
  -2   1   3  398.42   13.25
   2   1  -3  369.95   11.07
  -2   1   3  418.41   13.58
   2   1  -3  338.03   12.36
  -2   1   2 2083.72   28.80
   2   1  -2 2050.98   26.61
  -2   1   2 1982.27   25.87
   2   1  -2 1991.37   32.79
   2   1  -2 1894.66   28.49
  -2   1   2 2031.48   27.13
  -2   1   2 1965.84   29.16
   2   1  -1  288.98   11.49
  -2   1   1  274.53   10.27
   2   1  -1  273.42   10.67
  -2   1   1  283.96    9.52
  -2   1   1  281.83    9.14
  -2   1   1  273.26    8.79
   2   1  -1  316.90   11.62
   2   1  -1  293.13    9.00
  -2   1   1  280.33    9.02
  -2   1   1  281.54    8.97
  -2   1   1  283.80    6.31
   2   1  -1  299.87    5.21
   2   1  -1  275.93   10.19
  -2   1   1  291.59    7.16
   2   1  -1  294.92    6.76
   2   1  -1  289.35    8.61
   2   1  -1  270.38    8.32
  -2   1   1  293.22    9.83
   2   1  -1  293.39   11.82
   2   1   0 1868.18   31.13
  -2   1   0 1691.37   24.33
  -2   1   0 1621.61   26.49
  -2   1   0 1701.51   24.88
  -2   1   0 1690.56   23.41
   2   1   0 1761.37   24.85
   2   1   0 1965.38   31.20
   2   1   0 1712.02   28.29
   2   1   0 1798.27   23.26
  -2   1   0 1799.41   21.05
   2   1   0 1709.40   29.38
   2   1   0 1745.45   18.68
  -2   1   0 1742.58   23.19
   2   1   0 1666.45   25.93
   2   1   0 1731.54   18.49
   2   1   1 1074.41   24.14
   2   1   1 1068.94   23.41
  -2   1  -1 1130.28   20.10
  -2   1  -1 1109.40   23.09
  -2   1  -1 1093.24   21.18
   2   1   1 1123.89   21.49
  -2   2   3  754.11   18.86
   2   2  -3  748.52   20.61
   2   2  -3  701.46   21.63
   2   2  -3  822.90   24.51
  -2   2   3  796.73   19.45
   2   2  -3  679.80   13.57
  -2   2   3  688.75   17.21
   2   2  -3  693.19   22.10
   2   2  -2  190.63    7.20
  -2   2   2  178.85    8.93
   2   2  -2  166.26   10.06
   2   2  -2  196.70   11.47
  -2   2   2  173.94    7.62
   2   2  -2  175.53    6.12
  -2   2   2  171.44    7.53
  -2   2   2  176.62    9.02
  -2   2   2  171.78    6.05
   2   2  -2  179.91    7.66
   2   2  -2  178.52   10.63
   2   2  -2  168.15    8.37
   2   2  -2  218.99   12.59
  -2   2   2  181.57    8.67
   2   2  -2  175.46    9.32
  -2   2   1  296.80   12.27
   2   2  -1  325.07   12.59
  -2   2   1  310.22    9.71
  -2   2   1  307.02   11.76
  -2   2   1  316.17   11.77
   2   2  -1  313.75    6.17
   2   2  -1  348.98   14.88
   2   2  -1  323.32    8.07
  -2   2   1  306.46   11.18
   2   2  -1  310.80    9.89
  -2   2   1  317.77   10.30
   2   2  -1  303.14   13.46
  -2   2   1  302.48   11.13
   2   2  -1  331.07   12.99
   2   2  -1  298.03   10.80
   2   2  -1  318.38   13.98
   2   2  -1  326.07    8.16
  -2   2   1  331.26    8.95
  -2   2   1  296.31   11.19
   2   2   0  788.09   22.03
   2   2   0  749.54   15.95
   2   2   0  785.75   21.93
   2   2   0  900.23   24.35
  -2   2   0  786.00   19.00
  -2   2   0  800.74   19.29
  -2   2   0  782.02   18.34
  -2   2   0  643.88   10.49
   2   2   0  815.97   20.72
  -2   2   0  838.05   16.37
  -2   2   0  782.07   18.24
   2   2   0  776.96   17.42
  -2   2   0  715.65   18.95
   2   2   1 1447.85   31.21
  -2   2  -1 1421.89   27.45
  -2   2  -1 1493.72   27.42
  -2   2  -1 1514.87   27.40
   2   2   1 1477.02   33.28
   2   2   1 1429.22   29.88
   2   2   1 1441.69   23.74
   2   2   1 1498.49   32.02
  -2   2  -1 1449.31   25.64
   2   2   1 1539.04   26.11
   2   3  -4   41.25    7.25
   2   3  -4   27.41    5.35
   2   3  -4   25.97    5.18
  -2   3   4   25.23    4.36
   2   3  -3   12.04    4.11
  -2   3   3    9.35    2.52
   2   3  -3    9.71    1.21
   2   3  -3   14.27    3.18
  -2   3   3    7.74    2.19
   2   3  -3    7.62    2.87
   2   3  -3    9.90    1.31
   2   3  -3    9.16    3.29
  -2   3   3   11.03    2.74
  -2   3   3    9.57    1.44
   2   3  -3    8.79    2.55
  -2   3   3    8.94    2.38
  -2   3   3    9.96    2.86
  -2   3   3   12.95    3.04
   2   3  -3    8.42    3.01
   2   3  -2   16.16    3.89
   2   3  -2   13.76    3.30
   2   3  -2   13.32    2.06
  -2   3   2   13.23    3.21
  -2   3   2   10.04    2.47
  -2   3   2   11.97    2.71
   2   3  -2   14.34    3.77
   2   3  -2   12.26    3.81
  -2   3   2   14.59    2.68
  -2   3   2   14.20    2.69
   2   3  -2   17.39    4.63
   2   3  -2    6.82    1.28
   2   3  -2   12.12    3.46
  -2   3   2   10.27    2.30
  -2   3   2   14.87    3.20
  -2   3   1  196.52   10.57
  -2   3   1  193.93   10.47
  -2   3   1  215.81   11.26
  -2   3   1  208.32   10.69
   2   3  -1  207.62   12.16
  -2   3   1  200.98    9.85
  -2   3   1  199.99   10.58
   2   3  -1  191.46   10.43
   2   3  -1  206.20   12.59
   2   3  -1  204.32   12.56
   2   3   0  182.98   12.40
  -2   3   0   91.38    4.10
  -2   3   0  118.74    6.39
   2   3   0  219.19   16.08
  -2   3   0  169.43    9.54
   2   3   0  179.96    6.39
  -2   3   0  171.16   10.16
  -2   3   0  170.91   10.15
  -2   3   0  172.85   10.02
   2   3   0  180.91   12.65
   2   3   0  164.84   11.19
   2   3   0  150.22    8.65
  -2   3   0  178.93    8.97
  -2   3   0  170.52    8.94
  -2   3   0  174.90   10.03
   2   3   0  173.86    6.36
   2   3   0  173.30    8.52
  -2   3   0  148.30    4.71
   2   3   1  305.67   19.84
   2   3   1  267.80   14.79
  -2   3  -1  245.89   11.89
   2   3   1  272.71   14.95
  -2   3  -1  251.40   12.65
  -2   3  -1  278.69   13.50
   2   3   1  261.52   15.47
  -2   3  -1  260.91   11.35
   2   3   1  258.48   14.45
  -2   3  -1  281.82   11.93
  -2   3  -1  270.36   12.47
  -2   4   4    3.68    1.42
   2   4  -4    4.83    1.36
   2   4  -4    3.68    2.87
   2   4  -4   12.08    3.20
   2   4  -4    5.80    3.31
   2   4  -3   16.17    4.57
   2   4  -3   17.50    5.65
  -2   4   3   17.81    4.09
  -2   4   3   13.91    3.27
   2   4  -3   11.08    4.15
  -2   4   3   10.80    3.14
   2   4  -3   13.85    2.75
   2   4  -3   13.87    3.96
   2   4  -3   12.24    4.22
   2   4  -3   12.24    4.30
  -2   4   3   12.33    2.92
   2   4  -3   14.45    3.51
  -2   4   3   11.18    3.54
  -2   4   3   11.98    3.39
  -2   4   3   12.13    3.14
   2   4  -2  452.89   21.66
  -2   4   2  359.78   22.58
  -2   4   2  489.26   19.13
   2   4  -2  461.08   21.74
  -2   4   2  499.92   19.28
  -2   4   2  508.51   19.24
   2   4  -2  499.21   14.70
   2   4  -2  503.82   23.65
   2   4  -2  507.61   22.18
  -2   4   2  515.71   20.80
  -2   4   2  505.30   18.42
   2   4  -2  517.47   23.22
   2   4  -2  481.22   17.81
  -2   4   2  494.69   19.45
   2   4  -2  647.64   30.84
  -2   4   2  481.31   19.16
   2   4  -1  199.06    8.62
   2   4  -1  219.23   15.12
   2   4  -1  192.91   13.87
   2   4  -1  289.47   20.28
  -2   4   1  162.27   14.91
  -2   4   1  217.38   12.58
  -2   4   1  215.73   12.86
  -2   4   1  192.13   12.54
  -2   4   1  109.31    8.13
   2   4  -1  215.33   14.46
   2   4  -1  205.29    8.80
  -2   4   1  228.04   12.30
  -2   4   1  214.77   12.53
   2   4  -1  207.13   11.70
   2   4  -1  218.58   14.97
  -2   4   1  213.40   12.54
   2   4  -1  209.67   15.42
  -2   4   1  204.83    9.63
  -2   4   1  201.57   12.43
   2   4   0  494.18   23.07
  -2   4   0  453.50   18.41
   2   4   0  466.52   13.20
   2   4   0  467.91   21.72
   2   4   0  573.69   30.47
  -2   4   0  476.81   19.43
  -2   4   0  462.30   14.68
  -2   4   0  493.37   20.33
  -2   4   0  275.90   12.86
   2   4   0  520.67   24.45
   2   4   0  476.70   21.79
   2   4   0  456.38   17.44
  -2   4   0  481.15   17.85
  -2   4   0  328.59   20.55
  -2   4   0  486.25   18.81
   2   4   0  481.04   21.82
   2   4   0  465.54   13.20
   2   4   1  119.63   11.08
  -2   4  -1   54.95    4.68
   2   4   1  129.79   14.95
  -2   4  -1   60.80    9.00
  -2   4  -1  118.44    9.33
   2   4   1  112.96   10.79
  -2   4  -1  110.88    7.46
  -2   4  -1  116.47   10.03
  -2   4  -1   55.53    5.92
   2   4   1  123.75   12.38
   2   4   1  108.50   10.85
   2   4   1  111.12    8.99
  -2   4  -1  130.60    9.43
  -2   4  -1  109.43    9.26
  -2   4  -1  125.74    9.86
  -2   4  -2    4.83    6.74
  -2   4  -2    4.21    2.40
  -2   4  -2    1.96    1.44
   2   5  -4   -1.05    2.56
   2   5  -4   -2.55    3.39
   2   5  -4    1.09    3.05
   2   5  -3   23.79    5.56
  -2   5   3   28.41    5.74
  -2   5   3   24.66    4.99
  -2   5   3   34.92    5.84
  -2   5   3   30.73    5.89
  -2   5   3   27.85    5.98
   2   5  -3   27.04    6.54
   2   5  -3   31.20    6.90
   2   5  -3   39.13    7.72
   2   5  -3   31.02    5.35
   2   5  -3   33.56    9.31
  -2   5   3   33.82    6.12
   2   5  -3   30.09    6.54
   2   5  -3   27.81    4.44
  -2   5   3   35.15    6.08
   2   5  -2   40.39    7.68
   2   5  -2   53.30    9.95
  -2   5   2   36.72    8.38
  -2   5   2   44.47    6.37
   2   5  -2   44.14    5.05
  -2   5   2   43.23    6.52
   2   5  -2   46.90    8.01
   2   5  -2   46.17    8.61
  -2   5   2   55.59    7.42
   2   5  -2   55.89    7.09
   2   5  -2   41.35    7.31
   2   5  -2   52.30    8.44
  -2   5   2   56.33    8.21
  -2   5   2   46.19    6.76
  -2   5   2   43.08    6.71
  -2   5   2   49.53    6.94
  -2   5   1  230.25   15.19
  -2   5   1  239.39   14.94
  -2   5   1  214.48   15.55
   2   5  -1  224.33   13.97
  -2   5   1  226.99   14.05
  -2   5   1  218.87   14.73
  -2   5   1  212.87   14.43
  -2   5   1  209.62   13.40
  -2   5   0   20.95    4.75
  -2   5   0    8.42    3.90
   2   5   0   15.15    4.86
   2   5   0   16.65    3.07
   2   5   0   24.02    3.87
  -2   5   0   21.31    5.08
  -2   5   0   24.41    5.05
   2   5   0   19.56    5.67
  -2   5   0   12.58    3.76
  -2   5   0   22.89    5.47
   2   5   0   28.39    8.40
   2   5   0   23.88    4.71
  -2   5   0   20.55    4.43
   2   5   0   20.14    5.84
   2   5   0   13.81    4.25
   2   5   0   30.30    6.50
  -2   5   0   17.23    4.54
  -2   5   0   19.41    4.52
  -2   5  -1    6.62    4.26
   2   5   1   11.89    5.63
  -2   5  -1    7.55    3.11
   2   5   1   10.69    4.17
  -2   5  -1   24.95    5.96
  -2   5  -1   17.43    4.47
   2   5   1   14.70    4.46
   2   5   1   14.10    4.67
   2   5   1   11.61    3.46
  -2   5  -1   13.89    3.80
   2   5   1   22.68    6.28
  -2   5  -1   23.80    5.20
   2   6  -3    1.58    2.62
  -2   6   3    7.69    4.58
   2   6  -3    5.68    4.11
   2   6  -3    5.19    3.87
  -2   6   3    2.63    2.80
   2   6  -3    4.38    4.17
   2   6  -3   -2.28    3.73
  -2   6   3    3.96    3.45
   2   6  -3    1.47    3.15
  -2   6   3    0.99    4.02
  -2   6   3   -1.48    3.00
   2   6  -2    0.30    3.60
  -2   6   2   -2.13    4.06
  -2   6   2    4.70    3.23
   2   6  -2   -0.27    3.65
   2   6  -2    6.33    4.20
  -2   6   2    6.08    3.40
  -2   6   2    3.04    2.52
   2   6  -2   -4.40    3.77
   2   6  -2    3.71    5.46
   2   6  -2   -4.25    4.52
  -2   6   2   -3.26    3.57
  -2   6   2    3.29    2.55
   2   6  -2    5.52    2.95
  -2   6   2    4.18    3.09
  -2   6   2   -2.54    2.95
  -2   6   1    9.52    7.84
   2   6  -1    6.95    6.03
   2   6  -1    4.30    4.47
  -2   6   1   19.29    5.29
  -2   6   1    8.46    4.22
  -2   6   1   12.56    4.16
  -2   6   1   13.44    4.47
   2   6  -1   12.70    6.13
   2   6  -1    6.63    4.14
  -2   6   1   10.74    3.28
   2   6  -1   10.83    3.87
  -2   6   1   13.20    4.50
   2   6  -1   10.71    4.50
   2   6  -1   10.97    5.06
  -2   6   1    9.69    3.93
  -2   6   0    8.08    7.44
  -2   6   0    2.93    3.33
  -2   6   0   -4.11    3.40
  -2   6   0    6.89    3.25
   2   6   0   -1.03    3.28
   2   6   0   -0.05    2.76
   2   6   0    1.85    2.40
  -2   6   0   -1.44    2.89
   2   6   0   -0.19    3.26
   2   6   0    3.01    3.82
   2   6   0   11.41    6.71
  -2   6   0    1.75    3.14
  -2   6  -1    9.29    5.97
  -2   6  -1   18.65    5.37
  -2   6  -1   18.19    5.18
  -2   6  -1   16.70    5.20
   2   6   1   17.68    6.36
   2   6   1    8.35    5.56
   2   6   1    9.98    3.70
   2   6   1   16.97    6.01
   2   6   1   17.45    5.93
   2   7  -3   -3.70    5.24
   2   7  -3    6.21    5.30
  -2   7   2    5.06    3.89
   2   7  -2    9.56    8.05
  -2   7   2   -4.01    3.98
   2   7  -2    0.39    3.78
   2   7  -2   -1.03    3.84
   2   7  -2   -3.01    5.90
   2   7  -2   -2.07    6.00
  -2   7   2    3.76    3.85
   2   7  -2   -4.45    3.39
  -2   7   2   -3.91    3.32
   2   7  -1   -7.22    7.98
  -2   7   1    3.86    3.64
   2   7  -1   11.34    5.90
  -2   7   1    4.30    3.38
  -2   7   1   -2.03    3.45
  -2   7   1    2.25    4.00
   2   7  -1   -3.20    3.68
   2   7  -1    8.12    5.81
  -2   7   1   -0.82    6.98
   2   7  -1   -8.63    6.75
   2   7  -1   -0.12    3.11
  -2   7   1    1.37    2.80
  -2   7   1   -5.61    3.63
  -2   7   0   10.07    4.54
   2   7   0   -2.58    5.71
   2   7   0   13.72    6.14
  -2   7   0   10.58    4.21
  -2   7   0   -1.76    3.70
   2   7   0    3.47    2.96
   2   7   0    0.61    4.51
  -2   7   0    2.37    3.75
  -3  -7   3    0.97    3.31
  -3  -7   3    4.62    3.23
  -3  -7   3    8.44    5.74
   3  -7  -2   -5.83    4.46
  -3  -7   2    0.71    3.80
  -3  -7   2    3.08    4.41
  -3  -7   2    3.17    3.19
  -3  -7   2   -2.51    4.34
  -3  -7   2    5.24    4.87
  -3  -7   2   -4.60    4.53
   3  -7  -1   -1.89    3.73
  -3  -7   1   -6.05    4.14
  -3  -7   1   -2.02    5.46
  -3  -7   1    0.25    2.84
  -3  -7   1    8.22    5.86
   3  -7  -1    3.33    4.35
   3  -6  -3    8.29    4.40
  -3  -6   3    8.22    3.47
  -3  -6   3    4.96    2.79
  -3  -6   3    2.34    2.72
  -3  -6   3   13.01    5.91
  -3  -6   3    2.11    2.87
   3  -6  -2    5.42    4.06
   3  -6  -2    6.11    3.79
  -3  -6   2   -1.25    2.85
   3  -6  -2   -2.65    3.03
  -3  -6   2   -1.35    2.79
   3  -6  -2    0.20    2.23
  -3  -6   2    5.36    3.58
  -3  -6   2   -1.21    2.83
  -3  -6   2   -2.38    3.41
   3  -6  -1    2.76    2.72
  -3  -6   1    2.61    2.63
  -3  -6   1    0.17    3.38
  -3  -6   1    9.16    4.44
  -3  -6   1    9.57    3.70
  -3  -6   1    7.23    4.07
  -3  -6   1    7.57    4.84
  -3  -6   1    8.57    4.56
   3  -6  -1    6.97    4.02
   3  -6   0    9.33    4.53
  -3  -6   0   11.57    5.73
  -3  -6   0   11.43    4.82
   3  -6   0   10.24    4.69
   3  -5  -4   -6.72    4.23
  -3  -5   4    3.17    2.77
   3  -5  -4    2.16    2.55
  -3  -5   4    1.13    2.45
  -3  -5   4    0.08    2.16
   3  -5  -3   -0.98    2.94
   3  -5  -3    0.16    2.24
   3  -5  -3   -1.13    1.59
  -3  -5   3    4.57    2.96
   3  -5  -3   -0.89    1.58
  -3  -5   3    1.73    2.27
   3  -5  -3    4.77    3.03
  -3  -5   3    0.68    2.32
  -3  -5   2   -2.43    3.33
   3  -5  -2    2.01    2.41
   3  -5  -2    0.85    2.24
  -3  -5   2   -0.14    1.93
   3  -5  -2    1.60    1.61
  -3  -5   2    3.07    3.37
   3  -5  -2    1.83    1.88
   3  -5  -2    3.29    2.40
  -3  -5   2    4.05    2.64
  -3  -5   2    9.67    4.64
  -3  -5   2    6.32    3.26
  -3  -5   1   43.61    7.22
   3  -5  -1   38.44    6.70
  -3  -5   1   36.33    6.25
   3  -5  -1   46.38    7.41
   3  -5  -1   40.65    6.14
  -3  -5   1   36.28    6.22
  -3  -5   1   44.24    8.43
  -3  -5   1   35.92    6.96
  -3  -5   0   11.54    4.40
   3  -5   0   13.78    4.67
   3  -5   0   11.84    4.00
  -3  -5   0    9.14    4.00
  -3  -5   0   13.36    3.84
  -3  -5   0   15.61    5.11
  -3  -5   0   13.23    4.96
  -3  -5   0   14.35    4.73
   3  -5   1    3.53    3.04
   3  -5   1    3.93    3.16
  -3  -5  -1    8.12    4.71
  -3  -5  -1   -0.55    3.15
   3  -4  -4    2.19    2.34
  -3  -4   4    2.70    2.13
   3  -4  -4    4.22    2.38
  -3  -4   4    3.57    2.65
  -3  -4   4    6.59    3.47
   3  -4  -4    4.64    2.64
  -3  -4   3   12.90    4.16
   3  -4  -3   11.01    3.25
   3  -4  -3   11.22    3.69
   3  -4  -3    5.59    1.97
  -3  -4   3   15.04    3.98
  -3  -4   3    9.21    2.94
   3  -4  -3   11.64    3.49
  -3  -4   3    5.74    2.78
   3  -4  -2   64.19    7.98
  -3  -4   2   60.40    7.04
   3  -4  -2   46.17    5.20
  -3  -4   2   58.24    6.73
   3  -4  -2   45.79    5.19
   3  -4  -2   61.47    7.16
   3  -4  -2   55.70    5.86
   3  -4  -2   46.96    6.87
   3  -4  -2   63.30    7.78
   3  -4  -1  115.53    9.37
  -3  -4   1   96.66    9.78
   3  -4  -1  123.80    8.54
  -3  -4   0   78.71    8.84
  -3  -4   0   71.41    9.33
  -3  -4   0   73.20    8.13
  -3  -4   0   74.47    9.50
  -3  -4   0   74.95    8.82
   3  -4   1   59.23    7.76
   3  -4   1   61.84    7.85
  -3  -4  -1   59.06    8.72
  -3  -4  -1   58.20    8.20
  -3  -4  -1   56.43    8.16
  -3  -4  -1   62.26    8.35
   3  -3  -4  178.77   11.91
   3  -3  -4  158.08   11.01
   3  -3  -4  157.36   11.08
   3  -3  -4  174.50    9.83
  -3  -3   4  159.08   12.21
   3  -3  -3  100.67    9.03
   3  -3  -3   97.00    8.74
  -3  -3   3  106.17    8.01
   3  -3  -3  102.08    9.12
  -3  -3   3  106.88    8.10
   3  -3  -3   92.57    8.13
  -3  -3   3   86.55    8.56
   3  -3  -3   93.36    7.71
   3  -3  -3  105.83    7.58
  -3  -3   3  107.54    9.90
   3  -3  -2   25.92    4.21
   3  -3  -2   21.86    2.98
   3  -3  -2   24.40    3.11
   3  -3  -2   29.04    3.95
  -3  -3   1  393.95   18.24
   3  -3  -1  391.54   17.42
   3  -3  -1  372.07   16.47
  -3  -3   1  425.40   15.51
  -3  -3   1  406.50   17.83
   3  -3  -1  403.03   16.25
  -3  -3   1  400.63   19.24
  -3  -3   1  375.82   17.72
   3  -3   0  770.31   24.84
   3  -3   0  750.56   23.86
  -3  -3   0  796.32   21.11
  -3  -3   0  660.18   25.28
   3  -3   0  807.90   23.47
  -3  -3   0  786.94   24.66
  -3  -3   0  681.89   25.53
  -3  -3   0  799.40   26.12
  -3  -3  -1   58.08    5.89
  -3  -3  -1   57.93    7.85
  -3  -3  -1   60.48    6.93
  -3  -3  -1   55.75    7.45
  -3  -3  -1   46.70    6.99
  -3  -3  -1   54.39    7.14
  -3  -2   4  120.29    9.92
  -3  -2   3   44.37    2.79
  -3  -2   3   50.66    5.66
   3  -2  -3   48.60    5.50
   3  -2  -3   46.44    5.75
   3  -2  -3   48.83    5.63
  -3  -2   3   54.87    4.96
  -3  -2   3   53.93    4.91
   3  -2  -3   41.79    5.52
   3  -2  -3   45.56    5.43
   3  -2  -3   45.05    5.01
  -3  -2   3   48.40    6.14
  -3  -2   2   51.37    5.58
  -3  -2   2   48.04    4.43
   3  -2  -2   45.12    5.39
   3  -2  -2   48.32    5.79
  -3  -2   2   47.32    4.37
   3  -2  -2   45.56    5.47
   3  -2  -2   49.30    5.20
  -3  -2   2   42.83    5.62
   3  -2  -1   29.88    4.27
  -3  -2   1   33.31    4.41
   3  -2  -1   31.17    4.41
   3  -2  -1   36.50    4.88
  -3  -2   1   34.44    5.04
  -3  -2   1   36.59    5.27
   3  -2  -1   37.08    4.46
  -3  -2   0   39.75    4.84
   3  -2   0   39.50    5.05
  -3  -2   0   40.68    5.42
   3  -2   0   39.27    4.90
  -3  -2   0   40.86    5.48
  -3  -2   0   32.78    5.10
  -3  -2   0   41.79    5.54
   3  -2   0   47.18    3.46
  -3  -2  -1  735.15   23.02
   3  -2   1  668.68   21.62
   3  -2   1  764.95   16.06
  -3  -2  -1  637.68   19.95
   3  -2   1  756.46   21.93
  -3  -2  -1  671.11   23.26
  -3  -2  -1  703.01   23.06
  -3  -1   4  164.20   10.36
   3  -1  -4  177.39    7.12
   3  -1  -4  138.55    9.46
   3  -1  -4  140.29    9.68
   3  -1  -4  148.50    9.34
   3  -1  -4  138.27   10.04
   3  -1  -4  136.11    9.20
  -3  -1   4  139.59   10.15
   3  -1  -3  362.12   10.21
  -3  -1   3  323.18    9.70
  -3  -1   3  315.10   13.69
   3  -1  -3  305.33   12.04
   3  -1  -3  321.08   13.96
   3  -1  -3  294.67   12.61
   3  -1  -3  359.72    7.76
   3  -1  -3  296.24   13.36
   3  -1  -3  311.79   14.34
   3  -1  -3  322.88   13.59
  -3  -1   3  343.51   15.30
  -3  -1   2  437.84   16.85
  -3  -1   2  414.29    9.69
  -3  -1   2  383.15   15.39
  -3  -1   2  425.48   15.64
   3  -1  -1   31.60    4.04
   3  -1  -1   34.65    4.34
   3  -1  -1   35.12    3.94
  -3  -1   1   41.75    2.79
  -3  -1   1   38.39    2.68
   3  -1  -1   32.24    4.11
   3  -1  -1   40.22    3.16
  -3  -1   1   36.01    4.29
  -3  -1   1   30.84    4.20
   3  -1  -1   39.72    3.91
   3  -1  -1   34.08    4.28
   3  -1   0  127.36    7.26
   3  -1   0  114.83    7.77
   3  -1   0  123.01    5.88
  -3  -1   0  111.17    4.79
  -3  -1   0  108.13    8.03
   3  -1   0  103.70    7.32
  -3  -1   0  112.66    8.52
  -3  -1   0  118.71    8.60
   3  -1   0  123.23    8.29
   3  -1   1    9.19    2.54
   3  -1   1    7.97    2.04
   3  -1   1    9.37    2.62
  -3  -1  -1    9.86    2.72
  -3   0   4  142.23    8.39
   3   0  -4  163.65    8.90
   3   0  -4  130.30    8.69
  -3   0   4  150.30    9.78
   3   0  -4  121.91    9.60
   3   0  -4  122.79    8.93
  -3   0   4  136.65    9.53
   3   0  -3 1418.71   24.23
   3   0  -3 1296.87   24.04
  -3   0   3 1222.04   22.55
  -3   0   3 1262.23   27.68
   3   0  -3 1193.16   25.99
   3   0  -3 1178.03   24.67
   3   0  -3 1122.22   24.39
   3   0  -3 1174.53   27.36
   3   0  -3 1246.31   29.49
   3   0  -3 1214.84   27.04
  -3   0   3 1180.01   27.27
   3   0  -3 1322.69   25.23
  -3   0   2    2.43    1.32
   3   0  -2    4.01    1.55
  -3   0   2    3.64    1.20
  -3   0   2   -0.12    0.94
   3   0  -2    0.71    0.78
   3   0  -2   -0.01    0.78
   3   0  -2   -1.56    1.72
  -3   0   2    4.95    2.24
  -3   0   2    5.14    1.29
   3   0  -2    2.89    1.76
  -3   0   1  913.64   17.50
   3   0  -1  900.31   19.09
  -3   0   1  887.93   17.11
   3   0  -1  938.45   20.15
  -3   0   1  960.70   23.62
   3   0  -1  911.81   17.30
  -3   0   1  904.30   20.73
  -3   0   1  957.16   14.45
   3   0  -1  935.13   22.69
   3   0  -1  923.95   22.39
  -3   0   0   19.28    2.55
   3   0   0   23.12    3.55
   3   0   0   20.07    2.85
   3   0   0   22.50    3.33
  -3   0   0   21.51    2.83
   3   0   0   20.21    1.99
   3   0   0   13.39    2.39
  -3   0   0   20.34    3.24
  -3   0   0   20.16    3.80
  -3   0   0   20.71    3.28
   3   0   0   23.01    3.67
   3   0   1   57.65    5.22
   3   0   1   57.56    6.01
  -3   0  -1   61.06    5.08
  -3   0  -1   54.79    6.14
  -3   1   4  152.45   10.10
  -3   1   4  145.49    9.23
   3   1  -4  172.79   10.78
   3   1  -4  126.33   10.40
  -3   1   4  121.23    4.79
   3   1  -4  121.22   10.12
   3   1  -4  147.30    9.91
   3   1  -3  317.22   14.26
  -3   1   3  296.70   12.33
  -3   1   3  330.60   12.46
   3   1  -3  298.63   14.01
   3   1  -3  342.50   14.58
  -3   1   3  307.18   13.58
   3   1  -3  307.13   15.00
  -3   1   3  312.19    7.05
   3   1  -3  292.39   14.78
   3   1  -3  311.77   13.60
  -3   1   3  311.30   13.12
   3   1  -2  451.20   16.84
   3   1  -2  416.41   15.78
   3   1  -2  467.77   12.53
   3   1  -2  449.85   17.82
   3   1  -2  403.73   15.32
   3   1  -2  424.82   17.39
   3   1  -1   41.21    5.18
   3   1  -1   33.71    4.99
  -3   1   1   32.96    3.94
   3   1  -1   34.54    3.14
   3   1  -1   35.98    2.53
   3   1  -1   34.35    4.56
  -3   1   1   33.38    3.96
  -3   1   1   40.30    4.13
   3   1  -1   42.53    5.36
   3   1  -1   36.07    3.43
  -3   1   1   34.10    4.63
   3   1  -1   38.66    2.33
  -3   1   1   35.03    3.58
  -3   1   1   34.16    3.50
  -3   1   1   37.16    3.59
   3   1  -1   35.67    4.62
  -3   1   1   38.51    3.86
  -3   1   0  107.61    6.33
   3   1   0  127.68    9.29
  -3   1   0  116.13    6.96
   3   1   0  118.06    8.60
  -3   1   0  116.65    7.24
  -3   1   0  112.55    6.63
  -3   1   0  114.42    8.45
   3   1   0  106.96    5.72
   3   1   0  119.18    6.64
   3   1   0  116.54    4.46
  -3   1   0  127.00    6.90
   3   1   0  106.61    7.73
   3   1   1    8.74    2.92
  -3   1  -1    7.75    2.30
  -3   1  -1   10.30    2.88
   3   1   1   10.48    3.46
   3   1   1   12.29    2.72
   3   2  -4  119.65   10.36
   3   2  -4  142.01   11.08
   3   2  -4  110.62   10.54
   3   2  -4  125.37    9.21
   3   2  -3   49.23    6.40
  -3   2   3   50.89    5.83
   3   2  -3   65.86    7.33
   3   2  -3   44.66    6.33
  -3   2   3   51.54    5.87
  -3   2   3   44.91    5.12
   3   2  -3   38.71    5.90
   3   2  -3   49.36    5.44
   3   2  -3   53.41    6.55
  -3   2   3   49.45    3.69
   3   2  -3   41.96    4.06
  -3   2   3   48.33    4.00
   3   2  -3   43.32    5.47
   3   2  -3   41.71    6.07
  -3   2   2   44.60    5.13
   3   2  -2   47.85    6.44
   3   2  -2   55.01    6.74
  -3   2   2   47.67    5.43
   3   2  -2   43.82    4.20
   3   2  -2   37.86    5.61
  -3   2   2   47.07    5.39
  -3   2   2   43.35    4.77
   3   2  -2   47.58    5.26
   3   2  -2   42.78    4.14
  -3   2   2   44.50    4.32
   3   2  -2   43.46    3.80
  -3   2   2   49.30    5.03
   3   2  -2   48.25    6.25
  -3   2   2   44.03    5.04
  -3   2   2   39.78    4.40
  -3   2   1   35.53    3.94
   3   2  -1   43.93    6.52
   3   2  -1   34.45    5.55
   3   2  -1   36.21    3.63
   3   2  -1   35.05    5.32
  -3   2   1   36.39    4.61
  -3   2   1   32.85    4.43
   3   2  -1   39.85    5.64
   3   2  -1   39.25    4.77
   3   2  -1   37.09    3.79
   3   2  -1   36.31    3.46
  -3   2   1   34.71    4.76
   3   2  -1   35.84    5.57
   3   2  -1   32.67    4.47
  -3   2   1   36.06    4.60
  -3   2   1   31.72    4.13
   3   2   0   49.22    6.65
  -3   2   0   29.33    3.70
   3   2   0   36.48    5.53
  -3   2   0   36.64    4.77
  -3   2   0   38.34    5.13
  -3   2   0   38.88    4.67
   3   2   0   41.65    5.88
   3   2   0   44.36    5.01
   3   2   0   40.74    3.80
   3   2   0   44.09    6.23
  -3   2   0   37.85    4.45
   3   2   0   40.79    4.86
  -3   2   0   42.97    4.77
   3   2   0   40.17    2.68
  -3   2  -1  726.10   20.55
   3   2   1  709.54   13.47
   3   2   1  669.84   23.89
  -3   2  -1  701.77   21.52
  -3   2  -1  669.83   22.12
   3   2   1  729.27   22.27
   3   2   1  715.71   16.64
   3   2   1  756.26   21.83
   3   2   1  675.92   24.65
   3   3  -4  158.29   12.97
  -3   3   4  166.46   11.91
  -3   3   4  171.64   11.59
   3   3  -4  184.60   14.50
  -3   3   4  153.58    9.34
   3   3  -4  154.95    7.21
   3   3  -4  163.27   14.08
  -3   3   4  170.50    9.77
   3   3  -4  151.44   12.77
   3   3  -4  157.01   10.52
   3   3  -3  100.20   10.36
   3   3  -3  131.37   12.69
  -3   3   3   97.83    8.22
   3   3  -3  107.41    6.45
   3   3  -3  110.59   11.14
  -3   3   3   96.27    8.49
  -3   3   3  101.39    8.79
   3   3  -3  104.03    5.17
   3   3  -3  101.66    9.23
   3   3  -3  107.55   10.78
  -3   3   3   95.74    7.19
   3   3  -3   94.46    5.20
  -3   3   3   94.01    6.82
   3   3  -3   95.61   10.35
  -3   3   3   97.03    8.49
  -3   3   3   84.50    8.14
  -3   3   3   98.29    8.84
   3   3  -3   97.04    8.17
   3   3  -2   21.25    1.92
  -3   3   2   27.92    4.38
  -3   3   2   25.69    3.78
  -3   3   2   31.54    4.19
   3   3  -2   24.06    3.40
   3   3  -1  446.82   21.56
   3   3  -1  532.30   26.37
  -3   3   1  238.88   14.47
  -3   3   1  408.16   17.13
  -3   3   1  413.81   16.62
   3   3  -1  399.24   19.77
  -3   3   1  389.59   16.73
  -3   3   1  412.01   17.07
   3   3  -1  455.61   21.67
   3   3  -1  399.92   17.98
   3   3  -1  404.78   14.13
  -3   3   1  430.26   14.37
  -3   3   1  425.11   16.82
   3   3  -1  401.42   20.00
   3   3  -1  407.73   18.47
   3   3  -1  399.93   15.85
  -3   3   1  378.42   16.30
  -3   3   1  310.45   10.84
  -3   3   0  599.34   15.29
   3   3   0  779.75   29.07
  -3   3   0  447.72   19.41
   3   3   0  847.30   34.56
  -3   3   0  747.71   22.69
   3   3   0  775.15   27.80
  -3   3   0  587.32   20.48
  -3   3   0  772.99   24.37
  -3   3   0  797.12   23.86
   3   3   0  821.26   30.02
   3   3   0  697.30   24.18
   3   3   0  774.10   19.80
  -3   3   0  720.98   21.95
   3   3   0  769.74   21.97
   3   3   0  779.78   28.46
   3   3   1   53.91    7.57
   3   3   1   54.02    7.84
   3   3   1   56.79    8.33
   3   3   1   59.54    7.38
   3   3   1   53.30    5.44
  -3   3  -1   59.98    6.39
   3   4  -4    5.93    3.57
   3   4  -4    6.41    3.88
  -3   4   4    5.61    2.93
   3   4  -4   -0.88    2.68
   3   4  -4    3.36    3.19
  -3   4   4    7.12    3.37
   3   4  -4    5.52    3.48
  -3   4   4    5.88    2.96
  -3   4   4    0.95    1.84
  -3   4   4    0.53    1.79
   3   4  -4    4.03    2.09
   3   4  -3    5.67    2.70
  -3   4   3   12.59    3.56
  -3   4   3   15.27    4.21
   3   4  -3   11.15    3.77
  -3   4   3   11.92    3.66
  -3   4   3   16.08    4.33
   3   4  -3   14.13    5.01
   3   4  -3    9.75    2.91
  -3   4   3   11.27    3.35
   3   4  -3   12.39    4.97
   3   4  -3   10.84    3.19
  -3   4   3   14.52    3.82
   3   4  -3   15.74    4.93
  -3   4   3   11.35    3.69
   3   4  -3   12.77    3.39
   3   4  -2   58.26    8.79
  -3   4   2   54.72    6.16
  -3   4   2   49.60    6.97
  -3   4   2   58.72    7.39
  -3   4   2   55.78    7.30
   3   4  -2   56.23    8.37
  -3   4   2   66.90    7.89
   3   4  -2   57.29    8.71
  -3   4   2   58.84    6.94
   3   4  -2   63.75    9.53
  -3   4   2   55.32    6.31
   3   4  -2   60.47    6.44
   3   4  -2   57.37    7.87
  -3   4   2   57.66    7.19
   3   4  -2   65.25    6.64
  -3   4   1   95.71    8.07
  -3   4   1   97.90    9.01
  -3   4   1  109.32    8.60
  -3   4   1  103.58    9.34
  -3   4   0   76.86    8.54
  -3   4   0   36.28    6.95
   3   4   0   65.93   10.66
  -3   4   0   75.27    7.98
  -3   4   0   70.98    7.21
   3   4   0   59.30    8.88
  -3   4   0   73.29    8.32
  -3   4   0   83.08    8.65
   3   4   0   73.61    9.96
   3   4   0   80.67    7.50
   3   4   0   63.01    8.54
  -3   4   0   74.87    8.01
   3   4   0   83.94   10.37
  -3   4  -1   49.43    6.30
   3   4   1   58.88    8.83
   3   4   1   63.69    9.18
  -3   4  -1   52.17    7.30
   3   4   1   42.78    7.95
  -3   4  -1   58.94    7.36
   3   4   1   56.70    6.63
   3   4   1   65.90    8.87
  -3   4  -1   60.77    7.48
   3   5  -4    5.88    3.92
   3   5  -4    3.02    4.66
  -3   5   4    1.03    2.86
   3   5  -4    1.27    3.06
   3   5  -4    3.50    3.69
  -3   5   4    0.32    2.14
  -3   5   4   -0.72    2.22
   3   5  -3    0.55    2.86
  -3   5   3   -2.60    2.67
   3   5  -3   -2.01    3.77
  -3   5   3   -2.24    2.47
   3   5  -3   -5.25    4.47
  -3   5   3   -2.73    3.02
  -3   5   3    2.36    2.29
   3   5  -3    2.16    3.44
   3   5  -3    2.48    2.95
   3   5  -3    5.13    3.35
  -3   5   3    1.42    1.89
  -3   5   3   -0.96    3.11
   3   5  -3    0.69    2.04
  -3   5   3   -6.54    4.11
   3   5  -2   -0.23    3.28
  -3   5   2    7.18    3.77
   3   5  -2    2.84    3.55
  -3   5   2   -2.61    2.98
  -3   5   2    5.07    2.19
   3   5  -2    6.01    4.89
  -3   5   2    5.72    3.40
  -3   5   2    6.93    3.75
   3   5  -2    1.48    4.41
   3   5  -2    1.47    2.84
  -3   5   2    1.15    1.93
   3   5  -2    2.32    2.04
  -3   5   2    7.84    3.84
   3   5  -2    3.90    3.72
  -3   5   1    8.43    3.13
   3   5  -1   31.42    7.53
  -3   5   1   34.71    5.91
   3   5  -1   53.03   11.19
   3   5  -1   29.33    6.84
  -3   5   1   31.28    6.22
  -3   5   1   31.64    6.06
  -3   5   1   36.95    6.50
   3   5  -1   42.97    8.67
   3   5  -1   42.52    7.92
   3   5  -1   37.90    5.60
  -3   5   1   41.62    6.64
   3   5  -1   35.69    7.71
  -3   5   1   44.30    7.20
   3   5   0   24.31    7.03
  -3   5   0   -4.50    4.96
   3   5   0   10.24    6.47
   3   5   0   10.91    5.16
  -3   5   0   10.78    3.74
  -3   5   0   16.63    5.59
  -3   5   0   13.27    4.48
  -3   5   0    9.82    4.02
   3   5   0   14.77    5.56
   3   5   0    8.32    2.49
   3   5   0   15.72    5.40
  -3   5   0   10.26    3.68
   3   5   1    5.73    4.09
  -3   5  -1    1.46    2.69
   3   6  -4   21.03    7.56
   3   6  -4   25.91    9.20
   3   6  -4   20.24    7.80
  -3   6   3    2.91    2.59
   3   6  -3    5.03    4.09
   3   6  -3    7.05    7.04
  -3   6   3    4.11    3.21
   3   6  -3    4.88    4.40
  -3   6   3    4.27    4.38
  -3   6   3   -2.07    2.83
   3   6  -3   -6.34    5.03
   3   6  -3    3.65    3.43
   3   6  -3    1.03    4.14
  -3   6   3    9.01    3.25
  -3   6   3    8.57    4.47
   3   6  -2    8.73    7.16
   3   6  -2    3.48    4.05
  -3   6   2    4.24    4.28
  -3   6   2    6.56    4.22
   3   6  -2    3.76    4.12
  -3   6   2    3.53    3.18
  -3   6   2   -1.94    3.14
   3   6  -2   -3.41    4.25
   3   6  -2    2.55    3.13
   3   6  -2    0.67    3.26
  -3   6   2   -1.65    2.51
   3   6  -2   -0.89    2.42
  -3   6   2   -2.64    3.95
   3   6  -1    5.07    3.91
  -3   6   1    6.26    3.55
  -3   6   1    4.35    4.25
   3   6  -1    9.87    5.25
  -3   6   1   10.64    4.79
  -3   6   1    5.37    4.27
   3   6  -1    9.81    5.14
   3   6  -1   11.66    4.20
   3   6  -1    7.93    5.03
  -3   6   1    6.51    3.59
   3   6  -1    2.39    4.08
  -3   6   1    8.18    3.87
   3   6   0   12.37    6.93
   3   6   0    2.56    3.32
  -3   6   0    7.01    3.26
  -3   6   0    5.12    3.22
   3   6   0   13.84    6.23
  -3   6   0   14.58    4.92
   3   6   0    5.94    4.54
   3   6   0   10.78    4.10
   3   6   0    3.89    4.35
  -3   6   0    6.68    3.24
   3   7  -3   10.55    5.79
   3   7  -3    1.76    3.80
   3   7  -3    3.53    4.56
  -3   7   2    5.90    4.21
   3   7  -2   -8.64    8.26
   3   7  -2    2.78    3.65
  -3   7   2    7.34    4.64
  -3   7   2    0.67    3.10
   3   7  -2   -6.47    6.17
   3   7  -2    0.38    4.40
  -3   7   2    3.63    3.30
   3   7  -2   -4.03    3.97
  -3   7   2    0.77    3.56
   3   7  -1   -0.09    3.85
   3   7  -1    2.47    8.17
  -3   7   1   -1.04    3.37
  -3   7   1   -1.31    3.64
  -3   7   1   -3.28    4.20
   3   7  -1   -1.50    4.00
   3   7  -1    7.84    5.48
  -3   7   1    6.38    4.10
  -4  -6   4   10.40    4.23
  -4  -6   4   19.99    7.57
  -4  -6   4    9.64    5.54
   4  -6  -3    8.18    3.25
   4  -6  -3   11.16    5.50
  -4  -6   3    7.63    3.60
  -4  -6   3    7.38    3.94
  -4  -6   3    8.21    4.54
  -4  -6   3    4.86    5.52
  -4  -6   3    7.56    4.14
   4  -6  -2    5.37    4.06
  -4  -6   2    3.38    2.75
  -4  -6   2   10.39    5.43
  -4  -6   2   -0.68    2.56
  -4  -6   2    3.68    3.18
  -4  -6   2    1.80    3.33
  -4  -6   2    4.94    4.51
  -4  -6   2    4.54    3.42
   4  -6  -1   -1.93    3.49
  -4  -6   1    5.79    3.60
   4  -6  -1   -1.53    3.13
  -4  -6   1    2.08    4.70
  -4  -6   1    0.82    3.61
  -4  -6   1   13.13    6.29
  -4  -6   1    3.61    3.96
  -4  -6   1    6.54    4.30
   4  -5  -4   21.35    5.51
   4  -5  -4   16.62    5.27
   4  -5  -4   26.03    6.02
  -4  -5   4   26.26    6.54
  -4  -5   3    5.67    4.41
   4  -5  -3    4.01    3.90
  -4  -5   3    2.93    2.78
  -4  -5   3   13.49    4.76
   4  -5  -3    7.60    3.36
   4  -5  -3    6.89    3.59
  -4  -5   3    4.04    2.93
  -4  -5   3    6.03    4.50
  -4  -5   3    4.92    4.30
  -4  -5   2    8.54    4.47
   4  -5  -2    8.54    3.78
  -4  -5   2    9.35    4.10
  -4  -5   2    6.17    3.42
   4  -5  -2    5.44    3.42
  -4  -5   2    9.64    4.36
   4  -5  -2    7.71    4.20
  -4  -5   2    1.74    3.54
  -4  -5   2   10.15    4.36
  -4  -5   1    0.97    2.98
   4  -5  -1   -0.10    3.17
   4  -5  -1    1.79    3.01
  -4  -5   1    2.70    2.54
  -4  -5   1    7.48    4.48
  -4  -5   1    2.89    2.35
  -4  -5   1    5.96    3.67
  -4  -5   1   -3.68    3.13
  -4  -5   1   -4.91    3.67
  -4  -5   1   -4.66    3.29
   4  -5   0    2.79    3.71
   4  -5   0   -1.24    2.83
  -4  -5   0    4.72    3.32
  -4  -5   0   -2.49    3.09
  -4  -4   5    4.07    2.91
  -4  -4   4   13.99    4.34
   4  -4  -4   17.39    4.82
   4  -4  -4   19.01    4.82
   4  -4  -4   18.16    5.03
  -4  -4   4   14.08    4.61
  -4  -4   3   30.25    6.13
   4  -4  -3   30.00    6.14
  -4  -4   3   32.60    5.59
  -4  -4   3   35.72    5.91
   4  -4  -3   30.43    5.81
   4  -4  -3   33.02    6.72
  -4  -4   3   22.92    5.19
  -4  -4   3   33.16    6.81
  -4  -4   2    9.72    3.95
   4  -4  -2   15.57    4.89
   4  -4  -2    6.15    2.80
  -4  -4   2   12.51    3.70
  -4  -4   2   11.98    3.64
   4  -4  -2   13.86    3.93
  -4  -4   2   11.73    3.73
  -4  -4   2   15.55    4.98
  -4  -4   2   14.00    4.83
  -4  -4   1    4.35    3.03
   4  -4  -1    1.44    2.57
   4  -4  -1    3.77    3.14
   4  -4  -1   -0.77    2.32
  -4  -4   1   -1.08    2.27
   4  -4  -1    2.67    2.39
  -4  -4   1   -3.65    3.45
  -4  -4   1    0.96    2.47
  -4  -4   1    0.01    2.27
  -4  -4   0    5.54    4.41
   4  -4   0    7.75    3.72
   4  -4   0    2.18    2.43
  -4  -4   0    2.91    2.82
  -4  -4   0    6.51    3.92
  -4  -4   0    5.18    3.70
  -4  -4   0    4.29    3.12
  -4  -4   0    5.84    3.72
   4  -3  -5   21.38    5.34
  -4  -3   5   19.05    5.19
  -4  -3   4   27.19    6.02
   4  -3  -4   27.34    5.41
   4  -3  -4   23.20    5.41
   4  -3  -4   21.27    4.84
   4  -3  -4   21.42    4.81
  -4  -3   4   17.58    4.39
   4  -3  -4   23.47    4.98
   4  -3  -4   21.87    4.67
   4  -3  -3   45.12    6.54
  -4  -3   3   43.53    7.37
   4  -3  -3   48.12    7.22
   4  -3  -3   40.27    6.24
  -4  -3   3   42.14    6.03
  -4  -3   3   49.73    5.72
  -4  -3   3   52.02    5.99
   4  -3  -3   38.28    5.92
  -4  -3   3   41.04    6.59
   4  -3  -3   48.84    6.27
  -4  -3   2   34.87    6.51
   4  -3  -2   37.07    5.75
  -4  -3   2   37.76    5.00
  -4  -3   2   46.00    5.64
  -4  -3   2   28.91    4.78
   4  -3  -2   32.42    5.49
  -4  -3   2   31.62    5.86
  -4  -3   2   38.60    6.17
  -4  -3   2   36.76    6.30
   4  -3  -2   44.92    6.12
  -4  -3   1   40.93    6.93
   4  -3  -1   35.28    5.97
   4  -3  -1   39.27    6.15
  -4  -3   1   38.44    6.68
   4  -3  -1   36.10    5.60
  -4  -3   1   43.27    5.90
  -4  -3   1   27.82    5.41
  -4  -3   1   34.06    6.32
  -4  -3   1   34.40    6.28
  -4  -3   0   53.49    6.83
   4  -3   0   56.65    7.44
   4  -3   0   51.27    7.28
  -4  -3   0   41.77    7.29
   4  -3   0   48.59    6.71
  -4  -3   0   49.89    7.15
  -4  -3   0   45.24    7.56
  -4  -3   0   49.02    7.59
  -4  -3   0   60.94    8.21
  -4  -2   5   54.36    7.74
  -4  -2   4   10.83    3.74
  -4  -2   4   19.11    4.57
   4  -2  -4   11.87    3.77
   4  -2  -4   14.72    3.81
  -4  -2   4   19.89    4.50
   4  -2  -4   11.27    3.26
   4  -2  -4   13.95    3.78
   4  -2  -3   10.26    3.50
  -4  -2   3   16.12    4.41
   4  -2  -3   18.62    4.38
   4  -2  -3   13.73    3.60
   4  -2  -3   15.62    3.65
  -4  -2   3   15.76    3.55
   4  -2  -3   14.06    3.64
  -4  -2   3   11.86    3.51
   4  -2  -3   16.84    3.88
  -4  -2   2   15.87    4.34
   4  -2  -2   16.06    3.99
   4  -2  -2   15.75    3.92
  -4  -2   2   15.07    3.76
  -4  -2   2   16.75    3.88
  -4  -2   2   15.20    3.79
  -4  -2   1  116.34   10.84
   4  -2  -1  114.35    9.75
   4  -2  -1  109.96    9.03
  -4  -2   1  106.63    9.32
  -4  -2   1  110.86   10.10
   4  -2  -1  104.14    9.00
  -4  -2   1  114.53   10.12
  -4  -2   1   96.16    9.25
  -4  -2   1  117.14   10.27
   4  -2  -1  132.67   10.05
   4  -2   0  385.21   18.12
   4  -2   0  373.19   16.88
  -4  -2   0  362.41   17.36
   4  -2   0  416.83   18.41
  -4  -2   0  376.60   18.70
  -4  -2   0  369.60   19.36
   4  -2   0  434.22   14.11
  -4  -2   0  390.06   18.94
   4  -1  -5   40.55    4.58
  -4  -1   5   34.50    6.16
   4  -1  -5   30.14    5.32
   4  -1  -5   29.20    5.85
   4  -1  -4    2.27    2.19
  -4  -1   4    5.77    2.52
   4  -1  -4    4.36    2.32
   4  -1  -4   10.25    2.26
  -4  -1   4    8.77    2.12
   4  -1  -4    7.41    2.53
  -4  -1   4   12.31    4.16
   4  -1  -4    7.30    2.65
  -4  -1   4    5.66    2.90
   4  -1  -4    8.29    3.25
  -4  -1   3   49.59    6.89
   4  -1  -3   51.91    6.94
   4  -1  -3   52.16    5.97
  -4  -1   3   53.14    4.26
   4  -1  -3   59.86    6.07
   4  -1  -3   47.16    6.11
  -4  -1   3   52.63    6.94
   4  -1  -3   40.85    5.62
  -4  -1   2   97.10    9.41
   4  -1  -2  109.44    8.63
  -4  -1   2  109.12    5.68
   4  -1  -2  112.56    7.95
   4  -1  -2  110.27    9.44
   4  -1  -2  123.29    7.34
   4  -1  -2  107.57    8.83
  -4  -1   2  105.33    9.77
   4  -1  -2  115.84    8.63
  -4  -1   2  106.76    9.11
   4  -1  -2  108.80    9.32
  -4  -1   2  104.48    9.09
   4  -1  -1  120.97    8.98
   4  -1  -1  125.17    8.47
   4  -1  -1  140.94    7.59
  -4  -1   1  120.10    9.83
  -4  -1   1  133.47    6.30
  -4  -1   1  146.30    6.09
  -4  -1   1  147.99    6.16
   4  -1  -1  121.09    9.23
  -4  -1   1  132.93   10.69
   4  -1  -1  144.64    9.63
  -4  -1   1  135.48   10.34
   4  -1  -1  133.56    9.97
   4  -1   0   15.49    3.58
   4  -1   0   21.49    3.23
   4  -1   0   19.46    3.71
  -4  -1   0   14.07    2.19
   4  -1   0   14.85    3.11
   4  -1   0   15.73    3.45
  -4  -1   0   18.14    4.44
  -4  -1   0   25.39    4.68
   4  -1   0   17.67    3.95
  -4   0   5   12.14    3.96
  -4   0   5    7.99    2.57
   4   0  -5    9.54    2.89
   4   0  -5    7.70    3.03
   4   0  -5    4.39    2.75
   4   0  -5    7.30    3.09
   4   0  -4   27.19    5.33
  -4   0   4   26.03    4.80
   4   0  -4   28.78    4.53
  -4   0   4   30.42    4.09
   4   0  -4   24.33    4.60
   4   0  -4   41.65    4.79
  -4   0   4   32.77    5.43
   4   0  -4   23.55    4.13
  -4   0   4   34.54    5.45
   4   0  -4   28.95    5.09
  -4   0   3   18.24    4.15
   4   0  -3   19.24    4.87
   4   0  -3   23.12    4.33
  -4   0   3   14.50    2.75
   4   0  -3   15.46    3.03
   4   0  -3   20.00    3.24
   4   0  -3   20.82    4.23
   4   0  -3   19.67    4.08
  -4   0   3   18.12    3.32
   4   0  -3   26.10    3.88
   4   0  -3   17.54    3.76
  -4   0   3   16.64    4.15
  -4   0   3   14.87    3.46
  -4   0   3   15.41    2.67
   4   0  -3   20.45    4.54
  -4   0   3   16.85    2.30
   4   0  -3   17.39    3.82
  -4   0   2  304.55   15.88
   4   0  -2  346.82   13.87
  -4   0   2  341.38   12.36
   4   0  -2  345.62   12.23
   4   0  -2  330.11   15.05
  -4   0   2  334.77   16.54
   4   0  -2  362.96   14.77
  -4   0   2  345.97   12.37
   4   0  -2  335.99   14.93
  -4   0   2  339.96   16.12
   4   0  -2  371.77   17.06
  -4   0   2  315.19   14.41
  -4   0   2  329.07    9.52
   4   0  -2  345.50   16.47
   4   0  -1  172.61    9.78
  -4   0   1  151.95    8.12
   4   0  -1  169.89    8.61
   4   0  -1  174.30   10.31
  -4   0   1  171.42   11.98
  -4   0   1  164.24    8.55
   4   0  -1  160.22   10.22
  -4   0   1  140.29   10.54
  -4   0   1  172.42   10.72
  -4   0   1  169.19   10.70
   4   0  -1  174.01   11.54
   4   0  -1  169.85   11.44
   4   0   0    2.09    2.10
   4   0   0    1.35    1.11
   4   0   0    2.80    2.36
   4   0   0    0.36    1.11
  -4   0   0    1.43    1.05
   4   0   0    2.42    1.81
  -4   0   0    3.05    2.39
   4   0   0   -3.02    2.68
   4   1  -5   45.76    5.30
  -4   1   5   33.50    5.77
   4   1  -5   27.01    5.88
  -4   1   4    6.36    2.42
   4   1  -4    9.65    3.52
   4   1  -4    9.82    2.44
  -4   1   4    6.43    2.07
   4   1  -4    9.65    2.85
   4   1  -4    4.26    2.44
   4   1  -4    9.23    3.41
   4   1  -4    8.30    2.89
  -4   1   4    4.31    2.54
   4   1  -4    7.04    2.15
  -4   1   4    8.55    2.91
   4   1  -4   11.10    3.66
   4   1  -4    7.67    3.46
   4   1  -3   57.29    7.21
  -4   1   3   43.65    5.80
   4   1  -3   59.04    7.66
   4   1  -3   66.74    6.30
  -4   1   3   50.97    5.56
   4   1  -3   48.42    5.48
  -4   1   3   45.23    5.34
   4   1  -3   50.51    6.39
   4   1  -3   57.85    6.67
   4   1  -3   45.85    5.34
  -4   1   3   54.29    6.55
  -4   1   3   54.99    6.88
  -4   1   3   48.81    4.78
   4   1  -3   48.73    6.48
   4   1  -2  133.73   10.79
   4   1  -2  121.33    7.38
  -4   1   2  107.25    7.87
   4   1  -2  116.79    8.52
  -4   1   2  107.93    9.55
   4   1  -2  103.93    9.28
  -4   1   2  108.34    8.02
   4   1  -2  107.60    9.30
   4   1  -2   96.99    7.48
  -4   1   2  103.29    8.61
   4   1  -2  113.85   10.48
  -4   1   2  115.77    7.33
   4   1  -2  110.71    9.54
  -4   1   2   94.30    8.38
  -4   1   1   97.52    8.69
   4   1  -1  122.22    7.36
  -4   1   1  124.39    8.18
   4   1  -1  140.37    6.34
   4   1  -1  116.49    9.77
  -4   1   1  129.65   10.70
  -4   1   1  128.33    8.63
   4   1  -1  142.84    6.98
   4   1  -1  135.03    9.02
  -4   1   1  132.69    7.79
   4   1  -1  108.21    9.01
   4   1  -1  137.59   11.27
  -4   1   0   16.81    3.27
   4   1   0   18.58    2.95
   4   1   0   14.03    3.55
   4   1   0   15.48    2.25
  -4   1   0   16.56    3.37
   4   1   0   20.74    3.10
   4   1   0   18.72    4.44
   4   1   0   17.09    3.96
   4   2  -5   55.12    7.68
   4   2  -5   72.86    8.58
  -4   2   5   55.90    7.21
   4   2  -5   58.50    8.01
   4   2  -5   44.72    5.56
   4   2  -5   50.19    7.22
   4   2  -4   16.42    4.01
   4   2  -4   20.71    4.53
  -4   2   4   14.98    3.88
   4   2  -4   12.50    2.94
   4   2  -4   12.01    4.14
   4   2  -4   14.28    4.10
   4   2  -4   12.07    2.71
   4   2  -4   12.79    4.39
  -4   2   4   19.13    3.85
   4   2  -4   12.32    3.39
   4   2  -4   13.75    4.21
   4   2  -3   12.46    3.80
  -4   2   3    7.20    2.43
   4   2  -3   15.36    4.22
   4   2  -3   21.16    4.81
  -4   2   3   17.82    3.81
   4   2  -3   12.49    3.87
   4   2  -3   14.28    2.90
   4   2  -3    4.30    2.62
  -4   2   3    8.97    2.79
   4   2  -3   12.85    4.19
   4   2  -3   12.95    3.04
  -4   2   3   14.78    4.01
  -4   2   3   16.96    3.76
  -4   2   3   11.29    2.92
   4   2  -3   14.71    3.71
  -4   2   2   12.24    3.13
   4   2  -2   11.88    3.98
   4   2  -2   12.14    4.04
   4   2  -2   13.18    3.77
   4   2  -2    8.50    3.39
  -4   2   2   18.06    3.94
  -4   2   2   13.08    3.09
   4   2  -2   21.82    4.93
  -4   2   2   16.39    4.02
  -4   2   2   15.22    3.01
   4   2  -2   13.96    4.39
  -4   2   1   87.36    7.82
  -4   2   1  110.29    8.65
   4   2  -1  117.67   10.89
  -4   2   1  115.48    9.20
  -4   2   1  126.51    9.13
   4   2  -1  131.53   11.64
   4   2  -1  116.29    8.54
  -4   2   1  107.20    7.98
   4   2  -1  120.70   11.60
   4   2  -1  121.78    9.85
  -4   2   1  121.53    8.92
   4   2   0  416.94   21.51
   4   2   0  396.19   11.30
  -4   2   0  401.89   16.70
   4   2   0  384.21   19.46
  -4   2   0  359.97   18.44
  -4   2   0  393.91   17.38
   4   2   0  411.53   16.44
   4   2   0  412.38   11.59
  -4   2   0  430.93   16.32
   4   2   0  368.09   17.45
   4   3  -5   22.60    5.42
   4   3  -5   34.82    7.07
  -4   3   5   23.33    5.34
   4   3  -5   21.78    5.69
   4   3  -5   16.16    5.38
   4   3  -5   28.60    6.22
  -4   3   5   24.82    3.85
   4   3  -5   22.63    4.99
   4   3  -4   27.45    6.46
   4   3  -4   29.61    6.77
  -4   3   4   16.41    4.16
   4   3  -4   16.97    3.28
   4   3  -4   21.50    5.78
  -4   3   4   18.10    4.31
  -4   3   4   23.10    5.11
   4   3  -4   24.01    5.65
   4   3  -4   24.50    6.46
   4   3  -4   21.54    3.48
  -4   3   4   26.14    3.90
  -4   3   4   18.84    4.06
   4   3  -4   14.22    3.65
  -4   3   3   37.59    5.98
   4   3  -3   40.59    7.08
   4   3  -3   49.79    8.40
  -4   3   3   40.22    6.38
   4   3  -3   48.61    5.19
  -4   3   3   52.44    6.97
  -4   3   3   50.63    6.93
  -4   3   3   40.96    6.18
  -4   3   3   50.87    4.92
  -4   3   3   51.26    6.62
   4   3  -3   39.57    5.97
   4   3  -3   38.64    6.86
   4   3  -2   28.24    5.98
   4   3  -2   38.38    7.29
   4   3  -2   42.50    8.06
  -4   3   2   33.74    5.39
  -4   3   2   33.56    5.58
   4   3  -2   34.10    6.36
  -4   3   2   33.07    5.33
   4   3  -2   32.44    6.45
   4   3  -2   41.36    6.28
   4   3  -2   31.33    6.51
  -4   3   2   42.91    5.91
   4   3  -2   30.06    5.24
  -4   3   2   21.77    3.99
  -4   3   1   28.03    4.40
   4   3  -1   40.58    6.67
   4   3  -1   35.29    6.67
  -4   3   1   29.19    5.11
   4   3  -1   40.52    7.11
  -4   3   1   35.95    5.63
  -4   3   1   37.85    5.72
  -4   3   1   34.65    5.72
   4   3  -1   33.28    6.70
   4   3  -1   30.31    6.48
   4   3  -1   30.63    3.62
  -4   3   1   35.05    5.91
   4   3  -1   34.05    5.51
  -4   3   1   34.04    5.21
   4   3  -1   35.30    5.50
   4   3   0   49.88    8.26
  -4   3   0   31.46    4.65
  -4   3   0   51.93    6.79
   4   3   0   45.85    7.66
  -4   3   0   58.04    7.50
   4   3   0   61.22    7.65
   4   3   0   58.62    8.79
   4   3   0   63.30    6.09
  -4   3   0   52.22    7.17
  -4   3   0   59.40    6.87
   4   3   0   52.29    6.90
   4   4  -5   12.04    5.32
   4   4  -5    8.10    4.53
   4   4  -5   12.63    5.01
   4   4  -5    9.20    3.45
   4   4  -4   18.40    6.16
   4   4  -4   10.97    5.11
  -4   4   4   22.62    5.36
   4   4  -4   14.21    5.40
  -4   4   4   14.61    4.50
   4   4  -4   23.16    6.44
   4   4  -4   24.24    6.90
  -4   4   4   17.94    3.79
  -4   4   4   13.43    3.67
   4   4  -4   15.09    4.16
  -4   4   3   35.18    6.11
   4   4  -3   40.75    8.24
   4   4  -3   54.38   10.54
  -4   4   3   33.58    6.40
   4   4  -3   30.36    7.36
  -4   4   3   33.73    6.19
  -4   4   3   28.18    5.72
  -4   4   3   29.53    5.76
   4   4  -3   32.33    7.03
   4   4  -3   39.92    7.02
  -4   4   3   28.33    4.53
   4   4  -3   34.31    7.81
  -4   4   3   39.96    6.58
   4   4  -3   34.57    6.02
   4   4  -2   18.88    6.21
   4   4  -2    9.77    5.71
  -4   4   2   13.72    4.35
  -4   4   2   16.36    4.68
   4   4  -2   12.94    4.85
  -4   4   2   15.87    4.08
  -4   4   2    9.23    3.71
   4   4  -2   10.06    4.06
   4   4  -2   17.04    5.73
  -4   4   2   12.04    3.44
   4   4  -2   18.90    5.10
   4   4  -2   11.06    3.25
  -4   4   2   13.48    3.38
  -4   4   2    9.06    2.95
   4   4  -2   12.32    3.94
  -4   4   1    2.56    2.95
  -4   4   1   -2.64    3.22
   4   4  -1    2.21    2.95
  -4   4   1   -2.18    2.72
  -4   4   1    0.60    2.13
   4   4  -1    5.17    3.78
  -4   4   1   -0.70    2.32
   4   4  -1    1.59    1.45
   4   4  -1    1.50    2.52
  -4   4   1   -0.35    2.38
   4   4  -1   -0.33    2.90
   4   4  -1    5.53    2.84
  -4   4   0    5.80    3.56
   4   4   0    4.54    3.76
  -4   4   0    3.90    2.64
   4   4   0   10.06    5.28
   4   4   0    4.89    4.19
  -4   4   0    7.06    2.93
   4   4   0    2.91    2.59
  -4   4   0    0.41    2.14
   4   5  -4   31.64    8.50
   4   5  -4   39.08   10.39
  -4   5   4   33.70    7.22
   4   5  -4   28.38    7.88
   4   5  -4   18.74    5.67
  -4   5   4   30.22    6.92
   4   5  -4   26.11    7.53
  -4   5   4   27.68    6.41
   4   5  -4   25.76    5.59
  -4   5   3    5.23    3.19
   4   5  -3   -0.46    3.62
   4   5  -3   12.32    6.08
  -4   5   3    3.34    2.38
   4   5  -3   11.93    5.41
  -4   5   3    1.91    3.38
  -4   5   3    8.94    4.45
   4   5  -3    9.31    5.12
   4   5  -3    8.01    4.07
   4   5  -3    2.32    2.93
  -4   5   3    5.60    2.96
  -4   5   3   15.67    5.54
   4   5  -3    5.49    2.34
   4   5  -2    7.72    4.89
   4   5  -2    6.97    4.79
   4   5  -2    8.53    4.14
  -4   5   2   10.23    4.10
  -4   5   2    5.75    3.44
   4   5  -2   -0.57    4.07
  -4   5   2    7.23    3.70
  -4   5   2    2.08    2.80
   4   5  -2    7.71    5.03
   4   5  -2   15.47    6.27
   4   5  -2    6.03    3.58
  -4   5   2    9.57    3.90
   4   5  -2    5.98    2.90
  -4   5   1   -5.66    3.51
  -4   5   1    6.95    4.24
   4   5  -1    1.25    3.20
  -4   5   1    0.31    3.57
  -4   5   1   -6.17    4.37
   4   5  -1    2.15    4.33
   4   5  -1   -1.15    3.71
   4   5  -1    3.59    4.27
  -4   5   1   -0.06    2.57
   4   5   0   -2.67    4.58
   4   5   0   -5.66    5.28
  -4   5   0    3.82    3.25
  -4   5   0    0.90    3.00
   4   6  -4   14.53    6.93
   4   6  -4   20.73    7.41
   4   6  -4   20.31    7.82
   4   6  -3   14.42    8.35
   4   6  -3    1.51    4.11
  -4   6   3   10.38    5.05
   4   6  -3    1.44    3.50
   4   6  -3    1.06    3.72
  -4   6   3    5.36    4.25
   4   6  -3    1.96    4.40
  -4   6   2    5.73    3.89
   4   6  -2   11.02    7.09
  -4   6   2    0.20    2.99
   4   6  -2    7.96    4.67
  -4   6   2    6.71    4.36
  -4   6   2    8.80    4.99
   4   6  -2   10.67    6.05
   4   6  -2   11.47    6.16
   4   6  -2    7.14    5.16
  -4   6   2    4.36    3.81
   4   6  -1    9.03    6.71
  -4   6   1    7.16    4.95
   4   6  -1    5.74    4.20
   4   6  -1   -1.53    4.07
   4   6  -1   -2.36    4.66
  -4   6   1   11.18    4.88
   5  -5  -4    1.04    3.45
   5  -5  -4    3.41    3.35
   5  -5  -4    6.31    4.00
  -5  -5   4    2.81    3.88
  -5  -5   4    2.23    3.92
  -5  -5   4    3.74    4.07
  -5  -5   3   14.60    5.65
   5  -5  -3   22.06    7.27
   5  -5  -3   23.12    6.78
  -5  -5   3   18.82    6.41
   5  -5  -3   26.26    6.77
  -5  -5   3   20.68    6.45
  -5  -5   3   24.58    7.57
  -5  -5   3   14.91    5.74
  -5  -5   2   11.00    5.02
   5  -5  -2   19.97    6.79
   5  -5  -2    7.99    4.38
  -5  -5   2    6.39    4.68
   5  -5  -2    3.31    3.43
  -5  -5   2   15.12    5.20
  -5  -5   2    7.63    5.14
  -5  -5   2    7.54    5.29
  -5  -5   2    7.92    5.36
   5  -5  -1   11.92    5.08
   5  -5  -1   13.37    5.34
  -5  -5   1    8.81    4.70
  -5  -5   1    3.25    3.08
   5  -4  -5   -0.28    2.84
  -5  -4   5    8.99    5.08
  -5  -4   4   24.41    6.95
   5  -4  -4   36.39    7.53
   5  -4  -4   30.04    6.29
   5  -4  -4   25.52    5.97
  -5  -4   4   26.50    6.87
  -5  -4   4   24.52    6.64
  -5  -4   4   20.79    5.66
  -5  -4   3    5.48    3.29
   5  -4  -3   15.43    5.68
   5  -4  -3    7.13    4.67
   5  -4  -3    5.63    2.62
  -5  -4   3    4.27    2.63
  -5  -4   3   13.21    5.55
  -5  -4   3    9.97    5.13
  -5  -4   2   20.77    6.67
   5  -4  -2   32.62    7.14
   5  -4  -2   27.47    6.70
  -5  -4   2   14.70    4.74
   5  -4  -2   16.41    5.13
  -5  -4   2   15.90    5.39
  -5  -4   2   13.18    4.97
  -5  -4   2   12.09    4.47
  -5  -4   1    4.31    3.17
   5  -4  -1    4.47    3.99
   5  -4  -1    5.31    3.91
  -5  -4   1    7.63    4.62
  -5  -4   1   -1.84    3.34
  -5  -4   1    4.53    4.99
  -5  -3   5   12.73    5.35
   5  -3  -5    9.67    4.45
  -5  -3   5   14.08    4.45
  -5  -3   4   -1.57    2.89
   5  -3  -4   -3.63    3.25
   5  -3  -4   -3.51    2.53
   5  -3  -4   -0.32    2.94
  -5  -3   4    1.31    2.59
  -5  -3   4    0.37    2.82
   5  -3  -4    2.12    2.52
   5  -3  -3    3.64    3.58
  -5  -3   3   -6.49    3.79
   5  -3  -3    3.55    3.05
   5  -3  -3    3.20    2.80
  -5  -3   3    0.48    2.14
   5  -3  -3    5.30    3.56
  -5  -3   3   -0.96    2.43
  -5  -3   3    1.35    2.45
  -5  -3   3    2.51    2.84
   5  -3  -3   -0.70    2.23
  -5  -3   2   -2.63    2.65
   5  -3  -2    2.20    2.91
   5  -3  -2    2.77    2.96
   5  -3  -2    5.49    3.34
  -5  -3   2    4.14    3.38
  -5  -3   2    1.40    2.45
   5  -3  -2    6.01    3.59
  -5  -3   2    7.23    4.09
  -5  -3   2    0.20    3.01
  -5  -3   2    3.29    2.77
  -5  -3   1    3.52    3.41
   5  -3  -1    2.69    3.33
   5  -3  -1    5.60    3.02
   5  -3  -1    0.76    2.61
  -5  -3   1    2.93    2.34
  -5  -3   1    8.69    4.23
  -5  -3   1   -0.22    2.41
  -5  -3   1    9.32    4.51
  -5  -2   5   31.13    6.71
   5  -2  -5   28.68    5.93
  -5  -2   5   22.33    5.70
   5  -2  -5   25.43    6.24
   5  -2  -5   35.07    6.61
  -5  -2   4    6.02    3.84
   5  -2  -4    6.13    2.99
   5  -2  -4    8.08    3.72
   5  -2  -4   12.15    3.79
  -5  -2   4    9.72    4.22
   5  -2  -4   11.29    4.15
  -5  -2   4   12.69    4.59
  -5  -2   4    6.30    2.86
   5  -2  -4   15.91    4.83
   5  -2  -4    8.51    3.16
  -5  -2   3    3.87    3.34
   5  -2  -3    5.60    4.54
   5  -2  -3    4.08    2.51
   5  -2  -3    3.42    2.51
  -5  -2   3    2.44    2.36
  -5  -2   3    3.47    3.10
   5  -2  -3    1.53    2.26
  -5  -2   3    2.51    2.72
  -5  -2   3    2.41    2.63
  -5  -2   3   -2.70    2.83
   5  -2  -3    2.86    2.09
  -5  -2   2   12.24    4.07
   5  -2  -2   29.58    5.89
   5  -2  -2   27.45    5.22
  -5  -2   2   20.71    4.88
   5  -2  -2   20.59    4.83
  -5  -2   2   27.78    5.52
  -5  -2   2   23.44    5.71
  -5  -2   2   23.91    5.77
  -5  -2   2   26.89    6.20
   5  -2  -2   18.57    4.89
  -5  -2   1   56.35    8.64
   5  -2  -1   80.62    9.34
   5  -2  -1   80.53    8.71
  -5  -2   1   80.16    9.45
   5  -2  -1   81.40    9.30
  -5  -2   1   83.77    9.96
  -5  -2   1   76.26    9.95
  -5  -2   1   81.37    9.78
   5  -2   0    7.62    4.04
   5  -2   0    0.61    1.80
  -5  -1   5   31.76    6.60
   5  -1  -5   31.39    6.28
   5  -1  -5   36.05    6.37
  -5  -1   5   36.15    6.91
   5  -1  -5   37.85    6.80
   5  -1  -5   29.89    6.86
   5  -1  -4   27.07    6.35
  -5  -1   4   18.20    4.63
   5  -1  -4   24.97    4.96
   5  -1  -4   13.96    4.17
  -5  -1   4   20.90    5.14
   5  -1  -4   17.52    4.48
  -5  -1   4   18.89    4.82
  -5  -1   4   15.26    3.81
   5  -1  -4   25.68    5.75
  -5  -1   3   39.84    7.32
   5  -1  -3   38.46    7.15
   5  -1  -3   36.42    5.77
   5  -1  -3   41.53    5.71
  -5  -1   3   43.84    6.21
   5  -1  -3   31.03    5.84
  -5  -1   3   39.58    6.86
  -5  -1   3   36.24    6.50
  -5  -1   3   34.53    5.64
  -5  -1   3   31.39    5.68
  -5  -1   2   12.60    3.95
   5  -1  -2   21.09    4.36
   5  -1  -2   19.09    4.13
   5  -1  -2   19.09    4.47
  -5  -1   2   18.51    4.74
  -5  -1   2   22.83    5.57
   5  -1  -2   15.90    4.13
  -5  -1   2   13.40    3.92
   5  -1  -2   17.70    4.84
  -5  -1   1    4.47    3.33
   5  -1  -1    1.90    1.81
   5  -1  -1   -0.06    1.56
   5  -1  -1   -0.52    2.29
   5  -1  -1    3.29    3.00
  -5  -1   1   -3.53    2.79
  -5  -1   1   -0.65    2.39
  -5  -1   1   -1.22    2.91
  -5  -1   1    2.03    2.37
   5  -1  -1    1.28    2.19
   5  -1   0  166.08   12.49
   5  -1   0  142.84   10.61
  -5  -1   0  146.18   13.13
  -5   0   5   17.60    4.88
   5   0  -5   16.19    3.78
  -5   0   5   17.50    3.97
   5   0  -5   14.49    4.42
  -5   0   5   18.50    5.19
   5   0  -5    9.71    3.16
  -5   0   5   18.47    5.14
   5   0  -5   20.98    4.83
   5   0  -5   15.06    4.97
   5   0  -4    8.81    4.45
  -5   0   4   11.97    4.38
   5   0  -4   14.81    4.15
  -5   0   4   12.88    3.10
   5   0  -4    9.78    3.46
  -5   0   4    8.70    3.92
   5   0  -4    8.71    3.06
  -5   0   4    6.60    3.05
   5   0  -4   10.66    4.31
  -5   0   3   -0.89    2.48
   5   0  -3   -2.68    2.32
  -5   0   3    2.63    1.83
   5   0  -3   -0.38    1.52
   5   0  -3   -2.52    2.38
   5   0  -3    2.21    2.70
   5   0  -3    0.44    1.86
  -5   0   3    0.02    2.23
   5   0  -3   -2.06    2.43
  -5   0   3   -1.01    2.43
  -5   0   3    0.07    2.18
   5   0  -3    1.30    2.41
  -5   0   2    0.50    1.30
   5   0  -2    3.94    2.42
   5   0  -2    6.67    3.89
  -5   0   2    1.07    1.44
   5   0  -2    4.04    2.86
  -5   0   2    2.16    3.05
  -5   0   2    1.12    1.88
  -5   0   2    0.48    1.54
   5   0  -2   -1.04    2.30
  -5   0   1    1.98    2.29
   5   0  -1    3.76    3.56
   5   0  -1    0.37    1.98
   5   0  -1    2.31    2.36
   5   0  -1    1.92    1.24
  -5   0   1    5.05    2.30
   5   0  -1    3.16    2.06
  -5   0   1    1.51    2.53
   5   0  -1    3.35    2.85
   5   0   0    6.36    3.16
   5   0   0    6.08    2.85
  -5   0   0    3.82    3.43
   5   0   0    5.16    2.93
   5   1  -5   33.63    6.25
  -5   1   5   36.63    5.46
   5   1  -5   36.97    6.02
  -5   1   5   37.65    7.09
   5   1  -5   39.94    6.54
   5   1  -5   26.95    4.74
  -5   1   5   33.88    4.99
   5   1  -5   30.06    6.07
   5   1  -5   33.21    7.64
  -5   1   4   17.32    4.67
   5   1  -4   30.23    6.25
  -5   1   4   24.14    4.14
   5   1  -4   20.05    4.29
   5   1  -4   21.72    5.49
   5   1  -4   19.25    5.29
   5   1  -4   24.37    5.05
  -5   1   4   16.47    4.29
   5   1  -4   18.26    4.13
  -5   1   4   26.04    5.46
  -5   1   4   22.34    4.32
  -5   1   4   22.59    3.85
   5   1  -4   18.90    4.77
   5   1  -4   20.01    5.80
   5   1  -3   41.85    7.25
  -5   1   3   34.95    5.20
   5   1  -3   38.81    5.66
  -5   1   3   41.42    5.65
   5   1  -3   39.95    6.73
  -5   1   3   38.98    7.07
  -5   1   3   38.74    6.18
  -5   1   3   38.16    5.60
  -5   1   3   38.29    4.69
  -5   1   3   38.78    5.70
   5   1  -3   35.01    6.35
  -5   1   2   12.01    3.70
   5   1  -2   19.60    5.86
  -5   1   2   17.55    3.60
   5   1  -2   18.31    3.64
   5   1  -2   18.78    4.79
  -5   1   2   19.14    3.91
   5   1  -2   17.81    4.05
   5   1  -2   15.07    4.90
  -5   1   2   14.69    4.20
   5   1  -2   21.15    5.12
  -5   1   2   21.36    3.65
  -5   1   1   -0.38    1.99
  -5   1   1    3.13    1.90
   5   1  -1    2.83    1.41
   5   1  -1    6.24    3.74
  -5   1   1    1.26    1.58
   5   1  -1    2.22    2.91
  -5   1   1   -3.08    3.28
   5   1  -1    3.16    2.63
   5   1   0  157.69   12.82
  -5   1   0  124.31   12.67
  -5   1   0  160.71   11.24
   5   1   0  174.73   14.95
   5   2  -5   33.24    6.37
  -5   2   5   33.50    6.89
  -5   2   5   31.03    5.76
   5   2  -5   23.48    4.51
   5   2  -5   40.59    8.21
   5   2  -5   37.19    7.09
   5   2  -5   20.66    4.37
  -5   2   5   27.95    4.81
   5   2  -5   29.07    6.01
   5   2  -4    5.96    3.43
  -5   2   4    6.91    3.27
   5   2  -4    4.97    2.33
   5   2  -4    9.86    4.67
  -5   2   4    5.50    3.06
   5   2  -4    8.60    3.35
  -5   2   4    2.40    2.36
   5   2  -4   13.61    5.82
   5   2  -4    5.02    2.31
  -5   2   4    6.21    2.87
   5   2  -4    8.52    3.22
   5   2  -4    2.93    3.17
   5   2  -3    4.57    2.63
  -5   2   3    4.35    2.89
   5   2  -3    3.75    3.69
   5   2  -3    2.44    3.66
  -5   2   3    1.99    2.43
   5   2  -3    3.23    2.04
   5   2  -3    3.69    2.52
  -5   2   3    3.78    2.82
   5   2  -3    3.74    2.34
  -5   2   3    6.81    3.30
   5   2  -3    5.06    2.44
  -5   2   3   -1.07    2.11
   5   2  -3    0.92    2.49
  -5   2   2   17.77    4.52
   5   2  -2   28.60    6.84
  -5   2   2   19.83    4.58
   5   2  -2   36.63    7.22
  -5   2   2   30.48    5.60
   5   2  -2   21.59    5.83
  -5   2   2   22.02    5.22
   5   2  -2   25.12    6.32
   5   2  -2   18.76    4.80
  -5   2   2   30.33    4.64
  -5   2   1   58.27    7.58
  -5   2   1   82.95    8.51
  -5   2   1   70.80    9.56
   5   2  -1   89.50   10.61
  -5   2   1   83.42    8.86
   5   2  -1   80.91   10.76
   5   2  -1   90.68    9.95
   5   2   0    1.99    2.36
  -5   2   0    4.53    2.49
  -5   2   0    5.53    3.45
   5   3  -5   19.16    5.93
  -5   3   5   14.97    4.66
   5   3  -5    2.84    2.83
   5   3  -5   10.04    4.35
   5   3  -5   15.45    5.52
  -5   3   5   10.98    4.08
   5   3  -5    5.43    2.87
   5   3  -4    1.43    3.85
  -5   3   4    5.14    3.43
   5   3  -4    2.54    3.56
  -5   3   4    5.12    3.43
  -5   3   4    5.59    3.84
   5   3  -4   -0.37    4.03
   5   3  -4   -5.67    5.11
   5   3  -4   -0.30    2.75
  -5   3   4    0.88    2.00
   5   3  -4    1.58    2.98
   5   3  -3   -2.42    3.03
   5   3  -3   -0.03    3.24
  -5   3   3    3.01    2.42
   5   3  -3   -3.11    3.65
  -5   3   3    0.32    2.46
   5   3  -3   -6.44    4.59
  -5   3   3   -0.18    2.71
  -5   3   3   -0.85    2.17
   5   3  -3    2.01    2.76
   5   3  -3   -0.52    2.66
   5   3  -2    6.30    4.66
  -5   3   2    1.55    2.08
   5   3  -2   -0.98    2.76
  -5   3   2    1.58    2.23
   5   3  -2    1.32    3.54
   5   3  -2    0.38    3.51
  -5   3   2    3.62    2.74
  -5   3   2    6.25    3.39
   5   3  -2    1.31    3.12
   5   3  -1   -2.34    4.33
  -5   3   1    3.13    2.97
   5   3  -1    3.41    3.84
  -5   3   1    6.75    4.01
  -5   3   1   -0.99    2.93
   5   3  -1    0.51    2.33
  -5   3   1    3.33    2.56
   5   4  -5   -0.66    3.51
  -5   4   5    4.99    4.27
   5   4  -5    2.43    3.05
  -5   4   5    8.98    4.02
   5   4  -5   10.00    4.21
   5   4  -4   29.91    8.07
  -5   4   4   34.51    7.06
   5   4  -4   20.71    7.02
  -5   4   4   31.35    6.78
   5   4  -4   22.23    7.40
   5   4  -4   20.79    6.13
  -5   4   4   31.49    6.64
   5   4  -4   18.68    4.99
   5   4  -3   11.74    6.15
  -5   4   3   10.08    4.14
   5   4  -3   11.99    6.64
  -5   4   3    7.86    3.76
  -5   4   3    7.90    3.43
   5   4  -3    9.84    4.50
  -5   4   3    5.45    3.22
   5   4  -3   10.76    4.62
  -5   4   2   23.33    5.79
   5   4  -2   29.55    8.66
   5   4  -2   16.31    5.95
  -5   4   2   25.64    6.40
   5   4  -2   20.85    7.15
  -5   4   2   13.10    4.46
  -5   4   2   30.60    6.22
   5   4  -2   20.56    5.10
  -5   4   1    2.57    3.61
   5   4  -1   10.58    6.02
  -5   4   1   -1.14    2.60
  -5   4   1    2.98    3.82
   5   4  -1   -3.02    5.01
  -5   4   1    2.64    2.97
   5   5  -4    8.75    5.27
  -5   5   4    1.40    3.97
   5   5  -4   -1.35    4.61
   5   5  -4   -1.94    4.20
  -5   5   4    0.43    3.78
   5   5  -4    7.66    4.57
  -5   5   4   -1.79    4.14
   5   5  -4    2.31    2.94
  -5   5   3   15.22    5.50
   5   5  -3   18.31    7.07
  -5   5   3   27.87    7.30
   5   5  -3   15.79    6.24
   5   5  -3   23.68    8.81
  -5   5   3   23.03    5.59
   5   5  -3    8.76    3.73
  -5   5   2    9.23    4.62
   5   5  -2    7.88    4.16
  -5   5   2   16.03    6.29
   5   5  -2    5.20    4.83
   5   5  -2   15.73    6.66
  -5   5   2   12.52    4.70
   5   5  -1   -7.49    6.43
   5   5  -1    8.20    5.78
  -5   5   1   -1.79    3.42
  -6  -4   5    1.36    3.57
  -6  -4   5    6.28    5.90
  -6  -4   4    0.70    3.22
   6  -4  -4   -1.10    3.20
   6  -4  -4   -1.99    3.66
  -6  -4   4    1.15    3.22
   6  -4  -4    2.15    3.47
  -6  -4   4    0.98    4.39
  -6  -4   4  -12.30    6.49
  -6  -4   4    1.32    3.27
  -6  -4   3    3.85    4.56
   6  -4  -3    9.77    5.60
   6  -4  -3    3.13    3.54
   6  -4  -3    6.00    3.02
  -6  -4   3   12.45    5.92
  -6  -4   3    4.70    4.63
  -6  -4   3    7.07    5.11
  -6  -4   2    2.68    3.91
   6  -4  -2   -0.43    3.76
   6  -4  -2    7.61    4.62
  -6  -4   2    0.58    4.76
  -6  -4   2   12.00    6.38
  -6  -3   5   10.15    5.29
   6  -3  -5   15.06    5.94
  -6  -3   5   12.37    5.39
  -6  -3   5    9.35    4.52
  -6  -3   4   14.95    5.91
   6  -3  -4    9.60    4.42
   6  -3  -4   27.23    6.67
  -6  -3   4   11.71    5.57
   6  -3  -4   10.24    4.93
  -6  -3   4   15.62    5.51
  -6  -3   4   11.78    4.26
  -6  -3   4   19.68    6.45
   6  -3  -4    5.78    4.25
   6  -3  -3   10.79    4.85
  -6  -3   3    4.25    3.91
   6  -3  -3    7.14    3.17
  -6  -3   3    3.19    3.90
   6  -3  -3    9.17    4.20
  -6  -3   3   13.88    5.23
  -6  -3   3    1.46    3.91
  -6  -3   3   20.76    6.87
   6  -3  -2   -4.78    5.29
  -6  -3   2   -1.36    3.26
   6  -3  -2    2.78    3.15
   6  -3  -2    0.90    3.16
   6  -3  -2   -1.39    2.66
  -6  -3   2    4.48    4.21
  -6  -3   2   -0.40    3.94
  -6  -3   2    7.92    5.18
  -6  -2   5   21.58    6.72
   6  -2  -5   26.43    6.50
   6  -2  -5   13.77    5.07
  -6  -2   5   19.79    6.71
  -6  -2   5   16.68    5.15
   6  -2  -5   15.36    6.06
   6  -2  -4    3.24    2.67
  -6  -2   4   -2.37    3.07
   6  -2  -4    1.21    2.34
  -6  -2   4   -3.14    3.09
   6  -2  -4    1.46    3.01
   6  -2  -4    0.55    3.35
   6  -2  -3   -1.03    3.92
  -6  -2   3   -9.74    4.85
   6  -2  -3   -6.41    3.75
   6  -2  -3    0.30    2.12
  -6  -2   3    0.96    3.78
   6  -2  -3    4.62    3.07
  -6  -2   3    0.87    2.66
  -6  -2   3    0.77    2.53
  -6  -2   3   -2.06    4.13
   6  -2  -3    2.96    2.98
  -6  -2   2    6.66    3.59
   6  -2  -2    3.03    3.26
   6  -2  -2    5.60    3.47
   6  -2  -2    9.28    4.22
  -6  -2   2    4.10    3.59
   6  -2  -2    2.83    3.02
  -6  -2   2    2.58    2.84
  -6  -2   2   -1.76    2.88
  -6  -2   2    6.29    3.36
  -6  -1   5    9.54    5.75
  -6  -1   5   11.97    5.33
   6  -1  -5   11.88    5.00
   6  -1  -5   11.14    4.58
  -6  -1   5    8.44    3.85
  -6  -1   5    9.33    4.47
   6  -1  -5    6.84    4.83
   6  -1  -5   11.70    4.75
  -6  -1   4    8.17    4.40
  -6  -1   4    1.01    2.51
  -6  -1   4    4.28    3.63
  -6  -1   4    7.62    4.11
   6  -1  -4    7.54    5.35
   6  -1  -3   11.50    4.21
   6  -1  -3    3.52    2.17
  -6  -1   2   -2.84    2.76
   6  -1  -2   -5.82    5.03
   6  -1  -2    0.60    2.73
   6  -1  -2    6.93    3.80
  -6  -1   2    0.15    3.97
  -6  -1   2    6.08    3.59
   6  -1  -2    2.88    3.56
  -6  -1   1   -2.64    3.96
  -6  -1   1    2.93    3.24
  -6   0   5    0.21    2.35
   6   0  -5   -1.38    2.70
  -6   0   5    0.09    2.83
   6   0  -5    2.07    3.26
  -6   0   5   -3.61    4.50
   6   0  -5   -2.48    3.66
   6   0  -5    7.37    5.67
  -6   0   4   25.26    6.86
   6   0  -4   44.85    7.63
  -6   0   4   40.11    7.90
   6   0  -4   37.68    6.65
  -6   0   4   43.03    8.03
  -6   0   4   49.83    8.01
   6   0  -4   38.32    7.00
   6   0  -4   46.58    9.30
  -6   0   3    7.76    4.17
   6   0  -3   -3.96    4.44
   6   0  -3    6.73    3.03
   6   0  -3    2.75    4.54
  -6   0   3   -2.64    3.55
   6   0  -3    3.67    2.00
  -6   0   3    4.11    3.48
  -6   0   3    4.10    3.61
  -6   0   3   -1.25    2.77
   6   0  -3    4.64    3.81
  -6   0   2    3.12    3.40
   6   0  -2    1.66    3.51
   6   0  -2   11.01    3.29
   6   0  -2   13.57    5.02
  -6   0   2    5.19    2.64
   6   0  -2   10.18    4.15
   6   0  -2    6.26    3.15
  -6   0   1   -3.64    3.83
  -6   0   1   -0.23    3.29
  -6   1   5    6.48    3.14
   6   1  -5    1.53    2.25
  -6   1   5    5.26    3.99
   6   1  -5   10.79    3.66
   6   1  -5    7.62    4.28
   6   1  -5    6.38    3.67
  -6   1   4    5.26    3.91
  -6   1   4    6.80    3.49
   6   1  -4    1.88    3.00
  -6   1   4    2.13    2.75
   6   1  -4    5.13    2.86
   6   1  -4    3.22    3.28
  -6   1   3    9.68    3.18
  -6   1   3   12.80    4.10
  -6   1   3   10.13    4.95
   6   1  -3    9.77    4.06
   6   1  -3   10.64    4.81
  -6   1   2   -4.44    4.16
   6   1  -2   -0.73    3.64
   6   1  -2    3.86    4.14
  -6   1   2    1.25    1.95
   6   1  -2    1.64    3.23
  -6   1   2    5.10    3.63
   6   1  -2    6.66    3.98
  -6   1   1   -4.40    3.83
  -6   2   5   17.28    5.55
  -6   2   5   23.34    5.64
   6   2  -5   18.86    4.95
   6   2  -5   13.90    4.20
   6   2  -5   16.19    5.01
  -6   2   4   -1.07    3.22
   6   2  -4    4.72    2.90
   6   2  -4   -3.61    3.98
  -6   2   4    7.25    4.25
   6   2  -4   -4.10    2.99
   6   2  -4    1.29    3.14
   6   2  -4    0.33    3.65
   6   2  -3    1.77    3.45
  -6   2   3    2.26    3.15
   6   2  -3   -1.53    3.63
  -6   2   3    0.90    2.32
  -6   2   3    1.60    2.71
   6   2  -3    8.37    5.86
   6   2  -3    4.01    3.91
  -6   2   2    4.08    4.26
   6   2  -2    2.38    3.47
  -6   2   2    2.67    2.38
   6   2  -2    3.31    3.04
   6   2  -2    0.41    3.94
  -6   2   2    6.00    3.60
  -6   2   2    4.86    3.51
   6   2  -2    8.45    4.36
  -6   2   1    5.01    4.39
  -6   3   5   11.74    4.80
  -6   3   5   10.05    4.37
   6   3  -5    4.57    3.46
  -6   3   4   16.91    5.57
  -6   3   4   16.53    4.81
   6   3  -4   17.21    6.47
   6   3  -4   12.33    6.99
  -6   3   4   11.21    4.82
   6   3  -4   20.37    6.65
   6   3  -4   12.10    5.67
  -6   3   4   10.99    3.26
   6   3  -4   18.23    5.84
  -6   3   3    9.13    4.24
   6   3  -3   14.46    5.91
  -6   3   3   13.41    5.34
  -6   3   3    3.76    3.02
   6   3  -3   11.02    5.55
   6   3  -3    6.49    4.47
   6   3  -3   11.08    4.66
  -6   3   3   11.68    3.70
   6   3  -2    0.88    3.76
  -6   3   2    1.25    2.82
   6   3  -2    8.02    5.07
  -6   3   2   -2.83    3.78
  -6   3   2    5.30    4.44
   6   3  -2    3.86    3.70
  -6   4   4    1.76    2.84
  -6   4   4    6.55    4.49
   6   4  -4    5.51    3.99
   6   4  -4   -5.31    4.92
   6   4  -4    3.21    5.45
  -6   4   4    8.23    3.73
   6   4  -4  -10.83    4.59
  -6   4   3    2.92    2.71
   6   4  -3    7.79    6.01
  -6   4   3    6.99    3.64
  -6   4   3   -5.07    5.78
   6   4  -3   11.17    6.66
   6   4  -3    2.74    3.74
  -6   4   3    7.61    4.74
  -6   4   2    6.18    4.68
   6   4  -2    1.04    3.86
  -6   4   2    3.56    4.01
   6   4  -2   -3.13    4.90
  -7  -2   5    2.26    4.54
   7  -2  -5    9.71    4.89
   7  -2  -5    0.65    3.81
  -7  -2   4   -5.14    4.50
  -7  -2   4    2.20    4.76
   7  -2  -4    9.14    5.10
  -7  -2   4    2.15    3.40
  -7  -2   4    5.25    5.35
  -7  -2   4    0.83    3.43
   7  -2  -4    0.88    3.99
   7  -2  -3    5.04    5.58
  -7  -2   3   -1.80    4.26
   7  -2  -3    5.07    4.24
  -7  -1   5    3.88    5.10
   7  -1  -5    2.62    3.80
   7  -1  -5   -4.20    4.09
  -7  -1   4    7.08    5.42
  -7  -1   4   -3.65    5.38
   7  -1  -4   -1.18    3.81
  -7  -1   4   -4.37    4.61
   7  -1  -4    4.42    4.29
   7  -1  -4    3.54    5.14
   7  -1  -3    0.73    4.20
  -7  -1   3    2.47    4.10
  -7  -1   3    1.67    3.25
   7  -1  -3    9.63    3.95
  -7   0   5   -3.60    5.14
   7   0  -5   -0.98    3.65
   7   0  -5    5.38    5.30
  -7   0   4   -4.69    5.86
  -7   0   4   -1.94    3.88
   7   0  -4    3.66    3.68
   7   0  -4    1.94    3.06
   7   0  -4   -3.26    4.42
   7   0  -3    2.75    4.65
  -7   0   3   -4.35    4.86
  -7   0   3    6.67    4.49
   7   0  -3    4.92    4.00
  -7   1   5   -0.36    4.69
   7   1  -5   -4.47    4.89
   7   1  -5    4.86    4.09
  -7   1   4    5.77    3.96
  -7   1   4    0.49    3.22
   7   1  -4    5.96    3.69
   7   1  -4    7.89    4.41
   7   1  -4   -0.59    4.77
   7   1  -3    6.20    4.88
   7   1  -3   15.42    5.67
  -7   2   5    3.33    3.37
  -7   2   4    5.53    3.14
  -7   2   4   -1.75    4.48
   7   2  -4    2.56    4.53
   7   2  -4    2.81    4.63
   7   2  -4    7.43    4.47
  -7   2   3    4.01    4.22
   7   2  -3   10.05    5.65
   0   0   0    0.00    0.00
;
_shelx_hkl_checksum              83040
#END Tags that were not found in dictionaries
loop_
_space_group_symop_operation_xyz
'x, y, z'
'-x, y+1/2, -z'
loop_
_atom_site_label
_atom_site_type_symbol
_atom_site_fract_x
_atom_site_fract_y
_atom_site_fract_z
_atom_site_U_iso_or_equiv
_atom_site_adp_type
_atom_site_occupancy
_atom_site_site_symmetry_order
_atom_site_calc_flag
_atom_site_refinement_flags_posn
C2 C -0.4453(11) -0.9854(8) -0.1295(16) 0.049(10) Uani 1 1 d .
H2 H -0.4678 -0.9609 -0.0578 0.059 Uiso 1 1 calc R
N3 N -0.3461(16) -1.1101(8) -0.4510(17) 0.079(14) Uani 1 1 d .
H3A H -0.4354 -1.2225 -0.4890 0.095 Uiso 1 1 calc R
H3B H -0.2389 -1.0228 -0.4796 0.095 Uiso 1 1 calc R
C4 C -0.3740(16) -1.0706(9) -0.346(2) 0.045(10) Uani 1 1 d .
C5 C -0.5475(16) -1.2094(10) -0.296(2) 0.052(10) Uani 1 1 d .
H5 H -0.6389 -1.3365 -0.3351 0.062 Uiso 1 1 calc R
C6 C -0.5852(16) -1.1639(12) -0.193(2) 0.053(10) Uani 1 1 d .
H6 H -0.7079 -1.2548 -0.1645 0.064 Uiso 1 1 calc R
C9 C -0.0504(11) -0.7262(10) -0.3323(15) 0.065(13) Uani 1 1 d .
H9A H -0.1147 -0.7210 -0.4100 0.098 Uiso 1 1 calc GR
H9B H 0.1236 -0.7943 -0.3179 0.098 Uiso 1 1 calc GR
H9C H -0.0448 -0.5651 -0.3030 0.098 Uiso 1 1 calc GR
C1 C -0.2691(12) -0.8418(7) -0.1741(16) 0.045(9) Uani 1 1 d .
C7 C -0.1139(13) -0.6543(8) -0.1009(17) 0.070(18) Uani 1 1 d .
H7A H -0.1693 -0.6529 -0.0313 0.105 Uiso 1 1 calc GR
H7B H -0.1438 -0.4978 -0.1345 0.105 Uiso 1 1 calc GR
H7C H 0.0704 -0.6926 -0.0902 0.105 Uiso 1 1 calc GR
C8 C -0.2329(11) -0.8815(6) -0.2783(15) 0.040(9) Uani 1 1 d .
loop_
_atom_site_aniso_label
_atom_site_aniso_U_11
_atom_site_aniso_U_22
_atom_site_aniso_U_33
_atom_site_aniso_U_23
_atom_site_aniso_U_13
_atom_site_aniso_U_12
C2 0.058(4) 0.071(3) 0.02(3) 0.004(6) 0.008(9) 0.007(3)
N3 0.095(5) 0.057(3) 0.10(4) 0.009(7) 0.039(13) -0.001(3)
C4 0.057(4) 0.047(2) 0.03(3) 0.003(6) 0.017(9) 0.004(2)
C5 0.067(4) 0.049(2) 0.04(3) 0.001(7) 0.005(9) -0.011(2)
C6 0.060(4) 0.068(3) 0.03(3) 0.012(7) 0.009(8) -0.012(3)
C9 0.068(4) 0.063(2) 0.07(4) 0.015(6) 0.029(10) -0.009(2)
C1 0.050(3) 0.050(2) 0.04(3) 0.005(6) 0.014(8) 0.011(2)
C7 0.072(4) 0.061(3) 0.08(6) -0.013(7) 0.012(15) -0.002(2)
C8 0.043(3) 0.041(2) 0.04(3) 0.001(5) 0.008(8) 0.0041(18)
loop_
_atom_type_symbol
_atom_type_description
_atom_type_scat_dispersion_real
_atom_type_scat_dispersion_imag
_atom_type_scat_source
C C 0.0015 0.0009 'International Tables Vol C Tables 4.2.6.8 and 6.1.1.4'
H H 0.0000 0.0000 'International Tables Vol C Tables 4.2.6.8 and 6.1.1.4'
N N 0.0030 0.0019 'International Tables Vol C Tables 4.2.6.8 and 6.1.1.4'
loop_
_geom_angle_atom_site_label_1
_geom_angle_atom_site_label_2
_geom_angle_atom_site_label_3
_geom_angle
C6 C2 C1 119.3(17)
N3 C4 C5 121.9(14)
N3 C4 C8 122.8(9)
C5 C4 C8 115.3(19)
C6 C5 C4 122.2(13)
C5 C6 C2 121.4(10)
C2 C1 C7 117.6(15)
C8 C1 C2 120.1(11)
C8 C1 C7 122.2(8)
C4 C8 C9 115.9(15)
C1 C8 C4 121.7(9)
C1 C8 C9 122.4(10)
loop_
_geom_bond_atom_site_label_1
_geom_bond_atom_site_label_2
_geom_bond_distance
C2 C6 1.380(19)
C2 C1 1.399(13)
N3 C4 1.36(3)
C4 C5 1.411(16)
C4 C8 1.450(19)
C5 C6 1.35(3)
C9 C8 1.522(12)
C1 C7 1.507(16)
C1 C8 1.36(2)
loop_
_geom_torsion_atom_site_label_1
_geom_torsion_atom_site_label_2
_geom_torsion_atom_site_label_3
_geom_torsion_atom_site_label_4
_geom_torsion
C2 C1 C8 C4 0.3(13)
C2 C1 C8 C9 178.1(6)
N3 C4 C5 C6 -177.0(13)
N3 C4 C8 C9 0.5(14)
N3 C4 C8 C1 178.4(11)
C4 C5 C6 C2 -3(2)
C5 C4 C8 C9 -178.5(8)
C5 C4 C8 C1 -0.5(13)
C6 C2 C1 C7 -178.1(7)
C6 C2 C1 C8 -1.3(12)
C1 C2 C6 C5 2.8(17)
C7 C1 C8 C4 176.9(7)
C7 C1 C8 C9 -5.3(13)
C8 C4 C5 C6 2.0(17)
