#------------------------------------------------------------------------------
#$Date: 2016-03-24 14:49:32 +0200 (Thu, 24 Mar 2016) $
#$Revision: 179675 $
#$URL: svn://www.crystallography.net/cod/cif/4/51/27/4512767.cif $
#------------------------------------------------------------------------------
#
# This file is available in the Crystallography Open Database (COD),
# http://www.crystallography.net/
#
# All data on this site have been placed in the public domain by the
# contributors.
#
data_4512767
loop_
_publ_author_name
'Bosch, Eric'
'Bowling, Nathan P.'
'Darko, Jeffery'
_publ_section_title
;
 The Power of Nonconventional Phenyl C--H&#x00B7;&#x00B7;&#x00B7;N
 Hydrogen Bonds: Supportive Crystal-Packing Force and Dominant
 Supramolecular Engineering Force
;
_journal_issue                   4
_journal_name_full               'Crystal Growth &amp; Design'
_journal_page_first              1634
_journal_paper_doi               10.1021/cg5014076
_journal_volume                  15
_journal_year                    2015
_chemical_formula_sum            'C13 H5 F4 N'
_chemical_formula_weight         251.18
_chemical_name_systematic
;
4-[(2,3,5,6-tetrafluorophenyl)ethynyl]pyridine
;
_space_group_crystal_system      triclinic
_space_group_IT_number           2
_space_group_name_Hall           '-P 1'
_space_group_name_H-M_alt        'P -1'
_symmetry_space_group_name_Hall  '-P 1'
_symmetry_space_group_name_H-M   'P -1'
_atom_sites_solution_hydrogens   geom
_audit_creation_method           SHELXL-2013
_cell_angle_alpha                99.846(3)
_cell_angle_beta                 105.527(3)
_cell_angle_gamma                101.235(4)
_cell_formula_units_Z            2
_cell_length_a                   5.9634(16)
_cell_length_b                   8.768(2)
_cell_length_c                   11.076(3)
_cell_measurement_reflns_used    1390
_cell_measurement_temperature    99(2)
_cell_measurement_theta_max      27.20
_cell_measurement_theta_min      2.44
_cell_volume                     531.8(2)
_computing_cell_refinement       'Bruker SAINT'
_computing_data_collection       'Bruker APEX2'
_computing_data_reduction        'Bruker SAINT'
_computing_molecular_graphics    'XSeed (Barbour, 2003)'
_computing_publication_material  'XSeed (Barbour, 2003)'
_computing_structure_refinement  'SHELXL-2013 (Sheldrick, 2013)'
_computing_structure_solution    'SHELXS-2013 (Sheldrick, 2013)'
_diffrn_ambient_temperature      99(2)
_diffrn_detector_area_resol_mean 8.3660
_diffrn_measured_fraction_theta_full 0.999
_diffrn_measured_fraction_theta_max 0.997
_diffrn_measurement_device_type  'Bruker APEX-I CCD'
_diffrn_measurement_method       'phi and omega scans'
_diffrn_radiation_monochromator  graphite
_diffrn_radiation_source         'fine-focus sealed tube'
_diffrn_radiation_type           MoK\a
_diffrn_radiation_wavelength     0.71073
_diffrn_reflns_av_R_equivalents  0.0302
_diffrn_reflns_av_unetI/netI     0.0388
_diffrn_reflns_Laue_measured_fraction_full 0.999
_diffrn_reflns_Laue_measured_fraction_max 0.997
_diffrn_reflns_limit_h_max       7
_diffrn_reflns_limit_h_min       -7
_diffrn_reflns_limit_k_max       11
_diffrn_reflns_limit_k_min       -11
_diffrn_reflns_limit_l_max       14
_diffrn_reflns_limit_l_min       -14
_diffrn_reflns_number            5936
_diffrn_reflns_point_group_measured_fraction_full 0.999
_diffrn_reflns_point_group_measured_fraction_max 0.997
_diffrn_reflns_theta_full        25.000
_diffrn_reflns_theta_max         27.256
_diffrn_reflns_theta_min         1.964
_exptl_absorpt_coefficient_mu    0.142
_exptl_absorpt_correction_T_max  0.7455
_exptl_absorpt_correction_T_min  0.6198
_exptl_absorpt_correction_type   multi-scan
_exptl_absorpt_process_details   'SADABS V2008/1 (Bruker AXS)'
_exptl_crystal_colour            colourless
_exptl_crystal_density_diffrn    1.569
_exptl_crystal_description       sheet
_exptl_crystal_F_000             252
_exptl_crystal_size_max          0.300
_exptl_crystal_size_mid          0.150
_exptl_crystal_size_min          0.030
_refine_diff_density_max         0.305
_refine_diff_density_min         -0.239
_refine_diff_density_rms         0.051
_refine_ls_extinction_method     none
_refine_ls_goodness_of_fit_ref   1.019
_refine_ls_hydrogen_treatment    constr
_refine_ls_matrix_type           full
_refine_ls_number_parameters     163
_refine_ls_number_reflns         2384
_refine_ls_number_restraints     0
_refine_ls_restrained_S_all      1.019
_refine_ls_R_factor_all          0.0706
_refine_ls_R_factor_gt           0.0409
_refine_ls_shift/su_max          0.000
_refine_ls_shift/su_mean         0.000
_refine_ls_structure_factor_coef Fsqd
_refine_ls_weighting_details
;
 w=1/[\s^2^(Fo^2^)+(0.0649P)^2^]
 where P=(Fo^2^+2Fc^2^)/3
;
_refine_ls_weighting_scheme      calc
_refine_ls_wR_factor_gt          0.1017
_refine_ls_wR_factor_ref         0.1194
_reflns_Friedel_coverage         0.000
_reflns_number_gt                1601
_reflns_number_total             2384
_reflns_threshold_expression     'I > 2\s(I)'
_cod_data_source_file            cg5014076_si_001.cif
_cod_data_source_block           eb370
_cod_depositor_comments
'Adding full bibliography for 4512766--4512773.cif.'
_cod_database_code               4512767
#BEGIN Tags that were not found in dictionaries:
_shelx_space_group_comment
;
The symmetry employed for this shelxl refinement is uniquely defined
by the following loop, which should always be used as a source of
symmetry information in preference to the above space-group names.
They are only intended as comments.
;
_shelx_estimated_absorpt_t_min   0.959
_shelx_estimated_absorpt_t_max   0.996
_shelxl_version_number           2013-2
_shelx_res_file
;
TITL eb370 in P-1
CELL 0.71073 5.9634 8.7677 11.0759 99.846 105.527 101.235
ZERR 2.0000 0.0016 0.0024 0.0030 0.003 0.003 0.004
LATT 1
SFAC C H N F
UNIT 26 10 2 8
MERG 2
FMAP 2
GRID
PLAN 20
TEMP -174
SIZE 0.03 0.15 0.3
L.S. 20
ACTA 50
WGHT    0.064900
FVAR       0.19744
F1    4    0.385683    0.784370    0.387630    11.00000    0.02518    0.02639 =
         0.03182    0.00227    0.01012   -0.00144
N1    3   -0.007791    1.161462    0.917577    11.00000    0.03132    0.02425 =
         0.02387    0.00620    0.01134    0.01044
C1    1    0.179253    1.185137    0.872057    11.00000    0.02705    0.02151 =
         0.02455    0.00376    0.00644    0.00265
AFIX  43
H1    2    0.309725    1.276385    0.915566    11.00000   -1.20000
AFIX   0
F2    4    0.361696    0.582896    0.170265    11.00000    0.02479    0.03691 =
         0.03254    0.00851    0.01798    0.00865
C2    1    0.193694    1.084411    0.765263    11.00000    0.02363    0.02639 =
         0.02568    0.00860    0.00930    0.00766
AFIX  43
H2    2    0.329878    1.106940    0.736111    11.00000   -1.20000
AFIX   0
F3    4   -0.384200    0.273870    0.162388    11.00000    0.02658    0.02941 =
         0.03199   -0.00087    0.00830   -0.00505
C3    1    0.005312    0.949727    0.701478    11.00000    0.02486    0.02191 =
         0.02009    0.00659    0.00870    0.00987
F4    4   -0.363728    0.475908    0.378173    11.00000    0.02217    0.03566 =
         0.02944    0.00860    0.01514    0.00699
C4    1   -0.189872    0.922355    0.748396    11.00000    0.02421    0.02470 =
         0.02845    0.00639    0.01062    0.00578
AFIX  43
H4    2   -0.322023    0.831381    0.707640    11.00000   -1.20000
AFIX   0
C5    1   -0.186598    1.030994    0.855908    11.00000    0.02682    0.02913 =
         0.02897    0.00843    0.01536    0.00923
AFIX  43
H5    2   -0.319882    1.011399    0.887694    11.00000   -1.20000
AFIX   0
C6    1    0.010848    0.840821    0.591072    11.00000    0.02413    0.02368 =
         0.02578    0.00780    0.00959    0.00732
C7    1    0.014879    0.748442    0.499280    11.00000    0.02436    0.02219 =
         0.02435    0.00599    0.00775    0.00656
C8    1    0.010124    0.636894    0.387622    11.00000    0.02172    0.01979 =
         0.01962    0.00490    0.00701    0.00702
C9    1    0.194232    0.658270    0.332704    11.00000    0.01884    0.01809 =
         0.02432    0.00427    0.00483    0.00343
C10   1    0.180406    0.554242    0.221663    11.00000    0.01851    0.02755 =
         0.02528    0.00923    0.01162    0.00823
C11   1   -0.011356    0.423579    0.161772    11.00000    0.02650    0.02315 =
         0.01842    0.00355    0.00854    0.00928
AFIX  43
H11   2   -0.018582    0.351808    0.085321    11.00000   -1.20000
AFIX   0
C12   1   -0.192891    0.400661    0.216926    11.00000    0.02119    0.01986 =
         0.02296    0.00388    0.00479    0.00182
C13   1   -0.183704    0.504664    0.327545    11.00000    0.01836    0.02680 =
         0.02248    0.00870    0.01005    0.00864
HKLF 4

REM  eb370 in P-1
REM R1 =  0.0409 for    1601 Fo > 4sig(Fo)  and  0.0706 for all    2384 data
REM    163 parameters refined using      0 restraints

END

WGHT      0.0649      0.0000

REM Highest difference peak  0.305,  deepest hole -0.239,  1-sigma level  0.051
Q1    1   0.2164  0.5741  0.3010  11.00000  0.05    0.30
Q2    1  -0.2257  0.4821  0.2449  11.00000  0.05    0.29
Q3    1  -0.1717  0.4414  0.2782  11.00000  0.05    0.25
Q4    1  -0.1826  0.9774  0.7923  11.00000  0.05    0.23
Q5    1   0.1807  0.6140  0.2764  11.00000  0.05    0.22
Q6    1  -0.0467  0.5423  0.3821  11.00000  0.05    0.22
Q7    1   0.0757  0.6626  0.3478  11.00000  0.05    0.22
Q8    1   0.0094  0.8586  0.5200  11.00000  0.05    0.21
Q9    1   0.0707  1.0433  0.7168  11.00000  0.05    0.20
Q10   1   0.1438  1.1423  0.7895  11.00000  0.05    0.20
Q11   1  -0.1421  0.6036  0.3243  11.00000  0.05    0.20
Q12   1   0.3177  0.7890  0.2928  11.00000  0.05    0.19
Q13   1   0.2195  1.0905  0.8405  11.00000  0.05    0.19
Q14   1   0.1361  0.4556  0.2188  11.00000  0.05    0.19
Q15   1   0.1412  0.9827  0.7623  11.00000  0.05    0.18
Q16   1  -0.1451  0.9490  0.8235  11.00000  0.05    0.18
Q17   1  -0.1618  0.4447  0.1574  11.00000  0.05    0.17
Q18   1  -0.0768  0.3981  0.2076  11.00000  0.05    0.17
Q19   1  -0.1026  0.9495  0.7240  11.00000  0.05    0.17
Q20   1  -0.1879  0.9583  0.6689  11.00000  0.05    0.17
;
_shelx_res_checksum              65081
_shelx_hkl_file
;
  -1   0   0   90.80    1.27
  -1   0   0   91.21    1.27
   1   0   0   90.60    1.24
  -2   0   0    0.24    0.07
  -2   0   0    0.17    0.07
   2   0   0    0.13    0.06
  -3   0   0   22.00    0.48
  -3   0   0   22.44    0.48
   3   0   0   23.19    0.46
  -4   0   0    1.09    0.15
   4   0   0    1.21    0.15
  -5   0   0   76.60    1.39
   5   0   0   76.83    1.37
   5   0   0   78.47    1.32
  -6   0   0   20.73    0.65
   6   0   0   19.73    0.62
   6   0   0   19.81    0.59
  -7   0   0    0.35    0.22
   7   0   0    0.50    0.23
   7  -1   0    1.65    0.27
   7  -1   0    1.10    0.24
  -7   1   0    1.26    0.28
   6  -1   0    8.85    0.44
   6  -1   0    9.10    0.42
  -6   1   0    8.97    0.46
   5  -1   0    0.00    0.12
  -5   1   0    0.05    0.13
   4  -1   0    6.17    0.26
  -4   1   0    6.22    0.27
  -4   1   0    6.32    0.27
   3  -1   0   42.04    0.72
  -3   1   0   41.58    0.73
  -3   1   0   41.07    0.74
   2  -1   0   46.96    0.73
  -2   1   0   47.39    0.75
  -2   1   0   45.70    0.73
   1  -1   0    2.51    0.10
  -1   1   0    2.53    0.11
   0  -1   0   22.93    0.34
   0  -1   0   22.27    0.36
  -1  -1   0   91.57    1.35
  -1  -1   0   96.89    1.35
   1   1   0   94.60    1.33
  -2  -1   0   15.31    0.34
  -3  -1   0    6.83    0.25
   3   1   0    6.47    0.21
  -4  -1   0    7.12    0.31
   4   1   0    6.81    0.31
  -5  -1   0    0.72    0.18
   5   1   0    1.34    0.21
   5   1   0    0.50    0.15
  -6  -1   0    2.40    0.31
   6   1   0    2.62    0.29
   7  -2   0    0.22    0.20
   7  -2   0    0.13    0.20
  -7   2   0    0.40    0.21
   6  -2   0   13.74    0.51
  -6   2   0   12.69    0.53
   5  -2   0    1.96    0.22
  -5   2   0    1.92    0.21
  -5   2   0    1.63    0.21
   4  -2   0    7.73    0.30
  -4   2   0    7.64    0.29
  -4   2   0    7.73    0.30
   3  -2   0   17.21    0.40
  -3   2   0   17.00    0.38
  -3   2   0   17.49    0.41
   2  -2   0   12.98    0.30
  -2   2   0   13.16    0.30
   1  -2   0  153.29    2.08
   1  -2   0  150.71    2.16
  -1   2   0  153.05    2.12
   0  -2   0    6.74    0.18
  -1  -2   0   48.84    0.78
  -1  -2   0   49.44    0.78
   1   2   0   49.78    0.76
  -2  -2   0   29.22    0.56
   2   2   0   29.99    0.56
  -3  -2   0    4.08    0.22
   3   2   0    3.93    0.23
  -4  -2   0    4.96    0.28
   4   2   0    4.36    0.28
  -5  -2   0    2.05    0.24
   5   2   0    1.82    0.22
  -6  -2   0    0.11    0.17
   6   2   0    0.35    0.18
   7  -3   0    0.60    0.21
   7  -3   0    0.83    0.25
  -7   3   0    0.70    0.23
   6  -3   0    1.14    0.21
  -6   3   0    0.53    0.18
   5  -3   0    0.09    0.12
  -5   3   0   -0.09    0.11
  -5   3   0   -0.17    0.10
   4  -3   0    0.33    0.12
  -4   3   0    0.40    0.11
   3  -3   0    0.73    0.12
  -3   3   0    1.02    0.12
   2  -3   0    4.66    0.19
  -2   3   0    4.80    0.19
   1  -3   0    0.39    0.07
   1  -3   0    0.49    0.07
  -1   3   0    0.34    0.07
   0  -3   0   17.60    0.36
   0   3   0   17.20    0.35
  -1  -3   0    1.42    0.12
  -1  -3   0    1.59    0.14
   1   3   0    1.44    0.12
  -2  -3   0    0.90    0.11
  -2  -3   0    0.76    0.10
   2   3   0    1.05    0.13
  -3  -3   0    5.08    0.25
   3   3   0    5.63    0.27
  -4  -3   0    2.06    0.21
   4   3   0    1.84    0.21
  -5  -3   0    0.62    0.17
   5   3   0    0.53    0.18
  -6  -3   0    0.45    0.19
   6   3   0   -0.07    0.17
   7  -4   0    0.34    0.20
  -7   4   0   -0.35    0.16
   6  -4   0    0.64    0.20
  -6   4   0    0.59    0.19
   5  -4   0    1.09    0.19
  -5   4   0    0.85    0.17
   4  -4   0    8.64    0.34
  -4   4   0    8.54    0.33
   3  -4   0    3.89    0.20
  -3   4   0    3.30    0.20
   2  -4   0   10.37    0.28
   2  -4   0   10.63    0.29
  -2   4   0    9.88    0.29
   1  -4   0    1.32    0.11
   1  -4   0    1.20    0.12
  -1   4   0    1.39    0.12
   0  -4   0    2.05    0.16
   0   4   0    2.08    0.15
  -1  -4   0   50.51    0.88
  -1  -4   0   50.64    0.87
   1   4   0   50.41    0.83
  -2  -4   0    1.25    0.14
  -2  -4   0    1.27    0.14
   2   4   0    1.29    0.14
  -3  -4   0    0.10    0.11
   3   4   0   -0.01    0.11
  -4  -4   0    5.13    0.31
   4   4   0    4.68    0.32
  -5  -4   0    0.35    0.16
   5   4   0    0.43    0.19
  -6  -4   0    2.18    0.29
   6   4   0    1.64    0.28
   7  -5   0    0.62    0.23
  -7   5   0    1.15    0.25
   6  -5   0    0.02    0.16
  -6   5   0    0.12    0.16
   5  -5   0    4.84    0.32
  -5   5   0    4.80    0.32
   4  -5   0    0.07    0.11
  -4   5   0    0.05    0.11
   3  -5   0    0.11    0.08
  -3   5   0    0.09    0.09
   2  -5   0   27.76    0.54
   2  -5   0   26.72    0.56
  -2   5   0   27.45    0.56
   1  -5   0    2.88    0.19
  -1   5   0    2.95    0.18
   0  -5   0    3.63    0.21
   0   5   0    3.54    0.20
  -1  -5   0   11.06    0.34
  -1  -5   0   11.37    0.35
   1   5   0   10.83    0.30
  -2  -5   0    2.54    0.21
  -2  -5   0    2.57    0.21
   2   5   0    2.44    0.20
  -3  -5   0    6.43    0.33
  -3  -5   0    6.58    0.30
   3   5   0    6.46    0.32
  -4  -5   0    0.25    0.13
   4   5   0    0.13    0.14
  -5  -5   0    0.11    0.17
   5   5   0    0.34    0.18
   7  -6   0    0.35    0.21
  -7   6   0   -0.04    0.19
   6  -6   0    0.06    0.16
  -6   6   0    0.11    0.14
   5  -6   0    1.22    0.21
  -5   6   0    1.43    0.22
   4  -6   0    1.31    0.19
  -4   6   0    1.52    0.19
   3  -6   0   -0.08    0.08
   3  -6   0    0.01    0.08
  -3   6   0    0.20    0.10
   2  -6   0    0.16    0.08
   2  -6   0    0.12    0.09
  -2   6   0   -0.14    0.07
   1  -6   0    2.56    0.22
  -1   6   0    2.79    0.20
   0  -6   0    1.58    0.17
   0   6   0    1.97    0.18
  -1  -6   0    1.03    0.15
  -1  -6   0    0.98    0.15
  -2  -6   0    0.50    0.14
  -2  -6   0    0.58    0.14
   2   6   0    0.33    0.13
  -3  -6   0    0.57    0.16
  -3  -6   0    0.54    0.14
   3   6   0    0.28    0.15
  -4  -6   0    0.27    0.13
  -4  -6   0    0.18    0.15
   4   6   0    0.08    0.16
  -5  -6   0    0.11    0.17
   5   6   0   -0.02    0.17
   6  -7   0   -0.02    0.14
  -6   7   0    0.18    0.18
   5  -7   0    0.17    0.15
  -5   7   0    0.07    0.14
   4  -7   0    0.20    0.14
  -4   7   0    0.17    0.12
   3  -7   0    5.12    0.26
   3  -7   0    5.03    0.28
  -3   7   0    5.52    0.29
   2  -7   0    1.08    0.13
   2  -7   0    0.82    0.15
  -2   7   0    1.30    0.17
   1  -7   0    0.32    0.13
  -1   7   0    0.40    0.13
   0  -7   0    0.40    0.14
   0   7   0    0.48    0.14
  -1  -7   0   -0.12    0.12
   1   7   0    0.25    0.13
  -2  -7   0    1.39    0.21
  -2  -7   0    2.23    0.23
   2   7   0    1.66    0.20
  -3  -7   0    0.36    0.17
  -3  -7   0    0.64    0.17
   3   7   0    0.86    0.19
  -4  -7   0    0.18    0.14
  -4  -7   0   -0.24    0.15
   4   7   0    0.01    0.17
   6  -8   0    1.28    0.23
  -6   8   0    1.48    0.26
   5  -8   0    0.63    0.18
  -5   8   0    0.54    0.18
   4  -8   0    0.35    0.13
  -4   8   0    0.08    0.13
   3  -8   0    1.01    0.17
   3  -8   0    0.90    0.15
  -3   8   0    0.90    0.17
   2  -8   0    0.32    0.13
  -2   8   0    0.02    0.13
   1  -8   0    1.86    0.23
  -1   8   0    1.91    0.22
   0  -8   0    0.81    0.18
   0   8   0    0.62    0.16
  -1  -8   0    0.08    0.14
   1   8   0    0.08    0.14
  -2  -8   0    1.13    0.20
  -3  -8   0    0.18    0.19
  -3  -8   0    0.02    0.14
   3   8   0    0.20    0.16
   5  -9   0    0.59    0.19
  -5   9   0    0.89    0.22
   4  -9   0   -0.07    0.13
   4  -9   0    0.12    0.13
  -4   9   0    0.20    0.15
   3  -9   0    0.10    0.11
   3  -9   0    0.31    0.16
  -3   9   0    0.17    0.16
   2  -9   0    4.85    0.34
  -2   9   0    3.42    0.31
   1  -9   0    6.39    0.40
  -1   9   0    6.92    0.37
   0  -9   0    2.26    0.26
   0   9   0    2.10    0.25
  -1  -9   0   -0.06    0.15
   1   9   0   -0.02    0.15
  -2  -9   0    0.17    0.17
   2   9   0    0.27    0.18
   4 -10   0    0.28    0.17
   4 -10   0   -0.04    0.13
  -4  10   0   -0.17    0.17
   3 -10   0    0.58    0.19
   3 -10   0    0.83    0.17
  -3  10   0    0.36    0.19
   2 -10   0    9.08    0.48
  -2  10   0    8.87    0.45
   1 -10   0    9.90    0.50
  -1  10   0    9.13    0.44
   0 -10   0    0.16    0.19
   0  10   0    0.48    0.20
  -1 -10   0   -0.14    0.16
   1  10   0    0.00    0.16
   2 -11   0    0.07    0.19
  -2  11   0    0.09    0.19
  -1  11   0    0.05    0.17
  -1  11  -1   -0.07    0.16
   1 -11   1   -0.09    0.18
  -2  11  -1    6.46    0.44
   2 -11   1    7.50    0.50
  -3  11  -1   -0.16    0.15
   1  10  -1    1.10    0.25
  -1 -10   1    0.61    0.21
   0  10  -1   -0.11    0.16
   0 -10   1    0.02    0.17
  -1  10  -1    8.81    0.44
   1 -10   1    9.90    0.50
  -2  10  -1    5.80    0.39
   2 -10   1    6.55    0.44
  -3  10  -1    0.02    0.17
   3 -10   1    0.16    0.16
   3 -10   1    0.26    0.13
  -4  10  -1   -0.06    0.17
   4 -10   1    0.13    0.16
   4 -10   1    0.01    0.14
   2   9  -1    0.17    0.19
  -2  -9   1    0.07    0.15
   1   9  -1    1.30    0.23
  -1  -9   1    0.82    0.19
   0   9  -1    0.26    0.16
   0  -9   1    0.24    0.16
  -1   9  -1    7.07    0.37
   1  -9   1    6.65    0.41
  -2   9  -1    0.21    0.15
   2  -9   1    0.40    0.12
   2  -9   1    0.33    0.17
  -3   9  -1    1.53    0.22
   3  -9   1    1.34    0.21
   3  -9   1    1.58    0.20
  -4   9  -1    2.09    0.26
   4  -9   1    2.02    0.24
   4  -9   1    1.51    0.20
  -5   9  -1    0.25    0.18
   5  -9   1    0.04    0.15
   3   8  -1   -0.02    0.14
  -3  -8   1   -0.11    0.14
  -3  -8   1    0.34    0.15
  -2  -8   1    0.68    0.17
   1   8  -1    0.05    0.14
  -1  -8   1   -0.02    0.12
   0   8  -1   -0.01    0.13
   0  -8   1   -0.21    0.12
  -1   8  -1    0.57    0.14
   1  -8   1    0.15    0.14
  -2   8  -1    0.52    0.15
   2  -8   1    0.54    0.16
   2  -8   1    0.62    0.12
  -3   8  -1    2.07    0.23
   3  -8   1    2.28    0.22
   3  -8   1    2.24    0.23
  -4   8  -1   -0.01    0.13
   4  -8   1    0.11    0.12
   4  -8   1   -0.07    0.11
  -5   8  -1    0.30    0.17
   5  -8   1   -0.14    0.12
  -6   8  -1    1.31    0.25
   6  -8   1    1.01    0.22
   4   7  -1    0.10    0.18
  -4  -7   1    0.09    0.14
  -4  -7   1    0.02    0.15
   3   7  -1    3.88    0.30
  -3  -7   1    3.73    0.32
  -3  -7   1    3.65    0.30
  -2  -7   1    6.49    0.35
  -2  -7   1    7.47    0.37
   1   7  -1    3.19    0.27
  -1  -7   1    2.85    0.27
   0   7  -1    6.02    0.31
   0  -7   1    6.36    0.33
  -1   7  -1    0.29    0.12
   1  -7   1    0.62    0.14
  -2   7  -1    0.49    0.14
   2  -7   1    0.31    0.10
   2  -7   1    0.25    0.13
  -3   7  -1   20.83    0.55
   3  -7   1   20.94    0.52
  -4   7  -1    0.20    0.14
   4  -7   1    0.64    0.15
  -5   7  -1    0.36    0.16
   5  -7   1    0.30    0.15
  -6   7  -1    0.36    0.19
   6  -7   1    0.31    0.18
   5   6  -1   -0.09    0.16
  -5  -6   1   -0.04    0.16
   4   6  -1    2.79    0.29
  -4  -6   1    3.38    0.31
  -4  -6   1    3.29    0.26
   3   6  -1    5.37    0.31
  -3  -6   1    4.38    0.29
  -3  -6   1    5.24    0.31
   2   6  -1    2.35    0.21
  -2  -6   1    2.79    0.24
  -2  -6   1    3.09    0.25
  -1  -6   1    2.47    0.22
   0   6  -1   10.31    0.35
   0  -6   1   10.45    0.36
  -1   6  -1   16.61    0.42
   1  -6   1   15.97    0.44
   1  -6   1   15.41    0.37
  -2   6  -1    0.71    0.13
   2  -6   1    0.91    0.12
   2  -6   1    0.57    0.12
  -3   6  -1    0.00    0.10
   3  -6   1   -0.04    0.09
   3  -6   1    0.01    0.09
  -4   6  -1    4.28    0.29
   4  -6   1    4.51    0.28
  -5   6  -1    3.49    0.30
   5  -6   1    3.14    0.28
  -6   6  -1    0.48    0.17
   6  -6   1    0.24    0.18
   5   5  -1    0.17    0.16
  -5  -5   1   -0.18    0.14
   4   5  -1    0.02    0.13
  -4  -5   1    0.05    0.12
   3   5  -1    3.24    0.26
  -3  -5   1    3.41    0.25
  -3  -5   1    2.90    0.23
   2   5  -1    2.85    0.20
  -2  -5   1    2.80    0.21
  -2  -5   1    2.92    0.21
  -1  -5   1   32.68    0.66
  -1  -5   1   31.48    0.64
   0   5  -1   13.05    0.36
   0  -5   1   14.04    0.38
  -1   5  -1    0.95    0.12
   1  -5   1    1.02    0.11
   1  -5   1    1.15    0.13
  -2   5  -1   13.12    0.36
   2  -5   1   13.29    0.34
   2  -5   1   12.70    0.36
  -3   5  -1    0.05    0.08
   3  -5   1    0.10    0.09
  -4   5  -1    2.96    0.24
   4  -5   1    3.38    0.25
  -5   5  -1    8.60    0.41
   5  -5   1    8.65    0.40
  -6   5  -1    0.10    0.15
   6  -5   1   -0.09    0.15
  -7   5  -1    0.01    0.19
   7  -5   1    0.07    0.21
   6   4  -1    0.21    0.19
  -6  -4   1    0.28    0.19
   5   4  -1   -0.05    0.14
  -5  -4   1    0.18    0.15
   4   4  -1    2.52    0.25
  -4  -4   1    2.88    0.25
   3   4  -1    0.17    0.11
  -3  -4   1    0.22    0.11
  -3  -4   1    0.21    0.10
   2   4  -1    0.33    0.10
  -2  -4   1    0.12    0.08
  -2  -4   1    0.25    0.09
  -1  -4   1    2.23    0.15
  -1  -4   1    1.86    0.15
   0   4  -1    0.17    0.08
   0  -4   1    0.08    0.07
  -1   4  -1    1.06    0.11
   1  -4   1    1.10    0.11
   1  -4   1    1.14    0.10
  -2   4  -1    1.60    0.15
   2  -4   1    1.63    0.14
   2  -4   1    1.58    0.14
  -3   4  -1   -0.01    0.08
   3  -4   1    0.11    0.08
  -4   4  -1   -0.07    0.10
   4  -4   1    0.15    0.11
  -5   4  -1   -0.02    0.11
   5  -4   1    0.14    0.14
  -6   4  -1    0.18    0.15
   6  -4   1    0.15    0.17
  -7   4  -1    0.40    0.22
   7  -4   1    0.57    0.24
   7  -4   1    0.47    0.19
   6   3  -1    0.61    0.21
  -6  -3   1    1.08    0.22
   5   3  -1    0.01    0.14
  -5  -3   1   -0.14    0.11
   4   3  -1    2.28    0.23
  -4  -3   1    1.73    0.19
   3   3  -1   -0.05    0.09
  -3  -3   1    0.07    0.07
   2   3  -1    7.74    0.25
  -2  -3   1    7.69    0.25
  -2  -3   1    7.63    0.24
   1   3  -1   12.51    0.27
  -1  -3   1   12.44    0.30
  -1  -3   1   12.31    0.30
   0   3  -1    1.35    0.11
   0  -3   1    1.22    0.11
  -1   3  -1   34.45    0.58
   1  -3   1   34.04    0.56
   1  -3   1   34.65    0.59
  -2   3  -1    2.85    0.16
   2  -3   1    2.89    0.16
  -3   3  -1    4.12    0.22
   3  -3   1    3.81    0.21
  -4   3  -1    0.74    0.14
   4  -3   1    0.56    0.13
  -5   3  -1    1.08    0.19
   5  -3   1    1.27    0.21
  -6   3  -1    1.62    0.25
   6  -3   1    2.30    0.25
   6  -3   1    1.85    0.26
  -7   3  -1    1.31    0.29
   7  -3   1    1.27    0.28
   7  -3   1    1.42    0.25
   6   2  -1   -0.08    0.14
  -6  -2   1    0.02    0.15
   5   2  -1   -0.04    0.17
  -5  -2   1    0.18    0.13
   4   2  -1    1.09    0.17
  -4  -2   1    0.80    0.15
  -3  -2   1    0.07    0.07
  -2  -2   1    8.64    0.26
  -2  -2   1    9.02    0.26
  -1  -2   1    3.04    0.14
  -1  -2   1    3.01    0.14
   0   2  -1    1.97    0.11
   0  -2   1    2.09    0.10
   0  -2   1    1.91    0.12
  -1   2  -1   12.12    0.26
   1  -2   1   11.87    0.25
   1  -2   1   12.04    0.25
  -2   2  -1    0.03    0.06
   2  -2   1    0.05    0.06
  -3   2  -1    5.81    0.24
  -3   2  -1    5.78    0.21
   3  -2   1    5.62    0.23
  -4   2  -1    2.55    0.21
   4  -2   1    2.52    0.21
  -5   2  -1    0.08    0.13
   5  -2   1    0.02    0.13
   5  -2   1    0.03    0.13
  -6   2  -1    1.42    0.24
   6  -2   1    1.66    0.25
   6  -2   1    1.27    0.23
  -7   2  -1    0.14    0.23
   7  -2   1    0.04    0.20
   7  -2   1    0.22    0.20
   7   1  -1    0.28    0.20
  -7  -1   1    0.52    0.22
   6   1  -1    0.19    0.13
   6   1  -1   -0.08    0.14
  -6  -1   1   -0.01    0.16
   5   1  -1   -0.02    0.12
  -5  -1   1   -0.17    0.13
   4   1  -1    0.05    0.08
  -4  -1   1    0.09    0.10
  -4  -1   1    0.09    0.10
   3   1  -1    0.11    0.07
  -3  -1   1    0.23    0.09
  -3  -1   1    0.10    0.07
   2   1  -1    0.29    0.07
  -2  -1   1    0.38    0.08
  -2  -1   1    0.37    0.08
  -1  -1   1   -0.02    0.05
  -1  -1   1   -0.08    0.05
  -1  -1   1   -0.06    0.04
   0   1  -1   -0.08    0.04
   0  -1   1   -0.17    0.04
   0  -1   1   -0.08    0.04
  -1   1  -1   -0.03    0.05
   1  -1   1    0.02    0.05
  -2   1  -1    0.33    0.08
   2  -1   1    0.33    0.08
  -3   1  -1    0.05    0.08
   3  -1   1    0.02    0.07
  -4   1  -1    0.24    0.10
   4  -1   1    0.05    0.10
   4  -1   1    0.06    0.10
  -5   1  -1    0.05    0.12
   5  -1   1   -0.17    0.13
   5  -1   1    0.05    0.14
  -6   1  -1    0.28    0.17
   6  -1   1    0.26    0.17
   6  -1   1    0.15    0.16
  -7   1  -1    0.10    0.21
   7  -1   1    0.10    0.22
   7  -1   1    0.21    0.22
   7   0  -1    0.01    0.17
   7   0  -1    0.16    0.21
  -7   0   1   -0.07    0.18
   6   0  -1    0.40    0.16
  -6   0   1   -0.03    0.14
   5   0  -1    1.10    0.18
  -5   0   1    1.07    0.18
  -5   0   1    1.10    0.18
   4   0  -1    0.18    0.09
  -4   0   1    0.04    0.08
  -4   0   1    0.03    0.09
   3   0  -1    7.72    0.24
  -3   0   1    7.57    0.25
  -3   0   1    7.28    0.26
   2   0  -1    7.91    0.21
  -2   0   1    7.80    0.22
  -2   0   1    7.91    0.21
   1   0  -1    0.51    0.06
  -1   0   1    0.42    0.06
  -1   0   1    0.51    0.05
   0   0  -1    3.89    0.09
   0   0   1    3.95    0.09
   0   0   1    3.89    0.08
  -1   0  -1    0.35    0.06
   1   0   1    0.41    0.06
   1   0   1    0.27    0.06
  -2   0  -1    5.31    0.19
   2   0   1    5.02    0.19
   2   0   1    5.55    0.17
  -3   0  -1    3.10    0.19
   3   0   1    3.06    0.17
   3   0   1    3.28    0.19
  -4   0  -1    0.02    0.10
   4   0   1    0.01    0.10
   4   0   1    0.06    0.10
  -5   0  -1    0.18    0.15
   5   0   1    0.06    0.13
   5   0   1   -0.15    0.13
  -6   0  -1   -0.33    0.17
   6   0   1   -0.28    0.14
   6   0   1    0.24    0.16
   7  -1  -1   -0.12    0.19
   7  -1  -1    0.14    0.19
  -7   1   1    0.06    0.19
   6  -1  -1    3.30    0.30
  -6   1   1    3.53    0.32
  -6   1   1    2.93    0.29
   5  -1  -1    1.35    0.18
  -5   1   1    0.98    0.17
  -5   1   1    0.84    0.17
   4  -1  -1    3.30    0.21
  -4   1   1    3.18    0.21
  -4   1   1    2.93    0.20
   3  -1  -1    4.23    0.19
  -3   1   1    4.38    0.20
  -3   1   1    4.29    0.19
   2  -1  -1    7.79    0.21
  -2   1   1    7.88    0.21
  -2   1   1    7.51    0.21
  -1   1   1   23.55    0.38
  -1   1   1   23.68    0.38
   0  -1  -1   27.92    0.45
   0   1   1   28.46    0.43
  -1  -1  -1    5.86    0.18
  -1  -1  -1    5.73    0.16
   1   1   1    5.91    0.17
  -2  -1  -1   13.94    0.33
   2   1   1   14.11    0.33
  -3  -1  -1    4.44    0.23
   3   1   1    4.75    0.22
  -4  -1  -1    0.04    0.12
   4   1   1    0.13    0.12
  -5  -1  -1    0.54    0.16
   5   1   1    0.76    0.18
  -6  -1  -1   -0.04    0.17
   6   1   1    0.00    0.17
   7  -2  -1    0.03    0.18
  -7   2   1   -0.41    0.16
   6  -2  -1    0.28    0.16
  -6   2   1   -0.18    0.13
  -6   2   1    0.11    0.14
   5  -2  -1    0.16    0.12
  -5   2   1   -0.13    0.09
  -5   2   1    0.09    0.12
   4  -2  -1    0.06    0.10
  -4   2   1   -0.04    0.08
  -4   2   1   -0.06    0.08
   3  -2  -1    0.02    0.07
  -3   2   1    0.03    0.07
  -3   2   1   -0.03    0.06
   2  -2  -1   -0.04    0.05
  -2   2   1    0.08    0.06
  -2   2   1    0.10    0.06
   1  -2  -1   13.33    0.25
   1  -2  -1   12.99    0.27
  -1   2   1   13.36    0.26
   0  -2  -1    1.00    0.09
   0  -2  -1    1.00    0.09
   0   2   1    1.06    0.08
  -1  -2  -1    0.53    0.08
  -1  -2  -1    0.46    0.08
   1   2   1    0.55    0.08
  -2  -2  -1    2.24    0.14
  -2  -2  -1    2.35    0.17
   2   2   1    2.27    0.16
  -3  -2  -1    1.12    0.14
   3   2   1    0.98    0.14
  -4  -2  -1    1.10    0.18
   4   2   1    1.21    0.18
  -5  -2  -1    1.44    0.23
   5   2   1    1.02    0.19
  -6  -2  -1    0.25    0.19
   6   2   1    0.16    0.18
   7  -3  -1    0.71    0.22
  -7   3   1    0.17    0.20
   6  -3  -1    0.01    0.15
  -6   3   1   -0.06    0.14
  -6   3   1   -0.23    0.11
   5  -3  -1    0.60    0.15
  -5   3   1    0.11    0.12
  -5   3   1    0.40    0.14
   4  -3  -1   30.16    0.64
  -4   3   1   29.42    0.61
  -4   3   1   29.84    0.64
   3  -3  -1    1.02    0.12
  -3   3   1    1.08    0.13
   2  -3  -1    1.54    0.12
  -2   3   1    1.53    0.13
   1  -3  -1   35.31    0.61
   1  -3  -1   35.20    0.56
  -1   3   1   36.05    0.59
   0  -3  -1    6.60    0.21
   0  -3  -1    6.39    0.21
   0   3   1    6.33    0.18
  -1  -3  -1   45.25    0.78
  -1  -3  -1   45.51    0.78
   1   3   1   46.78    0.76
  -2  -3  -1   16.05    0.38
  -2  -3  -1   15.67    0.40
   2   3   1   16.31    0.40
  -3  -3  -1    3.26    0.23
   3   3   1    3.01    0.23
  -4  -3  -1    4.89    0.30
   4   3   1    4.15    0.30
  -5  -3  -1   -0.08    0.14
   5   3   1   -0.11    0.15
  -6  -3  -1    0.05    0.20
   6   3   1    0.24    0.20
   7  -4  -1    0.54    0.21
  -7   4   1    0.41    0.21
  -7   4   1    0.47    0.19
   6  -4  -1    2.46    0.28
  -6   4   1    2.39    0.28
  -6   4   1    2.52    0.26
   5  -4  -1   -0.02    0.12
  -5   4   1    0.22    0.12
   4  -4  -1    6.88    0.30
  -4   4   1    6.58    0.30
   3  -4  -1   23.94    0.51
  -3   4   1   23.94    0.51
   2  -4  -1    5.70    0.21
   2  -4  -1    6.29    0.21
  -2   4   1    6.31    0.22
   1  -4  -1    0.87    0.11
  -1   4   1    0.94    0.11
   0  -4  -1   20.88    0.46
  -1  -4  -1   16.58    0.41
  -1  -4  -1   16.13    0.40
   1   4   1   17.04    0.39
  -2  -4  -1   12.09    0.37
  -2  -4  -1   12.53    0.36
   2   4   1   12.22    0.37
  -3  -4  -1   -0.02    0.10
  -3  -4  -1   -0.05    0.08
   3   4   1   -0.08    0.10
  -4  -4  -1    1.89    0.22
   4   4   1    1.66    0.23
  -5  -4  -1    2.26    0.27
   5   4   1    1.89    0.26
   7  -5  -1    2.86    0.33
  -7   5   1    3.44    0.35
   6  -5  -1    1.76    0.25
  -6   5   1    2.14    0.27
   5  -5  -1    3.64    0.28
  -5   5   1    3.68    0.29
   4  -5  -1   -0.03    0.09
  -4   5   1    0.00    0.10
   3  -5  -1   -0.02    0.07
   3  -5  -1    0.00    0.07
  -3   5   1   -0.04    0.08
   2  -5  -1   67.96    1.07
   2  -5  -1   67.07    1.13
  -2   5   1   68.67    1.12
   1  -5  -1    2.18    0.18
  -1   5   1    2.48    0.17
   0  -5  -1    0.46    0.10
   0   5   1    0.46    0.10
  -1  -5  -1    2.23    0.19
  -1  -5  -1    2.49    0.20
   1   5   1    2.70    0.18
  -2  -5  -1    2.74    0.22
  -2  -5  -1    2.86    0.23
   2   5   1    2.85    0.22
  -3  -5  -1    9.77    0.41
  -3  -5  -1   10.64    0.38
   3   5   1    9.92    0.41
  -4  -5  -1    0.88    0.15
  -4  -5  -1    1.30    0.23
   4   5   1    0.83    0.20
  -5  -5  -1   -0.06    0.18
   5   5   1   -0.18    0.18
   7  -6  -1    0.15    0.18
  -7   6   1   -0.07    0.19
   6  -6  -1    0.07    0.14
  -6   6   1    0.05    0.15
   5  -6  -1    1.80    0.23
  -5   6   1    2.05    0.23
   4  -6  -1    0.91    0.17
  -4   6   1    0.76    0.16
   3  -6  -1    1.17    0.14
   3  -6  -1    1.18    0.15
  -3   6   1    1.07    0.15
   2  -6  -1    2.45    0.16
   2  -6  -1    3.01    0.22
  -2   6   1    2.72    0.21
   1  -6  -1    0.43    0.12
  -1   6   1    0.55    0.11
   0  -6  -1    0.40    0.12
   0   6   1    0.56    0.12
  -1  -6  -1    0.48    0.13
  -1  -6  -1    0.53    0.13
   1   6   1    0.49    0.12
  -2  -6  -1    0.07    0.12
  -2  -6  -1    0.41    0.13
   2   6   1    0.25    0.13
  -3  -6  -1    0.12    0.14
  -3  -6  -1    0.12    0.13
   3   6   1    0.00    0.13
  -4  -6  -1    0.15    0.17
  -4  -6  -1   -0.12    0.13
   4   6   1   -0.08    0.16
   6  -7  -1    1.07    0.22
  -6   7   1    1.40    0.24
   5  -7  -1    0.79    0.19
  -5   7   1    0.73    0.19
   4  -7  -1    0.46    0.12
   4  -7  -1    0.55    0.14
  -4   7   1    0.36    0.14
   3  -7  -1    2.16    0.20
   3  -7  -1    2.00    0.20
  -3   7   1    2.22    0.22
   2  -7  -1    1.99    0.21
   2  -7  -1    1.96    0.16
  -2   7   1    2.25    0.21
   1  -7  -1    1.87    0.21
  -1   7   1    2.01    0.20
   0  -7  -1   15.16    0.49
   0   7   1   16.20    0.48
  -1  -7  -1    0.23    0.13
  -2  -7  -1    0.51    0.16
  -2  -7  -1    0.52    0.15
   2   7   1    0.62    0.16
  -3  -7  -1    0.20    0.16
  -3  -7  -1    0.07    0.14
   3   7   1    0.15    0.15
  -4  -7  -1    0.21    0.20
   4   7   1    0.00    0.19
   6  -8  -1    7.85    0.45
  -6   8   1    8.28    0.47
   5  -8  -1    0.89    0.20
  -5   8   1    0.66    0.19
   4  -8  -1    0.21    0.12
   4  -8  -1   -0.02    0.10
  -4   8   1    0.03    0.13
   3  -8  -1    0.99    0.16
   3  -8  -1    1.17    0.18
  -3   8   1    0.63    0.15
   2  -8  -1    0.65    0.16
  -2   8   1    0.22    0.14
   1  -8  -1   23.32    0.65
  -1   8   1   22.66    0.61
   0  -8  -1   10.41    0.44
   0   8   1   10.48    0.43
  -1  -8  -1    0.68    0.17
   1   8   1    0.30    0.16
  -2  -8  -1    2.91    0.28
   2   8   1    2.08    0.25
  -3  -8  -1    0.40    0.17
  -3  -8  -1    0.09    0.19
   3   8   1    0.17    0.18
   5  -9  -1    0.01    0.13
  -5   9   1    0.02    0.16
   4  -9  -1    1.38    0.21
   4  -9  -1    1.69    0.21
  -4   9   1    2.16    0.26
   3  -9  -1   -0.03    0.13
   3  -9  -1    0.20    0.11
  -3   9   1    0.11    0.14
   2  -9  -1   -0.10    0.14
  -2   9   1    0.02    0.13
   1  -9  -1   13.73    0.54
  -1   9   1   13.29    0.49
   0  -9  -1    0.39    0.17
   0   9   1    0.26    0.16
  -1  -9  -1   -0.03    0.16
   1   9   1   -0.18    0.15
  -2  -9  -1    0.09    0.17
   2   9   1    0.27    0.19
   2   9   1    0.18    0.19
   4 -10  -1    0.41    0.18
   4 -10  -1    0.58    0.15
  -4  10   1    0.58    0.21
   3 -10  -1    2.15    0.27
  -3  10   1    1.97    0.28
   2 -10  -1    4.15    0.38
  -2  10   1    3.74    0.34
   1 -10  -1    2.65    0.31
  -1  10   1    3.54    0.33
   0 -10  -1    1.85    0.27
   0  10   1    2.31    0.30
   1  10   1    1.05    0.23
   0  11  -2    0.22    0.20
  -1  11  -2    1.43    0.26
   1 -11   2    1.67    0.29
  -2  11  -2    3.17    0.36
   2 -11   2    2.85    0.34
  -3  11  -2    1.47    0.29
   3 -11   2    1.05    0.20
   1  10  -2    0.60    0.22
  -1 -10   2    0.91    0.23
   0  10  -2    0.02    0.17
   0 -10   2    0.00    0.17
  -1  10  -2    1.03    0.21
   1 -10   2    0.60    0.21
  -2  10  -2    1.10    0.24
   2 -10   2    0.79    0.16
   2 -10   2    1.08    0.24
  -3  10  -2   -0.15    0.17
   3 -10   2   -0.02    0.12
   3 -10   2   -0.08    0.14
  -4  10  -2    0.30    0.20
   4 -10   2    0.26    0.15
   4 -10   2    0.21    0.18
   3   9  -2    0.02    0.20
  -3  -9   2    0.00    0.16
   2   9  -2    0.94    0.25
  -2  -9   2    0.66    0.18
   1   9  -2    1.31    0.24
  -1  -9   2    1.11    0.21
   0   9  -2   -0.11    0.13
   0  -9   2    0.03    0.15
  -1   9  -2    0.38    0.16
   1  -9   2   -0.02    0.15
  -2   9  -2   -0.21    0.14
   2  -9   2   -0.08    0.10
   2  -9   2   -0.17    0.14
  -3   9  -2    1.00    0.20
   3  -9   2    0.81    0.19
   3  -9   2    0.64    0.15
  -4   9  -2    1.36    0.24
   4  -9   2    1.46    0.21
   4  -9   2    1.23    0.21
  -5   9  -2   -0.09    0.16
   5  -9   2   -0.06    0.15
   4   8  -2    0.03    0.16
  -4  -8   2    0.14    0.18
  -3  -8   2   -0.04    0.15
  -3  -8   2    0.15    0.16
   2   8  -2    0.24    0.17
  -2  -8   2    0.41    0.16
   1   8  -2    0.70    0.18
  -1  -8   2    0.75    0.18
   0   8  -2    0.03    0.13
   0  -8   2   -0.21    0.12
  -1   8  -2    0.43    0.15
   1  -8   2    0.31    0.15
   1  -8   2    0.21    0.10
  -2   8  -2    0.84    0.17
   2  -8   2    0.67    0.17
   2  -8   2    0.78    0.15
  -3   8  -2    0.21    0.13
   3  -8   2    0.13    0.12
   3  -8   2    0.16    0.11
  -4   8  -2    0.03    0.14
   4  -8   2   -0.19    0.10
  -5   8  -2    0.03    0.15
   5  -8   2    0.07    0.14
  -6   8  -2    0.40    0.21
   6  -8   2    0.06    0.13
   4   7  -2    0.52    0.18
  -4  -7   2    0.76    0.20
  -4  -7   2    0.56    0.16
   3   7  -2    0.89    0.17
  -3  -7   2    0.76    0.17
  -3  -7   2    1.18    0.20
  -2  -7   2    2.15    0.22
  -2  -7   2    2.24    0.24
   1   7  -2    0.97    0.18
  -1  -7   2    0.61    0.15
   0   7  -2    8.23    0.34
   0  -7   2    7.88    0.36
  -1   7  -2    0.00    0.11
   1  -7   2    0.03    0.07
   1  -7   2    0.17    0.11
  -2   7  -2    0.07    0.11
   2  -7   2    0.14    0.12
   2  -7   2    0.10    0.09
  -3   7  -2    5.02    0.31
   3  -7   2    5.21    0.30
   3  -7   2    4.70    0.27
  -4   7  -2    0.03    0.13
   4  -7   2    0.02    0.12
  -5   7  -2    0.48    0.18
   5  -7   2    0.31    0.16
  -6   7  -2    0.67    0.21
   6  -7   2    0.76    0.21
   5   6  -2    1.40    0.26
  -5  -6   2    1.64    0.25
   4   6  -2    0.40    0.16
  -4  -6   2    0.03    0.10
  -4  -6   2    0.39    0.16
   3   6  -2    5.26    0.31
  -3  -6   2    5.16    0.31
  -3  -6   2    4.87    0.31
  -2  -6   2    1.14    0.17
  -2  -6   2    1.01    0.15
   1   6  -2    0.57    0.14
  -1  -6   2    0.39    0.13
   0   6  -2   17.39    0.45
   0  -6   2   17.57    0.48
  -1   6  -2    1.40    0.16
   1  -6   2    1.27    0.16
   1  -6   2    1.62    0.15
  -2   6  -2    1.39    0.17
   2  -6   2    1.39    0.15
   2  -6   2    1.35    0.16
  -3   6  -2    0.35    0.12
   3  -6   2    0.34    0.11
   3  -6   2    0.40    0.12
  -4   6  -2    0.17    0.14
   4  -6   2    0.20    0.12
  -5   6  -2    2.75    0.29
   5  -6   2    2.57    0.28
  -6   6  -2   -0.16    0.15
   6  -6   2    0.07    0.17
   5   5  -2    0.92    0.21
  -5  -5   2    1.24    0.22
   4   5  -2    0.14    0.13
  -4  -5   2    0.13    0.13
   3   5  -2    0.24    0.12
  -3  -5   2    0.41    0.13
  -3  -5   2    0.11    0.11
  -2  -5   2    4.00    0.23
  -2  -5   2    3.85    0.23
  -1  -5   2    0.88    0.14
   0   5  -2    0.17    0.08
   0  -5   2    0.14    0.09
   0  -5   2    0.09    0.06
  -1   5  -2    3.37    0.19
   1  -5   2    3.67    0.18
   1  -5   2    3.38    0.20
  -2   5  -2    1.19    0.14
   2  -5   2    0.98    0.13
   2  -5   2    1.10    0.13
  -3   5  -2    0.91    0.14
   3  -5   2    1.09    0.15
  -4   5  -2    0.09    0.12
   4  -5   2    0.14    0.12
  -5   5  -2    0.15    0.14
   5  -5   2    0.19    0.15
  -6   5  -2   -0.23    0.15
   6  -5   2    0.03    0.17
   6   4  -2    2.19    0.29
  -6  -4   2    2.22    0.27
   5   4  -2    0.05    0.15
  -5  -4   2    0.35    0.15
   4   4  -2    5.93    0.34
  -4  -4   2    6.32    0.32
   3   4  -2    3.69    0.24
  -3  -4   2    4.03    0.21
  -3  -4   2    3.90    0.24
   2   4  -2   12.26    0.33
  -2  -4   2   11.71    0.33
  -2  -4   2   11.51    0.34
  -1  -4   2   15.54    0.38
  -1  -4   2   15.17    0.36
   0   4  -2   25.81    0.50
   0  -4   2   26.26    0.47
   0  -4   2   26.37    0.53
  -1   4  -2   17.98    0.40
   1  -4   2   18.18    0.41
   1  -4   2   17.81    0.38
  -2   4  -2   35.58    0.66
   2  -4   2   36.28    0.66
   2  -4   2   35.65    0.65
  -3   4  -2   11.29    0.35
   3  -4   2   12.10    0.36
  -4   4  -2    2.91    0.26
   4  -4   2    3.24    0.25
  -5   4  -2    3.83    0.32
   5  -4   2    3.99    0.31
  -6   4  -2    0.09    0.16
   6  -4   2   -0.20    0.15
  -7   4  -2    6.85    0.50
   7  -4   2    6.08    0.46
   6   3  -2    0.79    0.21
  -6  -3   2    0.99    0.22
   5   3  -2    2.93    0.29
  -5  -3   2    2.75    0.26
  -4  -3   2    3.65    0.26
  -3  -3   2   19.22    0.46
  -2  -3   2    0.00    0.06
  -2  -3   2    0.08    0.07
  -2  -3   2   -0.02    0.07
  -1  -3   2    6.55    0.22
  -1  -3   2    6.88    0.21
  -1  -3   2    6.75    0.19
   0   3  -2   66.64    1.01
   0  -3   2   67.11    1.06
   0  -3   2   67.84    0.99
  -1   3  -2   40.07    0.66
   1  -3   2   39.90    0.65
   1  -3   2   39.57    0.68
  -2   3  -2    2.49    0.17
   2  -3   2    2.47    0.16
  -3   3  -2    5.06    0.24
   3  -3   2    5.23    0.24
  -4   3  -2   14.03    0.44
   4  -3   2   14.08    0.43
  -5   3  -2    4.52    0.32
   5  -3   2    4.55    0.32
  -6   3  -2    1.52    0.25
   6  -3   2    1.21    0.25
   6  -3   2    1.30    0.22
  -7   3  -2    1.92    0.31
   7  -3   2    1.45    0.28
   7  -3   2    2.03    0.28
   6   2  -2    0.66    0.20
  -6  -2   2    0.78    0.18
   5   2  -2   56.30    1.02
  -5  -2   2   56.70    1.09
   4   2  -2   75.08    1.21
  -4  -2   2   74.18    1.26
  -4  -2   2   74.89    1.28
   3   2  -2    6.71    0.22
  -3  -2   2    6.47    0.25
  -3  -2   2    6.48    0.25
  -2  -2   2   54.84    0.88
  -2  -2   2   54.56    0.88
  -2  -2   2   54.06    0.84
  -1  -2   2    4.18    0.14
  -1  -2   2    4.23    0.14
  -1  -2   2    4.09    0.15
  -1  -2   2    4.01    0.14
   0   2  -2  254.56    3.52
   0  -2   2  265.22    3.48
   0  -2   2  256.85    3.64
  -1   2  -2  986.49   13.43
   1  -2   2  976.17   13.20
   1  -2   2 1000.00   13.74
  -2   2  -2    0.15    0.08
   2  -2   2    0.18    0.07
  -3   2  -2    3.64    0.21
   3  -2   2    3.42    0.20
  -4   2  -2    2.47    0.22
   4  -2   2    2.31    0.20
   4  -2   2    2.18    0.21
  -5   2  -2    1.20    0.21
   5  -2   2    1.38    0.21
   5  -2   2    1.25    0.19
  -6   2  -2   44.56    1.04
   6  -2   2   43.89    0.98
   6  -2   2   42.24    0.97
  -7   2  -2    3.66    0.41
   7  -2   2    4.92    0.42
   7   1  -2   -0.14    0.17
  -7  -1   2   -0.09    0.18
   6   1  -2    1.96    0.23
  -6  -1   2    1.46    0.22
   5   1  -2   20.04    0.51
  -5  -1   2   19.17    0.54
  -5  -1   2   19.26    0.56
   4   1  -2    4.78    0.22
  -4  -1   2    4.85    0.25
  -4  -1   2    4.85    0.24
   3   1  -2    0.96    0.11
  -3  -1   2    1.15    0.13
  -3  -1   2    1.06    0.11
   2   1  -2   39.00    0.63
  -2  -1   2   37.98    0.63
  -2  -1   2   37.45    0.64
  -1  -1   2   90.76    1.28
  -1  -1   2   92.70    1.33
  -1  -1   2   91.34    1.29
  -1  -1   2   91.28    1.28
   0   1  -2   16.70    0.30
   0  -1   2   16.74    0.30
  -1   1  -2   -0.06    0.05
  -1   1  -2   -0.04    0.05
   1  -1   2    0.00    0.05
  -2   1  -2   28.33    0.53
   2  -1   2   27.47    0.50
   2  -1   2   28.99    0.51
  -3   1  -2    4.76    0.22
   3  -1   2    4.40    0.21
   3  -1   2    4.33    0.20
  -4   1  -2    6.79    0.32
   4  -1   2    7.11    0.30
   4  -1   2    6.77    0.29
  -5   1  -2    1.07    0.20
   5  -1   2    1.28    0.21
   5  -1   2    1.25    0.19
  -6   1  -2    0.19    0.19
   6  -1   2    0.15    0.17
   6  -1   2   -0.12    0.17
   7   0  -2    4.17    0.35
  -7   0   2    2.96    0.32
   6   0  -2    1.91    0.23
  -6   0   2    1.85    0.24
  -6   0   2    1.72    0.24
   5   0  -2   13.40    0.43
  -5   0   2   14.08    0.46
  -5   0   2   14.15    0.45
   4   0  -2   11.14    0.34
  -4   0   2   11.49    0.36
  -4   0   2   11.36    0.34
   3   0  -2   15.92    0.37
  -3   0   2   16.44    0.39
  -3   0   2   16.29    0.36
   2   0  -2   52.62    0.81
  -2   0   2   51.24    0.79
  -2   0   2   52.15    0.82
   1   0  -2    0.04    0.04
  -1   0   2   -0.01    0.05
  -1   0   2    0.03    0.05
   0   0  -2  125.63    1.79
   0   0   2  126.79    1.73
   0   0   2  123.46    1.70
  -1   0  -2    0.23    0.06
  -1   0  -2    0.14    0.06
   1   0   2    0.20    0.06
  -2   0  -2   33.63    0.60
   2   0   2   33.06    0.59
  -3   0  -2   18.43    0.45
   3   0   2   19.46    0.42
   3   0   2   18.59    0.44
  -4   0  -2   -0.04    0.11
   4   0   2    0.01    0.11
   4   0   2   -0.08    0.09
  -5   0  -2    2.58    0.27
   5   0   2    1.77    0.21
   5   0   2    1.85    0.23
  -6   0  -2    0.40    0.24
   6   0   2    0.54    0.21
   7  -1  -2    0.26    0.18
  -7   1   2    0.01    0.17
   6  -1  -2    1.10    0.20
  -6   1   2    0.53    0.18
  -6   1   2    0.05    0.14
   5  -1  -2    1.41    0.19
  -5   1   2    1.20    0.18
  -5   1   2    1.27    0.18
   4  -1  -2   -0.03    0.08
  -4   1   2    0.14    0.09
  -4   1   2   -0.13    0.06
   3  -1  -2    4.52    0.20
  -3   1   2    4.64    0.19
  -3   1   2    4.44    0.20
   2  -1  -2    8.65    0.23
  -2   1   2    9.09    0.21
  -2   1   2    8.76    0.24
   1  -1  -2    2.50    0.11
   1  -1  -2    2.42    0.11
  -1   1   2    2.71    0.12
   0  -1  -2    0.00    0.05
   0  -1  -2    0.15    0.06
   0   1   2    0.09    0.05
  -1  -1  -2   25.54    0.46
  -1  -1  -2   25.91    0.46
   1   1   2   25.22    0.46
  -2  -1  -2    9.84    0.29
   2   1   2    9.83    0.28
  -3  -1  -2    0.07    0.10
   3   1   2    0.28    0.10
  -4  -1  -2    1.35    0.19
   4   1   2    1.65    0.20
  -5  -1  -2    1.96    0.26
   5   1   2    2.17    0.25
  -6  -1  -2    0.97    0.26
   6   1   2    1.24    0.25
   7  -2  -2    0.13    0.18
  -7   2   2   -0.07    0.15
  -7   2   2   -0.14    0.17
   6  -2  -2    0.73    0.18
  -6   2   2    0.51    0.17
  -6   2   2    0.46    0.17
   5  -2  -2    3.37    0.26
  -5   2   2    3.83    0.26
  -5   2   2    3.63    0.27
   4  -2  -2    9.81    0.33
  -4   2   2    9.71    0.32
  -4   2   2    9.77    0.32
   3  -2  -2   14.90    0.36
  -3   2   2   13.93    0.35
  -3   2   2   14.26    0.35
   2  -2  -2   14.68    0.33
  -2   2   2   14.73    0.32
  -2   2   2   15.27    0.31
   1  -2  -2   54.88    0.81
   1  -2  -2   54.84    0.86
  -1   2   2   54.35    0.81
  -1   2   2   56.04    0.83
   0  -2  -2    1.07    0.10
   0  -2  -2    1.13    0.11
   0   2   2    1.22    0.11
  -1  -2  -2    0.11    0.07
  -1  -2  -2    0.06    0.06
   1   2   2    0.23    0.07
  -2  -2  -2   44.93    0.78
  -2  -2  -2   45.76    0.80
   2   2   2   45.71    0.80
  -3  -2  -2    5.98    0.28
   3   2   2    5.92    0.27
  -4  -2  -2    1.68    0.21
   4   2   2    1.72    0.21
  -5  -2  -2    1.56    0.24
   5   2   2    1.86    0.24
  -6  -2  -2    0.27    0.22
   6   2   2    0.26    0.21
   7  -3  -2    1.67    0.28
  -7   3   2    1.68    0.27
  -7   3   2    1.63    0.27
   6  -3  -2    1.05    0.21
  -6   3   2    0.63    0.17
  -6   3   2    1.14    0.20
   5  -3  -2    0.45    0.14
  -5   3   2    0.49    0.14
  -5   3   2    0.45    0.14
   4  -3  -2   22.49    0.54
  -4   3   2   22.76    0.53
  -4   3   2   22.63    0.51
   3  -3  -2    1.36    0.14
  -3   3   2    1.27    0.13
  -3   3   2    1.25    0.12
   2  -3  -2    2.93    0.15
   2  -3  -2    3.04    0.15
  -2   3   2    3.28    0.15
  -2   3   2    2.99    0.15
   1  -3  -2   63.95    1.04
  -1   3   2   66.94    0.99
  -1   3   2   63.98    0.99
   0  -3  -2   12.66    0.30
   0  -3  -2   11.82    0.31
   0   3   2   12.44    0.30
  -1  -3  -2   17.20    0.40
  -1  -3  -2   17.37    0.40
   1   3   2   17.15    0.39
  -2  -3  -2    4.23    0.22
  -2  -3  -2    4.55    0.21
   2   3   2    4.25    0.23
  -3  -3  -2    0.83    0.15
  -3  -3  -2    1.07    0.13
   3   3   2    0.89    0.16
  -4  -3  -2    6.97    0.37
   4   3   2    7.44    0.37
  -5  -3  -2   -0.05    0.16
   5   3   2    0.01    0.15
   7  -4  -2    0.10    0.18
  -7   4   2    0.46    0.19
  -7   4   2    0.53    0.18
   6  -4  -2    0.65    0.18
  -6   4   2    1.02    0.19
  -6   4   2    0.94    0.20
   5  -4  -2    0.14    0.12
  -5   4   2    0.02    0.10
  -5   4   2    0.17    0.11
   4  -4  -2    2.52    0.21
  -4   4   2    2.27    0.19
  -4   4   2    2.20    0.20
   3  -4  -2    7.08    0.25
  -3   4   2    6.49    0.24
   2  -4  -2    1.51    0.14
   2  -4  -2    1.49    0.12
  -2   4   2    1.47    0.14
   1  -4  -2    0.23    0.08
  -1   4   2    0.13    0.07
   0  -4  -2    2.79    0.18
   0  -4  -2    2.79    0.17
   0   4   2    3.00    0.17
  -1  -4  -2    2.10    0.17
  -1  -4  -2    1.64    0.16
   1   4   2    2.00    0.16
  -2  -4  -2    2.94    0.22
  -2  -4  -2    2.63    0.20
   2   4   2    3.10    0.22
  -3  -4  -2   -0.02    0.10
  -3  -4  -2    0.03    0.12
   3   4   2    0.07    0.14
  -4  -4  -2    0.20    0.15
   4   4   2    0.00    0.15
  -5  -4  -2    0.19    0.19
   5   4   2    0.13    0.19
   7  -5  -2    1.33    0.25
  -7   5   2    1.86    0.30
   6  -5  -2    0.31    0.16
  -6   5   2    0.03    0.13
   5  -5  -2    0.48    0.16
  -5   5   2    0.47    0.15
   4  -5  -2    0.57    0.14
  -4   5   2    0.56    0.14
   3  -5  -2    2.10    0.16
   3  -5  -2    1.98    0.17
  -3   5   2    2.13    0.18
   2  -5  -2   13.40    0.33
   2  -5  -2   13.73    0.38
  -2   5   2   13.85    0.36
   1  -5  -2    0.11    0.09
  -1   5   2    0.46    0.10
   0  -5  -2    1.17    0.15
   0   5   2    1.24    0.14
   0   5   2    1.12    0.13
  -1  -5  -2    0.67    0.13
  -1  -5  -2    0.65    0.13
   1   5   2    0.52    0.12
  -2  -5  -2    0.40    0.13
  -2  -5  -2    0.30    0.12
   2   5   2    0.26    0.13
  -3  -5  -2    1.93    0.19
  -3  -5  -2    1.74    0.22
   3   5   2    1.71    0.22
  -4  -5  -2    0.28    0.17
  -4  -5  -2    0.42    0.14
   4   5   2    0.11    0.17
  -5  -5  -2    0.14    0.21
   5   5   2   -0.15    0.18
   7  -6  -2    0.08    0.17
  -7   6   2   -0.10    0.17
   6  -6  -2    1.55    0.23
  -6   6   2    1.86    0.27
   5  -6  -2    2.38    0.25
  -5   6   2    2.18    0.24
   4  -6  -2    0.46    0.14
  -4   6   2    0.41    0.13
   3  -6  -2    1.39    0.16
   3  -6  -2    1.55    0.17
  -3   6   2    1.44    0.17
   2  -6  -2    1.21    0.15
  -2   6   2    1.42    0.16
   1  -6  -2    1.26    0.16
  -1   6   2    1.33    0.15
   0  -6  -2    1.74    0.19
   0   6   2    2.00    0.18
   0   6   2    1.85    0.18
  -1  -6  -2    0.30    0.14
  -1  -6  -2    0.42    0.13
   1   6   2    0.60    0.13
  -2  -6  -2    0.32    0.14
  -2  -6  -2    0.56    0.16
   2   6   2    0.51    0.15
  -3  -6  -2    1.38    0.19
  -3  -6  -2    1.06    0.21
   3   6   2    1.27    0.22
  -4  -6  -2   -0.15    0.16
   4   6   2    0.19    0.18
   6  -7  -2    5.36    0.38
  -6   7   2    6.54    0.40
   5  -7  -2    5.87    0.34
  -5   7   2    4.99    0.34
   4  -7  -2    0.82    0.16
  -4   7   2    0.80    0.17
   3  -7  -2   -0.07    0.10
   3  -7  -2    0.15    0.09
  -3   7   2   -0.08    0.10
   2  -7  -2    1.03    0.17
  -2   7   2    1.12    0.17
   1  -7  -2    9.48    0.38
  -1   7   2    8.96    0.36
   0  -7  -2    9.42    0.39
   0   7   2    9.44    0.38
   0   7   2    8.63    0.33
  -1  -7  -2    1.02    0.18
   1   7   2    1.29    0.19
  -2  -7  -2    0.14    0.14
  -2  -7  -2    0.07    0.15
   2   7   2    0.27    0.15
  -3  -7  -2    0.13    0.18
  -3  -7  -2    0.07    0.14
   3   7   2    0.12    0.15
   6  -8  -2    6.75    0.42
  -6   8   2    7.17    0.44
   5  -8  -2    2.34    0.26
  -5   8   2    2.59    0.29
   4  -8  -2    0.00    0.11
   4  -8  -2    0.19    0.12
  -4   8   2    0.01    0.13
   3  -8  -2    0.34    0.12
   3  -8  -2    0.35    0.14
  -3   8   2    0.25    0.14
   2  -8  -2    2.31    0.25
  -2   8   2    2.40    0.24
   1  -8  -2   17.28    0.56
  -1   8   2   16.69    0.52
   0  -8  -2    8.76    0.41
   0   8   2    8.89    0.41
  -1  -8  -2    0.15    0.14
   1   8   2    0.15    0.14
   1   8   2    0.06    0.14
  -2  -8  -2    0.07    0.14
  -2  -8  -2    0.13    0.18
   2   8   2    0.13    0.16
   5  -9  -2   -0.10    0.12
  -5   9   2   -0.10    0.15
   4  -9  -2    0.63    0.17
   4  -9  -2    0.88    0.16
  -4   9   2    0.78    0.20
   3  -9  -2    0.05    0.14
  -3   9   2    0.06    0.14
   2  -9  -2    0.33    0.17
  -2   9   2    0.28    0.15
   1  -9  -2    0.12    0.17
  -1   9   2    0.10    0.14
   0  -9  -2    0.10    0.14
   0   9   2   -0.26    0.14
  -1  -9  -2    0.01    0.16
   1   9   2    0.51    0.19
   1   9   2    0.25    0.18
   4 -10  -2    1.06    0.22
  -4  10   2    1.71    0.27
   3 -10  -2    1.24    0.24
  -3  10   2    1.41    0.24
   2 -10  -2    0.02    0.17
  -2  10   2    0.00    0.15
   1 -10  -2   -0.08    0.16
  -1  10   2   -0.17    0.15
   0 -10  -2    0.44    0.19
   0  10   2    1.44    0.26
   0  11  -3    0.63    0.23
   0 -11   3    0.56    0.24
  -1  11  -3    0.21    0.21
   1 -11   3    0.78    0.26
  -2  11  -3    1.94    0.29
   2 -11   3    1.70    0.29
   2  10  -3    0.00    0.21
  -2 -10   3   -0.09    0.17
   1  10  -3    0.28    0.21
  -1 -10   3    1.02    0.24
   0  10  -3    0.17    0.18
   0 -10   3    0.25    0.19
  -1  10  -3    0.09    0.16
   1 -10   3    0.08    0.18
  -2  10  -3    0.17    0.17
   2 -10   3   -0.20    0.18
   2 -10   3    0.21    0.13
  -3  10  -3   -0.18    0.15
   3 -10   3   -0.05    0.16
   3 -10   3    0.34    0.14
  -4  10  -3    1.44    0.27
   4 -10   3    0.50    0.19
   4 -10   3    1.04    0.23
   3   9  -3   -0.13    0.21
  -3  -9   3    0.15    0.18
   2   9  -3    7.01    0.44
  -2  -9   3    6.55    0.41
   1   9  -3    2.05    0.26
  -1  -9   3    2.19    0.26
   0   9  -3    0.40    0.17
   0  -9   3    0.57    0.19
  -1   9  -3    3.58    0.31
   1  -9   3    2.89    0.30
   1  -9   3    2.86    0.23
  -2   9  -3    0.00    0.14
   2  -9   3    0.33    0.18
   2  -9   3    0.41    0.13
  -3   9  -3    1.82    0.25
   3  -9   3    1.86    0.25
   3  -9   3    1.99    0.24
  -4   9  -3    5.22    0.39
   4  -9   3    5.21    0.34
   4  -9   3    5.13    0.38
  -5   9  -3    0.00    0.18
   5  -9   3    0.05    0.15
   4   8  -3    0.03    0.16
  -4  -8   3    0.39    0.20
  -4  -8   3    0.02    0.14
  -3  -8   3    1.27    0.20
   2   8  -3    3.91    0.33
  -2  -8   3    4.05    0.33
   1   8  -3    4.59    0.34
  -1  -8   3    4.70    0.32
   0   8  -3   -0.03    0.12
   0  -8   3   -0.07    0.13
  -1   8  -3    1.60    0.21
   1  -8   3    1.42    0.17
   1  -8   3    1.52    0.21
  -2   8  -3    4.80    0.31
   2  -8   3    4.44    0.27
   2  -8   3    4.84    0.33
  -3   8  -3    0.66    0.18
   3  -8   3    0.64    0.18
   3  -8   3    0.45    0.14
  -4   8  -3    0.16    0.15
   4  -8   3    0.14    0.14
  -5   8  -3    0.28    0.20
   5  -8   3    0.48    0.18
   4   7  -3    0.14    0.16
  -4  -7   3    0.04    0.13
  -4  -7   3    0.15    0.17
   3   7  -3    0.70    0.17
  -3  -7   3    1.09    0.20
  -3  -7   3    0.65    0.16
  -2  -7   3    0.54    0.15
   1   7  -3    0.22    0.13
  -1  -7   3    0.29    0.13
   0   7  -3   19.31    0.51
   0  -7   3   19.79    0.54
   0  -7   3   18.13    0.45
  -1   7  -3    2.03    0.21
   1  -7   3    2.02    0.19
   1  -7   3    1.77    0.20
  -2   7  -3    0.06    0.11
   2  -7   3   -0.01    0.10
   2  -7   3   -0.02    0.10
  -3   7  -3    2.08    0.23
   3  -7   3    1.95    0.22
   3  -7   3    1.65    0.19
  -4   7  -3    0.07    0.14
   4  -7   3    0.34    0.14
  -5   7  -3    2.11    0.28
   5  -7   3    2.68    0.27
  -6   7  -3    1.77    0.29
   6  -7   3    1.96    0.28
   5   6  -3   -0.04    0.15
  -5  -6   3    0.09    0.16
   4   6  -3   -0.10    0.13
  -4  -6   3   -0.01    0.12
  -4  -6   3   -0.18    0.10
   3   6  -3    2.25    0.23
  -3  -6   3    2.03    0.21
  -3  -6   3    1.90    0.22
  -2  -6   3   -0.02    0.09
  -2  -6   3    0.07    0.11
   1   6  -3    0.08    0.11
  -1  -6   3    0.04    0.10
   0   6  -3    0.41    0.12
   0  -6   3    0.43    0.09
   0  -6   3    0.29    0.12
  -1   6  -3    0.14    0.10
   1  -6   3    0.09    0.08
   1  -6   3    0.01    0.10
  -2   6  -3   -0.05    0.08
   2  -6   3   -0.01    0.10
   2  -6   3   -0.11    0.08
  -3   6  -3    0.35    0.12
   3  -6   3    0.02    0.10
   3  -6   3    0.08    0.11
  -4   6  -3   -0.10    0.12
   4  -6   3   -0.09    0.12
  -5   6  -3   -0.09    0.15
   5  -6   3    0.20    0.16
  -6   6  -3   -0.03    0.19
   6  -6   3    0.18    0.18
  -6  -5   3    1.48    0.26
   5   5  -3    0.38    0.18
  -5  -5   3    0.51    0.17
   4   5  -3    0.48    0.16
  -4  -5   3    0.35    0.14
   3   5  -3    2.57    0.23
  -3  -5   3    2.72    0.23
  -3  -5   3    2.53    0.22
  -2  -5   3    1.37    0.15
  -2  -5   3    1.02    0.14
   1   5  -3    3.27    0.20
  -1  -5   3    3.58    0.22
  -1  -5   3    3.51    0.17
   0   5  -3    4.43    0.21
   0  -5   3    4.59    0.24
   0  -5   3    4.36    0.19
  -1   5  -3    0.15    0.08
   1  -5   3    0.12    0.08
   1  -5   3    0.10    0.08
  -2   5  -3   15.60    0.41
   2  -5   3   15.28    0.40
   2  -5   3   15.91    0.40
  -3   5  -3    0.12    0.10
   3  -5   3    0.03    0.07
   3  -5   3    0.04    0.08
  -4   5  -3    0.81    0.17
   4  -5   3    0.96    0.17
  -5   5  -3    0.48    0.18
   5  -5   3    0.14    0.16
  -6   5  -3    0.21    0.20
   6  -5   3    0.40    0.21
   6   4  -3    0.64    0.19
  -6  -4   3    0.38    0.17
   5   4  -3    0.30    0.16
  -5  -4   3    0.09    0.12
  -4  -4   3    1.93    0.21
  -3  -4   3    1.10    0.15
  -3  -4   3    1.04    0.13
  -2  -4   3    0.10    0.08
  -2  -4   3    0.13    0.07
  -2  -4   3    0.26    0.07
  -2  -4   3    0.16    0.08
  -1  -4   3    9.10    0.25
  -1  -4   3    8.87    0.29
   0   4  -3    0.09    0.07
   0  -4   3    0.01    0.08
   0  -4   3    0.08    0.07
  -1   4  -3    3.95    0.19
   1  -4   3    4.19    0.20
   1  -4   3    4.19    0.19
  -2   4  -3    5.74    0.23
   2  -4   3    5.64    0.23
   2  -4   3    6.15    0.24
  -3   4  -3   -0.02    0.10
   3  -4   3   -0.01    0.09
  -4   4  -3    2.35    0.23
   4  -4   3    2.61    0.24
  -5   4  -3    0.45    0.17
   5  -4   3    0.39    0.17
  -6   4  -3    0.05    0.18
   6  -4   3    0.45    0.21
   6   3  -3    0.23    0.18
  -6  -3   3    0.09    0.15
   5   3  -3    0.04    0.09
  -5  -3   3    0.07    0.11
   4   3  -3    0.61    0.11
  -4  -3   3    0.54    0.12
  -4  -3   3    0.40    0.14
   3   3  -3   -0.03    0.06
  -3  -3   3   -0.01    0.08
  -3  -3   3   -0.04    0.06
  -2  -3   3    0.21    0.07
  -2  -3   3    0.22    0.07
  -2  -3   3    0.31    0.08
  -2  -3   3    0.21    0.07
  -1  -3   3    0.47    0.09
  -1  -3   3    0.26    0.08
  -1  -3   3    0.29    0.07
   0   3  -3    0.48    0.07
   0  -3   3    0.49    0.09
   0  -3   3    0.35    0.08
  -1   3  -3    0.19    0.08
   1  -3   3    0.39    0.09
   1  -3   3    0.27    0.08
  -2   3  -3    0.13    0.08
  -2   3  -3    0.09    0.06
   2  -3   3    0.13    0.08
  -3   3  -3    0.24    0.11
   3  -3   3    0.29    0.11
  -4   3  -3   -0.07    0.11
   4  -3   3   -0.12    0.11
  -5   3  -3    0.15    0.14
   5  -3   3    0.31    0.18
   5  -3   3    0.04    0.13
  -6   3  -3   -0.04    0.19
   6  -3   3    0.11    0.20
   7   2  -3    0.38    0.23
  -7  -2   3    0.34    0.18
   6   2  -3    0.35    0.14
  -6  -2   3    0.09    0.13
   5   2  -3    0.38    0.12
   4   2  -3    0.33    0.10
  -4  -2   3    0.69    0.13
   3   2  -3    0.70    0.11
  -3  -2   3    0.82    0.12
  -3  -2   3    0.67    0.10
  -2  -2   3    9.90    0.27
  -2  -2   3    9.89    0.26
  -2  -2   3    9.81    0.25
  -2  -2   3    9.95    0.25
  -1  -2   3    3.73    0.15
  -1  -2   3    4.12    0.17
  -1  -2   3    3.91    0.13
   0   2  -3    0.02    0.05
   0  -2   3   -0.05    0.06
   0  -2   3   -0.02    0.06
  -1   2  -3    0.06    0.06
  -1   2  -3    0.01    0.06
   1  -2   3   -0.01    0.06
  -2   2  -3    0.25    0.09
  -2   2  -3    0.10    0.06
   2  -2   3    0.12    0.07
  -3   2  -3    2.70    0.21
   3  -2   3    2.61    0.19
  -4   2  -3    1.10    0.17
   4  -2   3    0.72    0.14
   4  -2   3    0.87    0.16
  -5   2  -3    0.06    0.14
   5  -2   3    0.00    0.15
   5  -2   3    0.44    0.15
  -6   2  -3   -0.04    0.20
   6  -2   3    0.19    0.18
   6  -2   3   -0.18    0.17
   7   1  -3    0.33    0.16
  -7  -1   3    0.13    0.17
   6   1  -3    0.06    0.13
  -6  -1   3    0.08    0.16
  -6  -1   3    0.23    0.14
   5   1  -3    4.29    0.25
  -5  -1   3    4.67    0.30
  -5  -1   3    5.38    0.30
   4   1  -3    0.00    0.07
  -4  -1   3    0.13    0.10
  -4  -1   3    0.11    0.08
   3   1  -3    5.89    0.22
  -3  -1   3    5.80    0.21
  -3  -1   3    5.91    0.23
  -2  -1   3   10.83    0.24
  -2  -1   3   11.40    0.28
  -2  -1   3   10.89    0.27
   1   1  -3    1.87    0.12
  -1  -1   3    2.13    0.12
  -1  -1   3    2.00    0.11
   0   1  -3   20.26    0.38
   0  -1   3   20.51    0.37
  -1   1  -3    4.17    0.16
  -1   1  -3    4.15    0.16
   1  -1   3    4.08    0.16
  -2   1  -3    3.76    0.19
   2  -1   3    3.78    0.16
   2  -1   3    3.72    0.17
  -3   1  -3    7.41    0.29
   3  -1   3    7.04    0.26
   3  -1   3    7.22    0.26
  -4   1  -3    1.04    0.18
   4  -1   3    1.22    0.16
   4  -1   3    1.13    0.16
  -5   1  -3    0.26    0.16
   5  -1   3    0.36    0.16
   5  -1   3    0.46    0.16
  -6   1  -3    0.33    0.23
   6  -1   3    0.24    0.19
   6  -1   3   -0.14    0.16
   7   0  -3    0.20    0.16
  -7   0   3   -0.11    0.17
  -7   0   3    0.33    0.18
   6   0  -3    0.17    0.13
  -6   0   3    0.10    0.13
  -6   0   3    0.26    0.16
   5   0  -3    0.08    0.10
  -5   0   3    0.09    0.12
  -5   0   3    0.06    0.09
   4   0  -3    0.46    0.11
  -4   0   3    0.32    0.09
  -4   0   3    0.24    0.10
   3   0  -3    0.08    0.07
  -3   0   3    0.12    0.08
  -3   0   3    0.06    0.06
   2   0  -3    0.04    0.06
  -2   0   3    0.00    0.06
   1   0  -3    0.27    0.06
  -1   0   3    0.36    0.07
  -1   0   3    0.31    0.07
   0   0  -3   21.26    0.40
   0   0   3   22.33    0.39
   0   0   3   21.73    0.37
  -1   0  -3    0.26    0.07
  -1   0  -3    0.16    0.06
   1   0   3    0.29    0.07
  -2   0  -3    0.07    0.07
   2   0   3    0.17    0.08
  -3   0  -3    0.31    0.11
   3   0   3    0.32    0.10
  -4   0  -3    0.74    0.17
   4   0   3    0.69    0.15
  -5   0  -3    1.59    0.25
   5   0   3    1.50    0.23
   5   0   3    1.47    0.20
  -6   0  -3    0.11    0.22
   6   0   3    0.05    0.18
   7  -1  -3   -0.07    0.16
  -7   1   3    0.23    0.19
  -7   1   3   -0.29    0.15
   6  -1  -3    2.26    0.25
  -6   1   3    1.50    0.23
  -6   1   3    2.07    0.24
   5  -1  -3    0.03    0.09
  -5   1   3    0.11    0.10
  -5   1   3    0.10    0.11
   4  -1  -3    2.73    0.19
  -4   1   3    2.74    0.18
  -4   1   3    2.68    0.20
   3  -1  -3   62.03    0.99
  -3   1   3   57.72    0.94
  -3   1   3   60.09    0.98
   2  -1  -3    1.13    0.11
  -2   1   3    1.14    0.11
   1  -1  -3   14.87    0.31
  -1   1   3   15.13    0.31
  -1   1   3   15.10    0.30
   0  -1  -3   23.54    0.45
   0   1   3   23.84    0.43
  -1  -1  -3    3.84    0.17
  -1  -1  -3    4.02    0.18
   1   1   3    3.83    0.17
  -2  -1  -3   45.22    0.78
  -2  -1  -3   45.57    0.80
   2   1   3   45.31    0.80
  -3  -1  -3    1.42    0.17
   3   1   3    1.26    0.16
  -4  -1  -3    0.65    0.16
   4   1   3    0.47    0.15
  -5  -1  -3    2.13    0.28
   5   1   3    2.26    0.27
  -6  -1  -3    0.13    0.21
   6   1   3   -0.20    0.21
   7  -2  -3    0.47    0.19
  -7   2   3    0.56    0.20
  -7   2   3    0.04    0.16
   6  -2  -3    2.03    0.25
  -6   2   3    1.96    0.24
  -6   2   3    1.89    0.23
   5  -2  -3    9.55    0.37
  -5   2   3    9.29    0.35
  -5   2   3    9.54    0.37
   4  -2  -3    2.67    0.20
  -4   2   3    2.85    0.19
  -4   2   3    2.87    0.20
   3  -2  -3    2.96    0.18
  -3   2   3    2.90    0.15
  -3   2   3    2.69    0.17
   2  -2  -3   43.27    0.72
   2  -2  -3   42.93    0.72
  -2   2   3   44.20    0.69
  -2   2   3   44.90    0.73
   1  -2  -3   21.12    0.42
  -1   2   3   21.79    0.41
  -1   2   3   21.05    0.37
   0  -2  -3   13.47    0.33
   0   2   3   13.42    0.31
  -1  -2  -3    5.46    0.20
  -1  -2  -3    5.66    0.22
   1   2   3    5.78    0.22
  -2  -2  -3    6.17    0.24
  -2  -2  -3    6.16    0.26
   2   2   3    6.28    0.26
  -3  -2  -3   10.26    0.38
   3   2   3   11.41    0.39
  -4  -2  -3    0.97    0.19
   4   2   3    0.91    0.19
  -5  -2  -3    0.23    0.19
   5   2   3   -0.05    0.15
   7  -3  -3    5.19    0.38
  -7   3   3    5.27    0.38
  -7   3   3    5.00    0.40
   6  -3  -3    2.31    0.27
  -6   3   3    2.14    0.25
  -6   3   3    2.17    0.25
   5  -3  -3    5.01    0.29
  -5   3   3    5.40    0.30
  -5   3   3    5.29    0.29
   4  -3  -3   10.82    0.35
  -4   3   3   10.72    0.34
  -4   3   3   10.81    0.34
   3  -3  -3    4.75    0.21
  -3   3   3    4.61    0.21
  -3   3   3    4.77    0.19
   2  -3  -3   10.27    0.27
   2  -3  -3   10.14    0.28
  -2   3   3    9.91    0.26
  -2   3   3    9.79    0.27
   1  -3  -3   85.13    1.34
  -1   3   3   84.04    1.26
  -1   3   3   85.74    1.28
   0  -3  -3    8.94    0.28
   0  -3  -3    8.88    0.26
   0   3   3    9.09    0.27
  -1  -3  -3    3.12    0.19
  -1  -3  -3    3.24    0.19
   1   3   3    3.06    0.19
  -2  -3  -3    0.08    0.09
  -2  -3  -3    0.00    0.08
   2   3   3    0.09    0.10
  -3  -3  -3    0.10    0.10
  -3  -3  -3    0.25    0.12
   3   3   3    0.19    0.13
  -4  -3  -3    7.72    0.40
   4   3   3    7.57    0.40
  -5  -3  -3    0.16    0.20
   5   3   3    0.10    0.18
   7  -4  -3    1.96    0.29
  -7   4   3    2.05    0.27
  -7   4   3    2.40    0.29
   6  -4  -3    0.07    0.13
  -6   4   3    0.03    0.13
  -6   4   3    0.04    0.14
   5  -4  -3   -0.01    0.11
  -5   4   3   -0.06    0.11
  -5   4   3   -0.02    0.10
   4  -4  -3    1.75    0.19
  -4   4   3    1.77    0.18
  -4   4   3    1.80    0.17
   3  -4  -3    1.92    0.16
  -3   4   3    1.83    0.16
  -3   4   3    1.89    0.16
   2  -4  -3    4.65    0.22
   2  -4  -3    4.87    0.18
  -2   4   3    4.76    0.19
  -2   4   3    4.83    0.20
   1  -4  -3    1.38    0.14
  -1   4   3    1.45    0.13
  -1   4   3    1.51    0.14
   0  -4  -3    0.05    0.07
   0  -4  -3   -0.06    0.06
   0   4   3    0.01    0.07
  -1  -4  -3    0.14    0.09
  -1  -4  -3    0.06    0.09
   1   4   3    0.16    0.10
  -2  -4  -3    0.07    0.11
  -2  -4  -3    0.12    0.10
   2   4   3    0.09    0.12
  -3  -4  -3    0.42    0.15
  -3  -4  -3    0.67    0.14
   3   4   3    0.50    0.17
  -4  -4  -3   -0.01    0.15
   4   4   3    0.15    0.16
  -5  -4  -3    0.25    0.20
   5   4   3   -0.25    0.17
   7  -5  -3    2.46    0.31
  -7   5   3    2.18    0.29
  -7   5   3    2.09    0.27
   6  -5  -3    0.02    0.13
  -6   5   3   -0.14    0.12
  -6   5   3    0.01    0.12
   5  -5  -3    5.90    0.32
  -5   5   3    5.65    0.31
  -5   5   3    5.51    0.32
   4  -5  -3    0.82    0.16
  -4   5   3    1.14    0.16
  -4   5   3    0.85    0.14
   3  -5  -3    2.80    0.19
   3  -5  -3    2.71    0.18
  -3   5   3    2.78    0.19
   2  -5  -3    0.93    0.13
  -2   5   3    0.90    0.12
  -2   5   3    0.97    0.12
   1  -5  -3    4.56    0.24
  -1   5   3    4.59    0.22
  -1   5   3    4.84    0.22
   0  -5  -3    8.84    0.32
   0   5   3    8.49    0.30
  -1  -5  -3   17.73    0.49
  -1  -5  -3   17.13    0.47
   1   5   3   17.78    0.48
  -2  -5  -3    2.83    0.26
  -2  -5  -3    3.17    0.27
   2   5   3    2.70    0.26
  -3  -5  -3   -0.08    0.11
  -3  -5  -3    0.08    0.15
   3   5   3    0.03    0.14
  -4  -5  -3    0.05    0.18
   4   5   3    0.07    0.17
   7  -6  -3    0.18    0.16
  -7   6   3    0.15    0.17
   6  -6  -3    2.79    0.30
  -6   6   3    3.43    0.31
   5  -6  -3   20.44    0.59
  -5   6   3   21.11    0.58
   4  -6  -3   -0.05    0.10
  -4   6   3    0.18    0.11
   3  -6  -3    1.13    0.14
   3  -6  -3    1.18    0.16
  -3   6   3    1.16    0.16
   2  -6  -3    1.02    0.16
  -2   6   3    1.17    0.15
   1  -6  -3    0.65    0.14
  -1   6   3    0.55    0.13
   0  -6  -3   55.66    1.06
   0   6   3   52.79    0.98
   0   6   3   54.76    1.00
  -1  -6  -3    3.28    0.27
  -1  -6  -3    3.23    0.27
   1   6   3    3.07    0.26
  -2  -6  -3    0.51    0.16
  -2  -6  -3    0.21    0.14
   2   6   3    0.20    0.15
  -3  -6  -3    2.49    0.28
  -3  -6  -3    2.52    0.25
   3   6   3    2.41    0.27
  -4  -6  -3    0.55    0.23
   4   6   3    0.32    0.20
   6  -7  -3    6.73    0.40
  -6   7   3    7.16    0.40
   5  -7  -3    4.06    0.30
  -5   7   3    4.45    0.32
   4  -7  -3    1.14    0.17
  -4   7   3    1.17    0.19
   3  -7  -3    7.22    0.29
   3  -7  -3    7.88    0.35
  -3   7   3    7.37    0.34
   2  -7  -3    1.85    0.21
  -2   7   3    1.88    0.20
   1  -7  -3    0.82    0.17
  -1   7   3    0.78    0.17
  -1   7   3    0.64    0.14
   0  -7  -3   16.45    0.53
   0   7   3   16.32    0.49
   0   7   3   16.49    0.51
  -1  -7  -3    2.62    0.26
   1   7   3    2.51    0.24
  -2  -7  -3    0.92    0.18
  -2  -7  -3    0.49    0.19
   2   7   3    0.44    0.18
  -3  -7  -3    0.12    0.15
  -3  -7  -3   -0.24    0.16
   3   7   3   -0.06    0.17
   6  -8  -3    8.54    0.45
  -6   8   3    8.19    0.44
   5  -8  -3    0.10    0.12
  -5   8   3    0.07    0.15
   4  -8  -3    2.62    0.25
   4  -8  -3    2.71    0.25
  -4   8   3    3.19    0.29
   3  -8  -3    0.83    0.18
   3  -8  -3    0.77    0.14
  -3   8   3    1.06    0.19
   2  -8  -3    2.82    0.28
  -2   8   3    2.99    0.27
   1  -8  -3   11.60    0.47
  -1   8   3   11.32    0.44
   0  -8  -3    1.07    0.20
   0   8   3    0.79    0.18
   0   8   3    1.17    0.20
  -1  -8  -3    4.00    0.34
   1   8   3    3.63    0.32
   1   8   3    3.49    0.32
  -2  -8  -3    1.32    0.23
  -2  -8  -3    1.28    0.26
   2   8   3    1.06    0.23
   5  -9  -3   -0.05    0.13
  -5   9   3    0.09    0.16
   4  -9  -3   -0.07    0.13
   4  -9  -3    0.08    0.11
  -4   9   3    0.00    0.15
   3  -9  -3   -0.04    0.14
  -3   9   3   -0.20    0.12
   2  -9  -3    0.26    0.16
  -2   9   3    0.10    0.14
   1  -9  -3    0.04    0.17
  -1   9   3    0.10    0.15
   0  -9  -3   -0.11    0.16
   0   9   3   -0.40    0.14
  -1  -9  -3    0.08    0.18
   1   9   3   -0.04    0.16
   1   9   3    0.43    0.20
   4 -10  -3    1.28    0.24
  -4  10   3    1.68    0.26
   3 -10  -3   -0.13    0.16
  -3  10   3   -0.14    0.15
   2 -10  -3    0.10    0.18
  -2  10   3   -0.15    0.13
   1 -10  -3   -0.17    0.18
  -1  10   3    0.06    0.18
   0  11  -4    0.24    0.21
   0 -11   4    0.33    0.22
  -1  11  -4   -0.04    0.20
   1 -11   4   -0.27    0.19
  -2  11  -4    0.22    0.19
   2 -11   4    0.03    0.22
   2 -11   4   -0.05    0.13
   2  10  -4   -0.23    0.20
  -2 -10   4    0.02    0.18
   1  10  -4   -0.05    0.19
  -1 -10   4    0.33    0.19
   0  10  -4    0.38    0.19
   0 -10   4    0.39    0.21
  -1  10  -4   -0.01    0.16
   1 -10   4   -0.05    0.11
   1 -10   4   -0.23    0.17
  -2  10  -4    0.15    0.18
   2 -10   4    0.23    0.13
   2 -10   4   -0.29    0.16
  -3  10  -4    0.12    0.18
   3 -10   4    0.10    0.19
   3 -10   4   -0.19    0.12
  -4  10  -4   -0.05    0.18
   4 -10   4    0.03    0.15
   3   9  -4    0.77    0.25
  -3  -9   4    0.17    0.18
   2   9  -4    1.31    0.25
  -2  -9   4    1.28    0.23
   1   9  -4    0.26    0.18
  -1  -9   4    0.47    0.18
   0   9  -4    0.10    0.14
   0  -9   4    0.16    0.11
   0  -9   4   -0.25    0.14
  -1   9  -4    2.12    0.25
   1  -9   4    1.89    0.21
   1  -9   4    2.12    0.27
  -2   9  -4   -0.12    0.14
   2  -9   4   -0.07    0.11
   2  -9   4   -0.11    0.15
  -3   9  -4    0.27    0.17
   3  -9   4    0.17    0.14
   3  -9   4    0.17    0.17
  -4   9  -4    0.74    0.21
   4  -9   4    0.70    0.20
  -5   9  -4    0.00    0.20
   5  -9   4    0.16    0.16
  -4  -8   4    0.29    0.19
  -4  -8   4    0.09    0.14
  -3  -8   4    0.00    0.14
   2   8  -4    2.10    0.27
  -2  -8   4    1.59    0.22
   1   8  -4    0.92    0.19
  -1  -8   4    0.71    0.17
   0   8  -4    1.75    0.22
   0  -8   4    1.55    0.18
   0  -8   4    1.63    0.22
  -1   8  -4    3.45    0.29
   1  -8   4    3.52    0.31
   1  -8   4    2.81    0.23
  -2   8  -4    0.16    0.14
   2  -8   4    0.02    0.11
   2  -8   4    0.17    0.14
  -3   8  -4    0.34    0.16
   3  -8   4    0.17    0.14
   3  -8   4    0.26    0.15
  -4   8  -4   -0.06    0.15
   4  -8   4   -0.11    0.13
  -5   8  -4   -0.17    0.17
   5  -8   4   -0.24    0.12
   4   7  -4    1.08    0.20
  -4  -7   4    0.94    0.20
  -4  -7   4    1.08    0.18
  -3  -7   4    0.04    0.12
  -3  -7   4    0.04    0.13
   2   7  -4    0.08    0.14
  -2  -7   4   -0.17    0.12
   1   7  -4    0.71    0.17
  -1  -7   4    0.73    0.16
   0   7  -4    0.08    0.11
   0  -7   4   -0.02    0.09
   0  -7   4   -0.12    0.12
  -1   7  -4    0.17    0.13
   1  -7   4    0.11    0.12
   1  -7   4    0.33    0.12
  -2   7  -4    0.98    0.16
   2  -7   4    0.68    0.16
   2  -7   4    0.65    0.15
  -3   7  -4    0.51    0.16
   3  -7   4    1.05    0.18
   3  -7   4    0.74    0.16
  -4   7  -4    0.07    0.15
   4  -7   4    0.24    0.14
  -5   7  -4    0.40    0.19
   5  -7   4    0.07    0.16
   5   6  -4    2.30    0.27
  -5  -6   4    2.26    0.29
   4   6  -4    0.06    0.13
  -4  -6   4   -0.07    0.12
  -4  -6   4   -0.17    0.10
   3   6  -4   10.47    0.38
  -3  -6   4   10.82    0.40
  -3  -6   4   10.34    0.40
  -2  -6   4    0.59    0.15
   1   6  -4    7.30    0.31
  -1  -6   4    7.95    0.32
  -1  -6   4    7.63    0.27
   0   6  -4    4.72    0.25
   0  -6   4    5.04    0.23
   0  -6   4    5.05    0.28
  -1   6  -4    6.17    0.28
   1  -6   4    6.62    0.31
   1  -6   4    6.61    0.27
  -2   6  -4   14.57    0.43
   2  -6   4   14.55    0.43
   2  -6   4   14.97    0.44
  -3   6  -4    5.12    0.30
   3  -6   4    4.85    0.28
  -4   6  -4    4.81    0.34
   4  -6   4    4.53    0.31
  -5   6  -4    0.68    0.20
   5  -6   4    0.79    0.20
  -6   6  -4    1.44    0.29
   6  -6   4    0.91    0.25
   6   5  -4    0.21    0.19
  -6  -5   4    0.31    0.19
   5   5  -4    3.51    0.33
  -5  -5   4    3.29    0.31
   4   5  -4    1.01    0.19
  -4  -5   4    0.81    0.17
  -4  -5   4    0.74    0.14
  -3  -5   4    3.09    0.24
  -3  -5   4    2.72    0.22
  -2  -5   4   18.60    0.48
  -2  -5   4   18.77    0.46
  -2  -5   4   19.08    0.43
   1   5  -4    5.41    0.23
  -1  -5   4    5.76    0.22
  -1  -5   4    5.38    0.26
   0   5  -4    0.13    0.08
   0  -5   4    0.08    0.09
   0  -5   4    0.10    0.08
  -1   5  -4   13.31    0.37
   1  -5   4   13.76    0.39
   1  -5   4   13.62    0.37
  -2   5  -4   16.29    0.43
   2  -5   4   15.88    0.42
   2  -5   4   16.17    0.43
  -3   5  -4    3.18    0.25
   3  -5   4    3.23    0.25
  -4   5  -4   -0.03    0.13
   4  -5   4    0.04    0.13
  -5   5  -4    1.87    0.26
   5  -5   4    1.68    0.24
  -6   5  -4    0.94    0.25
   6  -5   4    0.82    0.23
   6   4  -4    0.25    0.18
  -6  -4   4    0.16    0.15
   5   4  -4   -0.04    0.07
  -5  -4   4   -0.01    0.12
   4   4  -4   97.64    1.55
  -4  -4   4   97.59    1.62
  -4  -4   4   97.13    1.62
  -3  -4   4   32.04    0.65
  -3  -4   4   31.11    0.64
  -3  -4   4   31.55    0.61
  -3  -4   4   31.77    0.65
  -2  -4   4    2.00    0.16
  -2  -4   4    2.46    0.16
  -2  -4   4    2.49    0.18
   1   4  -4   29.26    0.55
  -1  -4   4   30.31    0.60
  -1  -4   4   30.20    0.56
   0   4  -4    2.83    0.16
   0  -4   4    2.88    0.19
   0  -4   4    2.95    0.17
  -1   4  -4  155.28    2.27
   1  -4   4  156.45    2.35
   1  -4   4  159.40    2.27
  -2   4  -4  173.07    2.54
  -2   4  -4  175.78    2.59
   2  -4   4  174.79    2.53
  -3   4  -4    0.53    0.14
   3  -4   4    0.74    0.14
  -4   4  -4    1.74    0.22
   4  -4   4    1.62    0.21
  -5   4  -4    0.03    0.16
   5  -4   4    0.10    0.16
  -6   4  -4    3.97    0.39
   6  -4   4    3.92    0.38
  -6  -3   4    0.47    0.15
   5   3  -4    0.27    0.11
  -5  -3   4    0.42    0.15
  -5  -3   4    0.50    0.13
   4   3  -4   19.42    0.48
  -4  -3   4   19.16    0.49
  -4  -3   4   19.71    0.52
  -3  -3   4   13.89    0.37
  -3  -3   4   13.77    0.38
  -3  -3   4   14.20    0.36
  -2  -3   4    1.67    0.14
  -2  -3   4    1.81    0.14
  -2  -3   4    1.93    0.13
  -2  -3   4    1.87    0.15
   1   3  -4    3.34    0.15
  -1  -3   4    3.41    0.17
  -1  -3   4    3.46    0.19
   0   3  -4   35.42    0.60
   0  -3   4   35.28    0.66
   0  -3   4   37.22    0.63
  -1   3  -4    8.54    0.25
  -1   3  -4    8.86    0.26
   1  -3   4    8.85    0.27
  -2   3  -4    2.45    0.19
  -2   3  -4    3.00    0.17
   2  -3   4    2.98    0.19
  -3   3  -4    3.42    0.24
   3  -3   4    3.83    0.23
  -4   3  -4    0.13    0.13
   4  -3   4   -0.08    0.12
  -5   3  -4    2.70    0.29
   5  -3   4    2.69    0.25
   5  -3   4    2.66    0.28
  -6   3  -4    0.81    0.25
   6  -3   4    0.36    0.22
   6  -3   4    0.34    0.18
  -7  -2   4    0.73    0.20
   6   2  -4    3.94    0.27
  -6  -2   4    3.96    0.32
  -6  -2   4    3.06    0.30
   5   2  -4    6.72    0.30
  -5  -2   4    6.69    0.32
  -5  -2   4    6.16    0.34
   4   2  -4    5.75    0.25
  -4  -2   4    5.56    0.25
  -4  -2   4    5.91    0.28
  -3  -2   4   16.98    0.41
  -3  -2   4   16.43    0.38
  -2  -2   4   24.16    0.48
  -2  -2   4   24.53    0.48
   1   2  -4   29.23    0.54
  -1  -2   4   30.45    0.54
   0   2  -4    5.04    0.19
   0  -2   4    5.11    0.19
  -1   2  -4   19.37    0.41
  -1   2  -4   18.05    0.38
   1  -2   4   19.06    0.40
  -2   2  -4    0.81    0.11
  -2   2  -4    0.64    0.10
   2  -2   4    0.81    0.12
  -3   2  -4   16.05    0.44
   3  -2   4   15.71    0.42
  -4   2  -4    5.16    0.32
   4  -2   4    5.35    0.29
   4  -2   4    5.32    0.27
  -5   2  -4    0.74    0.21
   5  -2   4    0.40    0.17
   5  -2   4    0.35    0.15
  -6   2  -4    0.64    0.26
   6  -2   4    0.24    0.17
   6  -2   4    0.62    0.21
   7   1  -4    0.23    0.18
  -7  -1   4    0.24    0.19
  -7  -1   4   -0.05    0.15
   6   1  -4    0.54    0.14
  -6  -1   4    0.43    0.17
  -6  -1   4    0.71    0.17
   5   1  -4    0.48    0.14
  -5  -1   4    0.27    0.14
  -5  -1   4    0.41    0.13
   4   1  -4    2.73    0.19
  -4  -1   4    2.71    0.18
  -4  -1   4    2.45    0.20
   3   1  -4    0.27    0.09
  -3  -1   4    0.28    0.07
  -3  -1   4    0.31    0.08
   2   1  -4    8.15    0.22
  -2  -1   4    8.54    0.25
  -2  -1   4    8.62    0.25
   1   1  -4   20.46    0.41
  -1  -1   4   21.05    0.40
  -1  -1   4   20.88    0.39
   0   1  -4    1.38    0.13
   0  -1   4    1.58    0.12
   0  -1   4    1.38    0.12
  -1   1  -4    0.92    0.10
  -1   1  -4    0.95    0.11
   1  -1   4    0.99    0.10
   1  -1   4    1.05    0.11
  -2   1  -4    9.03    0.28
  -2   1  -4    9.32    0.28
   2  -1   4    8.99    0.26
   2  -1   4    9.52    0.27
  -3   1  -4   10.38    0.36
   3  -1   4    9.78    0.31
   3  -1   4    9.74    0.32
  -4   1  -4    1.40    0.21
   4  -1   4    1.41    0.19
   4  -1   4    1.25    0.17
  -5   1  -4   -0.06    0.17
   5  -1   4    0.00    0.14
   5  -1   4   -0.28    0.13
  -6   1  -4    0.34    0.24
   6  -1   4    0.36    0.22
   7   0  -4   -0.11    0.15
  -7   0   4    0.09    0.19
  -7   0   4    0.29    0.15
   6   0  -4    0.36    0.13
  -6   0   4    0.04    0.15
  -6   0   4    0.20    0.13
   5   0  -4    0.85    0.16
  -5   0   4    0.91    0.17
  -5   0   4    1.11    0.16
   4   0  -4    8.49    0.31
  -4   0   4    8.60    0.27
  -4   0   4    8.21    0.31
   3   0  -4   37.82    0.70
  -3   0   4   37.66    0.69
  -2   0   4    3.07    0.17
  -2   0   4    3.32    0.17
   1   0  -4    8.00    0.23
  -1   0   4    8.06    0.22
  -1   0   4    8.01    0.23
   0   0  -4   69.15    1.10
   0   0   4   70.05    1.06
   0   0   4   70.97    1.03
  -1   0  -4    9.26    0.27
  -1   0  -4    8.69    0.24
   1   0   4    9.13    0.23
   1   0   4    9.16    0.26
  -2   0  -4    5.59    0.23
  -2   0  -4    5.19    0.23
   2   0   4    5.41    0.23
  -3   0  -4   13.13    0.41
   3   0   4   12.96    0.40
  -4   0  -4    3.67    0.32
   4   0   4    4.19    0.30
  -5   0  -4    3.73    0.35
   5   0   4    3.96    0.34
  -6   0  -4    0.31    0.26
   6   0   4    0.30    0.22
   7  -1  -4    1.06    0.24
  -7   1   4    0.52    0.17
  -7   1   4    0.38    0.20
   6  -1  -4    7.02    0.35
  -6   1   4    7.66    0.37
  -6   1   4    7.42    0.39
   5  -1  -4   -0.03    0.09
  -5   1   4    0.15    0.11
  -5   1   4   -0.02    0.08
   4  -1  -4    0.09    0.08
  -4   1   4   -0.02    0.08
  -4   1   4   -0.05    0.06
   3  -1  -4   46.37    0.82
  -3   1   4   46.00    0.81
   2  -1  -4   10.36    0.28
   2  -1  -4   10.17    0.26
  -2   1   4   10.65    0.29
   1  -1  -4   31.01    0.56
  -1   1   4   31.20    0.55
  -1   1   4   31.17    0.53
   0  -1  -4   40.77    0.72
   0   1   4   40.23    0.69
  -1  -1  -4    8.73    0.25
  -1  -1  -4    9.37    0.28
   1   1   4    9.28    0.28
  -2  -1  -4   18.81    0.45
  -2  -1  -4   19.83    0.45
   2   1   4   19.14    0.46
  -3  -1  -4    0.14    0.13
   3   1   4    0.11    0.11
  -4  -1  -4   -0.20    0.14
   4   1   4    0.17    0.15
  -5  -1  -4    5.07    0.43
   5   1   4    4.39    0.36
   7  -2  -4    0.37    0.17
  -7   2   4   -0.01    0.14
  -7   2   4    0.13    0.17
   6  -2  -4    0.96    0.20
  -6   2   4    0.93    0.19
  -6   2   4    1.14    0.19
   5  -2  -4    3.49    0.25
  -5   2   4    3.70    0.23
  -5   2   4    3.78    0.27
   4  -2  -4    1.09    0.15
  -4   2   4    1.22    0.15
  -4   2   4    1.29    0.14
   3  -2  -4    1.09    0.13
  -3   2   4    1.08    0.11
  -3   2   4    0.96    0.12
   2  -2  -4   11.34    0.29
   2  -2  -4   11.16    0.29
  -2   2   4   11.85    0.31
   1  -2  -4    4.24    0.20
  -1   2   4    4.38    0.20
   0  -2  -4    2.23    0.17
   0  -2  -4    2.06    0.13
   0   2   4    2.27    0.17
  -1  -2  -4    0.66    0.10
  -1  -2  -4    0.65    0.11
   1   2   4    0.59    0.11
  -2  -2  -4    0.17    0.10
  -2  -2  -4    0.39    0.11
   2   2   4    0.29    0.11
  -3  -2  -4    1.60    0.17
  -3  -2  -4    2.11    0.22
   3   2   4    2.11    0.22
  -4  -2  -4    0.10    0.15
   4   2   4    0.02    0.15
  -5  -2  -4   -0.18    0.20
   5   2   4    0.03    0.17
   7  -3  -4    2.45    0.30
  -7   3   4    2.24    0.28
  -7   3   4    2.18    0.27
   6  -3  -4    1.49    0.23
  -6   3   4    1.67    0.22
  -6   3   4    1.62    0.21
   5  -3  -4    0.58    0.15
  -5   3   4    0.76    0.16
  -5   3   4    0.86    0.15
   4  -3  -4    1.20    0.16
  -4   3   4    1.08    0.15
  -4   3   4    1.29    0.15
   3  -3  -4    0.74    0.12
  -3   3   4    0.81    0.10
  -3   3   4    0.76    0.12
   2  -3  -4    9.40    0.26
   2  -3  -4    9.11    0.28
  -2   3   4    9.07    0.28
   1  -3  -4   16.25    0.40
  -1   3   4   16.37    0.34
  -1   3   4   17.20    0.40
   0  -3  -4   -0.10    0.07
   0  -3  -4    0.01    0.07
   0   3   4    0.00    0.08
  -1  -3  -4    2.59    0.19
  -1  -3  -4    2.61    0.20
   1   3   4    2.75    0.20
  -2  -3  -4    0.58    0.14
  -2  -3  -4    0.70    0.13
   2   3   4    0.75    0.15
  -3  -3  -4    0.92    0.15
  -3  -3  -4    1.07    0.18
   3   3   4    1.10    0.20
  -4  -3  -4    1.17    0.22
   4   3   4    1.15    0.20
  -5  -3  -4    0.16    0.20
   5   3   4    0.08    0.19
   7  -4  -4    0.30    0.16
  -7   4   4    0.19    0.15
  -7   4   4    0.33    0.17
   6  -4  -4   -0.02    0.13
  -6   4   4    0.15    0.13
  -6   4   4    0.39    0.15
   5  -4  -4    2.93    0.25
  -5   4   4    3.11    0.25
  -5   4   4    2.91    0.26
   4  -4  -4    3.14    0.22
  -4   4   4    2.86    0.22
  -4   4   4    2.91    0.21
   3  -4  -4    0.04    0.07
   3  -4  -4    0.02    0.07
  -3   4   4    0.01    0.08
  -3   4   4    0.15    0.08
   2  -4  -4    4.33    0.18
   2  -4  -4    4.70    0.23
  -2   4   4    4.55    0.19
  -2   4   4    4.60    0.21
   1  -4  -4    0.31    0.10
  -1   4   4    0.61    0.12
  -1   4   4    0.52    0.09
   0  -4  -4    2.87    0.20
   0  -4  -4    3.13    0.19
   0   4   4    3.20    0.21
  -1  -4  -4    0.71    0.13
  -1  -4  -4    0.65    0.13
   1   4   4    0.81    0.15
  -2  -4  -4    0.15    0.12
  -2  -4  -4    0.12    0.13
   2   4   4    0.07    0.12
  -3  -4  -4    0.89    0.16
  -3  -4  -4    0.61    0.17
   3   4   4    0.78    0.18
  -4  -4  -4    0.52    0.21
   4   4   4    0.69    0.21
   7  -5  -4   -0.04    0.15
  -7   5   4    0.27    0.17
  -7   5   4    0.27    0.17
   6  -5  -4    3.32    0.29
  -6   5   4    3.90    0.31
  -6   5   4    3.54    0.30
   5  -5  -4   12.41    0.45
  -5   5   4   13.06    0.44
  -5   5   4   13.69    0.44
   4  -5  -4    6.58    0.31
  -4   5   4    6.94    0.30
  -4   5   4    6.80    0.29
   3  -5  -4    0.18    0.09
   3  -5  -4    0.36    0.10
  -3   5   4    0.23    0.09
  -3   5   4    0.27    0.10
   2  -5  -4    0.15    0.09
  -2   5   4   -0.03    0.06
  -2   5   4    0.07    0.08
   1  -5  -4    3.01    0.23
  -1   5   4    3.05    0.19
  -1   5   4    2.84    0.21
   0  -5  -4   13.89    0.43
   0   5   4   14.69    0.43
  -1  -5  -4    9.54    0.39
  -1  -5  -4    9.67    0.37
   1   5   4    9.68    0.38
  -2  -5  -4    0.32    0.15
  -2  -5  -4    0.40    0.14
   2   5   4    0.34    0.16
  -3  -5  -4    0.34    0.14
  -3  -5  -4    0.04    0.16
   3   5   4    0.19    0.16
  -4  -5  -4   -0.19    0.18
   4   5   4    0.11    0.18
   7  -6  -4    0.08    0.17
  -7   6   4    0.03    0.16
   6  -6  -4    3.67    0.31
  -6   6   4    3.65    0.31
  -6   6   4    4.17    0.31
   5  -6  -4   10.96    0.43
  -5   6   4   11.89    0.43
  -5   6   4   11.85    0.42
   4  -6  -4    1.81    0.20
  -4   6   4    2.13    0.21
  -4   6   4    1.35    0.17
   3  -6  -4    0.23    0.11
   3  -6  -4    0.06    0.08
  -3   6   4    0.09    0.10
   2  -6  -4    0.99    0.16
  -2   6   4    0.79    0.14
  -2   6   4    0.72    0.13
   1  -6  -4    6.26    0.32
  -1   6   4    5.75    0.29
  -1   6   4    5.46    0.28
   0  -6  -4   20.22    0.57
   0   6   4   20.31    0.55
   0   6   4   20.79    0.53
  -1  -6  -4    4.16    0.30
  -1  -6  -4    4.66    0.31
   1   6   4    3.87    0.30
  -2  -6  -4    0.12    0.14
  -2  -6  -4    0.09    0.16
   2   6   4    0.18    0.17
  -3  -6  -4    0.12    0.18
  -3  -6  -4    0.03    0.14
   3   6   4    0.12    0.18
   6  -7  -4    0.18    0.15
  -6   7   4    0.17    0.14
   5  -7  -4    0.18    0.13
  -5   7   4    0.01    0.13
   4  -7  -4   -0.07    0.09
   4  -7  -4   -0.10    0.10
  -4   7   4   -0.12    0.11
   3  -7  -4    1.91    0.22
  -3   7   4    1.78    0.20
   2  -7  -4    0.21    0.14
  -2   7   4    0.05    0.11
   1  -7  -4    0.22    0.15
  -1   7   4    0.19    0.14
  -1   7   4    0.32    0.15
   0  -7  -4    0.02    0.12
   0   7   4    0.03    0.13
   0   7   4    0.11    0.13
  -1  -7  -4   -0.07    0.13
   1   7   4    0.26    0.15
  -2  -7  -4   -0.03    0.16
  -2  -7  -4    0.10    0.16
   2   7   4    0.11    0.17
  -3  -7  -4    0.23    0.22
   3   7   4    0.17    0.20
   6  -8  -4    0.26    0.18
  -6   8   4    0.45    0.18
   5  -8  -4    0.19    0.13
  -5   8   4    0.28    0.17
   4  -8  -4    2.41    0.23
   4  -8  -4    2.26    0.25
  -4   8   4    2.32    0.25
   3  -8  -4    2.03    0.23
  -3   8   4    2.40    0.24
   2  -8  -4    1.33    0.22
  -2   8   4    1.16    0.19
   1  -8  -4    0.36    0.16
  -1   8   4    0.12    0.14
   0  -8  -4    0.68    0.18
   0   8   4    0.58    0.18
   0   8   4    0.38    0.16
  -1  -8  -4    1.67    0.25
   1   8   4    1.69    0.25
   1   8   4    1.25    0.22
  -2  -8  -4    1.95    0.26
   2   8   4    1.46    0.26
   5  -9  -4    0.14    0.13
  -5   9   4   -0.19    0.13
   4  -9  -4    0.39    0.18
  -4   9   4    0.61    0.18
   3  -9  -4    0.29    0.16
  -3   9   4    0.15    0.14
   2  -9  -4    0.13    0.18
  -2   9   4    0.00    0.12
   1  -9  -4    0.32    0.18
  -1   9   4   -0.08    0.14
   0  -9  -4    0.20    0.18
   0   9   4   -0.08    0.17
   3 -10  -4    0.27    0.20
  -3  10   4    0.68    0.21
   2 -10  -4    0.27    0.20
  -2  10   4    0.11    0.17
  -1  11  -5   -0.05    0.19
   1 -11   5   -0.17    0.19
   2  10  -5    0.05    0.21
  -2 -10   5   -0.01    0.20
   1  10  -5    1.15    0.24
  -1 -10   5    0.57    0.21
   0  10  -5    1.90    0.27
   0 -10   5    1.99    0.29
  -1  10  -5    0.98    0.23
   1 -10   5    0.49    0.17
   1 -10   5    0.12    0.19
  -2  10  -5    0.17    0.19
   2 -10   5    0.06    0.18
   2 -10   5    0.12    0.13
  -3  10  -5    0.48    0.22
   3 -10   5    0.96    0.24
   3 -10   5    0.89    0.21
   3   9  -5    0.11    0.21
  -3  -9   5   -0.12    0.17
   2   9  -5    1.21    0.24
  -2  -9   5    0.55    0.20
   1   9  -5   -0.36    0.14
  -1  -9   5   -0.17    0.14
   0   9  -5    0.44    0.18
   0  -9   5    0.37    0.14
   0  -9   5    0.21    0.17
  -1   9  -5    7.18    0.40
   1  -9   5    6.73    0.33
   1  -9   5    7.76    0.44
  -2   9  -5    0.35    0.18
   2  -9   5    0.46    0.16
   2  -9   5    0.28    0.18
  -3   9  -5    0.00    0.17
   3  -9   5   -0.05    0.17
   3  -9   5    0.14    0.15
  -4   9  -5    0.03    0.17
   4  -9   5    0.25    0.17
  -4  -8   5    0.11    0.14
   3   8  -5    0.20    0.19
  -3  -8   5    0.32    0.17
   2   8  -5    0.51    0.18
  -2  -8   5    0.44    0.16
   1   8  -5   -0.09    0.13
  -1  -8   5    0.08    0.10
  -1  -8   5   -0.18    0.12
   0   8  -5    0.07    0.12
   0  -8   5   -0.10    0.13
   0  -8   5    0.00    0.10
  -1   8  -5    0.20    0.15
   1  -8   5    0.26    0.12
   1  -8   5    0.03    0.13
  -2   8  -5   -0.04    0.13
   2  -8   5    0.31    0.16
   2  -8   5    0.15    0.12
  -3   8  -5   -0.03    0.15
   3  -8   5   -0.07    0.12
   3  -8   5    0.09    0.14
  -4   8  -5    0.12    0.13
  -4   8  -5   -0.08    0.17
   4  -8   5    0.31    0.16
  -5   8  -5   -0.09    0.19
   5  -8   5   -0.02    0.16
   4   7  -5    0.28    0.16
  -4  -7   5    0.33    0.13
  -4  -7   5    0.36    0.17
  -3  -7   5    1.28    0.19
   2   7  -5    1.50    0.22
  -2  -7   5    1.47    0.17
  -2  -7   5    1.34    0.20
   1   7  -5    1.72    0.20
  -1  -7   5    1.35    0.16
  -1  -7   5    1.61    0.21
   0   7  -5    1.01    0.17
   0  -7   5    0.99    0.15
   0  -7   5    0.48    0.15
  -1   7  -5    1.43    0.19
   1  -7   5    1.25    0.19
   1  -7   5    1.30    0.18
  -2   7  -5    1.31    0.20
   2  -7   5    0.89    0.16
   2  -7   5    0.94    0.18
  -3   7  -5    5.16    0.33
   3  -7   5    5.36    0.31
  -4   7  -5   -0.14    0.16
   4  -7   5    0.01    0.14
  -5   7  -5    0.17    0.20
   5  -7   5    0.03    0.16
   5   6  -5    0.15    0.17
  -5  -6   5   -0.11    0.13
   4   6  -5    0.03    0.14
  -4  -6   5    0.16    0.12
  -4  -6   5   -0.21    0.09
  -3  -6   5    3.92    0.28
  -3  -6   5    3.90    0.22
  -3  -6   5    4.13    0.29
   2   6  -5    0.27    0.13
  -2  -6   5    0.13    0.13
  -2  -6   5    0.18    0.11
   1   6  -5    0.71    0.14
  -1  -6   5    0.65    0.14
  -1  -6   5    0.66    0.13
   0   6  -5    3.68    0.23
   0  -6   5    3.23    0.21
   0  -6   5    3.53    0.26
  -1   6  -5   -0.07    0.10
   1  -6   5    0.01    0.10
   1  -6   5   -0.12    0.09
  -2   6  -5    4.00    0.27
   2  -6   5    4.24    0.26
   2  -6   5    4.26    0.27
  -3   6  -5    2.23    0.23
  -3   6  -5    2.15    0.20
   3  -6   5    1.77    0.22
  -4   6  -5   -0.03    0.15
   4  -6   5   -0.04    0.15
  -5   6  -5    1.15    0.24
   5  -6   5    0.86    0.22
   6   5  -5    0.44    0.21
  -6  -5   5    0.04    0.17
  -5  -5   5    0.16    0.13
   4   5  -5   -0.09    0.09
  -4  -5   5    0.12    0.12
  -4  -5   5    0.08    0.10
  -4  -5   5    0.25    0.13
  -3  -5   5    0.49    0.12
  -3  -5   5    0.25    0.12
  -3  -5   5    0.58    0.12
  -2  -5   5    0.26    0.09
  -2  -5   5    0.16    0.10
   1   5  -5    0.44    0.10
  -1  -5   5    0.26    0.10
  -1  -5   5    0.23    0.10
   0   5  -5    0.16    0.08
   0  -5   5   -0.01    0.08
   0  -5   5    0.03    0.09
  -1   5  -5    0.18    0.10
   1  -5   5    0.20    0.10
   1  -5   5    0.16    0.10
  -2   5  -5    0.17    0.11
  -2   5  -5    0.12    0.09
   2  -5   5    0.20    0.11
  -3   5  -5    0.07    0.09
  -3   5  -5   -0.05    0.12
   3  -5   5    0.19    0.13
  -4   5  -5    0.15    0.15
   4  -5   5    0.04    0.15
  -5   5  -5   -0.08    0.17
   5  -5   5    0.37    0.19
  -6   5  -5    0.06    0.21
   6  -5   5    0.08    0.20
  -6  -4   5    0.81    0.19
   5   4  -5    0.06    0.08
  -5  -4   5    0.10    0.14
  -5  -4   5   -0.04    0.12
   4   4  -5    0.25    0.12
  -3  -4   5   -0.16    0.08
  -3  -4   5    0.20    0.10
  -3  -4   5    0.31    0.10
  -3  -4   5    0.13    0.08
  -2  -4   5    1.72    0.16
  -2  -4   5    1.68    0.16
  -2  -4   5    1.65    0.14
   1   4  -5    5.13    0.20
  -1  -4   5    5.03    0.24
  -1  -4   5    5.23    0.22
   0   4  -5    0.58    0.09
   0  -4   5    0.75    0.13
   0  -4   5    0.46    0.11
  -1   4  -5    0.06    0.09
  -1   4  -5    0.12    0.08
   1  -4   5   -0.01    0.09
  -2   4  -5    0.05    0.08
  -2   4  -5    0.17    0.10
   2  -4   5    0.18    0.11
  -3   4  -5    0.18    0.13
  -3   4  -5    0.27    0.10
   3  -4   5   -0.01    0.12
  -4   4  -5    1.11    0.20
   4  -4   5    1.33    0.21
  -5   4  -5    0.32    0.20
   5  -4   5    0.12    0.19
  -6   4  -5    0.11    0.22
   6  -4   5    0.01    0.20
   6   3  -5    0.43    0.13
  -6  -3   5    0.48    0.17
  -6  -3   5    0.36    0.16
   5   3  -5    0.36    0.12
  -5  -3   5    0.60    0.17
  -5  -3   5    0.33    0.12
   4   3  -5    3.04    0.23
  -4  -3   5    3.49    0.25
  -4  -3   5    2.99    0.21
  -3  -3   5    0.33    0.09
  -3  -3   5    0.21    0.09
  -3  -3   5    0.13    0.09
  -2  -3   5    5.47    0.21
  -2  -3   5    5.52    0.23
  -2  -3   5    5.43    0.23
  -1  -3   5    7.10    0.25
   0   3  -5   -0.01    0.07
   0   3  -5    0.06    0.06
   0  -3   5    0.12    0.08
  -1   3  -5    5.19    0.23
  -1   3  -5    5.00    0.20
   1  -3   5    5.18    0.23
  -2   3  -5    0.10    0.09
  -2   3  -5    0.11    0.09
   2  -3   5    0.04    0.09
  -3   3  -5    1.67    0.19
   3  -3   5    1.92    0.20
  -4   3  -5    2.32    0.24
   4  -3   5    2.71    0.26
  -5   3  -5    0.18    0.19
   5  -3   5    0.13    0.19
  -6   3  -5    0.09    0.22
   6  -3   5    0.35    0.22
   6  -3   5    0.37    0.19
  -7  -2   5   -0.22    0.17
  -7  -2   5    0.30    0.16
   6   2  -5    0.09    0.11
  -6  -2   5    0.16    0.13
  -6  -2   5    0.22    0.15
   5   2  -5    0.41    0.13
  -5  -2   5    0.45    0.14
  -5  -2   5    0.53    0.13
   4   2  -5    0.02    0.08
  -4  -2   5    0.15    0.08
  -4  -2   5   -0.12    0.09
  -3  -2   5    0.98    0.11
  -3  -2   5    1.02    0.13
  -3  -2   5    1.19    0.14
   2   2  -5    0.23    0.07
  -2  -2   5    0.06    0.07
  -2  -2   5    0.13    0.08
   1   2  -5    0.23    0.09
  -1  -2   5    0.35    0.09
   0   2  -5    0.90    0.12
   0  -2   5    1.19    0.13
  -1   2  -5    7.80    0.27
  -1   2  -5    7.16    0.23
   1  -2   5    7.58    0.25
  -2   2  -5    0.72    0.13
  -2   2  -5    0.88    0.13
   2  -2   5    0.76    0.13
  -3   2  -5    0.08    0.11
   3  -2   5    0.06    0.11
  -4   2  -5   -0.08    0.14
   4  -2   5   -0.08    0.13
  -5   2  -5    0.04    0.18
   5  -2   5   -0.19    0.14
   5  -2   5    0.09    0.16
  -6   2  -5    0.86    0.29
   6  -2   5    0.76    0.23
   7   1  -5    1.22    0.20
  -7  -1   5    0.89    0.20
  -7  -1   5    0.85    0.23
   6   1  -5    0.19    0.11
  -6  -1   5    0.17    0.12
  -6  -1   5    0.31    0.16
   5   1  -5    3.73    0.24
  -5  -1   5    3.65    0.23
  -5  -1   5    3.45    0.27
   4   1  -5    0.38    0.12
  -4  -1   5    0.31    0.10
  -4  -1   5    0.41    0.09
  -3  -1   5   10.33    0.31
   2   1  -5   42.10    0.74
  -2  -1   5   44.59    0.75
  -2  -1   5   43.24    0.75
   1   1  -5    3.78    0.19
  -1  -1   5    3.83    0.18
  -1  -1   5    4.22    0.18
   0   1  -5   21.17    0.46
   0  -1   5   20.55    0.43
   0  -1   5   20.98    0.42
  -1   1  -5    3.10    0.19
  -1   1  -5    2.67    0.15
   1  -1   5    2.88    0.16
   1  -1   5    2.63    0.16
  -2   1  -5   -0.03    0.08
  -2   1  -5    0.14    0.09
   2  -1   5   -0.05    0.07
   2  -1   5    0.02    0.08
  -3   1  -5   18.33    0.50
   3  -1   5   17.53    0.45
   3  -1   5   17.47    0.46
  -4   1  -5    0.21    0.16
   4  -1   5   -0.01    0.12
   4  -1   5   -0.04    0.12
  -5   1  -5    0.31    0.21
   5  -1   5   -0.20    0.15
  -6   1  -5    0.53    0.26
   6  -1   5    0.39    0.22
   7   0  -5    1.30    0.24
  -7   0   5    1.08    0.20
  -7   0   5    1.07    0.23
   6   0  -5   -0.04    0.10
  -6   0   5    0.01    0.14
  -6   0   5   -0.08    0.11
   5   0  -5    1.32    0.18
  -5   0   5    1.40    0.19
  -5   0   5    1.24    0.15
   4   0  -5   16.33    0.44
  -4   0   5   15.39    0.43
   3   0  -5   10.42    0.32
  -3   0   5   10.57    0.32
   2   0  -5    1.19    0.11
  -2   0   5    1.42    0.14
  -2   0   5    1.30    0.14
   1   0  -5   21.77    0.46
  -1   0   5   21.61    0.43
  -1   0   5   22.25    0.45
   0   0  -5   16.03    0.39
   0   0   5   15.97    0.37
   0   0   5   15.82    0.34
  -1   0  -5   15.65    0.35
  -1   0  -5   16.15    0.40
   1   0   5   16.22    0.39
  -2   0  -5    0.11    0.09
  -2   0  -5    0.07    0.08
   2   0   5    0.03    0.09
  -3   0  -5    0.07    0.14
   3   0   5    0.30    0.13
  -4   0  -5    3.35    0.31
   4   0   5    3.87    0.30
  -5   0  -5    1.01    0.24
   5   0   5    1.06    0.23
   7  -1  -5    0.63    0.19
  -7   1   5    0.19    0.19
  -7   1   5    0.38    0.15
   6  -1  -5   11.01    0.44
  -6   1   5   11.48    0.42
  -6   1   5   11.47    0.46
   5  -1  -5    0.16    0.11
  -5   1   5   -0.01    0.08
  -5   1   5    0.01    0.10
   4  -1  -5    3.42    0.22
  -4   1   5    3.24    0.17
  -4   1   5    3.76    0.22
   3  -1  -5   10.93    0.33
  -3   1   5   11.16    0.33
   2  -1  -5    8.95    0.26
  -2   1   5    9.51    0.29
   1  -1  -5   35.86    0.66
  -1   1   5   35.76    0.65
  -1   1   5   35.77    0.61
   0  -1  -5   31.31    0.62
   0   1   5   31.33    0.60
  -1  -1  -5    4.80    0.20
  -1  -1  -5    4.56    0.22
   1   1   5    4.64    0.22
  -2  -1  -5    1.09    0.14
  -2  -1  -5    1.05    0.15
   2   1   5    1.11    0.15
  -3  -1  -5    0.34    0.12
  -3  -1  -5    0.59    0.16
   3   1   5    0.64    0.15
  -4  -1  -5    0.86    0.21
   4   1   5    0.40    0.17
  -5  -1  -5    2.96    0.34
   5   1   5    2.84    0.33
   7  -2  -5    0.05    0.16
  -7   2   5   -0.04    0.13
  -7   2   5    0.02    0.16
   6  -2  -5    3.21    0.27
  -6   2   5    3.28    0.30
  -6   2   5    3.12    0.27
   5  -2  -5    0.40    0.13
  -5   2   5    0.55    0.14
  -5   2   5    0.39    0.11
   4  -2  -5    0.18    0.10
  -4   2   5    0.12    0.09
  -4   2   5    0.18    0.07
   3  -2  -5    0.20    0.08
  -3   2   5    0.19    0.09
   2  -2  -5    0.31    0.08
   2  -2  -5    0.35    0.08
  -2   2   5    0.24    0.09
   1  -2  -5    4.36    0.21
  -1   2   5    4.75    0.21
   0  -2  -5    0.56    0.11
   0   2   5    0.69    0.12
  -1  -2  -5    0.00    0.07
  -1  -2  -5   -0.10    0.07
   1   2   5   -0.07    0.08
  -2  -2  -5    2.13    0.21
  -2  -2  -5    1.75    0.19
   2   2   5    1.84    0.20
  -3  -2  -5    0.00    0.13
  -3  -2  -5   -0.04    0.10
   3   2   5    0.13    0.13
  -4  -2  -5    0.10    0.19
   4   2   5   -0.01    0.15
  -5  -2  -5   -0.02    0.19
   5   2   5   -0.17    0.19
   7  -3  -5    1.01    0.22
  -7   3   5    0.82    0.20
  -7   3   5    1.27    0.22
   6  -3  -5    2.27    0.26
  -6   3   5    2.42    0.26
  -6   3   5    2.71    0.25
   5  -3  -5    0.11    0.12
  -5   3   5   -0.06    0.12
  -5   3   5    0.10    0.10
   4  -3  -5   15.25    0.44
  -4   3   5   14.25    0.38
  -4   3   5   15.00    0.44
   3  -3  -5   -0.03    0.06
   3  -3  -5   -0.09    0.06
  -3   3   5    0.00    0.08
   2  -3  -5    3.79    0.20
   2  -3  -5    3.44    0.17
  -2   3   5    3.66    0.20
   1  -3  -5    0.00    0.08
  -1   3   5    0.25    0.09
   0  -3  -5    6.57    0.27
   0  -3  -5    6.10    0.23
   0   3   5    6.54    0.27
  -1  -3  -5   20.33    0.51
  -1  -3  -5   20.22    0.48
   1   3   5   20.40    0.52
  -2  -3  -5    7.52    0.34
  -2  -3  -5    7.38    0.33
   2   3   5    6.96    0.34
  -3  -3  -5    2.76    0.26
  -3  -3  -5    2.29    0.23
   3   3   5    2.96    0.28
  -4  -3  -5    0.08    0.18
   4   3   5    0.29    0.17
   7  -4  -5    0.65    0.20
  -7   4   5    0.63    0.18
  -7   4   5    0.40    0.18
   6  -4  -5    0.56    0.17
  -6   4   5    0.80    0.17
  -6   4   5    0.74    0.18
   5  -4  -5   14.87    0.48
  -5   4   5   13.99    0.43
  -5   4   5   14.33    0.47
   4  -4  -5   35.32    0.74
  -4   4   5   34.14    0.72
  -4   4   5   34.27    0.68
   3  -4  -5    4.40    0.24
   3  -4  -5    3.86    0.21
  -3   4   5    3.63    0.19
  -3   4   5    4.10    0.23
   2  -4  -5    8.46    0.31
  -2   4   5    7.84    0.24
  -2   4   5    8.32    0.30
   1  -4  -5   -0.02    0.09
  -1   4   5    0.01    0.08
  -1   4   5    0.11    0.07
   0  -4  -5    0.24    0.11
   0  -4  -5    0.43    0.10
   0   4   5    0.44    0.13
  -1  -4  -5   64.82    1.12
  -1  -4  -5   63.26    1.18
   1   4   5   65.26    1.18
  -2  -4  -5   -0.20    0.12
  -2  -4  -5   -0.30    0.12
   2   4   5   -0.03    0.12
  -3  -4  -5    0.12    0.16
  -3  -4  -5   -0.05    0.13
   3   4   5    0.05    0.15
  -4  -4  -5    1.06    0.24
   4   4   5    0.85    0.24
   7  -5  -5    0.40    0.18
  -7   5   5    0.59    0.20
  -7   5   5    0.74    0.19
   6  -5  -5    1.01    0.20
  -6   5   5    1.27    0.21
  -6   5   5    1.70    0.22
   5  -5  -5   17.99    0.55
  -5   5   5   19.18    0.54
   4  -5  -5    1.22    0.17
  -4   5   5    1.18    0.16
  -4   5   5    1.23    0.17
   3  -5  -5    1.04    0.14
   3  -5  -5    1.13    0.16
  -3   5   5    1.33    0.14
  -3   5   5    0.99    0.15
   2  -5  -5   12.99    0.41
  -2   5   5   11.76    0.38
  -2   5   5   12.21    0.34
   1  -5  -5    9.36    0.36
  -1   5   5    8.66    0.34
  -1   5   5    9.29    0.31
   0  -5  -5    5.95    0.31
   0   5   5    5.76    0.31
  -1  -5  -5    7.21    0.36
  -1  -5  -5    7.58    0.35
   1   5   5    7.24    0.37
  -2  -5  -5    3.30    0.31
  -2  -5  -5    2.79    0.26
   2   5   5    2.64    0.28
  -3  -5  -5    0.84    0.18
  -3  -5  -5    0.51    0.20
   3   5   5    1.06    0.25
   6  -6  -5    0.58    0.18
  -6   6   5    0.78    0.17
  -6   6   5    0.49    0.16
   5  -6  -5   13.94    0.48
  -5   6   5   14.26    0.47
  -5   6   5   14.08    0.46
   4  -6  -5    3.70    0.26
   4  -6  -5    3.45    0.24
  -4   6   5    3.68    0.25
  -4   6   5    3.40    0.26
   3  -6  -5    1.93    0.21
  -3   6   5    2.48    0.21
  -3   6   5    2.71    0.24
   2  -6  -5    2.32    0.23
  -2   6   5    2.43    0.20
  -2   6   5    2.51    0.23
   1  -6  -5    0.72    0.16
  -1   6   5    1.19    0.16
  -1   6   5    1.09    0.18
   0  -6  -5   16.83    0.53
   0   6   5   15.45    0.50
   0   6   5   16.86    0.48
  -1  -6  -5    0.15    0.14
  -1  -6  -5    0.00    0.12
   1   6   5   -0.17    0.13
  -2  -6  -5    3.88    0.36
  -2  -6  -5    3.82    0.33
   2   6   5    2.63    0.29
  -3  -6  -5    2.05    0.28
  -3  -6  -5    1.92    0.25
   3   6   5    1.71    0.28
   6  -7  -5    0.26    0.16
  -6   7   5    0.21    0.15
   5  -7  -5    0.48    0.16
  -5   7   5    0.60    0.16
   4  -7  -5   -0.01    0.10
   4  -7  -5   -0.04    0.11
  -4   7   5    0.02    0.12
   3  -7  -5    0.21    0.14
  -3   7   5    0.19    0.11
   2  -7  -5    0.14    0.14
  -2   7   5    0.05    0.11
  -2   7   5    0.08    0.13
   1  -7  -5   -0.04    0.13
  -1   7   5    0.11    0.13
  -1   7   5   -0.04    0.11
   0  -7  -5   -0.11    0.12
   0   7   5   -0.13    0.12
   0   7   5    0.09    0.13
  -1  -7  -5    0.11    0.15
   1   7   5    0.17    0.17
  -2  -7  -5    0.25    0.19
  -2  -7  -5   -0.04    0.16
   2   7   5    0.25    0.20
   5  -8  -5   -0.30    0.09
  -5   8   5    0.00    0.14
   4  -8  -5    1.53    0.18
   4  -8  -5    1.87    0.24
  -4   8   5    1.87    0.23
   3  -8  -5    3.10    0.30
  -3   8   5    2.58    0.25
   2  -8  -5    0.20    0.16
  -2   8   5    0.12    0.13
  -2   8   5    0.18    0.14
   1  -8  -5    0.21    0.17
  -1   8   5    0.16    0.14
  -1   8   5    0.12    0.15
   0  -8  -5    0.05    0.16
   0   8   5    0.14    0.15
   0   8   5    0.15    0.15
  -1  -8  -5    0.22    0.19
   1   8   5   -0.08    0.16
   1   8   5    0.25    0.20
   4  -9  -5    0.50    0.19
  -4   9   5    0.62    0.18
   3  -9  -5    0.15    0.16
  -3   9   5   -0.33    0.11
   2  -9  -5    0.33    0.18
  -2   9   5    0.27    0.15
   1  -9  -5    0.74    0.23
  -1   9   5    1.18    0.22
   0  -9  -5    0.27    0.19
   0   9   5    0.73    0.21
   0   9   5    0.46    0.21
   1  10  -6    0.11    0.18
  -1 -10   6    0.08    0.19
   0  10  -6    0.02    0.17
   0 -10   6    0.05    0.19
   0 -10   6    0.22    0.14
  -1  10  -6    1.17    0.24
   1 -10   6    0.84    0.19
   1 -10   6    1.08    0.24
  -2  10  -6    0.30    0.21
   2 -10   6    0.57    0.17
   2 -10   6    0.39    0.22
  -3  10  -6    0.05    0.20
   3 -10   6    0.27    0.17
   3 -10   6   -0.17    0.17
   3   9  -6    0.32    0.22
  -3  -9   6    0.28    0.19
   2   9  -6   -0.23    0.17
  -2  -9   6   -0.19    0.16
   1   9  -6   -0.02    0.16
  -1  -9   6    0.17    0.13
  -1  -9   6    0.07    0.16
   0   9  -6    0.20    0.16
   0  -9   6    0.23    0.17
   0  -9   6   -0.14    0.12
  -1   9  -6    0.15    0.17
   1  -9   6    0.06    0.13
   1  -9   6   -0.13    0.16
  -2   9  -6    0.05    0.17
   2  -9   6   -0.20    0.16
   2  -9   6    0.32    0.15
  -3   9  -6    0.24    0.19
   3  -9   6    0.26    0.17
  -4   9  -6    0.34    0.22
   4  -9   6    0.36    0.17
  -4  -8   6    1.02    0.21
   3   8  -6    0.48    0.21
  -3  -8   6   -0.02    0.14
   2   8  -6    9.67    0.44
  -2  -8   6    8.76    0.44
  -2  -8   6    8.74    0.35
   1   8  -6    0.22    0.15
  -1  -8   6   -0.01    0.11
  -1  -8   6    0.15    0.14
   0   8  -6    3.02    0.28
   0  -8   6    3.05    0.25
   0  -8   6    2.89    0.28
  -1   8  -6    2.51    0.25
   1  -8   6    2.60    0.25
   1  -8   6    1.94    0.26
  -2   8  -6    0.52    0.17
   2  -8   6    0.60    0.16
   2  -8   6    0.59    0.18
  -3   8  -6    7.39    0.41
  -3   8  -6    7.67    0.39
   3  -8   6    6.92    0.38
  -4   8  -6    0.47    0.17
  -4   8  -6    0.67    0.21
   4  -8   6    0.63    0.19
  -4  -7   6    4.47    0.33
  -4  -7   6    4.12    0.31
   3   7  -6    0.25    0.16
  -3  -7   6    0.19    0.14
  -3  -7   6    0.28    0.12
   2   7  -6    0.34    0.16
  -2  -7   6    0.46    0.13
  -2  -7   6    0.24    0.14
   1   7  -6    6.24    0.32
  -1  -7   6    6.39    0.34
  -1  -7   6    5.93    0.29
   0   7  -6    4.42    0.28
   0  -7   6    4.15    0.31
   0  -7   6    4.39    0.27
  -1   7  -6    1.75    0.21
   1  -7   6    1.48    0.21
   1  -7   6    1.98    0.22
  -2   7  -6    0.66    0.17
   2  -7   6    0.44    0.14
  -3   7  -6    3.89    0.34
  -3   7  -6    3.69    0.29
   3  -7   6    3.36    0.29
  -4   7  -6    0.74    0.22
  -4   7  -6    1.11    0.19
   4  -7   6    0.85    0.22
  -5   7  -6    0.31    0.22
   5  -7   6   -0.12    0.18
   5   6  -6    0.10    0.16
  -5  -6   6   -0.05    0.12
  -4  -6   6    2.18    0.22
  -4  -6   6    2.21    0.24
  -3  -6   6   81.92    1.36
  -3  -6   6   80.41    1.44
   2   6  -6    6.98    0.31
  -2  -6   6    6.72    0.29
  -2  -6   6    6.91    0.34
   1   6  -6    0.17    0.10
  -1  -6   6    0.03    0.09
  -1  -6   6    0.05    0.11
   0   6  -6    5.81    0.27
   0  -6   6    5.22    0.31
   0  -6   6    5.28    0.28
  -1   6  -6    0.13    0.11
   1  -6   6    0.00    0.11
   1  -6   6   -0.05    0.10
  -2   6  -6   65.96    1.16
  -2   6  -6   66.22    1.20
   2  -6   6   63.33    1.19
  -3   6  -6   30.33    0.71
  -3   6  -6   28.42    0.69
   3  -6   6   27.26    0.71
  -4   6  -6    0.22    0.19
   4  -6   6   -0.03    0.16
  -5   6  -6    0.29    0.20
   5  -6   6    0.30    0.19
  -6  -5   6    2.12    0.26
   5   5  -6    1.65    0.20
  -5  -5   6    1.73    0.24
  -5  -5   6    2.08    0.24
  -4  -5   6    0.41    0.13
  -4  -5   6    0.17    0.13
  -3  -5   6    6.49    0.28
  -3  -5   6    6.36    0.31
  -3  -5   6    6.57    0.29
   2   5  -6    7.87    0.29
  -2  -5   6    8.42    0.34
  -2  -5   6    8.36    0.31
   1   5  -6    2.41    0.18
  -1  -5   6    2.34    0.19
  -1  -5   6    2.40    0.22
   0   5  -6    0.56    0.11
   0  -5   6    0.67    0.13
   0  -5   6    0.55    0.13
  -1   5  -6    6.07    0.29
  -1   5  -6    6.05    0.27
   1  -5   6    6.02    0.28
  -2   5  -6    1.35    0.17
  -2   5  -6    0.82    0.15
   2  -5   6    1.22    0.18
  -3   5  -6    1.35    0.18
  -3   5  -6    1.13    0.20
   3  -5   6    1.65    0.22
  -4   5  -6    0.28    0.17
   4  -5   6    0.51    0.19
  -5   5  -6    0.57    0.22
   5  -5   6   -0.19    0.18
   6   4  -6    1.58    0.20
  -6  -4   6    1.97    0.25
  -6  -4   6    1.98    0.27
   5   4  -6    1.56    0.19
  -5  -4   6    1.27    0.18
  -5  -4   6    1.84    0.23
  -4  -4   6    7.07    0.30
  -4  -4   6    7.36    0.34
  -3  -4   6    0.73    0.14
  -3  -4   6    0.86    0.14
  -3  -4   6    0.70    0.11
   2   4  -6    9.85    0.28
  -2  -4   6   10.22    0.33
   1   4  -6   16.11    0.36
  -1  -4   6   17.57    0.43
   0   4  -6    3.90    0.19
   0   4  -6    3.84    0.22
   0  -4   6    4.03    0.22
  -1   4  -6    2.29    0.20
  -1   4  -6    2.21    0.17
   1  -4   6    1.67    0.17
  -2   4  -6    1.71    0.17
  -2   4  -6    1.74    0.17
   2  -4   6    1.72    0.20
  -3   4  -6    0.33    0.16
  -3   4  -6    0.38    0.12
   3  -4   6    0.43    0.16
  -4   4  -6    9.60    0.45
   4  -4   6    9.11    0.43
  -5   4  -6    0.82    0.24
   5  -4   6    0.80    0.24
   6   3  -6    0.00    0.10
  -6  -3   6   -0.06    0.15
  -6  -3   6    0.05    0.12
   5   3  -6    0.40    0.12
  -5  -3   6    0.78    0.18
  -5  -3   6    0.78    0.15
   4   3  -6    0.13    0.10
  -4  -3   6   -0.04    0.08
  -4  -3   6    0.17    0.11
   3   3  -6    3.94    0.21
  -3  -3   6    4.06    0.22
  -3  -3   6    4.20    0.23
   2   3  -6    2.85    0.19
  -2  -3   6    3.21    0.19
  -2  -3   6    2.84    0.17
   1   3  -6    2.45    0.19
  -1  -3   6    2.51    0.18
   0   3  -6   11.41    0.35
   0  -3   6   11.22    0.33
  -1   3  -6    4.38    0.20
  -1   3  -6    4.61    0.24
   1  -3   6    4.58    0.23
  -2   3  -6    2.47    0.20
  -2   3  -6    2.28    0.21
   2  -3   6    2.53    0.21
  -3   3  -6    0.87    0.17
   3  -3   6    0.45    0.16
  -4   3  -6    3.69    0.34
   4  -3   6    3.72    0.32
  -5   3  -6    0.82    0.24
   5  -3   6    0.74    0.23
   7   2  -6    2.62    0.28
  -7  -2   6    2.66    0.28
  -7  -2   6    1.89    0.28
   6   2  -6    0.56    0.15
  -6  -2   6    0.66    0.15
  -6  -2   6    0.71    0.19
   5   2  -6    1.70    0.20
  -5  -2   6    1.78    0.19
  -5  -2   6    2.04    0.23
   4   2  -6    0.13    0.11
  -4  -2   6   -0.02    0.09
   3   2  -6    5.78    0.23
  -3  -2   6    6.01    0.25
  -3  -2   6    5.60    0.24
   2   2  -6   45.02    0.82
  -2  -2   6   44.99    0.81
  -2  -2   6   45.24    0.79
   1   2  -6    1.44    0.14
  -1  -2   6    1.53    0.14
  -1  -2   6    1.55    0.15
   0   2  -6    0.08    0.08
   0  -2   6    0.07    0.08
  -1   2  -6   25.46    0.56
  -1   2  -6   23.89    0.48
   1  -2   6   24.48    0.53
  -2   2  -6    6.06    0.26
  -2   2  -6    6.16    0.28
   2  -2   6    5.53    0.27
  -3   2  -6    5.62    0.29
  -3   2  -6    6.09    0.33
   3  -2   6    6.73    0.31
  -4   2  -6    1.44    0.23
   4  -2   6    1.12    0.21
   4  -2   6    1.12    0.19
  -5   2  -6    0.57    0.23
   5  -2   6    0.40    0.20
   5  -2   6    0.45    0.17
   7   1  -6    0.35    0.15
  -7  -1   6    0.43    0.20
  -7  -1   6    0.45    0.15
   6   1  -6    0.28    0.13
  -6  -1   6    0.42    0.12
  -6  -1   6    0.51    0.17
   5   1  -6   12.86    0.44
  -5  -1   6   13.54    0.39
  -5  -1   6   13.76    0.45
   4   1  -6    1.13    0.16
  -4  -1   6    1.00    0.15
   3   1  -6    3.01    0.17
  -3  -1   6    2.98    0.19
  -3  -1   6    2.99    0.20
   2   1  -6   27.19    0.56
  -2  -1   6   27.42    0.56
  -2  -1   6   27.66    0.56
   1   1  -6   10.04    0.31
  -1  -1   6    9.83    0.29
  -1  -1   6    9.67    0.29
   0   1  -6   40.36    0.76
   0  -1   6   39.20    0.70
   0  -1   6   38.91    0.70
  -1   1  -6    5.64    0.26
   1  -1   6    5.69    0.23
   1  -1   6    5.58    0.23
  -2   1  -6    1.53    0.17
  -2   1  -6    1.40    0.16
   2  -1   6    1.55    0.16
   2  -1   6    1.39    0.16
  -3   1  -6    7.08    0.33
  -3   1  -6    7.99    0.37
   3  -1   6    7.30    0.32
   3  -1   6    7.59    0.32
  -4   1  -6    0.11    0.17
   4  -1   6   -0.10    0.14
   4  -1   6    0.10    0.14
  -5   1  -6    0.69    0.24
   5  -1   6    0.95    0.21
   7   0  -6    0.71    0.19
  -7   0   6    0.52    0.15
  -7   0   6    0.43    0.21
   6   0  -6    0.07    0.11
  -6   0   6    0.04    0.14
  -6   0   6   -0.05    0.10
   5   0  -6    0.84    0.17
  -5   0   6    0.74    0.16
  -5   0   6    0.69    0.11
   4   0  -6    5.51    0.27
  -4   0   6    5.09    0.26
  -3   0   6    3.68    0.21
   2   0  -6    0.27    0.08
  -2   0   6    0.27    0.09
  -2   0   6    0.25    0.09
   1   0  -6    5.54    0.23
  -1   0   6    5.96    0.23
  -1   0   6    5.25    0.21
   0   0  -6    3.05    0.20
   0   0   6    3.10    0.19
   0   0   6    2.79    0.17
  -1   0  -6    1.81    0.15
  -1   0  -6    1.70    0.16
   1   0   6    1.85    0.17
  -2   0  -6    0.06    0.10
  -2   0  -6    0.01    0.10
   2   0   6   -0.02    0.10
  -3   0  -6    0.05    0.14
  -3   0  -6    0.16    0.11
   3   0   6   -0.10    0.11
  -4   0  -6    0.51    0.20
   4   0   6    0.48    0.18
  -5   0  -6    0.09    0.23
   5   0   6    0.28    0.20
   7  -1  -6   -0.11    0.11
  -7   1   6   -0.02    0.17
  -7   1   6    0.10    0.12
   6  -1  -6    4.07    0.30
  -6   1   6    4.02    0.27
  -6   1   6    3.90    0.32
   5  -1  -6    0.73    0.15
  -5   1   6    0.93    0.13
  -5   1   6    0.91    0.17
   4  -1  -6    1.42    0.18
  -4   1   6    1.63    0.18
   3  -1  -6    2.39    0.16
   3  -1  -6    2.79    0.18
  -3   1   6    2.50    0.20
   2  -1  -6    0.11    0.07
  -2   1   6    0.08    0.08
  -2   1   6   -0.05    0.08
   1  -1  -6   13.18    0.36
  -1   1   6   13.18    0.33
  -1   1   6   13.29    0.35
   0  -1  -6    7.73    0.29
   0   1   6    8.19    0.28
  -1  -1  -6    0.27    0.09
  -1  -1  -6    0.10    0.09
   1   1   6    0.12    0.10
  -2  -1  -6    4.01    0.26
  -2  -1  -6    4.05    0.26
   2   1   6    4.17    0.26
  -3  -1  -6    0.39    0.16
  -3  -1  -6    0.31    0.13
   3   1   6    0.38    0.15
  -4  -1  -6    1.15    0.23
   4   1   6    0.75    0.21
  -5  -1  -6    0.79    0.26
   5   1   6    0.56    0.23
   7  -2  -6    0.11    0.15
  -7   2   6    0.25    0.18
  -7   2   6    0.18    0.14
   6  -2  -6    0.37    0.15
  -6   2   6    0.35    0.12
  -6   2   6    0.25    0.15
  -5   2   6    1.25    0.19
   4  -2  -6    3.36    0.23
  -4   2   6    2.65    0.23
   3  -2  -6    1.90    0.16
   3  -2  -6    1.75    0.16
  -3   2   6    1.69    0.17
   2  -2  -6   -0.01    0.06
   2  -2  -6    0.08    0.07
  -2   2   6    0.05    0.07
   1  -2  -6    6.69    0.26
  -1   2   6    6.44    0.26
   0  -2  -6    0.10    0.09
   0   2   6    0.19    0.09
  -1  -2  -6    2.24    0.19
  -1  -2  -6    1.83    0.19
   1   2   6    2.19    0.21
  -2  -2  -6   -0.10    0.11
  -2  -2  -6   -0.10    0.12
   2   2   6    0.21    0.13
  -3  -2  -6    0.03    0.14
  -3  -2  -6   -0.17    0.11
   3   2   6    0.06    0.13
  -4  -2  -6    0.92    0.23
   4   2   6    0.43    0.20
   7  -3  -6    0.40    0.16
  -7   3   6    0.03    0.15
   6  -3  -6   -0.08    0.11
  -6   3   6    0.27    0.16
  -6   3   6    0.26    0.11
   5  -3  -6    7.73    0.36
  -5   3   6    7.19    0.35
   4  -3  -6   20.93    0.55
  -4   3   6   20.75    0.54
   3  -3  -6    4.90    0.23
   3  -3  -6    5.03    0.24
  -3   3   6    4.81    0.25
   2  -3  -6    0.04    0.06
   2  -3  -6   -0.01    0.08
  -2   3   6   -0.04    0.08
   1  -3  -6    0.16    0.10
  -1   3   6    0.04    0.10
   0  -3  -6    3.88    0.24
   0  -3  -6    3.86    0.20
   0   3   6    3.77    0.25
  -1  -3  -6   15.25    0.42
  -1  -3  -6   14.84    0.46
   1   3   6   14.82    0.47
  -2  -3  -6    5.36    0.34
  -2  -3  -6    5.22    0.33
   2   3   6    5.32    0.33
  -3  -3  -6    0.14    0.17
  -3  -3  -6   -0.04    0.13
   3   3   6    0.00    0.15
  -4  -3  -6    0.24    0.20
   4   3   6    0.39    0.20
   7  -4  -6    0.02    0.17
  -7   4   6   -0.01    0.15
   6  -4  -6    0.69    0.18
  -6   4   6    0.47    0.17
  -6   4   6    0.46    0.13
   5  -4  -6    7.99    0.37
  -5   4   6    8.00    0.37
   4  -4  -6   12.38    0.42
  -4   4   6   12.21    0.42
   3  -4  -6    0.96    0.14
   3  -4  -6    0.76    0.13
  -3   4   6    0.75    0.15
   2  -4  -6    0.28    0.11
  -2   4   6    0.22    0.11
   1  -4  -6    0.98    0.16
  -1   4   6    0.94    0.16
  -1   4   6    1.04    0.12
   0  -4  -6    9.38    0.37
   0  -4  -6    9.30    0.32
   0   4   6    9.77    0.38
  -1  -4  -6   13.68    0.43
  -1  -4  -6   13.31    0.46
   1   4   6   14.19    0.48
  -2  -4  -6    1.66    0.22
  -2  -4  -6    1.73    0.22
   2   4   6    1.25    0.22
  -3  -4  -6   -0.04    0.13
  -3  -4  -6    0.07    0.18
   3   4   6   -0.24    0.16
  -4  -4  -6    0.08    0.21
   4   4   6    0.12    0.20
   7  -5  -6    0.51    0.19
  -7   5   6    0.86    0.21
   6  -5  -6    0.34    0.16
  -6   5   6   -0.09    0.13
  -6   5   6    0.31    0.14
   5  -5  -6    0.19    0.13
  -5   5   6    0.20    0.11
  -5   5   6    0.49    0.16
   4  -5  -6    0.05    0.11
   4  -5  -6   -0.14    0.09
  -4   5   6    0.19    0.13
   3  -5  -6   -0.01    0.10
   3  -5  -6    0.03    0.08
  -3   5   6    0.15    0.12
  -3   5   6    0.08    0.08
   2  -5  -6    1.13    0.17
  -2   5   6    1.27    0.14
  -2   5   6    1.12    0.17
   1  -5  -6    0.81    0.16
  -1   5   6    0.51    0.15
  -1   5   6    0.50    0.12
   0  -5  -6    0.13    0.12
   0   5   6    0.21    0.14
  -1  -5  -6    0.06    0.13
  -1  -5  -6   -0.02    0.14
   1   5   6    0.14    0.14
  -2  -5  -6    0.00    0.15
  -2  -5  -6   -0.13    0.13
   2   5   6   -0.12    0.16
  -3  -5  -6    0.24    0.19
  -3  -5  -6    0.19    0.15
   3   5   6   -0.02    0.19
   6  -6  -6    0.14    0.16
  -6   6   6    0.35    0.17
   5  -6  -6    0.00    0.12
  -5   6   6    0.11    0.11
  -5   6   6    0.12    0.14
   4  -6  -6    1.11    0.18
   4  -6  -6    1.33    0.18
  -4   6   6    1.20    0.20
  -4   6   6    1.20    0.17
   3  -6  -6    3.48    0.29
  -3   6   6    3.16    0.27
   2  -6  -6    3.02    0.27
  -2   6   6    2.54    0.24
  -2   6   6    3.00    0.21
   1  -6  -6    0.84    0.18
  -1   6   6    0.59    0.14
  -1   6   6    0.55    0.16
   0  -6  -6   -0.04    0.11
   0   6   6    0.06    0.10
   0   6   6   -0.01    0.13
  -1  -6  -6    0.77    0.19
  -1  -6  -6    1.04    0.20
   1   6   6    0.78    0.20
  -2  -6  -6    1.23    0.24
  -2  -6  -6    1.72    0.25
   2   6   6    1.33    0.25
   6  -7  -6    0.14    0.15
  -6   7   6    0.06    0.15
   5  -7  -6   -0.08    0.11
  -5   7   6   -0.30    0.10
  -5   7   6   -0.01    0.14
   4  -7  -6    0.16    0.13
   4  -7  -6   -0.13    0.09
  -4   7   6   -0.03    0.11
  -4   7   6   -0.06    0.13
   3  -7  -6    1.70    0.22
  -3   7   6    1.32    0.18
  -3   7   6    1.53    0.21
   2  -7  -6    0.09    0.14
  -2   7   6   -0.24    0.09
  -2   7   6   -0.09    0.12
   1  -7  -6    0.03    0.15
  -1   7   6   -0.07    0.11
  -1   7   6    0.11    0.14
   0  -7  -6    0.17    0.16
   0   7   6    0.39    0.16
   0   7   6    0.44    0.18
  -1  -7  -6    0.62    0.19
   1   7   6    0.57    0.23
   5  -8  -6    0.91    0.19
   4  -8  -6   -0.03    0.14
  -4   8   6    0.03    0.13
  -4   8   6    0.12    0.17
   3  -8  -6    0.71    0.19
  -3   8   6    0.78    0.17
  -3   8   6    0.47    0.18
   2  -8  -6    1.96    0.27
  -2   8   6    1.69    0.21
  -2   8   6    1.72    0.23
   1  -8  -6    0.79    0.21
  -1   8   6    0.74    0.18
  -1   8   6    1.09    0.19
   0  -8  -6    0.13    0.18
   0   8   6    0.09    0.17
   0   8   6   -0.04    0.15
   3  -9  -6    0.09    0.18
  -3   9   6    0.44    0.16
   2  -9  -6    0.63    0.21
  -2   9   6    0.70    0.18
  -2   9   6    0.60    0.19
   1  10  -7    0.09    0.18
  -1 -10   7   -0.36    0.16
   0  10  -7    0.20    0.19
   0 -10   7    0.30    0.15
   0 -10   7   -0.24    0.18
  -1  10  -7   -0.04    0.17
   1 -10   7   -0.15    0.18
   1 -10   7   -0.12    0.14
  -2  10  -7   -0.04    0.19
   2 -10   7    0.26    0.16
   2 -10   7    0.01    0.20
   3   9  -7    0.24    0.21
  -3  -9   7   -0.28    0.18
   2   9  -7    2.23    0.28
  -2  -9   7    1.64    0.26
   1   9  -7    0.44    0.19
  -1  -9   7    0.16    0.19
  -1  -9   7    0.09    0.13
   0   9  -7    0.96    0.21
   0  -9   7    0.40    0.16
   0  -9   7    0.62    0.21
  -1   9  -7    0.06    0.17
   1  -9   7   -0.08    0.18
   1  -9   7    0.45    0.17
  -2   9  -7    0.51    0.20
   2  -9   7    0.31    0.16
  -3   9  -7    1.49    0.24
  -3   9  -7    1.24    0.25
   3  -9   7    0.98    0.21
   4   8  -7    0.27    0.21
  -4  -8   7    0.05    0.16
   3   8  -7    0.38    0.19
  -3  -8   7    0.10    0.17
   2   8  -7    4.54    0.34
  -2  -8   7    4.12    0.36
  -2  -8   7    4.18    0.29
   1   8  -7    0.18    0.15
  -1  -8   7    0.23    0.16
  -1  -8   7    0.09    0.12
   0   8  -7    0.66    0.19
   0  -8   7    0.71    0.21
   0  -8   7    1.15    0.20
  -1   8  -7    0.69    0.19
   1  -8   7    0.69    0.16
   1  -8   7    0.68    0.21
  -2   8  -7   -0.06    0.16
   2  -8   7    0.02    0.14
  -3   8  -7    2.69    0.30
  -3   8  -7    2.99    0.29
   3  -8   7    2.35    0.28
  -4   8  -7    0.04    0.20
   4  -8   7    0.36    0.19
  -4  -7   7    0.01    0.15
   3   7  -7   -0.12    0.14
  -3  -7   7    0.26    0.15
  -3  -7   7    0.16    0.14
   2   7  -7   -0.13    0.13
  -2  -7   7    0.12    0.12
  -2  -7   7   -0.10    0.13
   1   7  -7   -0.16    0.12
  -1  -7   7   -0.15    0.11
  -1  -7   7    0.15    0.13
   0   7  -7    0.37    0.15
   0  -7   7    0.23    0.14
   0  -7   7    0.16    0.13
  -1   7  -7    0.06    0.13
   1  -7   7    0.10    0.13
  -2   7  -7    0.06    0.13
  -2   7  -7   -0.07    0.12
   2  -7   7    0.06    0.13
  -3   7  -7   -0.13    0.13
  -3   7  -7    0.03    0.16
   3  -7   7    0.08    0.15
  -4   7  -7    0.10    0.20
   4  -7   7    0.13    0.18
  -5  -6   7    0.40    0.15
  -4  -6   7    0.09    0.11
  -4  -6   7    0.05    0.13
   3   6  -7    0.45    0.15
  -3  -6   7    0.47    0.14
  -3  -6   7   -0.14    0.15
   2   6  -7    0.22    0.12
  -2  -6   7    0.08    0.11
  -2  -6   7    0.00    0.12
   1   6  -7    1.56    0.17
  -1  -6   7    1.49    0.20
  -1  -6   7    1.72    0.21
   0   6  -7    1.90    0.19
   0  -6   7    2.12    0.22
  -1   6  -7    0.01    0.11
  -1   6  -7    0.05    0.11
   1  -6   7   -0.04    0.14
  -2   6  -7    0.11    0.13
  -2   6  -7   -0.09    0.12
   2  -6   7    0.01    0.14
  -3   6  -7    0.02    0.16
  -3   6  -7    0.03    0.12
   3  -6   7    0.11    0.16
  -4   6  -7    0.35    0.19
   4  -6   7    0.23    0.19
  -5   6  -7    0.43    0.25
   5  -6   7    0.57    0.24
   5   5  -7    0.31    0.12
  -5  -5   7    0.06    0.12
  -5  -5   7    0.18    0.16
  -4  -5   7    1.01    0.18
  -4  -5   7    0.38    0.12
  -4  -5   7    0.70    0.16
  -3  -5   7    0.83    0.17
   2   5  -7    0.54    0.12
  -2  -5   7    0.71    0.15
   1   5  -7    3.09    0.20
  -1  -5   7    2.97    0.23
   0   5  -7    1.87    0.19
   0   5  -7    2.19    0.19
   0  -5   7    1.65    0.19
  -1   5  -7    0.42    0.11
  -1   5  -7    0.21    0.12
   1  -5   7    0.17    0.12
  -2   5  -7    0.95    0.17
  -2   5  -7    0.71    0.17
   2  -5   7    0.83    0.17
  -3   5  -7   -0.07    0.14
  -3   5  -7    0.01    0.12
   3  -5   7    0.22    0.16
  -4   5  -7    1.01    0.22
   4  -5   7    1.37    0.25
  -5   5  -7    0.70    0.24
   5  -5   7    1.05    0.26
   6   4  -7    0.26    0.12
  -6  -4   7   -0.11    0.17
   5   4  -7    0.02    0.11
  -5  -4   7    0.11    0.11
  -5  -4   7    0.01    0.14
  -4  -4   7    0.68    0.16
  -4  -4   7    0.62    0.15
   3   4  -7    0.02    0.11
  -3  -4   7   -0.05    0.09
  -3  -4   7    0.06    0.11
   2   4  -7    0.84    0.15
  -2  -4   7    0.93    0.16
   1   4  -7   -0.11    0.09
  -1  -4   7    0.02    0.10
   0   4  -7    0.20    0.10
   0  -4   7    0.24    0.12
  -1   4  -7    1.25    0.14
  -1   4  -7    1.01    0.16
   1  -4   7    1.01    0.17
  -2   4  -7    1.15    0.17
  -2   4  -7    1.23    0.17
   2  -4   7    1.24    0.20
  -3   4  -7    0.37    0.14
  -3   4  -7    0.62    0.17
   3  -4   7    0.35    0.16
  -4   4  -7    0.38    0.18
   4  -4   7    0.14    0.18
  -5   4  -7    0.54    0.24
   5  -4   7    0.09    0.21
   6   3  -7    0.47    0.15
  -6  -3   7    0.99    0.21
   5   3  -7    0.31    0.14
  -5  -3   7    0.11    0.10
  -5  -3   7    0.20    0.15
  -4  -3   7    3.34    0.25
   3   3  -7    0.41    0.11
  -3  -3   7    0.65    0.14
  -3  -3   7    0.52    0.12
   2   3  -7   12.22    0.38
  -2  -3   7   12.85    0.38
  -2  -3   7   11.91    0.34
   1   3  -7    9.41    0.34
  -1  -3   7   10.02    0.33
   0   3  -7    0.56    0.12
   0  -3   7    0.69    0.14
  -1   3  -7    8.56    0.33
   1  -3   7    8.81    0.32
  -2   3  -7   -0.15    0.09
  -2   3  -7   -0.02    0.11
   2  -3   7    0.00    0.12
  -3   3  -7    0.56    0.15
  -3   3  -7    0.57    0.16
   3  -3   7    0.61    0.18
  -4   3  -7    4.50    0.39
   4  -3   7    4.37    0.35
  -5   3  -7    0.12    0.21
   5  -3   7   -0.01    0.18
   7   2  -7    0.86    0.19
  -7  -2   7    1.22    0.26
   6   2  -7    3.34    0.27
  -6  -2   7    2.92    0.30
   5   2  -7    0.29    0.12
  -5  -2   7    0.45    0.16
  -4  -2   7   -0.12    0.09
   3   2  -7    9.32    0.31
  -3  -2   7    8.85    0.32
  -3  -2   7    8.88    0.32
   2   2  -7    8.26    0.30
  -2  -2   7    8.27    0.31
  -2  -2   7    8.77    0.29
   1   2  -7    7.03    0.29
  -1  -2   7    6.52    0.25
  -1  -2   7    6.97    0.27
   0   2  -7    2.33    0.20
   0  -2   7    2.34    0.20
  -1   2  -7    2.76    0.22
   1  -2   7    2.75    0.22
  -2   2  -7    6.01    0.30
  -2   2  -7    6.25    0.29
   2  -2   7    6.11    0.30
  -3   2  -7    0.07    0.15
  -3   2  -7   -0.12    0.10
   3  -2   7   -0.30    0.13
   3  -2   7    0.06    0.12
  -4   2  -7    0.15    0.18
   4  -2   7   -0.16    0.13
   4  -2   7    0.09    0.16
  -5   2  -7    0.47    0.25
   5  -2   7    0.35    0.18
   7   1  -7    0.18    0.11
  -7  -1   7    0.12    0.17
   6   1  -7    0.16    0.11
  -6  -1   7    0.02    0.14
   5   1  -7   11.80    0.43
  -5  -1   7   11.95    0.43
   4   1  -7    1.46    0.19
  -4  -1   7    1.28    0.18
   3   1  -7    0.39    0.10
  -3  -1   7    0.65    0.13
  -3  -1   7    0.40    0.12
   2   1  -7    1.95    0.19
  -2  -1   7    2.30    0.19
  -2  -1   7    2.10    0.18
   1   1  -7    2.48    0.21
  -1  -1   7    2.60    0.19
  -1  -1   7    2.76    0.18
   0   1  -7   25.63    0.58
   0  -1   7   24.55    0.53
   0  -1   7   25.33    0.54
  -1   1  -7    4.09    0.25
   1  -1   7    3.84    0.23
   1  -1   7    4.03    0.23
  -2   1  -7    0.68    0.15
  -2   1  -7    0.68    0.14
   2  -1   7    0.89    0.16
   2  -1   7    0.86    0.15
  -3   1  -7   -0.05    0.15
  -3   1  -7   -0.02    0.12
   3  -1   7   -0.14    0.12
   3  -1   7   -0.04    0.12
  -4   1  -7    0.49    0.21
   4  -1   7   -0.02    0.15
  -5   1  -7    0.99    0.28
   5  -1   7    0.86    0.25
   7   0  -7    0.25    0.14
  -7   0   7    0.34    0.20
   6   0  -7    0.09    0.12
  -6   0   7    0.03    0.14
   5   0  -7    2.12    0.23
  -5   0   7    2.12    0.23
   4   0  -7    0.32    0.11
  -4   0   7    0.19    0.11
   3   0  -7    0.09    0.08
  -3   0   7    0.04    0.09
   2   0  -7    0.14    0.08
  -2   0   7    0.03    0.09
  -2   0   7    0.11    0.08
   1   0  -7    0.18    0.10
  -1   0   7    0.04    0.08
  -1   0   7    0.10    0.09
   0   0  -7    0.77    0.13
   0   0   7    1.25    0.14
   0   0   7    0.86    0.14
  -1   0  -7    0.69    0.14
   1   0   7    1.07    0.16
  -2   0  -7    0.34    0.14
  -2   0  -7    0.38    0.14
   2   0   7    0.37    0.13
  -3   0  -7    1.64    0.20
  -3   0  -7    1.99    0.24
   3   0   7    1.69    0.22
  -4   0  -7    0.04    0.19
   4   0   7   -0.15    0.15
  -5   0  -7   -0.07    0.23
   5   0   7   -0.30    0.20
   7  -1  -7    0.34    0.15
  -7   1   7    0.12    0.18
   6  -1  -7    0.53    0.16
  -6   1   7    0.49    0.17
   5  -1  -7    2.12    0.24
  -5   1   7    2.17    0.23
   4  -1  -7    1.48    0.19
  -4   1   7    1.24    0.18
   3  -1  -7   20.43    0.47
   3  -1  -7   20.51    0.50
  -3   1   7   19.89    0.52
   2  -1  -7    3.65    0.22
  -2   1   7    3.39    0.21
  -2   1   7    3.17    0.21
   1  -1  -7    0.60    0.12
  -1   1   7    0.63    0.12
  -1   1   7    0.80    0.12
   0  -1  -7    0.16    0.10
   0   1   7    0.12    0.09
  -1  -1  -7    2.10    0.17
  -1  -1  -7    1.58    0.18
   1   1   7    2.15    0.21
  -2  -1  -7   20.68    0.58
  -2  -1  -7   21.26    0.54
   2   1   7   20.78    0.58
  -3  -1  -7    0.79    0.17
  -3  -1  -7    0.39    0.18
   3   1   7    0.75    0.19
  -4  -1  -7    0.91    0.24
   4   1   7    0.63    0.21
   7  -2  -7    0.04    0.12
  -7   2   7   -0.05    0.15
   6  -2  -7    0.74    0.17
  -6   2   7    0.81    0.19
   5  -2  -7    1.12    0.18
  -5   2   7    1.09    0.19
   4  -2  -7   39.04    0.81
  -4   2   7   38.75    0.82
   3  -2  -7   23.32    0.55
   3  -2  -7   24.31    0.54
  -3   2   7   24.44    0.58
   2  -2  -7    5.57    0.23
   2  -2  -7    6.08    0.27
  -2   2   7    5.49    0.27
   1  -2  -7   14.42    0.42
  -1   2   7   13.64    0.40
   0  -2  -7    1.57    0.18
   0   2   7    2.02    0.21
  -1  -2  -7    7.77    0.30
  -1  -2  -7    7.46    0.35
   1   2   7    7.74    0.35
  -2  -2  -7   39.74    0.80
  -2  -2  -7   37.00    0.85
   2   2   7   36.71    0.85
  -3  -2  -7    0.19    0.17
  -3  -2  -7    0.45    0.17
   3   2   7    0.23    0.17
  -4  -2  -7    0.31    0.21
   4   2   7    0.31    0.22
   7  -3  -7    1.99    0.27
  -7   3   7    2.43    0.30
   6  -3  -7   -0.06    0.12
  -6   3   7    0.13    0.14
   5  -3  -7    1.48    0.21
  -5   3   7    1.19    0.19
   4  -3  -7   31.11    0.69
  -4   3   7   30.27    0.71
   3  -3  -7    0.75    0.13
   3  -3  -7    0.99    0.14
  -3   3   7    0.57    0.14
   2  -3  -7    0.07    0.07
   2  -3  -7    0.03    0.09
  -2   3   7    0.04    0.10
   1  -3  -7    7.05    0.32
  -1   3   7    5.99    0.30
   0  -3  -7    9.24    0.37
   0   3   7    8.57    0.36
  -1  -3  -7    9.14    0.34
  -1  -3  -7    8.85    0.38
   1   3   7    8.97    0.39
  -2  -3  -7    0.63    0.17
  -2  -3  -7    0.73    0.18
   2   3   7    0.94    0.21
  -3  -3  -7    1.24    0.23
  -3  -3  -7    1.01    0.20
   3   3   7    1.28    0.24
  -4  -3  -7    0.29    0.21
   4   3   7    0.40    0.23
   7  -4  -7    0.62    0.21
  -7   4   7    0.36    0.18
   6  -4  -7    3.42    0.33
  -6   4   7    3.65    0.33
   5  -4  -7    5.32    0.32
  -5   4   7    5.52    0.35
   4  -4  -7   13.19    0.41
   4  -4  -7   12.72    0.42
  -4   4   7   12.67    0.45
   3  -4  -7    8.94    0.32
   3  -4  -7   10.00    0.37
  -3   4   7    8.90    0.36
   2  -4  -7    1.16    0.17
  -2   4   7    1.08    0.17
   1  -4  -7    4.37    0.29
  -1   4   7    4.28    0.27
   0  -4  -7    0.10    0.10
   0  -4  -7    0.06    0.12
   0   4   7   -0.07    0.12
  -1  -4  -7    9.68    0.43
  -1  -4  -7   10.43    0.38
   1   4   7   10.35    0.44
  -2  -4  -7    0.60    0.18
  -2  -4  -7    0.84    0.19
   2   4   7    0.63    0.21
  -3  -4  -7    2.40    0.30
  -3  -4  -7    2.56    0.27
   3   4   7    2.28    0.31
   6  -5  -7    0.31    0.16
  -6   5   7    0.38    0.17
   5  -5  -7    0.39    0.14
  -5   5   7    0.43    0.18
   4  -5  -7    0.42    0.13
   4  -5  -7    0.30    0.13
  -4   5   7    0.51    0.16
   3  -5  -7    0.08    0.11
   3  -5  -7    0.00    0.08
  -3   5   7   -0.09    0.11
   2  -5  -7    0.09    0.12
  -2   5   7   -0.07    0.10
   1  -5  -7    0.12    0.13
  -1   5   7   -0.01    0.12
   0  -5  -7   -0.14    0.11
   0   5   7    0.08    0.14
  -1  -5  -7    0.07    0.13
  -1  -5  -7    0.01    0.14
   1   5   7    0.18    0.17
  -2  -5  -7    0.38    0.18
  -2  -5  -7    0.91    0.20
   2   5   7    0.34    0.20
   6  -6  -7   -0.19    0.13
  -6   6   7    0.12    0.14
   5  -6  -7   -0.11    0.12
  -5   6   7   -0.07    0.15
   4  -6  -7    0.04    0.10
   4  -6  -7    0.15    0.12
  -4   6   7    0.05    0.14
   3  -6  -7    4.94    0.33
  -3   6   7    3.98    0.30
   2  -6  -7    2.46    0.25
  -2   6   7    2.23    0.25
  -2   6   7    2.35    0.21
   1  -6  -7    0.55    0.18
  -1   6   7    0.46    0.17
  -1   6   7    0.74    0.15
   0  -6  -7    0.94    0.20
   0   6   7    1.03    0.17
   0   6   7    0.54    0.18
  -1  -6  -7    0.03    0.15
  -1  -6  -7   -0.05    0.15
   1   6   7    0.07    0.17
  -2  -6  -7    0.77    0.22
  -2  -6  -7    0.46    0.21
   2   6   7    0.45    0.22
   5  -7  -7   -0.11    0.11
  -5   7   7   -0.07    0.15
   4  -7  -7    0.30    0.15
   4  -7  -7    0.26    0.11
  -4   7   7    0.61    0.19
   3  -7  -7    1.71    0.24
  -3   7   7    1.60    0.23
   2  -7  -7    0.85    0.20
  -2   7   7    0.62    0.18
  -2   7   7    0.68    0.15
   1  -7  -7   -0.19    0.15
  -1   7   7   -0.05    0.16
  -1   7   7    0.35    0.13
   0  -7  -7    0.74    0.21
   0   7   7    1.02    0.19
   0   7   7    0.76    0.21
  -1  -7  -7    0.75    0.22
   1   7   7    0.51    0.22
   4  -8  -7    0.33    0.18
  -4   8   7    0.12    0.17
   3  -8  -7    0.90    0.21
  -3   8   7    0.74    0.19
   2  -8  -7    0.12    0.17
  -2   8   7   -0.10    0.15
   1  -8  -7    3.69    0.36
  -1   8   7    3.37    0.33
  -1   8   7    4.10    0.31
   1  10  -8    3.59    0.34
  -1 -10   8    3.37    0.31
   0  10  -8    0.31    0.20
   0 -10   8    0.17    0.23
   0 -10   8    0.51    0.19
  -1  10  -8    0.83    0.23
   1 -10   8    1.35    0.29
   1 -10   8    1.20    0.23
   2   9  -8    0.42    0.19
  -2  -9   8    0.51    0.17
  -2  -9   8    0.31    0.21
   1   9  -8    0.00    0.16
  -1  -9   8   -0.32    0.15
  -1  -9   8    0.34    0.15
   0   9  -8    0.79    0.21
   0  -9   8    0.15    0.20
   0  -9   8    0.52    0.16
  -1   9  -8    0.82    0.22
   1  -9   8    0.86    0.20
  -2   9  -8    0.91    0.22
  -2   9  -8    1.04    0.24
   2  -9   8    1.25    0.23
  -3   9  -8    0.06    0.20
  -3   9  -8    0.16    0.18
   3  -9   8   -0.02    0.18
   3   8  -8    7.06    0.42
  -3  -8   8    6.51    0.36
  -3  -8   8    6.81    0.42
   2   8  -8   42.05    0.89
  -2  -8   8   43.60    1.00
  -2  -8   8   38.59    0.89
   1   8  -8    0.63    0.18
  -1  -8   8    0.73    0.17
  -1  -8   8    0.66    0.19
   0   8  -8   -0.02    0.15
   0  -8   8    0.15    0.14
  -1   8  -8    0.06    0.16
  -1   8  -8    0.59    0.18
   1  -8   8    0.50    0.17
  -2   8  -8    2.01    0.26
  -2   8  -8    2.57    0.29
   2  -8   8    1.83    0.25
  -3   8  -8   25.87    0.75
  -3   8  -8   26.27    0.75
  -4  -7   8    1.43    0.21
   3   7  -8    0.89    0.20
  -3  -7   8    1.02    0.21
   2   7  -8    0.72    0.17
  -2  -7   8    0.38    0.14
  -2  -7   8    0.66    0.19
   1   7  -8    1.64    0.20
  -1  -7   8    2.03    0.23
   0   7  -8    0.36    0.15
   0   7  -8    0.32    0.15
   0  -7   8    0.36    0.15
  -1   7  -8    1.33    0.21
  -1   7  -8    1.54    0.22
   1  -7   8    1.17    0.20
  -2   7  -8    0.82    0.20
  -2   7  -8    0.67    0.19
   2  -7   8    0.68    0.19
  -3   7  -8   -0.04    0.17
  -3   7  -8   -0.14    0.15
   3  -7   8    0.21    0.17
  -4   7  -8    0.74    0.24
   4  -7   8    0.48    0.22
   5   6  -8    2.08    0.24
  -5  -6   8    1.87    0.26
   4   6  -8    0.12    0.14
  -4  -6   8   -0.03    0.14
  -4  -6   8    0.35    0.15
   3   6  -8    3.65    0.30
  -3  -6   8    3.02    0.26
   2   6  -8   -0.02    0.11
  -2  -6   8   -0.12    0.11
   1   6  -8    5.67    0.34
   1   6  -8    5.79    0.28
  -1  -6   8    5.81    0.31
   0   6  -8    7.23    0.31
   0   6  -8    7.34    0.36
   0  -6   8    7.64    0.35
  -1   6  -8    0.05    0.12
  -1   6  -8    0.27    0.14
   1  -6   8    0.01    0.13
  -2   6  -8    0.22    0.15
  -2   6  -8    0.15    0.13
   2  -6   8    0.33    0.17
  -3   6  -8    0.26    0.15
  -3   6  -8    0.38    0.18
   3  -6   8    0.30    0.19
  -4   6  -8    0.21    0.21
   4  -6   8    0.06    0.21
   5   5  -8    0.14    0.12
  -5  -5   8    0.30    0.16
   4   5  -8    0.03    0.12
  -4  -5   8    0.18    0.13
  -4  -5   8    0.16    0.14
   3   5  -8    0.02    0.12
  -3  -5   8    0.35    0.14
   2   5  -8    2.59    0.25
  -2  -5   8    2.56    0.25
   1   5  -8    4.41    0.29
  -1  -5   8    4.10    0.27
   0   5  -8   -0.05    0.11
   0  -5   8   -0.03    0.12
  -1   5  -8    1.66    0.21
  -1   5  -8    1.23    0.16
   1  -5   8    1.61    0.22
  -2   5  -8    2.21    0.22
  -2   5  -8    1.74    0.22
   2  -5   8    2.20    0.25
  -3   5  -8    1.68    0.24
  -3   5  -8    1.46    0.21
   3  -5   8    1.31    0.23
  -4   5  -8    0.05    0.19
   4  -5   8   -0.04    0.19
   6   4  -8    1.60    0.22
  -6  -4   8    1.75    0.27
   5   4  -8    0.77    0.17
  -5  -4   8    1.18    0.21
   4   4  -8    4.04    0.27
  -4  -4   8    4.73    0.30
  -4  -4   8    4.33    0.29
   3   4  -8    0.56    0.15
  -3  -4   8    0.50    0.16
  -3  -4   8    0.61    0.13
   2   4  -8    0.50    0.14
  -2  -4   8    0.41    0.14
   1   4  -8   19.84    0.54
  -1  -4   8   18.74    0.51
   0   4  -8    3.44    0.26
   0  -4   8    3.60    0.26
  -1   4  -8    2.66    0.25
   1  -4   8    2.34    0.24
  -2   4  -8    3.70    0.29
  -2   4  -8    4.10    0.28
   2  -4   8    4.46    0.31
  -3   4  -8    0.95    0.20
  -3   4  -8    1.19    0.19
   3  -4   8    0.76    0.21
  -4   4  -8    3.03    0.32
   4  -4   8    2.52    0.31
   6   3  -8    0.02    0.11
  -6  -3   8   -0.32    0.15
   5   3  -8    0.16    0.12
  -5  -3   8    0.21    0.14
   4   3  -8   12.85    0.40
  -4  -3   8   12.44    0.43
  -4  -3   8   12.61    0.44
   3   3  -8    1.82    0.20
  -3  -3   8    1.82    0.21
  -3  -3   8    2.16    0.20
   2   3  -8    6.84    0.31
  -2  -3   8    6.82    0.30
  -2  -3   8    6.86    0.28
   1   3  -8    4.62    0.28
  -1  -3   8    4.26    0.26
   0   3  -8    1.15    0.16
   0  -3   8    1.26    0.18
  -1   3  -8   17.93    0.52
   1  -3   8   18.57    0.52
  -2   3  -8    0.11    0.13
  -2   3  -8    0.40    0.15
   2  -3   8    0.64    0.16
  -3   3  -8    0.11    0.15
  -3   3  -8    0.07    0.12
   3  -3   8   -0.28    0.14
  -4   3  -8    1.36    0.26
   4  -3   8    1.54    0.27
   6   2  -8    1.11    0.20
  -6  -2   8    0.84    0.20
   5   2  -8    0.39    0.14
  -5  -2   8    0.34    0.15
  -4  -2   8   -0.04    0.10
   3   2  -8    3.00    0.23
  -3  -2   8    3.00    0.24
  -3  -2   8    2.61    0.22
   2   2  -8    2.59    0.23
  -2  -2   8    2.59    0.22
  -2  -2   8    2.37    0.20
   1   2  -8    1.36    0.18
  -1  -2   8    1.45    0.16
  -1  -2   8    1.64    0.18
   0   2  -8    0.54    0.14
   0  -2   8    0.57    0.14
  -1   2  -8    0.59    0.15
   1  -2   8    0.49    0.15
  -2   2  -8    0.41    0.14
  -2   2  -8    0.39    0.15
   2  -2   8    0.49    0.16
  -3   2  -8    0.30    0.17
  -3   2  -8    0.28    0.14
   3  -2   8    0.07    0.15
   3  -2   8    0.18    0.15
  -4   2  -8    0.07    0.20
   4  -2   8    0.39    0.19
   4  -2   8    0.10    0.17
   7   1  -8    0.43    0.17
  -7  -1   8    0.05    0.18
   6   1  -8    0.26    0.15
  -6  -1   8    0.32    0.15
   5   1  -8    4.07    0.27
  -5  -1   8    4.05    0.29
   4   1  -8    0.10    0.11
  -4  -1   8    0.10    0.11
   3   1  -8    3.12    0.23
  -3  -1   8    2.60    0.22
  -3  -1   8    3.16    0.23
   2   1  -8    2.93    0.23
  -2  -1   8    3.10    0.22
  -2  -1   8    3.72    0.23
   1   1  -8    0.65    0.14
  -1  -1   8    0.80    0.13
  -1  -1   8    0.92    0.15
   0   1  -8    7.74    0.33
   0  -1   8    6.85    0.30
   0  -1   8    6.98    0.29
  -1   1  -8    2.22    0.22
   1  -1   8    2.36    0.22
   1  -1   8    2.86    0.23
  -2   1  -8    0.37    0.14
  -2   1  -8    0.51    0.16
   2  -1   8    0.43    0.16
   2  -1   8    0.50    0.16
  -3   1  -8    2.80    0.27
  -3   1  -8    4.05    0.34
   3  -1   8    3.23    0.30
   3  -1   8    3.11    0.29
  -4   1  -8   -0.05    0.19
   4  -1   8    0.13    0.16
   7   0  -8    0.33    0.15
  -7   0   8   -0.10    0.17
   6   0  -8    0.26    0.13
  -6   0   8    0.41    0.16
   5   0  -8    0.08    0.10
  -5   0   8    0.19    0.13
   4   0  -8    1.91    0.22
  -4   0   8    2.60    0.24
   3   0  -8    1.34    0.16
  -3   0   8    1.47    0.19
  -3   0   8    1.14    0.17
   2   0  -8    0.91    0.14
  -2   0   8    1.04    0.15
  -2   0   8    0.92    0.14
   1   0  -8    0.46    0.13
  -1   0   8    0.28    0.11
  -1   0   8    0.47    0.12
   0   0  -8    4.16    0.27
   0   0   8    4.56    0.24
   0   0   8    4.28    0.26
  -1   0  -8    0.47    0.15
   1   0   8    0.97    0.17
  -2   0  -8    0.29    0.14
  -2   0  -8    0.44    0.15
   2   0   8    0.23    0.14
  -3   0  -8   -0.12    0.14
  -3   0  -8    0.16    0.17
   3   0   8    0.16    0.17
  -4   0  -8    0.03    0.21
   4   0   8   -0.21    0.18
   7  -1  -8    0.11    0.13
  -7   1   8    0.15    0.18
   6  -1  -8   -0.10    0.09
  -6   1   8   -0.09    0.14
   5  -1  -8    0.75    0.17
  -5   1   8    0.37    0.16
   4  -1  -8   12.04    0.41
  -4   1   8   11.38    0.42
   3  -1  -8   22.30    0.53
   3  -1  -8   21.30    0.54
  -3   1   8   21.20    0.56
   2  -1  -8    1.41    0.17
  -2   1   8    1.65    0.18
  -2   1   8    1.37    0.17
   1  -1  -8   -0.07    0.09
  -1   1   8    0.03    0.09
  -1   1   8    0.19    0.11
   0  -1  -8    0.31    0.12
   0   1   8    0.36    0.14
   0   1   8    0.24    0.11
  -1  -1  -8    3.69    0.28
   1   1   8    3.59    0.28
  -2  -1  -8   13.08    0.44
  -2  -1  -8   12.08    0.48
   2   1   8   12.10    0.46
  -3  -1  -8    2.01    0.25
  -3  -1  -8    1.61    0.25
   3   1   8    1.86    0.27
  -4  -1  -8    0.39    0.24
   4   1   8   -0.15    0.20
   7  -2  -8    0.21    0.13
  -7   2   8   -0.08    0.16
   6  -2  -8   -0.01    0.12
  -6   2   8    0.02    0.15
   5  -2  -8    1.79    0.23
  -5   2   8    1.76    0.23
   4  -2  -8   10.60    0.35
   4  -2  -8    9.87    0.38
  -4   2   8    9.70    0.40
   3  -2  -8    7.56    0.30
   3  -2  -8    7.18    0.31
  -3   2   8    6.93    0.33
   2  -2  -8    0.65    0.13
  -2   2   8    0.54    0.16
   1  -2  -8    0.04    0.10
  -1   2   8   -0.01    0.10
  -1   2   8    0.34    0.11
   0  -2  -8    1.99    0.21
   0   2   8    1.87    0.22
  -1  -2  -8    8.94    0.40
   1   2   8    8.51    0.39
  -2  -2  -8    6.15    0.40
  -2  -2  -8    6.63    0.37
   2   2   8    6.72    0.39
  -3  -2  -8    0.53    0.20
  -3  -2  -8    0.19    0.17
   3   2   8    0.72    0.22
   7  -3  -8    0.24    0.17
  -7   3   8    0.87    0.22
   6  -3  -8    0.23    0.15
  -6   3   8    0.47    0.17
   5  -3  -8    0.13    0.13
  -5   3   8   -0.05    0.14
   4  -3  -8    0.20    0.11
   4  -3  -8    0.17    0.11
  -4   3   8    0.27    0.14
   3  -3  -8   -0.08    0.07
   3  -3  -8    0.05    0.10
  -3   3   8    0.04    0.12
   2  -3  -8    0.29    0.09
   2  -3  -8    0.28    0.12
  -2   3   8    0.19    0.12
   1  -3  -8    0.42    0.14
  -1   3   8   -0.03    0.12
   0  -3  -8    0.46    0.15
   0   3   8    0.49    0.15
  -1  -3  -8    0.36    0.13
  -1  -3  -8    0.15    0.14
   1   3   8    0.33    0.16
  -2  -3  -8    0.37    0.18
  -2  -3  -8   -0.09    0.15
   2   3   8   -0.03    0.15
  -3  -3  -8    0.04    0.17
  -3  -3  -8    0.08    0.19
   3   3   8   -0.12    0.19
   6  -4  -8    1.80    0.26
  -6   4   8    1.58    0.25
   5  -4  -8    0.61    0.15
  -5   4   8    0.28    0.16
   4  -4  -8    0.00    0.10
   4  -4  -8   -0.01    0.10
  -4   4   8   -0.02    0.13
   3  -4  -8    1.80    0.20
   3  -4  -8    1.65    0.18
  -3   4   8    1.59    0.22
   2  -4  -8    3.81    0.28
  -2   4   8    3.43    0.27
   1  -4  -8    1.89    0.22
  -1   4   8    1.67    0.21
   0  -4  -8    0.22    0.14
   0   4   8    0.21    0.15
  -1  -4  -8    0.44    0.14
  -1  -4  -8    0.39    0.17
   1   4   8    0.39    0.18
  -2  -4  -8    0.62    0.20
  -2  -4  -8    0.78    0.21
   2   4   8    0.45    0.21
   6  -5  -8   -0.16    0.13
  -6   5   8    0.24    0.16
   5  -5  -8    0.12    0.13
  -5   5   8    0.19    0.16
   4  -5  -8    0.00    0.09
   4  -5  -8    0.02    0.11
  -4   5   8   -0.09    0.14
   3  -5  -8    0.23    0.09
   3  -5  -8    0.00    0.12
  -3   5   8   -0.04    0.14
   2  -5  -8    2.20    0.24
  -2   5   8    1.53    0.21
   1  -5  -8    0.45    0.17
  -1   5   8    0.00    0.13
   0  -5  -8    0.10    0.14
   0   5   8   -0.10    0.14
  -1  -5  -8   -0.18    0.14
   1   5   8    0.19    0.18
  -2  -5  -8    0.40    0.20
  -2  -5  -8    0.62    0.20
   2   5   8    0.29    0.23
   6  -6  -8    0.00    0.15
  -6   6   8    0.17    0.18
   5  -6  -8    0.49    0.17
  -5   6   8    0.12    0.17
   4  -6  -8    1.88    0.21
   4  -6  -8    1.83    0.23
  -4   6   8    1.90    0.27
   3  -6  -8    0.42    0.16
  -3   6   8    0.16    0.16
   2  -6  -8   -0.12    0.14
  -2   6   8    0.09    0.14
   1  -6  -8    1.38    0.22
  -1   6   8    2.14    0.26
   0  -6  -8    1.86    0.26
   0   6   8    1.35    0.25
  -1  -6  -8    0.64    0.21
   1   6   8    0.00    0.18
   5  -7  -8    1.63    0.22
  -5   7   8    1.88    0.27
   4  -7  -8    0.08    0.15
  -4   7   8    0.15    0.18
   3  -7  -8    2.70    0.28
  -3   7   8    2.59    0.29
   2  -7  -8   -0.01    0.17
  -2   7   8   -0.07    0.13
   1  -7  -8    2.32    0.30
  -1   7   8    2.04    0.27
   0  -7  -8    4.44    0.41
   0   7   8    3.61    0.38
   3  -8  -8    0.11    0.18
  -3   8   8   -0.13    0.15
   2  -8  -8    1.22    0.24
  -2   8   8    0.87    0.22
  -2  -9   9    0.10    0.16
  -1  -9   9    0.08    0.15
   0   9  -9    0.02    0.17
   0   9  -9    0.15    0.19
   0  -9   9   -0.27    0.13
  -1   9  -9    0.25    0.18
  -1   9  -9    0.03    0.18
   1  -9   9    0.12    0.17
  -2   9  -9    0.05    0.20
  -2   9  -9    0.04    0.18
   2  -9   9    0.08    0.18
  -3  -8   9   -0.15    0.16
  -2  -8   9    0.46    0.17
   1   8  -9   -0.21    0.16
  -1  -8   9   -0.05    0.13
   0   8  -9    0.66    0.19
   0   8  -9    0.79    0.20
   0  -8   9    0.87    0.20
  -1   8  -9    0.83    0.21
  -1   8  -9    0.51    0.20
   1  -8   9    0.48    0.18
  -2   8  -9    0.07    0.17
  -2   8  -9    0.02    0.18
   2  -8   9   -0.18    0.18
  -3   8  -9   -0.16    0.19
  -3   8  -9    0.37    0.19
   3  -8   9    0.05    0.21
   4   7  -9   -0.08    0.18
  -4  -7   9    0.07    0.16
   3   7  -9    0.85    0.22
  -3  -7   9    0.70    0.19
   2   7  -9    0.19    0.17
  -2  -7   9    0.61    0.18
   1   7  -9    0.57    0.19
  -1  -7   9    0.66    0.18
   0   7  -9    1.34    0.23
   0  -7   9    1.34    0.22
  -1   7  -9    0.31    0.17
  -1   7  -9    0.44    0.16
   1  -7   9    0.24    0.16
  -2   7  -9    0.30    0.17
  -2   7  -9    0.14    0.16
   2  -7   9    0.01    0.17
  -3   7  -9    0.07    0.19
  -3   7  -9   -0.36    0.17
   3  -7   9    0.21    0.21
   5   6  -9   -0.08    0.13
  -5  -6   9    0.21    0.17
   4   6  -9    0.12    0.15
  -4  -6   9   -0.13    0.14
   3   6  -9    0.15    0.16
  -3  -6   9    0.61    0.17
   2   6  -9   -0.05    0.15
  -2  -6   9    0.07    0.14
   1   6  -9    0.18    0.15
  -1  -6   9    0.41    0.15
   0   6  -9   -0.03    0.13
   0  -6   9   -0.11    0.13
  -1   6  -9    0.20    0.14
  -1   6  -9    0.03    0.14
   1  -6   9    0.02    0.16
  -2   6  -9    0.48    0.18
  -2   6  -9    0.71    0.18
   2  -6   9    0.42    0.20
  -3   6  -9    0.08    0.16
  -3   6  -9    0.29    0.19
   3  -6   9    0.26    0.19
  -4   6  -9    0.11    0.22
   4  -6   9    0.43    0.22
   5   5  -9    0.21    0.16
  -5  -5   9    0.21    0.15
   4   5  -9    0.48    0.16
  -4  -5   9    0.61    0.16
  -4  -5   9    0.52    0.17
   3   5  -9    1.36    0.21
  -3  -5   9    1.69    0.23
   2   5  -9   -0.13    0.12
  -2  -5   9   -0.04    0.11
   1   5  -9    6.69    0.37
  -1  -5   9    6.14    0.33
   0   5  -9    0.81    0.18
   0  -5   9    1.03    0.20
  -1   5  -9   -0.06    0.11
  -1   5  -9    0.18    0.14
   1  -5   9   -0.05    0.15
  -2   5  -9    1.95    0.23
  -2   5  -9    2.02    0.22
   2  -5   9    1.74    0.25
  -3   5  -9    0.18    0.15
  -3   5  -9    0.00    0.16
   3  -5   9    0.02    0.19
  -4   5  -9    0.59    0.23
   4  -5   9    0.87    0.26
   6   4  -9    0.19    0.13
  -6  -4   9    0.29    0.20
   5   4  -9    2.17    0.27
  -5  -4   9    2.38    0.27
   4   4  -9    1.21    0.18
  -4  -4   9    1.38    0.21
  -4  -4   9    0.88    0.17
   3   4  -9    0.62    0.15
  -3  -4   9    0.62    0.14
  -3  -4   9    0.56    0.15
   2   4  -9    1.77    0.22
  -2  -4   9    1.57    0.21
   1   4  -9    1.84    0.22
  -1  -4   9    1.52    0.20
   0   4  -9    4.54    0.30
   0  -4   9    4.50    0.30
  -1   4  -9    0.00    0.13
   1  -4   9    0.01    0.15
  -2   4  -9    0.27    0.14
  -2   4  -9    0.10    0.15
   2  -4   9   -0.01    0.16
  -3   4  -9    1.47    0.23
  -3   4  -9    1.08    0.19
   3  -4   9    1.59    0.26
  -4   4  -9    0.09    0.19
   4  -4   9    0.10    0.20
   6   3  -9   -0.07    0.10
  -6  -3   9    0.14    0.18
   5   3  -9    0.08    0.12
  -5  -3   9    0.28    0.16
   4   3  -9    6.85    0.33
  -4  -3   9    6.74    0.35
  -4  -3   9    7.23    0.35
   3   3  -9    1.83    0.21
  -3  -3   9    1.44    0.19
  -3  -3   9    1.64    0.21
   2   3  -9    0.02    0.12
  -2  -3   9    0.02    0.12
   1   3  -9    0.01    0.12
  -1  -3   9   -0.09    0.11
   0   3  -9    0.02    0.12
   0  -3   9   -0.10    0.13
  -1   3  -9    8.77    0.40
   1  -3   9    8.45    0.39
  -2   3  -9    0.37    0.16
  -2   3  -9    0.42    0.15
   2  -3   9    0.46    0.18
  -3   3  -9    0.21    0.18
  -3   3  -9    0.48    0.17
   3  -3   9    0.09    0.18
  -4   3  -9    0.20    0.21
   4  -3   9    0.08    0.21
   6   2  -9    0.12    0.12
  -6  -2   9    0.40    0.19
   5   2  -9    0.38    0.14
  -5  -2   9    0.13    0.14
   4   2  -9    1.12    0.17
  -4  -2   9    1.21    0.19
  -4  -2   9    1.29    0.21
   3   2  -9    0.11    0.12
  -3  -2   9    0.00    0.11
  -3  -2   9   -0.10    0.10
   2   2  -9    0.60    0.15
  -2  -2   9    0.60    0.15
  -2  -2   9    0.45    0.15
   1   2  -9    0.08    0.12
  -1  -2   9    0.08    0.11
  -1  -2   9   -0.10    0.11
   0   2  -9    0.22    0.14
   0  -2   9    0.27    0.12
   0  -2   9    0.05    0.13
  -1   2  -9    0.09    0.13
   1  -2   9    0.27    0.16
  -2   2  -9    0.41    0.16
  -2   2  -9    0.40    0.15
   2  -2   9    0.28    0.17
  -3   2  -9    0.94    0.18
  -3   2  -9    0.68    0.20
   3  -2   9    1.23    0.21
   3  -2   9    1.07    0.21
  -4   2  -9    0.62    0.23
   6   1  -9    0.74    0.16
  -6  -1   9    0.61    0.19
   5   1  -9    0.09    0.11
  -5  -1   9    0.26    0.14
   4   1  -9    2.75    0.23
  -4  -1   9    2.96    0.28
   3   1  -9    4.29    0.28
  -3  -1   9    4.57    0.28
  -3  -1   9    3.75    0.28
   2   1  -9   12.37    0.43
  -2  -1   9   11.43    0.40
  -2  -1   9   12.08    0.41
   1   1  -9    5.02    0.31
  -1  -1   9    5.33    0.29
  -1  -1   9    4.97    0.27
   0   1  -9    0.00    0.12
   0  -1   9    0.22    0.12
   0  -1   9    0.10    0.12
  -1   1  -9    0.47    0.16
   1  -1   9    0.47    0.15
   1  -1   9    0.70    0.17
  -2   1  -9   -0.10    0.14
   2  -1   9   -0.03    0.14
   2  -1   9   -0.08    0.14
  -3   1  -9   11.30    0.49
  -3   1  -9   11.19    0.48
   3  -1   9   11.12    0.47
  -4   1  -9   -0.20    0.20
   4  -1   9    0.01    0.18
   6   0  -9    0.07    0.13
  -6   0   9   -0.12    0.14
   5   0  -9    0.77    0.17
  -5   0   9    0.32    0.14
   4   0  -9    0.03    0.11
   4   0  -9    0.40    0.12
  -4   0   9    0.35    0.13
   3   0  -9   57.02    1.06
  -3   0   9   56.99    1.10
  -3   0   9   57.71    1.07
   2   0  -9    6.83    0.33
  -2   0   9    6.34    0.31
  -2   0   9    6.46    0.31
   1   0  -9    1.28    0.18
  -1   0   9    2.01    0.21
  -1   0   9    1.36    0.19
   0   0  -9    7.08    0.35
   0   0   9    7.24    0.33
   0   0   9    7.29    0.32
  -1   0  -9    0.74    0.17
   1   0   9    1.08    0.18
   1   0   9    1.11    0.18
  -2   0  -9   14.96    0.54
   2   0   9   14.02    0.51
  -3   0  -9   13.19    0.54
   3   0   9   13.26    0.53
   7  -1  -9    0.38    0.16
  -7   1   9    0.42    0.21
   6  -1  -9    5.29    0.33
  -6   1   9    4.52    0.36
   5  -1  -9    0.97    0.20
  -5   1   9    1.18    0.22
   4  -1  -9   -0.02    0.10
   4  -1  -9   -0.14    0.10
  -4   1   9    0.05    0.12
   3  -1  -9   25.44    0.61
  -3   1   9   23.43    0.62
   2  -1  -9    3.42    0.27
  -2   1   9    3.09    0.25
  -2   1   9    3.27    0.25
   1  -1  -9    1.73    0.21
  -1   1   9    1.98    0.20
  -1   1   9    1.66    0.20
   0  -1  -9    0.37    0.15
   0   1   9    0.41    0.15
  -1  -1  -9    3.32    0.30
   1   1   9    2.62    0.27
  -2  -1  -9    5.12    0.40
   2   1   9    5.99    0.39
  -3  -1  -9   -0.03    0.17
   3   1   9   -0.07    0.18
   6  -2  -9    0.66    0.18
  -6   2   9    0.41    0.18
   5  -2  -9    3.25    0.27
  -5   2   9    3.12    0.31
   4  -2  -9   10.96    0.40
   4  -2  -9   11.16    0.39
  -4   2   9   10.89    0.44
   3  -2  -9    3.61    0.23
   3  -2  -9    3.33    0.26
  -3   2   9    3.53    0.27
   2  -2  -9    8.69    0.37
  -2   2   9    8.95    0.37
   1  -2  -9    1.55    0.20
  -1   2   9    1.82    0.21
   0  -2  -9    3.19    0.30
   0   2   9    3.39    0.29
  -1  -2  -9    1.60    0.22
   1   2   9    1.51    0.24
  -2  -2  -9    2.84    0.29
   2   2   9    3.57    0.35
  -3  -2  -9    0.80    0.22
   3   2   9    0.29    0.22
   6  -3  -9    0.04    0.13
  -6   3   9    0.21    0.16
   5  -3  -9    0.43    0.16
  -5   3   9    0.83    0.20
   4  -3  -9    0.34    0.13
   4  -3  -9    0.24    0.12
  -4   3   9    0.28    0.15
   3  -3  -9    0.25    0.10
   3  -3  -9    0.31    0.13
  -3   3   9    0.24    0.14
   2  -3  -9   -0.13    0.07
   2  -3  -9    0.13    0.12
  -2   3   9    0.13    0.11
   1  -3  -9    0.21    0.14
  -1   3   9    0.14    0.13
   0  -3  -9    0.07    0.13
   0   3   9    0.10    0.14
  -1  -3  -9    0.29    0.16
   1   3   9    0.38    0.16
  -2  -3  -9    0.04    0.17
   2   3   9   -0.11    0.20
   6  -4  -9   -0.01    0.15
  -6   4   9    0.13    0.17
   5  -4  -9    0.07    0.13
  -5   4   9    0.34    0.19
   4  -4  -9    0.30    0.13
   4  -4  -9    0.32    0.12
  -4   4   9    0.29    0.16
   3  -4  -9    0.07    0.12
   3  -4  -9    0.01    0.08
  -3   4   9    0.00    0.13
   2  -4  -9    6.89    0.37
  -2   4   9    7.14    0.36
   1  -4  -9    0.75    0.18
  -1   4   9    0.88    0.19
   0  -4  -9    0.25    0.15
   0   4   9    0.29    0.17
  -1  -4  -9    1.60    0.26
   1   4   9    1.43    0.25
  -2  -4  -9    0.03    0.18
   2   4   9   -0.19    0.21
   6  -5  -9    0.98    0.22
  -6   5   9    0.85    0.23
   5  -5  -9    1.06    0.20
  -5   5   9    1.35    0.25
   4  -5  -9    0.35    0.15
   4  -5  -9    0.45    0.14
  -4   5   9    0.27    0.17
   3  -5  -9    0.15    0.14
  -3   5   9    0.29    0.16
   2  -5  -9    1.96    0.24
  -2   5   9    1.83    0.24
   1  -5  -9    1.26    0.23
  -1   5   9    1.41    0.23
   0  -5  -9    0.46    0.19
   0   5   9    0.43    0.20
  -1  -5  -9    0.89    0.22
   1   5   9    0.28    0.21
   5  -6  -9    3.30    0.30
  -5   6   9    4.05    0.37
   4  -6  -9   -0.04    0.13
  -4   6   9    0.19    0.18
   3  -6  -9    0.52    0.18
  -3   6   9    0.62    0.20
   2  -6  -9    0.29    0.18
  -2   6   9   -0.06    0.15
   1  -6  -9   -0.04    0.16
  -1   6   9   -0.09    0.14
   0  -6  -9    4.48    0.41
   0   6   9    4.26    0.40
   4  -7  -9   -0.18    0.14
  -4   7   9    0.00    0.16
   3  -7  -9    0.41    0.18
  -3   7   9    0.07    0.15
   2  -7  -9    0.04    0.16
  -2   7   9   -0.05    0.16
   1   9 -10   -0.10    0.20
  -1  -9  10    0.12    0.18
   0   9 -10    0.06    0.20
   0  -9  10    0.34    0.18
  -1   9 -10   -0.12    0.19
   1  -9  10    0.28    0.20
   3   8 -10    0.09    0.22
  -3  -8  10   -0.06    0.16
   2   8 -10    0.57    0.24
  -2  -8  10    0.70    0.21
   1   8 -10   -0.04    0.20
  -1  -8  10   -0.17    0.15
   0   8 -10    3.46    0.35
   0  -8  10    3.56    0.33
  -1   8 -10    2.69    0.33
   1  -8  10    2.11    0.29
  -2   8 -10    0.26    0.20
   2  -8  10   -0.10    0.19
   4   7 -10    0.49    0.22
  -4  -7  10    0.75    0.21
   3   7 -10    0.25    0.21
  -3  -7  10    0.26    0.17
   2   7 -10   -0.24    0.18
  -2  -7  10    0.10    0.16
   1   7 -10    0.44    0.19
  -1  -7  10    0.87    0.21
   0   7 -10    2.35    0.28
   0  -7  10    2.48    0.29
  -1   7 -10    0.31    0.18
   1  -7  10    0.16    0.17
  -2   7 -10    0.24    0.17
   2  -7  10    0.16    0.20
  -3   7 -10    0.27    0.20
   3  -7  10    0.29    0.22
   4   6 -10    0.27    0.18
  -4  -6  10    0.05    0.16
   3   6 -10    3.69    0.36
  -3  -6  10    3.64    0.31
   2   6 -10    1.15    0.23
  -2  -6  10    1.40    0.22
   1   6 -10    0.41    0.17
  -1  -6  10    0.28    0.16
   0   6 -10    3.45    0.33
   0  -6  10    3.94    0.31
  -1   6 -10    0.94    0.20
   1  -6  10    0.83    0.22
  -2   6 -10    2.26    0.27
   2  -6  10    1.95    0.29
  -3   6 -10   -0.03    0.17
   3  -6  10    0.61    0.24
  -5  -5  10    0.23    0.17
   4   5 -10    1.84    0.24
  -4  -5  10    1.61    0.22
  -4  -5  10    1.67    0.24
   3   5 -10    6.68    0.40
  -3  -5  10    5.90    0.35
   2   5 -10    0.54    0.18
  -2  -5  10    0.34    0.15
   1   5 -10    4.13    0.33
  -1  -5  10    3.95    0.30
   0   5 -10    0.12    0.14
   0  -5  10    0.24    0.16
  -1   5 -10    0.28    0.15
   1  -5  10    0.10    0.18
  -2   5 -10    5.80    0.39
   2  -5  10    5.74    0.41
  -3   5 -10   -0.54    0.15
   3  -5  10   -0.24    0.19
   5   4 -10    0.99    0.21
  -5  -4  10    0.97    0.21
   4   4 -10    0.82    0.18
  -4  -4  10    0.33    0.17
  -4  -4  10    0.34    0.15
   3   4 -10    0.10    0.14
  -3  -4  10    0.18    0.12
  -3  -4  10    0.20    0.15
   2   4 -10    0.29    0.16
  -2  -4  10    0.26    0.15
   1   4 -10    0.41    0.16
  -1  -4  10    0.51    0.17
   0   4 -10    0.82    0.18
   0  -4  10    0.67    0.19
  -1   4 -10    0.09    0.13
   1  -4  10   -0.05    0.17
  -2   4 -10    0.15    0.17
   2  -4  10    0.18    0.21
  -3   4 -10    0.33    0.17
   3  -4  10    0.40    0.22
   6   3 -10   -0.18    0.11
  -6  -3  10    0.13    0.18
   5   3 -10    0.81    0.20
  -5  -3  10    0.85    0.19
   4   3 -10    3.25    0.29
  -4  -3  10    3.27    0.28
  -4  -3  10    2.81    0.27
   3   3 -10   -0.03    0.13
  -3  -3  10   -0.14    0.11
  -3  -3  10    0.02    0.13
   2   3 -10    3.12    0.30
  -2  -3  10    4.60    0.30
   1   3 -10    1.15    0.20
  -1  -3  10    1.40    0.21
   0   3 -10    1.52    0.22
   0  -3  10    1.58    0.23
  -1   3 -10    2.12    0.26
   1  -3  10    2.71    0.28
  -2   3 -10    0.51    0.18
   2  -3  10    0.56    0.20
  -3   3 -10    1.12    0.20
   3  -3  10    1.10    0.26
   6   2 -10   -0.02    0.11
  -6  -2  10   -0.15    0.15
   5   2 -10    0.85    0.19
  -5  -2  10    0.94    0.20
   4   2 -10    0.20    0.13
  -4  -2  10   -0.06    0.12
  -4  -2  10    0.04    0.14
   3   2 -10    2.33    0.24
  -3  -2  10    2.60    0.26
  -3  -2  10    2.40    0.26
   2   2 -10    0.16    0.14
  -2  -2  10    0.04    0.15
  -2  -2  10    0.13    0.13
   1   2 -10    0.22    0.16
  -1  -2  10    0.31    0.15
  -1  -2  10    0.63    0.16
   0   2 -10    1.09    0.19
   0  -2  10    1.24    0.21
  -1   2 -10    1.26    0.21
   1  -2  10    1.16    0.21
  -2   2 -10    0.37    0.18
   2  -2  10    0.58    0.20
  -3   2 -10    0.09    0.15
   3  -2  10    0.16    0.22
   6   1 -10    0.08    0.11
  -6  -1  10    0.14    0.16
   5   1 -10    0.12    0.11
  -5  -1  10    0.07    0.15
   4   1 -10    0.93    0.17
  -4  -1  10    1.23    0.21
   3   1 -10   14.88    0.48
  -3  -1  10   14.27    0.48
  -3  -1  10   14.46    0.50
   2   1 -10   15.20    0.50
  -2  -1  10   14.73    0.48
  -2  -1  10   14.17    0.48
   1   1 -10    0.14    0.15
  -1  -1  10    0.14    0.15
  -1  -1  10    0.20    0.13
   0   1 -10   -0.02    0.12
   0  -1  10   -0.18    0.12
   0  -1  10   -0.10    0.14
  -1   1 -10    0.14    0.15
   1  -1  10    0.45    0.17
   1  -1  10    0.52    0.18
  -2   1 -10    2.83    0.29
   2  -1  10    3.60    0.32
   2  -1  10    2.84    0.28
  -3   1 -10    6.22    0.43
   3  -1  10    6.18    0.41
   6   0 -10   -0.05    0.10
  -6   0  10   -0.02    0.15
   5   0 -10    0.21    0.13
  -5   0  10    0.14    0.14
   4   0 -10    3.40    0.27
   4   0 -10    3.51    0.27
  -4   0  10    3.31    0.30
   3   0 -10    7.59    0.36
  -3   0  10    7.74    0.37
  -3   0  10    7.42    0.38
   2   0 -10    3.39    0.29
  -2   0  10    3.70    0.28
  -2   0  10    3.43    0.28
   1   0 -10    0.52    0.16
  -1   0  10    0.32    0.15
  -1   0  10    0.43    0.16
   0   0 -10    0.08    0.14
   0   0  10    0.10    0.13
   0   0  10    0.02    0.14
  -1   0 -10    2.28    0.27
   1   0  10    2.50    0.28
   1   0  10    2.53    0.25
  -2   0 -10    5.24    0.39
   2   0  10    5.50    0.38
  -3   0 -10    2.11    0.29
   3   0  10    1.94    0.31
   6  -1 -10    0.85    0.20
  -6   1  10    0.80    0.23
   5  -1 -10    0.13    0.13
  -5   1  10    0.20    0.14
   4  -1 -10    0.09    0.11
   4  -1 -10    0.12    0.12
  -4   1  10    0.14    0.13
   3  -1 -10   -0.05    0.12
  -3   1  10   -0.08    0.10
   2  -1 -10   -0.04    0.13
  -2   1  10    0.16    0.14
  -2   1  10    0.04    0.11
   1  -1 -10    0.36    0.16
  -1   1  10    0.18    0.14
  -1   1  10    0.46    0.16
   0  -1 -10   -0.06    0.12
   0   1  10   -0.14    0.12
  -1  -1 -10    0.46    0.17
   1   1  10    0.79    0.20
  -2  -1 -10    0.28    0.18
   2   1  10    0.51    0.20
  -3  -1 -10   -0.10    0.20
   3   1  10    0.15    0.22
   6  -2 -10    1.10    0.22
  -6   2  10    0.78    0.22
   5  -2 -10    1.72    0.24
  -5   2  10    1.33    0.23
   4  -2 -10    0.29    0.13
   4  -2 -10    0.33    0.13
  -4   2  10    0.21    0.15
   3  -2 -10    0.33    0.14
   3  -2 -10    0.36    0.12
  -3   2  10    0.08    0.13
   2  -2 -10    1.23    0.20
  -2   2  10    1.69    0.23
   1  -2 -10    2.43    0.25
  -1   2  10    2.13    0.23
   0  -2 -10    0.90    0.19
   0   2  10    0.70    0.19
  -1  -2 -10    0.05    0.14
   1   2  10    0.45    0.18
  -2  -2 -10    0.39    0.20
   2   2  10   -0.15    0.18
   6  -3 -10    0.17    0.16
  -6   3  10    0.09    0.17
   5  -3 -10   -0.05    0.10
  -5   3  10   -0.14    0.14
   4  -3 -10    0.27    0.13
   4  -3 -10    0.47    0.13
  -4   3  10    0.36    0.17
   3  -3 -10    0.06    0.13
   3  -3 -10    0.16    0.09
  -3   3  10    0.16    0.15
   2  -3 -10    0.24    0.14
  -2   3  10    0.26    0.14
   1  -3 -10    0.72    0.19
  -1   3  10    1.08    0.20
   0  -3 -10    0.26    0.16
   0   3  10    0.33    0.17
  -1  -3 -10    0.13    0.17
   1   3  10    0.04    0.17
  -2  -3 -10    0.10    0.20
   2   3  10    0.01    0.22
   6  -4 -10    0.30    0.18
  -6   4  10    0.75    0.24
   5  -4 -10    0.10    0.13
  -5   4  10   -0.14    0.16
   4  -4 -10   -0.03    0.10
   4  -4 -10    0.05    0.12
  -4   4  10    0.04    0.15
   3  -4 -10    2.61    0.26
   3  -4 -10    2.05    0.19
  -3   4  10    2.41    0.29
   2  -4 -10    0.82    0.19
  -2   4  10    0.55    0.17
   1  -4 -10    0.10    0.15
  -1   4  10    0.23    0.16
   0  -4 -10    0.49    0.19
   0   4  10    0.57    0.22
  -1  -4 -10    1.17    0.25
   1   4  10    0.44    0.21
   5  -5 -10    6.96    0.37
  -5   5  10    7.30    0.45
   4  -5 -10    0.45    0.16
   4  -5 -10    0.79    0.17
  -4   5  10    0.13    0.18
   3  -5 -10    0.02    0.14
  -3   5  10   -0.08    0.15
   2  -5 -10    2.10    0.27
  -2   5  10    1.77    0.25
   1  -5 -10   -0.06    0.17
  -1   5  10    0.00    0.15
   0  -5 -10    3.80    0.36
   0   5  10    3.79    0.39
   4  -6 -10   -0.12    0.15
  -4   6  10    0.27    0.20
   3  -6 -10    0.27    0.17
  -3   6  10    0.12    0.15
   2  -6 -10    0.25    0.18
  -2   6  10    0.10    0.16
   1  -6 -10    0.42    0.20
  -1   6  10    0.44    0.21
   2   8 -11    0.10    0.23
  -2  -8  11   -0.04    0.18
   1   8 -11    0.25    0.23
  -1  -8  11   -0.13    0.16
   0   8 -11   -0.13    0.19
   0  -8  11    0.25    0.17
  -1   8 -11    0.29    0.20
   1  -8  11    0.12    0.19
   3   7 -11    0.94    0.25
  -3  -7  11    0.58    0.21
   2   7 -11    0.32    0.22
  -2  -7  11    0.52    0.21
   1   7 -11    0.06    0.19
  -1  -7  11   -0.21    0.15
   0   7 -11    1.88    0.28
   0  -7  11    2.10    0.28
  -1   7 -11    0.05    0.18
   1  -7  11   -0.09    0.19
  -2   7 -11   -0.07    0.20
   2  -7  11    0.04    0.21
   4   6 -11    1.29    0.25
  -4  -6  11    0.55    0.21
   3   6 -11    0.58    0.21
  -3  -6  11    0.43    0.19
   2   6 -11    0.41    0.20
  -2  -6  11    0.64    0.20
   1   6 -11    0.13    0.17
  -1  -6  11    0.01    0.14
   0   6 -11   -0.02    0.16
   0  -6  11    0.16    0.18
  -1   6 -11    1.03    0.23
   1  -6  11    0.99    0.25
  -2   6 -11    0.08    0.19
   2  -6  11    0.23    0.23
   4   5 -11    1.36    0.24
  -4  -5  11    1.57    0.26
   3   5 -11    2.06    0.27
  -3  -5  11    2.20    0.28
   2   5 -11    0.78    0.21
  -2  -5  11    0.91    0.20
   1   5 -11    0.09    0.16
  -1  -5  11   -0.09    0.15
   0   5 -11   -0.05    0.15
   0  -5  11   -0.05    0.17
  -1   5 -11    0.20    0.16
   1  -5  11    0.41    0.23
  -2   5 -11    1.67    0.28
   2  -5  11    2.12    0.31
  -5  -4  11   -0.11    0.15
   4   4 -11   -0.03    0.15
  -4  -4  11    0.37    0.15
  -4  -4  11    0.05    0.15
   3   4 -11    0.36    0.19
  -3  -4  11    0.51    0.18
   2   4 -11    0.26    0.16
  -2  -4  11    0.00    0.15
   1   4 -11    0.97    0.22
  -1  -4  11    1.02    0.22
   0   4 -11   -0.03    0.14
   0  -4  11   -0.13    0.17
  -1   4 -11   -0.10    0.15
   1  -4  11    0.25    0.20
  -2   4 -11    0.15    0.17
   2  -4  11    0.31    0.23
  -3   4 -11    0.17    0.19
   3  -4  11    0.40    0.25
   5   3 -11    0.36    0.15
  -5  -3  11    0.44    0.17
   4   3 -11    0.15    0.14
  -4  -3  11    0.17    0.14
  -4  -3  11    0.01    0.14
   3   3 -11    1.69    0.23
  -3  -3  11    1.97    0.25
  -3  -3  11    1.74    0.25
   2   3 -11    6.57    0.41
  -2  -3  11    6.18    0.37
  -2  -3  11    6.49    0.35
   1   3 -11    2.82    0.30
  -1  -3  11    3.06    0.30
   0   3 -11    1.95    0.27
   0  -3  11    1.96    0.26
  -1   3 -11    0.19    0.17
   1  -3  11    0.16    0.19
  -2   3 -11    0.58    0.20
   2  -3  11    0.10    0.21
  -3   3 -11    0.20    0.18
   6   2 -11    0.19    0.16
  -6  -2  11    0.47    0.19
   5   2 -11    0.37    0.15
  -5  -2  11    0.62    0.20
   4   2 -11    0.16    0.14
  -4  -2  11    0.06    0.16
  -4  -2  11   -0.02    0.14
   3   2 -11    0.65    0.18
  -3  -2  11    0.70    0.20
  -3  -2  11    0.63    0.17
   2   2 -11   43.31    0.99
  -2  -2  11   44.99    0.96
  -2  -2  11   43.39    0.95
   1   2 -11    0.44    0.18
  -1  -2  11    0.70    0.20
  -1  -2  11    0.77    0.18
   0   2 -11   -0.06    0.14
   0  -2  11    0.01    0.13
   0  -2  11    0.25    0.18
  -1   2 -11    1.60    0.24
   1  -2  11    1.19    0.23
   1  -2  11    1.91    0.23
  -2   2 -11   -0.18    0.15
   2  -2  11    0.02    0.18
   2  -2  11   -0.18    0.15
  -3   2 -11   11.58    0.56
   6   1 -11    0.04    0.12
  -6  -1  11   -0.07    0.15
   5   1 -11    3.76    0.31
  -5  -1  11    4.81    0.35
   4   1 -11    3.04    0.28
  -4  -1  11    3.50    0.33
   3   1 -11    1.56    0.22
  -3  -1  11    1.59    0.24
  -3  -1  11    0.94    0.21
   2   1 -11    9.06    0.45
  -2  -1  11    9.62    0.43
  -2  -1  11    9.20    0.42
   1   1 -11    2.67    0.28
  -1  -1  11    2.57    0.27
  -1  -1  11    2.09    0.25
   0   1 -11    1.75    0.24
   0  -1  11    1.62    0.23
   0  -1  11    1.67    0.23
  -1   1 -11    0.26    0.16
   1  -1  11    0.25    0.17
   1  -1  11   -0.05    0.16
  -2   1 -11    0.78    0.20
   2  -1  11    0.13    0.17
   6   0 -11    3.07    0.35
  -6   0  11    4.13    0.39
   5   0 -11    1.16    0.22
  -5   0  11    1.62    0.25
   4   0 -11    1.04    0.20
   4   0 -11    0.76    0.18
  -4   0  11    0.69    0.19
   3   0 -11   11.10    0.45
  -3   0  11   10.48    0.45
  -3   0  11    9.85    0.45
   2   0 -11    0.07    0.16
  -2   0  11    0.27    0.15
  -2   0  11    0.18    0.14
   1   0 -11    6.77    0.41
  -1   0  11    6.62    0.36
  -1   0  11    6.17    0.36
   0   0 -11    4.00    0.35
   0   0  11    3.14    0.30
   0   0  11    3.12    0.29
  -1   0 -11    0.74    0.21
   1   0  11    1.28    0.24
  -2   0 -11    1.56    0.26
   2   0  11    2.00    0.28
   6  -1 -11    0.03    0.15
  -6   1  11   -0.22    0.16
   5  -1 -11   -0.20    0.11
  -5   1  11    0.11    0.16
   4  -1 -11    0.25    0.13
   4  -1 -11    0.29    0.14
  -4   1  11    0.48    0.17
   3  -1 -11   -0.01    0.14
  -3   1  11    0.04    0.13
   2  -1 -11    0.59    0.19
  -2   1  11    0.46    0.16
  -2   1  11    0.56    0.17
   1  -1 -11    0.14    0.16
  -1   1  11    0.19    0.15
  -1   1  11   -0.17    0.12
   0  -1 -11    0.01    0.14
   0   1  11    0.43    0.18
  -1  -1 -11   -0.19    0.17
   1   1  11    0.04    0.17
  -2  -1 -11    0.51    0.21
   2   1  11    0.44    0.23
   6  -2 -11    3.11    0.32
  -6   2  11    3.16    0.35
   5  -2 -11   -0.02    0.11
  -5   2  11    0.04    0.17
   4  -2 -11    0.70    0.18
   4  -2 -11    1.13    0.20
  -4   2  11    0.87    0.20
   3  -2 -11    0.31    0.16
   3  -2 -11    0.00    0.10
  -3   2  11    0.07    0.14
   2  -2 -11   -0.11    0.14
  -2   2  11   -0.27    0.11
   1  -2 -11    7.28    0.42
  -1   2  11    7.32    0.38
   0  -2 -11    0.16    0.16
   0   2  11   -0.08    0.16
  -1  -2 -11    0.28    0.20
   1   2  11   -0.34    0.18
   5  -3 -11    0.41    0.15
  -5   3  11    0.42    0.22
   4  -3 -11    2.26    0.25
   4  -3 -11    2.49    0.26
  -4   3  11    2.16    0.29
   3  -3 -11    0.86    0.19
   3  -3 -11    1.20    0.17
  -3   3  11    1.40    0.23
   2  -3 -11    0.01    0.16
  -2   3  11    0.17    0.13
   1  -3 -11    0.95    0.22
  -1   3  11    1.13    0.21
   0  -3 -11    0.95    0.23
   0   3  11    0.68    0.20
  -1  -3 -11    1.05    0.24
   1   3  11    1.05    0.25
   5  -4 -11    1.91    0.25
  -5   4  11    2.77    0.33
   4  -4 -11    2.77    0.26
   4  -4 -11    2.85    0.28
  -4   4  11    2.90    0.32
   3  -4 -11    0.14    0.16
  -3   4  11    0.36    0.18
   2  -4 -11    1.14    0.22
  -2   4  11    0.85    0.20
   1  -4 -11   -0.20    0.16
  -1   4  11    0.03    0.16
   0  -4 -11    0.47    0.21
   0   4  11    0.27    0.20
   4  -5 -11   -0.05    0.15
  -4   5  11    0.03    0.19
   3  -5 -11    0.05    0.17
  -3   5  11    0.06    0.18
   2  -5 -11    0.05    0.17
  -2   5  11   -0.21    0.14
   1  -5 -11    0.31    0.20
  -1   5  11    0.14    0.18
   2   7 -12    1.63    0.31
  -2  -7  12    1.22    0.25
   1   7 -12    0.03    0.21
  -1  -7  12    0.12    0.17
   0   7 -12    1.24    0.26
   0  -7  12    0.77    0.24
   3   6 -12    0.06    0.19
  -3  -6  12    0.08    0.18
   2   6 -12    0.15    0.20
  -2  -6  12    0.05    0.16
   1   6 -12    0.22    0.21
  -1  -6  12    0.24    0.20
   0   6 -12   -0.15    0.18
   0  -6  12    0.07    0.20
  -1   6 -12    0.38    0.23
   1  -6  12   -0.04    0.21
   4   5 -12    1.24    0.25
  -4  -5  12    0.80    0.23
   3   5 -12    1.05    0.25
  -3  -5  12    1.20    0.24
   2   5 -12   -0.08    0.18
  -2  -5  12   -0.02    0.18
   1   5 -12    3.24    0.34
  -1  -5  12    2.98    0.33
   0   5 -12    0.45    0.21
   0  -5  12    0.11    0.21
  -1   5 -12    1.17    0.26
   1  -5  12    0.81    0.25
  -2   5 -12    0.63    0.22
   2  -5  12    1.27    0.30
   4   4 -12    0.83    0.22
  -4  -4  12    0.82    0.19
  -4  -4  12    1.00    0.22
   3   4 -12    0.23    0.21
  -3  -4  12    0.44    0.17
  -3  -4  12    0.50    0.21
   2   4 -12    1.14    0.24
  -2  -4  12    0.99    0.24
   1   4 -12    0.13    0.17
  -1  -4  12    0.12    0.19
   0   4 -12    0.11    0.17
   0  -4  12   -0.08    0.20
  -1   4 -12    0.54    0.22
   1  -4  12    1.09    0.27
  -2   4 -12    0.04    0.19
   2  -4  12    0.13    0.23
   5   3 -12   -0.04    0.11
  -5  -3  12   -0.04    0.16
   4   3 -12    0.08    0.17
  -4  -3  12    0.06    0.14
  -4  -3  12    0.39    0.19
   3   3 -12    1.54    0.27
  -3  -3  12    1.22    0.24
  -3  -3  12    1.83    0.26
   2   3 -12   12.10    0.55
  -2  -3  12   12.70    0.53
  -2  -3  12   13.87    0.50
   1   3 -12    6.01    0.45
  -1  -3  12    6.17    0.40
   0   3 -12    0.00    0.17
   0  -3  12   -0.05    0.19
  -1   3 -12    0.37    0.19
   1  -3  12    0.24    0.20
  -2   3 -12    0.30    0.20
   2  -3  12    0.39    0.24
   5   2 -12    0.09    0.14
  -5  -2  12    0.13    0.18
   4   2 -12    0.44    0.17
  -4  -2  12    0.42    0.17
  -4  -2  12    0.45    0.21
   3   2 -12    3.90    0.38
  -3  -2  12    3.40    0.33
  -3  -2  12    4.53    0.35
   2   2 -12    4.06    0.36
  -2  -2  12    4.06    0.34
  -2  -2  12    3.85    0.35
   1   2 -12    1.37    0.25
  -1  -2  12    0.89    0.23
  -1  -2  12    1.81    0.26
   0   2 -12    0.23    0.18
   0  -2  12    0.20    0.14
   0  -2  12    0.03    0.19
  -1   2 -12    0.46    0.20
   1  -2  12    0.05    0.20
  -2   2 -12    1.64    0.26
   5   1 -12    0.50    0.18
  -5  -1  12    0.68    0.23
   4   1 -12    0.08    0.15
  -4  -1  12   -0.32    0.13
   3   1 -12    0.14    0.18
  -3  -1  12    0.13    0.18
  -3  -1  12    0.37    0.18
   2   1 -12   -0.14    0.16
  -2  -1  12   -0.03    0.15
  -2  -1  12   -0.14    0.17
   1   1 -12   -0.08    0.16
  -1  -1  12    0.11    0.15
  -1  -1  12    0.02    0.18
   0   1 -12    0.18    0.18
   0  -1  12    0.21    0.19
   0  -1  12   -0.14    0.13
  -1   1 -12    0.23    0.20
   1  -1  12   -0.07    0.15
  -2   1 -12    0.24    0.22
   5   0 -12    1.23    0.24
  -5   0  12    1.33    0.26
   4   0 -12    0.46    0.17
   4   0 -12    0.87    0.20
  -4   0  12    1.17    0.23
   3   0 -12    0.09    0.16
  -3   0  12    0.64    0.21
  -3   0  12    0.16    0.19
   2   0 -12    0.51    0.19
  -2   0  12    0.67    0.21
  -2   0  12    0.90    0.20
   1   0 -12    0.79    0.22
  -1   0  12    1.17    0.23
  -1   0  12    0.96    0.20
   0   0 -12    1.41    0.25
   0   0  12    1.60    0.25
  -1   0 -12    0.14    0.19
   1   0  12   -0.16    0.18
   5  -1 -12    0.03    0.14
  -5   1  12   -0.28    0.16
   4  -1 -12   -0.02    0.14
   4  -1 -12    0.03    0.12
  -4   1  12   -0.09    0.16
   3  -1 -12    0.65    0.20
  -3   1  12    0.38    0.19
   2  -1 -12    0.06    0.17
  -2   1  12    0.08    0.16
  -2   1  12    0.19    0.17
   1  -1 -12    0.60    0.21
  -1   1  12    0.63    0.20
   0  -1 -12    0.08    0.17
   0   1  12   -0.10    0.17
  -1  -1 -12    0.01    0.22
   1   1  12   -0.09    0.19
   5  -2 -12    1.09    0.22
  -5   2  12    1.13    0.25
   4  -2 -12    0.45    0.18
   4  -2 -12    0.35    0.14
  -4   2  12    0.11    0.16
   3  -2 -12   -0.08    0.10
   3  -2 -12    0.06    0.15
  -3   2  12   -0.23    0.14
   2  -2 -12    1.05    0.23
  -2   2  12    1.07    0.22
   1  -2 -12    0.34    0.21
  -1   2  12    0.20    0.19
   0  -2 -12    0.69    0.22
   0   2  12    0.67    0.23
   4  -3 -12    7.52    0.37
   4  -3 -12    7.21    0.42
  -4   3  12    7.59    0.47
   3  -3 -12   -0.20    0.15
   3  -3 -12    0.08    0.09
  -3   3  12    0.17    0.16
   2  -3 -12   -0.10    0.17
  -2   3  12   -0.02    0.15
   1  -3 -12    0.48    0.20
  -1   3  12    0.67    0.22
   4  -4 -12    0.34    0.13
   3  -4 -12    0.09    0.16
  -3   4  12   -0.05    0.18
   2  -4 -12   -0.09    0.17
  -2   4  12   -0.02    0.16
   2   6 -13   -0.06    0.22
  -2  -6  13    0.42    0.21
   1   6 -13    0.25    0.24
  -1  -6  13    0.11    0.21
   3   5 -13    0.04    0.21
  -3  -5  13   -0.26    0.17
   2   5 -13    0.41    0.24
  -2  -5  13    0.37    0.22
   1   5 -13    3.38    0.38
  -1  -5  13    3.85    0.37
   0   5 -13    0.05    0.21
   0  -5  13    0.18    0.23
   4   4 -13    0.57    0.25
  -4  -4  13    0.77    0.23
  -4  -4  13    0.65    0.19
   3   4 -13   -0.31    0.20
  -3  -4  13    0.38    0.21
   2   4 -13    3.10    0.37
  -2  -4  13    3.46    0.37
   1   4 -13   19.06    0.73
  -1  -4  13   19.02    0.68
   0   4 -13    0.05    0.19
   0  -4  13   -0.13    0.21
  -1   4 -13   -0.06    0.19
   1  -4  13   -0.17    0.23
   4   3 -13    1.43    0.27
  -4  -3  13    1.82    0.29
  -4  -3  13    1.14    0.24
   3   3 -13    2.01    0.30
  -3  -3  13    1.94    0.30
  -3  -3  13    1.75    0.26
   2   3 -13    2.44    0.33
  -2  -3  13    2.36    0.32
  -2  -3  13    2.30    0.28
   1   3 -13    1.77    0.30
  -1  -3  13    1.95    0.30
   0   3 -13    0.33    0.21
   0  -3  13    0.46    0.23
  -1   3 -13    0.68    0.24
   1  -3  13    0.09    0.22
   4   2 -13    1.07    0.25
  -4  -2  13    1.20    0.28
  -4  -2  13    2.09    0.31
   3   2 -13    0.02    0.19
  -3  -2  13   -0.25    0.19
  -3  -2  13    0.04    0.15
   2   2 -13    4.86    0.45
  -2  -2  13    5.96    0.40
  -2  -2  13    5.24    0.41
   1   2 -13   -0.15    0.20
  -1  -2  13    0.03    0.20
  -1  -2  13    0.18    0.17
   0   2 -13    4.63    0.42
   0  -2  13    4.24    0.39
   0  -2  13    4.26    0.35
  -1   2 -13    1.64    0.29
   4   1 -13   -0.33    0.16
  -4  -1  13    0.08    0.19
   3   1 -13    0.43    0.21
  -3  -1  13    0.12    0.17
  -3  -1  13    0.07    0.19
   2   1 -13   -0.14    0.19
  -2  -1  13   -0.36    0.13
  -2  -1  13   -0.14    0.18
   1   1 -13    0.48    0.22
  -1  -1  13    0.81    0.22
  -1  -1  13    0.45    0.22
   0   1 -13    0.27    0.21
   0  -1  13    0.02    0.17
   0  -1  13    0.17    0.21
   4   0 -13    0.20    0.16
   4   0 -13   -0.16    0.16
  -4   0  13    0.20    0.18
   3   0 -13    1.36    0.25
  -3   0  13    1.46    0.29
  -3   0  13    1.57    0.28
   2   0 -13    0.01    0.19
  -2   0  13    0.02    0.17
  -2   0  13   -0.14    0.17
   1   0 -13    0.03    0.21
  -1   0  13    0.04    0.20
  -1   0  13    0.31    0.19
   0   0 -13    3.35    0.37
   0   0  13    4.68    0.38
   4  -1 -13   -0.11    0.15
   4  -1 -13   -0.06    0.12
  -4   1  13   -0.09    0.17
   3  -1 -13    1.78    0.27
  -3   1  13    1.71    0.28
   2  -1 -13    0.94    0.24
  -2   1  13    1.60    0.28
  -2   1  13    1.41    0.26
   1  -1 -13    0.36    0.20
  -1   1  13    0.57    0.23
   0  -1 -13   -0.26    0.18
   4  -2 -13    3.32    0.29
   4  -2 -13    2.95    0.31
  -4   2  13    4.09    0.40
   3  -2 -13    0.98    0.19
   3  -2 -13    1.07    0.24
  -3   2  13    1.52    0.27
   2  -2 -13   -0.09    0.17
  -2   2  13    0.16    0.20
   1  -2 -13    0.11    0.21
  -1   2  13    0.66    0.22
   2   4 -14    1.95    0.34
   3   3 -14   -0.20    0.21
   2   3 -14    0.08    0.23
  -2  -3  14   -0.04    0.21
  -2  -3  14    0.22    0.19
   1   3 -14   -0.06    0.22
  -1  -3  14    0.49    0.25
   3   2 -14    0.37    0.23
  -3  -2  14    0.19    0.21
  -3  -2  14    0.64    0.23
   2   2 -14    0.50    0.26
  -2  -2  14   -0.25    0.17
  -2  -2  14    0.35    0.23
   1   2 -14    0.31    0.23
  -1  -2  14    0.63    0.26
  -1  -2  14    0.51    0.20
   3   1 -14    0.07    0.20
  -3  -1  14    0.07    0.21
  -3  -1  14    0.32    0.21
   2   1 -14   -0.11    0.21
  -2  -1  14    0.11    0.21
  -2  -1  14    0.27    0.21
   1   1 -14   -0.10    0.21
   2   0 -14    0.22    0.22
  -2   0  14    0.29    0.23
   0   0   0    0.00    0.00
;
_shelx_hkl_checksum              79384
#END Tags that were not found in dictionaries
loop_
_space_group_symop_operation_xyz
'x, y, z'
'-x, -y, -z'
loop_
_atom_site_label
_atom_site_type_symbol
_atom_site_fract_x
_atom_site_fract_y
_atom_site_fract_z
_atom_site_U_iso_or_equiv
_atom_site_adp_type
_atom_site_occupancy
_atom_site_site_symmetry_order
_atom_site_calc_flag
_atom_site_refinement_flags_posn
_atom_site_refinement_flags_adp
F1 F 0.38568(19) 0.78437(12) 0.38763(10) 0.0293(3) Uani 1 1 d . .
N1 N -0.0078(3) 1.16146(18) 0.91758(15) 0.0254(4) Uani 1 1 d . .
C1 C 0.1793(3) 1.1851(2) 0.87206(18) 0.0254(4) Uani 1 1 d . .
H1 H 0.3097 1.2764 0.9156 0.031 Uiso 1 1 calc R U
F2 F 0.36170(19) 0.58290(13) 0.17026(11) 0.0294(3) Uani 1 1 d . .
C2 C 0.1937(3) 1.0844(2) 0.76526(18) 0.0244(4) Uani 1 1 d . .
H2 H 0.3299 1.1069 0.7361 0.029 Uiso 1 1 calc R U
F3 F -0.38420(19) 0.27387(13) 0.16239(11) 0.0323(3) Uani 1 1 d . .
C3 C 0.0053(3) 0.9497(2) 0.70148(17) 0.0212(4) Uani 1 1 d . .
F4 F -0.36373(18) 0.47591(12) 0.37817(10) 0.0276(3) Uani 1 1 d . .
C4 C -0.1899(3) 0.9224(2) 0.74840(18) 0.0253(4) Uani 1 1 d . .
H4 H -0.3220 0.8314 0.7076 0.030 Uiso 1 1 calc R U
C5 C -0.1866(3) 1.0310(2) 0.85591(18) 0.0264(4) Uani 1 1 d . .
H5 H -0.3199 1.0114 0.8877 0.032 Uiso 1 1 calc R U
C6 C 0.0108(3) 0.8408(2) 0.59107(18) 0.0237(4) Uani 1 1 d . .
C7 C 0.0149(3) 0.7484(2) 0.49928(18) 0.0234(4) Uani 1 1 d . .
C8 C 0.0101(3) 0.6369(2) 0.38762(16) 0.0200(4) Uani 1 1 d . .
C9 C 0.1942(3) 0.6583(2) 0.33270(17) 0.0211(4) Uani 1 1 d . .
C10 C 0.1804(3) 0.5542(2) 0.22166(17) 0.0221(4) Uani 1 1 d . .
C11 C -0.0114(3) 0.4236(2) 0.16177(17) 0.0221(4) Uani 1 1 d . .
H11 H -0.0186 0.3518 0.0853 0.027 Uiso 1 1 calc R U
C12 C -0.1929(3) 0.4007(2) 0.21693(17) 0.0224(4) Uani 1 1 d . .
C13 C -0.1837(3) 0.5047(2) 0.32754(17) 0.0210(4) Uani 1 1 d . .
loop_
_atom_site_aniso_label
_atom_site_aniso_U_11
_atom_site_aniso_U_22
_atom_site_aniso_U_33
_atom_site_aniso_U_23
_atom_site_aniso_U_13
_atom_site_aniso_U_12
F1 0.0252(6) 0.0264(6) 0.0318(6) 0.0023(5) 0.0101(5) -0.0014(4)
N1 0.0313(9) 0.0243(8) 0.0239(8) 0.0062(6) 0.0113(7) 0.0104(7)
C1 0.0270(10) 0.0215(9) 0.0245(10) 0.0038(7) 0.0064(8) 0.0026(7)
F2 0.0248(6) 0.0369(6) 0.0325(6) 0.0085(5) 0.0180(5) 0.0087(5)
C2 0.0236(10) 0.0264(10) 0.0257(10) 0.0086(8) 0.0093(8) 0.0077(8)
F3 0.0266(6) 0.0294(6) 0.0320(6) -0.0009(5) 0.0083(5) -0.0051(5)
C3 0.0249(10) 0.0219(9) 0.0201(9) 0.0066(7) 0.0087(7) 0.0099(7)
F4 0.0222(6) 0.0357(6) 0.0294(6) 0.0086(5) 0.0151(5) 0.0070(5)
C4 0.0242(10) 0.0247(10) 0.0285(10) 0.0064(8) 0.0106(8) 0.0058(8)
C5 0.0268(10) 0.0291(10) 0.0290(10) 0.0084(8) 0.0154(8) 0.0092(8)
C6 0.0241(9) 0.0237(9) 0.0258(10) 0.0078(8) 0.0096(8) 0.0073(7)
C7 0.0244(10) 0.0222(9) 0.0243(9) 0.0060(7) 0.0078(8) 0.0066(7)
C8 0.0217(9) 0.0198(9) 0.0196(9) 0.0049(7) 0.0070(7) 0.0070(7)
C9 0.0188(9) 0.0181(9) 0.0243(9) 0.0043(7) 0.0048(7) 0.0034(7)
C10 0.0185(9) 0.0275(10) 0.0253(10) 0.0092(8) 0.0116(7) 0.0082(7)
C11 0.0265(10) 0.0231(9) 0.0184(9) 0.0036(7) 0.0085(7) 0.0093(7)
C12 0.0212(9) 0.0199(9) 0.0230(9) 0.0039(7) 0.0048(7) 0.0018(7)
C13 0.0184(9) 0.0268(9) 0.0225(9) 0.0087(7) 0.0100(7) 0.0086(7)
loop_
_atom_type_symbol
_atom_type_description
_atom_type_scat_dispersion_real
_atom_type_scat_dispersion_imag
_atom_type_scat_source
C C 0.0033 0.0016 'International Tables Vol C Tables 4.2.6.8 and 6.1.1.4'
H H 0.0000 0.0000 'International Tables Vol C Tables 4.2.6.8 and 6.1.1.4'
N N 0.0061 0.0033 'International Tables Vol C Tables 4.2.6.8 and 6.1.1.4'
F F 0.0171 0.0103 'International Tables Vol C Tables 4.2.6.8 and 6.1.1.4'
loop_
_geom_angle_atom_site_label_1
_geom_angle_atom_site_label_2
_geom_angle_atom_site_label_3
_geom_angle
C5 N1 C1 116.83(16)
N1 C1 C2 123.77(17)
C1 C2 C3 118.73(17)
C2 C3 C4 118.25(16)
C2 C3 C6 121.24(16)
C4 C3 C6 120.51(16)
C5 C4 C3 118.38(17)
N1 C5 C4 124.03(17)
C7 C6 C3 179.3(2)
C6 C7 C8 177.9(2)
C13 C8 C9 117.30(16)
C13 C8 C7 120.91(16)
C9 C8 C7 121.77(16)
F1 C9 C10 119.71(15)
F1 C9 C8 119.41(15)
C10 C9 C8 120.86(16)
F2 C10 C11 119.52(16)
F2 C10 C9 118.49(16)
C11 C10 C9 121.98(16)
C10 C11 C12 117.34(16)
F3 C12 C11 119.67(16)
F3 C12 C13 118.76(15)
C11 C12 C13 121.57(16)
F4 C13 C12 119.21(16)
F4 C13 C8 119.85(15)
C12 C13 C8 120.93(16)
loop_
_geom_bond_atom_site_label_1
_geom_bond_atom_site_label_2
_geom_bond_distance
F1 C9 1.3425(19)
N1 C5 1.334(2)
N1 C1 1.337(2)
C1 C2 1.383(3)
F2 C10 1.3522(19)
C2 C3 1.389(2)
F3 C12 1.345(2)
C3 C4 1.393(2)
C3 C6 1.429(3)
F4 C13 1.3400(19)
C4 C5 1.385(3)
C6 C7 1.196(3)
C7 C8 1.430(3)
C8 C13 1.387(2)
C8 C9 1.388(2)
C9 C10 1.373(2)
C10 C11 1.372(2)
C11 C12 1.377(2)
C12 C13 1.378(2)
