#------------------------------------------------------------------------------
#$Date: 2016-03-24 14:36:54 +0200 (Thu, 24 Mar 2016) $
#$Revision: 179669 $
#$URL: svn://www.crystallography.net/cod/cif/4/51/22/4512205.cif $
#------------------------------------------------------------------------------
#
# This file is available in the Crystallography Open Database (COD),
# http://www.crystallography.net/
#
# All data on this site have been placed in the public domain by the
# contributors.
#
data_4512205
loop_
_publ_author_name
'Gajda, Katarzyna'
'Daszkiewicz, Zdzis\/law'
'Kozubek, Ewelina'
'Ejsmont, Krzysztof'
'Zarychta, Bartosz'
_publ_section_title
;
 Theoretical Multipolar Atom Model Transfer in Nitro-Derivatives
 ofN-Methylaniline
;
_journal_issue                   11
_journal_name_full               'Crystal Growth &amp; Design'
_journal_page_first              5737
_journal_paper_doi               10.1021/cg500984p
_journal_volume                  14
_journal_year                    2014
_chemical_formula_moiety         'C7 H8 N2 O2'
_chemical_formula_sum            'C7 H8 N2 O2'
_chemical_formula_weight         152.15
_chemical_name_common            N-methyl-N-3-nitrophenylaniline
_chemical_name_systematic
;
 ?
;
_space_group_crystal_system      monoclinic
_space_group_IT_number           14
_space_group_name_Hall           '-P 2yn'
_space_group_name_H-M_alt        'P 1 21/n 1'
_symmetry_space_group_name_Hall  '-P 2yn'
_symmetry_space_group_name_H-M   'P 1 21/n 1'
_atom_sites_solution_hydrogens   mixed
_audit_creation_method           SHELXL-2013
_cell_angle_alpha                90
_cell_angle_beta                 103.304(8)
_cell_angle_gamma                90
_cell_formula_units_Z            4
_cell_length_a                   9.9223(8)
_cell_length_b                   6.8557(5)
_cell_length_c                   10.7606(9)
_cell_measurement_reflns_used    4614
_cell_measurement_temperature    150.0(1)
_cell_measurement_theta_max      25.998
_cell_measurement_theta_min      3.182
_cell_volume                     712.34(10)
_computing_cell_refinement       'CrysAlis RED (Oxford Diffraction, 2007)'
_computing_data_collection       'CrysAlis CCD (Oxford Diffraction, 2007)'
_computing_data_reduction        'CrysAlis RED (Oxford Diffraction, 2007)'
_computing_molecular_graphics    'SHELXTL (Sheldrick, 2008)'
_computing_structure_refinement  'SHELXL-2013 (Sheldrick, 2013)'
_computing_structure_solution    'SHELXS-2013 (Sheldrick, 2013)'
_diffrn_ambient_temperature      150.0(1)
_diffrn_detector_area_resol_mean 10.4508
_diffrn_measured_fraction_theta_full 0.999
_diffrn_measured_fraction_theta_max 0.999
_diffrn_measurement_device       '4-circle kappa geometry goniometer'
_diffrn_measurement_device_type  'Oxford Diffraction Xcalibur System'
_diffrn_measurement_method       \w--scan
_diffrn_radiation_monochromator  graphite
_diffrn_radiation_source         'Enhance (Mo) X-ray Source'
_diffrn_radiation_type           MoK\a
_diffrn_radiation_wavelength     0.71073
_diffrn_reflns_av_R_equivalents  0.0290
_diffrn_reflns_av_unetI/netI     0.0356
_diffrn_reflns_Laue_measured_fraction_full 0.999
_diffrn_reflns_Laue_measured_fraction_max 0.999
_diffrn_reflns_limit_h_max       12
_diffrn_reflns_limit_h_min       -11
_diffrn_reflns_limit_k_max       8
_diffrn_reflns_limit_k_min       -8
_diffrn_reflns_limit_l_max       11
_diffrn_reflns_limit_l_min       -13
_diffrn_reflns_number            4614
_diffrn_reflns_point_group_measured_fraction_full 0.999
_diffrn_reflns_point_group_measured_fraction_max 0.999
_diffrn_reflns_theta_full        25.242
_diffrn_reflns_theta_max         25.998
_diffrn_reflns_theta_min         3.182
_exptl_absorpt_coefficient_mu    0.107
_exptl_absorpt_correction_type   none
_exptl_crystal_colour            yellow
_exptl_crystal_density_diffrn    1.419
_exptl_crystal_density_method    'not measured'
_exptl_crystal_description       plate
_exptl_crystal_F_000             320
_exptl_crystal_size_max          0.37
_exptl_crystal_size_mid          0.3
_exptl_crystal_size_min          0.06
_refine_diff_density_max         0.135
_refine_diff_density_min         -0.194
_refine_diff_density_rms         0.036
_refine_ls_extinction_method     none
_refine_ls_goodness_of_fit_ref   0.857
_refine_ls_hydrogen_treatment    mixed
_refine_ls_matrix_type           full
_refine_ls_number_parameters     104
_refine_ls_number_reflns         1400
_refine_ls_number_restraints     0
_refine_ls_restrained_S_all      0.857
_refine_ls_R_factor_all          0.0609
_refine_ls_R_factor_gt           0.0325
_refine_ls_shift/su_max          0.000
_refine_ls_shift/su_mean         0.000
_refine_ls_structure_factor_coef Fsqd
_refine_ls_weighting_details
'w=1/[\s^2^(Fo^2^)+(0.0464P)^2^] where P=(Fo^2^+2Fc^2^)/3'
_refine_ls_weighting_scheme      calc
_refine_ls_wR_factor_gt          0.0723
_refine_ls_wR_factor_ref         0.0788
_reflns_Friedel_coverage         0.000
_reflns_number_gt                884
_reflns_number_total             1400
_reflns_threshold_expression     'I > 2\s(I)'
_cod_data_source_file            cg500984p_si_004.cif
_cod_data_source_block           1
_cod_depositor_comments
'Adding full bibliography for 4512203--4512205.cif.'
_cod_database_code               4512205
#BEGIN Tags that were not found in dictionaries:
_shelx_space_group_comment
;
The symmetry employed for this shelxl refinement is uniquely defined
by the following loop, which should always be used as a source of
symmetry information in preference to the above space-group names.
They are only intended as comments.
;
_shelxl_version_number           2013-4
_shelx_res_file
;
TITL 1 in P2(1)/n
CELL 0.71073   9.9223   6.8557  10.7606  90.000 103.304  90.000
ZERR    4.00   0.0008   0.0005   0.0009   0.000   0.008   0.000
LATT  1
SYMM 0.5-X, 0.5+Y, 0.5-Z
SFAC C H N O
UNIT 28 32 8 8

L.S. 10

BOND $H
OMIT -3 52
CONF

ACTA
HTAB
EQIV $1 x+1/2, -y+1/2, z-1/2
HTAB N1 O1_$1
EQIV $2 -x+1, -y+1, -z
HTAB C3 O1_$2
EQIV $3 x+1/2, -y-1/2, z-1/2
HTAB C7 O2_$3
EQIV $4 -x+3/2, y-1/2, -z+1/2
HTAB C7 O2_$4
FMAP 2
PLAN 20
WGHT    0.046400
FVAR       0.32291
O1    4    0.490382    0.425268    0.188582    11.00000    0.05755    0.04948 =
         0.04603    0.00034    0.02031    0.02060
O2    4    0.484079    0.145689    0.279664    11.00000    0.04906    0.05917 =
         0.03958   -0.00226    0.02601   -0.00744
N1    3    0.850728   -0.056116   -0.105245    11.00000    0.03680    0.03128 =
         0.03673    0.00150    0.01822   -0.00014
REM AFIX  43
H1    2    0.879054    0.020862   -0.154239    11.00000   -1.20000
REM AFIX 0
N2    3    0.524362    0.250555    0.202234    11.00000    0.03194    0.04505 =
         0.03023   -0.00316    0.00923    0.00298
C1    1    0.773530    0.016041   -0.028188    11.00000    0.02425    0.03052 =
         0.02757   -0.00091    0.00645   -0.00314
C2    1    0.738645    0.215738   -0.034106    11.00000    0.03656    0.02944 =
         0.03358    0.00368    0.01478   -0.00431
AFIX  43
H2    2    0.770810    0.296573   -0.090401    11.00000   -1.20000
AFIX   0
C3    1    0.658884    0.292347    0.040919    11.00000    0.03593    0.02666 =
         0.03436    0.00075    0.00848    0.00056
AFIX  43
H3    2    0.635745    0.424021    0.035154    11.00000   -1.20000
AFIX   0
C4    1    0.612042    0.171966    0.126574    11.00000    0.02457    0.03402 =
         0.02627   -0.00202    0.00682    0.00048
C5    1    0.645063   -0.024654    0.135309    11.00000    0.02924    0.03513 =
         0.02623    0.00411    0.00907   -0.00346
AFIX  43
H5    2    0.613191   -0.103837    0.192628    11.00000   -1.20000
AFIX   0
C6    1    0.724673   -0.101884    0.059369    11.00000    0.03032    0.02638 =
         0.03149    0.00170    0.00799   -0.00015
AFIX  43
H6    2    0.746864   -0.233868    0.065562    11.00000   -1.20000
AFIX   0
C7    1    0.887758   -0.259025   -0.110393    11.00000    0.04371    0.03913 =
         0.04241   -0.00417    0.01606    0.00667
AFIX 137
H7A   2    0.944288   -0.275512   -0.171032    11.00000   -1.50000
H7B   2    0.805222   -0.336048   -0.136010    11.00000   -1.50000
H7C   2    0.938398   -0.300497   -0.027564    11.00000   -1.50000

AFIX   0
HKLF 4

REM  1 in P2(1)/n
REM R1 =  0.0325 for     884 Fo > 4sig(Fo)  and  0.0609 for all    1400 data
REM    104 parameters refined using      0 restraints

END

WGHT      0.0460      0.0000

REM Instructions for potential hydrogen bonds
HTAB N1 O1_$1
HTAB C3 O1_$2
HTAB C7 O2_$3
HTAB C7 O2_$4

REM Highest difference peak  0.135,  deepest hole -0.194,  1-sigma level  0.036
Q1    1   0.7569 -0.0340  0.0241  11.00000  0.05    0.13
Q2    1   0.6725  0.2474  0.1214  11.00000  0.05    0.12
Q3    1   0.5070  0.4674  0.0937  11.00000  0.05    0.12
Q4    1   0.5859  0.0861  0.1029  11.00000  0.05    0.11
Q5    1   0.6433 -0.0577  0.0546  11.00000  0.05    0.11
Q6    1   0.6032  0.2221  0.0559  11.00000  0.05    0.11
Q7    1   0.7422  0.2331 -0.0689  11.00000  0.05    0.09
Q8    1   1.0000  0.0000  0.0000  10.50000  0.05    0.09
Q9    1   0.3654  0.1300  0.2548  11.00000  0.05    0.09
Q10   1   0.7769 -0.0269 -0.0861  11.00000  0.05    0.09
Q11   1   0.7209 -0.3455  0.0461  11.00000  0.05    0.09
Q12   1   0.6136  0.2551 -0.1313  11.00000  0.05    0.09
Q13   1   0.3864  0.1254  0.1294  11.00000  0.05    0.09
Q14   1   0.6591  0.2357 -0.0247  11.00000  0.05    0.09
Q15   1   0.5615 -0.1517  0.1511  11.00000  0.05    0.08
Q16   1   0.7498  0.2535  0.0519  11.00000  0.05    0.08
Q17   1   0.7430 -0.0431 -0.2178  11.00000  0.05    0.08
Q18   1   0.5826  0.1826  0.3767  11.00000  0.05    0.08
Q19   1   0.7227 -0.0460  0.1269  11.00000  0.05    0.08
Q20   1   0.6824  0.4969  0.2030  11.00000  0.05    0.08
;
_shelx_res_checksum              5113
_shelx_hkl_file
;
   0   0  -2   15.46    0.26
   0   0  -2   16.19    0.39
   0   0  -2   16.34    0.37
   0   0  -3    0.05    0.28
   0   0  -3   -0.01    0.18
   0   0  -4    5.69    0.27
   0   0  -4    5.62    0.39
   0   0  -5    0.12    0.35
   0   0  -5   -0.04    0.22
   0   0  -6    0.41    0.41
   0   0  -6    0.06    0.24
   0   0  -7    0.13    0.48
   0   0  -7   -0.02    0.26
   0   0  -8    0.65    0.56
   0   0  -9    0.24    0.64
   0   0 -10    1.74    0.66
   0   0 -11    0.06    0.65
   0   0 -12   39.52    1.53
   0   0 -13    0.00    0.80
   0   1   0    0.03    0.13
   0  -1   0    0.02    0.13
   0   1  -1  317.12    1.17
   0   1  -1  318.18    1.37
   0  -1  -1  321.96    1.16
   0  -1  -1  318.94    1.29
   0  -1  -2  204.05    1.21
   0  -1  -2  201.31    1.24
   0   1  -2  201.11    1.21
   0   1  -2  201.61    1.26
   0   1  -3   23.17    0.56
   0  -1  -3   23.27    0.57
   0   1  -3   23.88    0.54
   0  -1  -3   22.69    0.59
   0   1  -4   25.44    0.59
   0   1  -4   25.41    0.66
   0  -1  -4   24.00    0.64
   0  -1  -4   25.33    0.66
   0  -1  -5  119.42    1.48
   0   1  -5  124.91    1.28
   0  -1  -5  124.64    1.49
   0   1  -5  121.39    1.48
   0  -1  -6   21.74    0.81
   0   1  -6   23.01    0.64
   0   1  -6   22.47    0.79
   0  -1  -6   23.54    0.80
   0  -1  -6   19.83    0.33
   0   1  -7   25.78    0.93
   0   1  -7   27.02    0.75
   0  -1  -7   26.80    0.92
   0  -1  -7   24.76    0.93
   0   1  -8    1.56    0.60
   0  -1  -8    1.69    0.60
   0   1  -8    1.49    0.44
   0  -1  -9    0.17    0.60
   0   1  -9    0.00    0.57
   0  -1 -10    0.01    0.64
   0   1 -10    0.20    0.62
   0  -1 -11    4.17    0.77
   0   1 -11    4.56    0.79
   0   1 -12    5.86    0.82
   0  -1 -12    6.23    0.89
   0  -1 -13    0.83    0.78
   0   1 -13    0.69    0.79
   0  -2   0   41.57    0.72
   0   2   0   40.41    0.69
   0  -2   1    0.42    0.39
   0   2   1    0.44    0.29
   0   2  -1    0.42    0.34
   0  -2  -1    0.27    0.34
   0   2  -2    0.18    0.33
   0   2  -2    0.20    0.24
   0   2   2    0.08    0.20
   0  -2  -2    0.00    0.26
   0  -2  -2    0.19    0.31
   0   2  -3   30.64    0.64
   0  -2  -3   30.72    0.65
   0  -2  -3   29.93    0.69
   0   2  -3   30.40    0.73
   0   2  -4   16.90    0.64
   0  -2  -4   17.48    0.60
   0   2  -4   17.37    0.59
   0  -2  -4   17.12    0.63
   0  -2  -5   11.11    0.64
   0  -2  -5   11.45    0.59
   0   2  -5   11.66    0.58
   0   2  -5   11.63    0.57
   0  -2  -6    3.54    0.54
   0   2  -6    3.67    0.49
   0   2  -6    3.38    0.49
   0  -2  -6    3.45    0.55
   0  -2  -7   75.00    1.49
   0  -2  -7   76.42    1.49
   0   2  -7   79.50    1.35
   0   2  -7   75.42    1.44
   0   2  -8    0.87    0.57
   0  -2  -8    1.70    0.69
   0  -2  -8    1.12    0.58
   0   2  -8    1.25    0.53
   0   2  -9   -0.09    0.57
   0   2  -9   -0.11    0.45
   0  -2  -9    0.35    0.59
   0  -2  -9    0.28    0.64
   0  -2 -10   -0.30    0.62
   0  -2 -10    0.24    0.69
   0   2 -10    0.21    0.63
   0   2 -11    1.58    0.74
   0  -2 -11    1.75    0.72
   0   2 -12    2.77    0.79
   0  -2 -12    4.40    0.81
   0   2 -13   -0.24    0.78
   0  -2 -13   -0.26    0.78
   0  -3   0    0.03    0.40
   0   3   0    0.04    0.35
   0   3   1   45.31    0.80
   0   3  -1   44.75    0.88
   0  -3  -1   46.79    0.90
   0  -3   1   47.85    0.94
   0   3  -2   13.17    0.61
   0  -3   2   13.64    0.63
   0  -3  -2   13.19    0.47
   0   3   2   12.92    0.46
   0  -3  -2   13.16    0.59
   0   3  -3    0.72    0.32
   0   3   3    0.68    0.26
   0   3  -3    1.11    0.46
   0  -3  -3    0.79    0.34
   0  -3  -3    0.87    0.42
   0  -3  -4    0.37    0.43
   0  -3  -4    0.93    0.36
   0   3  -4    0.78    0.34
   0   3   4    0.45    0.20
   0   3  -4    0.71    0.48
   0   3  -5    4.74    0.60
   0   3  -5    5.34    0.48
   0  -3  -5    4.95    0.50
   0  -3  -5    4.32    0.55
   0   3  -6    5.14    0.54
   0  -3  -6    5.39    0.59
   0  -3  -6    4.97    0.64
   0   3  -6    5.33    0.62
   0   3  -7    0.97    0.55
   0  -3  -7   -0.10    0.59
   0  -3  -7    0.29    0.52
   0   3  -7    0.99    0.56
   0  -3  -8    0.59    0.59
   0   3  -8    0.60    0.56
   0  -3  -8    0.37    0.60
   0   3  -8    0.41    0.53
   0   3  -9    2.17    0.62
   0  -3  -9    2.65    0.72
   0   3  -9    2.61    0.63
   0  -3  -9    2.50    0.63
   0   3 -10    1.80    0.59
   0   3 -10    2.31    0.67
   0  -3 -10    2.67    0.75
   0  -3 -10    2.07    0.65
   0   3 -11    0.49    0.71
   0  -3 -11    0.81    0.60
   0  -3 -11    1.27    0.74
   0  -3 -12    3.22    0.82
   0   3 -12    2.08    0.75
   0  -3 -13    0.08    0.78
   0   3 -13   -0.06    0.75
   0   4   0   53.36    1.05
   0  -4   0   54.41    1.13
   0  -4   1   31.64    0.95
   0   4   1   31.55    0.83
   0   4  -1   29.63    0.89
   0  -4  -1   31.28    0.92
   0   4   2   24.28    0.70
   0  -4  -2   24.72    0.68
   0  -4  -2   23.13    0.85
   0   4  -2   26.38    0.88
   0  -4   2   25.76    0.93
   0  -4  -3   17.98    0.78
   0   4   3   16.40    0.57
   0  -4   3   18.11    0.87
   0   4  -3   17.51    0.83
   0  -4  -3   17.19    0.65
   0  -4  -4    1.24    0.57
   0   4  -4    1.60    0.41
   0   4  -4    1.36    0.64
   0  -4  -4    1.42    0.45
   0   4  -5    8.58    0.75
   0  -4  -5    7.75    0.71
   0   4  -5    9.09    0.61
   0  -4  -5    8.23    0.61
   0  -4  -6    3.89    0.68
   0  -4  -6    4.80    0.63
   0   4  -6    5.16    0.71
   0   4  -6    4.59    0.59
   0   4  -7    0.04    0.56
   0   4  -7    0.18    0.51
   0  -4  -7   -0.05    0.54
   0  -4  -7   -0.16    0.61
   0   4  -8    1.78    0.63
   0   4  -8    1.66    0.58
   0  -4  -8    2.14    0.62
   0  -4  -8    2.76    0.73
   0  -4  -9    0.14    0.70
   0   4  -9    0.06    0.59
   0  -4  -9   -0.03    0.58
   0   4  -9    0.51    0.59
   0   4 -10    0.53    0.60
   0   4 -10    0.52    0.63
   0  -4 -10    0.41    0.75
   0  -4 -10   -0.09    0.64
   0  -4 -11    0.58    0.68
   0   4 -11   -0.08    0.66
   0  -4 -11   -0.25    0.79
   0   4 -11    0.46    0.60
   0  -4 -12    1.96    0.80
   0   4 -12    1.55    0.76
   0  -4 -12    1.87    0.95
   0   5   0    0.06    0.54
   0  -5   0    0.40    0.61
   0  -5   1    0.82    0.72
   0   5  -1    0.91    0.59
   0  -5  -1    1.20    0.62
   0   5   1    1.05    0.53
   0  -5  -2   12.15    0.81
   0  -5   2   13.91    0.94
   0  -5  -2   11.80    0.61
   0   5  -2   13.72    0.86
   0   5   2   12.19    0.67
   0   5   3    4.58    0.53
   0  -5   3    5.83    0.86
   0   5  -3    5.21    0.77
   0  -5  -3    4.89    0.70
   0  -5  -3    4.97    0.54
   0  -5   4   11.63    1.02
   0   5  -4   11.09    0.91
   0  -5  -4    9.67    0.67
   0  -5  -4   10.18    0.84
   0  -5  -5    5.06    0.70
   0   5  -5    6.37    0.80
   0  -5  -5    5.41    0.58
   0   5  -6    5.87    0.62
   0  -5  -6    5.94    0.66
   0   5  -6    7.42    0.84
   0  -5  -6    5.86    0.76
   0   5  -7    7.83    0.72
   0  -5  -7    7.10    0.71
   0  -5  -7    6.56    0.84
   0   5  -7    8.02    0.83
   0  -5  -8   19.11    1.13
   0   5  -8   20.36    1.01
   0  -5  -8   19.69    1.01
   0   5  -8   23.21    1.14
   0   5  -9    1.52    0.61
   0  -5  -9    1.38    0.66
   0  -5  -9    1.07    0.78
   0   5  -9    1.79    0.68
   0   5 -10    1.02    0.66
   0  -5 -10    0.65    0.52
   0   5 -10   -0.06    0.69
   0  -5 -10    1.26    0.78
   0  -5 -11    0.31    0.72
   0   5 -11    0.20    0.72
   0  -5 -11   -0.02    0.82
   0   5 -11   -0.39    0.71
   0  -5 -12    0.99    0.68
   0  -6   0    6.47    0.85
   0   6   0    5.89    0.75
   0   6  -1    3.95    0.71
   0  -6  -1    3.36    0.79
   0  -6   1    4.57    0.77
   0   6   1    2.95    0.64
   0  -6   2    0.17    0.77
   0   6   2   -0.24    0.52
   0  -6  -2    0.00    0.67
   0   6  -2    0.52    0.64
   0  -6  -3    0.16    0.63
   0   6  -3   -0.06    0.69
   0  -6   3   -0.27    0.80
   0  -6  -4   -0.16    0.64
   0  -6   4    0.86    0.78
   0   6  -4    0.13    0.70
   0  -6  -5    2.76    0.74
   0  -6   5    3.23    0.92
   0   6  -5    2.90    0.78
   0  -6  -6    0.56    0.69
   0   6  -6    0.39    0.77
   0  -6   6    1.28    0.90
   0  -6   7    8.47    1.05
   0  -6  -7    6.02    0.86
   0   6  -7    8.76    0.98
   0  -6  -8    6.89    0.94
   0   6  -8    6.80    0.92
   0  -6  -9    4.81    0.97
   0   6  -9    5.16    0.88
   0  -6 -10    2.31    0.89
   0   6 -10    2.53    0.85
   0   6 -11    1.79    0.94
   0  -7   0    0.02    0.74
   0   7   0    0.67    0.65
   0  -7   1    0.96    0.79
   0  -7  -1    0.74    0.74
   0   7   1    1.09    0.58
   0   7  -1    0.91    0.67
   0  -7  -2    0.30    0.65
   0  -7   2    0.33    0.79
   0   7  -2    0.19    0.67
   0  -7  -3    0.31    0.70
   0   7  -3    0.46    0.75
   0  -7   3   -0.14    0.83
   0  -7  -4    4.17    0.79
   0  -7   4    5.23    0.97
   0   7  -4    5.13    0.85
   0  -7   5    0.27    0.89
   0   7  -5    0.67    0.72
   0  -7  -5    0.46    0.71
   0  -7   6   -0.24    0.94
   0  -7  -6   -0.19    0.73
   0   7  -6    0.07    0.72
   0  -7   7    0.83    0.91
   0  -7  -7    1.12    0.72
   0   7  -7    1.80    0.78
   0   7  -8   -0.08    0.87
   0  -7  -8   -0.64    0.74
   0  -7   8   -0.75    0.98
   0  -7  -9    0.84    0.84
   0  -8   0   -0.28    0.85
   0   8   0    0.09    0.61
   0   8  -1    2.68    0.79
   0  -8  -1    2.16    0.86
   0  -8   1    3.48    0.91
   0  -8   2    0.44    0.81
   0   8  -2    0.37    0.68
   0  -8  -2    0.20    0.76
   0   8  -3    2.73    0.84
   0  -8   3    3.48    0.91
   0  -8  -3    1.69    0.77
   0  -8   4    0.66    0.91
   0  -8  -4    1.65    0.77
   0   8  -4    1.68    0.81
   0  -8   5    4.40    1.10
   0   8  -5    3.66    0.94
   0  -8  -5    1.64    0.83
   0  -8  -6   -0.02    0.78
   0   8  -6    0.34    0.96
   0  -8   6    0.92    1.05
   0  -8  -7    0.16    0.79
   0  -9   0    0.46    0.83
   0   9  -1    0.05    0.82
   0  -9  -1    0.75    0.79
   0  -9   1    0.52    0.89
   0   9  -2    0.24    0.78
   0  -9  -2    0.43    0.84
   0  -9   2    0.08    0.91
   0  -9  -3    2.46    0.85
   0  -9  -4    0.46    0.92
   1   0 -14    0.16    0.74
   1   0 -13   33.32    1.50
   1   0 -12   -0.34    0.69
   1   0 -11   11.77    0.97
   1   0 -10   -0.11    0.62
   1   0  -9   16.48    0.93
   1   0  -8   -0.19    0.56
   1   0  -8   -0.10    0.30
   1   0  -7    4.51    0.54
   1   0  -7    4.77    0.36
   1   0  -6    0.09    0.39
   1   0  -6    0.04    0.24
   1   0  -5   34.72    0.83
   1   0  -5   33.92    0.61
   1   0  -5   34.77    0.82
   1   0  -4    0.00    0.29
   1   0  -4    0.01    0.18
   1   0  -4    0.00    0.33
   1   0  -3   79.51    0.89
   1   0  -3   76.21    0.88
   1   0  -3   76.43    0.72
   1   0  -2    0.26    0.22
   1   0  -2    0.12    0.17
   1   0  -2    0.05    0.18
   1   0  -2    0.09    0.20
  -1   0  -1   28.70    0.39
   1   0   1   28.53    0.39
  -1   0  -2    0.07    0.29
  -1   0  -3   33.98    0.68
  -1   0  -3   34.31    0.49
  -1   0  -4   -0.06    0.20
  -1   0  -4    0.05    0.33
  -1   0  -5   64.03    1.14
  -1   0  -5   64.64    0.74
  -1   0  -6    0.07    0.40
  -1   0  -6    0.04    0.23
  -1   0  -7    0.19    0.49
  -1   0  -7   -0.01    0.27
  -1   0  -8   -0.08    0.56
  -1   0  -9    9.06    0.81
  -1   0 -10   -0.11    0.60
  -1   0 -11    6.53    0.84
  -1   0 -12    0.33    0.77
  -1   0 -13    2.72    0.89
   1  -1 -13    0.50    0.69
   1   1 -13   -0.12    0.71
   1   1 -12   15.71    1.09
   1  -1 -12   15.76    1.09
   1  -1 -11   13.57    0.99
   1   1 -11   15.27    1.00
   1  -1 -10    9.80    0.86
   1   1 -10    9.76    0.85
   1   1  -9    0.05    0.40
   1   1  -9    0.37    0.60
   1  -1  -9    0.17    0.59
   1  -1  -8    6.87    0.67
   1   1  -8    7.23    0.52
   1   1  -8    6.41    0.70
   1  -1  -8    6.47    0.73
   1   1  -7    7.61    0.50
   1  -1  -7    7.46    0.59
   1  -1  -7    6.37    0.31
   1  -1  -7    7.17    0.66
   1   1  -7    7.93    0.65
   1  -1  -6   23.01    0.45
   1   1  -6   24.16    0.68
   1   1  -6   24.51    0.79
   1  -1  -6   24.25    0.81
   1  -1  -6   24.50    0.78
   1  -1  -5    7.37    0.52
   1   1  -5    7.26    0.44
   1  -1  -5    7.40    0.27
   1   1  -5    7.53    0.50
   1  -1  -5    7.91    0.49
   1  -1  -4   14.70    0.50
   1   1  -4   14.62    0.53
   1  -1  -4   15.83    0.33
   1  -1  -4   15.01    0.57
   1   1  -4   15.56    0.51
   1  -1  -3  308.78    1.79
   1   1  -3  305.36    1.75
   1  -1  -3  309.62    1.65
   1  -1  -3  303.70    1.24
   1   1  -3  302.49    1.79
   1   1  -2   -0.05    0.31
   1  -1  -2    0.26    0.31
   1  -1  -2   -0.12    0.30
   1   1  -2    0.12    0.29
   1  -1  -2    0.19    0.22
   1   1  -1  120.54    0.63
   1   1  -1  119.31    0.88
   1  -1  -1  116.85    0.87
   1  -1  -1  118.34    0.87
   1  -1   0    2.44    0.19
   1   1   0    2.41    0.18
   1  -1   0    2.33    0.25
  -1  -1   0    2.21    0.17
  -1   1  -1  383.21    1.23
   1  -1   1  385.39    1.29
   1   1   1  382.59    1.09
  -1  -1  -1  382.35    1.33
  -1   1  -2   14.89    0.40
  -1  -1  -2   15.46    0.43
  -1  -1  -2   16.20    0.50
   1  -1   2   15.61    0.35
  -1  -1  -3   18.89    0.56
  -1  -1  -3   18.51    0.52
  -1   1  -3   18.97    0.52
   1  -1   3   20.03    0.41
  -1   1  -3   19.81    0.54
  -1   1  -4   18.64    0.58
   1  -1   4   19.18    0.47
  -1   1  -4   19.10    0.56
  -1  -1  -4   19.44    0.64
  -1  -1  -4   17.87    0.60
  -1  -1  -5   51.60    1.00
  -1   1  -5   52.24    1.00
  -1  -1  -5   53.78    1.08
   1  -1   5   52.52    0.78
  -1   1  -5   54.59    0.91
  -1   1  -6    0.63    0.35
  -1   1  -6    0.84    0.45
   1  -1   6    0.41    0.35
  -1  -1  -6    0.52    0.46
  -1  -1  -6    0.65    0.46
  -1   1  -7   17.97    0.65
  -1  -1  -7   18.31    0.87
  -1   1  -7   16.65    0.82
   1  -1   7   16.20    0.62
  -1   1  -8   11.76    0.82
  -1   1  -8   11.50    0.59
  -1  -1  -8   11.24    0.81
  -1  -1  -9    3.31    0.67
  -1   1  -9    2.52    0.67
  -1  -1 -10    0.01    0.61
  -1   1 -10    0.10    0.65
  -1  -1 -11    0.12    0.69
  -1   1 -11   -0.21    0.67
  -1  -1 -12    2.88    0.81
  -1   1 -12    3.52    0.88
  -1  -1 -13    6.59    1.03
  -1   1 -13    7.17    1.05
   1   2 -13   -0.24    0.73
   1  -2 -13    0.04    0.81
   1   2 -12    0.00    0.72
   1  -2 -12    0.25    0.70
   1   2 -11    1.00    0.69
   1  -2 -11    0.67    0.62
   1  -2 -10    0.55    0.58
   1   2 -10    0.64    0.61
   1  -2 -10    0.55    0.71
   1   2 -10    0.27    0.47
   1   2  -9   -0.13    0.46
   1  -2  -9    0.23    0.60
   1  -2  -9    0.16    0.55
   1   2  -9   -0.10    0.58
   1   2  -8    0.50    0.50
   1  -2  -8   -0.01    0.67
   1   2  -8    0.57    0.60
   1  -2  -8    0.46    0.53
   1  -2  -7    0.09    0.46
   1   2  -7    0.15    0.50
   1  -2  -7    0.18    0.55
   1   2  -7   -0.01    0.48
   1  -2  -6  105.31    1.48
   1  -2  -6  106.65    1.60
   1   2  -6  107.87    1.56
   1   2  -6  111.51    1.51
   1   2  -5   12.00    0.60
   1  -2  -5   12.34    0.65
   1  -2  -5   12.44    0.57
   1   2  -5   13.02    0.60
   1  -2  -4   30.24    0.69
   1   2  -4   31.54    0.75
   1   2  -4   31.22    0.78
   1  -2  -4   29.89    0.78
   1   2  -3   15.11    0.56
   1  -2  -3   15.60    0.46
   1   2  -3   14.71    0.52
   1  -2  -3   14.86    0.54
   1  -2  -2   17.19    0.55
   1   2  -2   18.65    0.55
   1   2  -2   18.14    0.51
   1  -2  -2   18.67    0.39
   1   2  -1    0.23    0.29
   1  -2  -1    0.08    0.16
   1  -2  -1    0.08    0.33
  -1  -2   1    0.17    0.33
   1  -2  -1    0.17    0.29
  -1  -2   0   38.31    0.62
   1   2   0   37.02    0.63
   1  -2   0   38.07    0.75
   1  -2   0   39.18    0.60
  -1   2  -1    1.35    0.19
   1   2   1    1.27    0.24
  -1  -2  -1    1.09    0.31
   1  -2   1    1.35    0.24
   1  -2   1    1.73    0.40
   1   2   2   84.58    0.68
   1  -2   2   89.20    0.72
  -1   2  -2   88.70    0.85
  -1  -2  -2   90.86    0.99
  -1  -2  -2   88.50    1.05
   1  -2   3    6.98    0.26
  -1  -2  -3    6.49    0.46
  -1  -2  -3    6.16    0.42
  -1   2  -3    6.66    0.37
  -1   2  -3    7.64    0.49
   1  -2   4   30.48    0.45
  -1  -2  -4   29.88    0.77
  -1   2  -4   29.97    0.73
  -1   2  -4   31.81    0.83
  -1  -2  -4   29.83    0.79
  -1  -2  -5    1.39    0.46
  -1  -2  -5    1.99    0.45
   1  -2   5    1.88    0.24
  -1   2  -5    2.00    0.42
  -1   2  -5    1.95    0.45
  -1  -2  -6    8.11    0.65
  -1  -2  -6    9.31    0.68
  -1   2  -6    8.87    0.60
  -1   2  -6    9.66    0.62
  -1  -2  -7    6.93    0.73
  -1  -2  -7    6.51    0.71
  -1   2  -7    6.76    0.61
  -1   2  -7    6.14    0.67
  -1  -2  -8   13.72    0.92
  -1   2  -8   14.33    0.77
  -1  -2  -8   13.53    0.89
  -1   2  -8   14.33    0.88
  -1   2  -9    0.25    0.46
  -1   2  -9   -0.11    0.57
  -1  -2  -9    0.35    0.66
  -1  -2  -9    0.01    0.64
  -1   2 -10    0.40    0.59
  -1  -2 -10    0.33    0.65
  -1   2 -11    1.02    0.69
  -1  -2 -11    1.01    0.75
  -1  -2 -12    0.55    0.75
  -1   2 -12   -0.51    0.71
  -1   2 -13    3.34    0.88
  -1  -2 -13    3.13    0.93
   1   3 -13    0.49    0.77
   1  -3 -13   -0.78    0.78
   1   3 -12    0.07    0.73
   1  -3 -12    0.08    0.87
   1  -3 -12   -0.40    0.67
   1  -3 -11    3.05    0.69
   1   3 -11    2.07    0.71
   1  -3 -11    2.64    0.80
   1   3 -10    3.00    0.63
   1   3 -10    2.95    0.69
   1  -3 -10    3.76    0.70
   1  -3 -10    2.65    0.73
   1   3  -9    2.84    0.62
   1   3  -9    3.36    0.65
   1  -3  -9    3.12    0.61
   1  -3  -9    3.08    0.70
   1   3  -8    0.59    0.54
   1   3  -8    0.41    0.51
   1  -3  -8    0.07    0.64
   1  -3  -8    0.02    0.50
   1   3  -7    0.90    0.59
   1   3  -7    1.19    0.55
   1  -3  -7    1.00    0.65
   1  -3  -7    1.46    0.53
   1   3  -6    5.60    0.59
   1   3  -6    5.83    0.61
   1  -3  -6    5.78    0.67
   1  -3  -6    6.06    0.61
   1   3  -5    3.33    0.53
   1  -3  -5    3.62    0.45
   1   3  -5    3.40    0.47
   1  -3  -5    2.98    0.53
   1  -3  -4    2.25    0.46
   1   3  -4    2.70    0.45
   1   3  -4    2.22    0.44
   1  -3  -4    2.39    0.37
   1   3  -3    0.86    0.43
   1  -3  -3    0.84    0.28
   1  -3  -3    0.87    0.44
   1   3  -3    0.94    0.36
  -1  -3   2    0.89    0.44
   1  -3  -2    0.92    0.26
   1   3  -2    1.07    0.39
   1  -3  -2    0.85    0.44
   1   3  -1  123.97    1.37
   1  -3  -1  128.91    1.44
  -1  -3   1  127.36    1.37
   1  -3   0   98.11    1.30
   1   3   0   92.11    1.13
  -1  -3   0   94.21    1.15
   1  -3   1   51.04    1.00
   1  -3   1   48.25    0.72
   1   3   1   50.27    0.79
  -1   3  -1   53.37    1.03
  -1  -3  -1   48.41    0.87
   1  -3   2   59.63    0.72
  -1  -3  -2   59.78    0.98
  -1   3  -2   60.57    0.79
   1   3   2   58.28    0.76
  -1   3  -2   61.55    1.13
   1  -3   2   60.27    1.10
  -1  -3  -2   60.17    0.98
  -1   3  -3   11.56    0.46
  -1  -3  -3   10.78    0.56
   1  -3   3   11.75    0.33
  -1   3  -3   12.09    0.65
   1   3   3   11.10    0.34
  -1  -3  -3   11.11    0.57
  -1  -3  -4   -0.09    0.43
  -1   3  -4    0.12    0.48
   1  -3   4    0.04    0.15
  -1  -3  -4    0.05    0.41
  -1   3  -4    0.07    0.31
  -1  -3  -5    0.50    0.47
  -1  -3  -5    0.22    0.49
  -1   3  -5    0.37    0.39
  -1   3  -5    0.38    0.51
  -1  -3  -6    0.18    0.55
  -1   3  -6    0.43    0.45
  -1  -3  -6    0.96    0.54
  -1   3  -6    0.53    0.55
  -1   3  -7    3.11    0.65
  -1  -3  -7    2.98    0.69
  -1   3  -7    3.58    0.59
  -1  -3  -7    2.67    0.65
  -1  -3  -8    3.49    0.70
  -1  -3  -8    4.93    0.71
  -1   3  -8    4.72    0.62
  -1   3  -8    4.37    0.62
  -1   3  -9    1.20    0.58
  -1  -3  -9    0.81    0.65
  -1   3  -9    0.96    0.61
  -1  -3  -9    0.63    0.66
  -1  -3 -10    0.29    0.74
  -1   3 -10    0.86    0.61
  -1  -3 -10    1.04    0.67
  -1   3 -11    0.89    0.66
  -1  -3 -11    1.21    0.71
  -1   3 -12    1.47    0.70
  -1  -3 -12    1.76    0.82
  -1   3 -13    2.35    0.89
   1  -4 -13    0.68    0.70
   1   4 -12    3.56    0.80
   1  -4 -12    2.19    0.77
   1  -4 -12    3.16    0.89
   1   4 -11    5.27    0.82
   1  -4 -11    4.36    0.81
   1  -4 -11    3.95    0.92
   1   4 -11    3.71    0.75
   1   4 -10    0.71    0.63
   1  -4 -10    0.10    0.76
   1   4 -10    0.33    0.57
   1  -4 -10    0.16    0.59
   1   4  -9    0.11    0.61
   1   4  -9    0.31    0.59
   1  -4  -9    0.34    0.57
   1  -4  -9   -0.30    0.67
   1  -4  -8    4.22    0.82
   1  -4  -8    4.58    0.61
   1   4  -8    4.85    0.75
   1   4  -8    5.30    0.66
   1  -4  -7   13.47    0.89
   1  -4  -7   13.61    0.77
   1   4  -7   14.53    0.84
   1   4  -7   14.06    0.89
   1   4  -6    2.48    0.59
   1  -4  -6    2.31    0.67
   1   4  -6    2.63    0.63
   1  -4  -6    2.44    0.55
   1   4  -5    1.26    0.60
   1  -4  -5    1.09    0.63
   1   4  -5    0.99    0.51
   1  -4  -5    0.93    0.44
   1   4  -4    7.68    0.68
   1  -4  -4    7.54    0.48
   1  -4  -4    7.10    0.68
   1   4  -3   39.11    1.05
   1  -4  -3   38.60    0.75
   1  -4  -3   37.33    1.03
  -1  -4   3   39.37    1.07
   1   4  -2   26.79    0.88
   1  -4  -2   27.25    0.90
   1  -4  -2   26.29    0.59
  -1   4   2   26.08    0.78
  -1  -4   2   25.41    0.89
   1  -4  -1    2.95    0.57
  -1  -4   1    3.31    0.55
  -1   4   1    2.68    0.49
   1   4  -1    3.11    0.48
  -1   4   0   42.37    1.02
   1   4   0   41.00    0.93
  -1  -4   0   42.48    0.98
   1  -4   0   45.76    1.07
   1  -4   1   -0.04    0.54
  -1   4  -1    0.37    0.50
   1   4   1    0.35    0.37
  -1  -4  -1   -0.26    0.47
   1   4   2   50.42    0.89
  -1  -4  -2   51.09    1.07
   1  -4   2   54.58    1.25
  -1   4  -2   54.71    1.25
  -1  -4  -3    6.58    0.60
  -1  -4  -3    6.70    0.55
   1  -4   3    7.15    0.78
   1   4   3    6.16    0.39
  -1   4  -3    7.02    0.43
  -1   4  -3    7.00    0.68
  -1   4  -4   36.50    1.13
  -1   4  -4   36.47    0.86
  -1  -4  -4   32.93    1.00
  -1  -4  -4   34.46    1.02
  -1  -4  -5   50.85    1.23
  -1  -4  -5   49.53    1.20
  -1   4  -5   52.55    1.09
  -1   4  -5   54.27    1.36
  -1  -4  -6   14.05    0.85
  -1   4  -6   16.06    0.96
  -1  -4  -6   14.23    0.83
  -1   4  -6   15.39    0.76
  -1  -4  -7    1.22    0.65
  -1  -4  -7    0.77    0.58
  -1   4  -7    1.02    0.49
  -1   4  -7    1.13    0.67
  -1  -4  -8    1.24    0.63
  -1  -4  -8    0.37    0.62
  -1   4  -8    0.79    0.58
  -1   4  -8    0.78    0.63
  -1  -4  -9    1.77    0.74
  -1   4  -9    2.35    0.69
  -1   4  -9    2.00    0.63
  -1  -4  -9    1.54    0.74
  -1   4 -10    0.30    0.64
  -1  -4 -10    0.14    0.68
  -1   4 -10    0.55    0.63
  -1  -4 -10   -0.38    0.75
  -1   4 -11    0.21    0.66
  -1  -4 -11   -0.77    0.78
  -1  -4 -11    0.53    0.72
  -1  -4 -12    0.14    0.79
  -1   4 -12    0.64    0.71
  -1  -4 -12    0.66    0.76
   1   5 -12   -0.36    0.72
   1   5 -12    0.42    0.75
   1   5 -11   -0.12    0.72
   1   5 -11   -0.19    0.68
   1  -5 -11    0.38    0.83
   1   5 -10    0.44    0.75
   1   5 -10    0.22    0.70
   1  -5 -10   -0.19    0.81
   1   5  -9   -0.25    0.58
   1   5  -9   -0.57    0.66
   1  -5  -9   -0.02    0.70
   1  -5  -8    3.34    0.76
   1   5  -8    3.98    0.77
   1   5  -8    3.83    0.71
   1  -5  -8    3.16    0.62
   1  -5  -7   25.33    1.18
   1   5  -7   27.02    1.16
   1  -5  -7   24.37    0.96
   1   5  -7   28.46    1.09
   1   5  -6   30.16    1.18
   1  -5  -6   29.38    1.18
   1  -5  -6   29.09    0.95
   1   5  -5   12.29    0.91
   1  -5  -5   10.67    0.65
   1  -5  -5   11.55    0.88
   1  -5  -4   45.57    1.30
   1   5  -4   49.20    1.39
  -1  -5   4   48.38    1.40
  -1   5   3   48.79    1.10
   1  -5  -3   51.79    1.32
   1   5  -3   52.09    1.32
  -1  -5   3   54.48    1.41
  -1  -5   2    7.82    0.85
  -1   5   2    8.00    0.67
   1   5  -2    7.86    0.71
   1  -5  -2    7.99    0.76
   1   5  -1    0.37    0.50
   1  -5  -1    0.08    0.66
  -1  -5   1    0.46    0.63
  -1   5   1    0.10    0.54
  -1  -5   0    5.68    0.69
   1  -5   0    6.83    0.80
  -1   5   0    6.52    0.72
   1   5   0    6.83    0.62
  -1   5  -1    7.16    0.76
   1   5   1    6.65    0.58
  -1  -5  -1    6.37    0.71
   1  -5   1    7.63    0.85
  -1  -5  -2    0.93    0.55
   1   5   2    0.66    0.44
  -1   5  -2    0.62    0.66
  -1  -5  -2    1.12    0.50
   1  -5   2    1.09    0.75
   1  -5   3    2.02    0.77
  -1  -5  -3    0.86    0.54
  -1   5  -3    1.38    0.75
  -1  -5  -3    1.28    0.60
   1  -5   4    5.08    0.89
  -1  -5  -4    3.23    0.61
  -1  -5  -4    3.37    0.64
  -1   5  -4    3.89    0.82
  -1  -5  -5   18.90    0.88
   1  -5   5   21.46    1.17
  -1  -5  -5   18.17    0.94
  -1   5  -5   21.53    1.07
  -1  -5  -6   37.51    1.24
  -1  -5  -6   39.41    1.19
  -1   5  -6   43.79    1.45
  -1   5  -7   10.12    0.89
  -1  -5  -7    7.84    0.84
  -1  -5  -7    8.31    0.78
  -1  -5  -8   11.62    0.96
  -1   5  -8   14.00    0.97
  -1  -5  -8   11.62    0.92
  -1  -5  -9   13.21    1.04
  -1  -5  -9   12.56    0.97
  -1   5  -9   14.64    1.06
  -1  -5 -10    0.12    0.68
  -1  -5 -10    1.06    0.78
  -1   5 -10    1.23    0.74
  -1  -5 -11   -0.47    0.77
  -1  -5 -11   -0.11    0.70
  -1   5 -11   -0.30    0.67
   1   6 -11   -0.09    0.82
   1   6 -10    0.10    0.82
   1  -6 -10    0.00    0.96
   1  -6  -9    1.41    0.86
   1   6  -9    1.60    0.76
   1   6  -8   -0.01    0.78
   1  -6  -8   -0.30    0.74
   1  -6  -7    0.51    0.75
  -1  -6   7    1.59    0.88
   1   6  -7    0.46    0.71
   1   6  -6    0.58    0.69
   1  -6  -6    0.16    0.69
  -1  -6   6    0.68    0.87
  -1  -6   5   61.53    1.70
   1  -6  -5   54.66    1.55
   1   6  -5   59.27    1.62
   1   6  -4   10.69    0.90
   1  -6  -4    9.85    0.89
  -1  -6   4    9.79    0.98
   1  -6  -3    2.48    0.71
   1   6  -3    2.35    0.69
  -1  -6   3    2.30    0.83
  -1  -6   2    6.17    0.84
   1   6  -2    5.79    0.72
   1  -6  -2    5.47    0.82
  -1   6   2    5.57    0.70
  -1   6   1    1.86    0.65
   1  -6  -1    1.63    0.78
  -1  -6   1    2.30    0.72
   1   6  -1    2.21    0.62
  -1   6   0    0.01    0.63
  -1  -6   0   -0.52    0.66
   1   6   0    0.32    0.56
   1  -6   0    0.32    0.68
   1   6   1    0.29    0.53
  -1   6  -1    0.39    0.66
   1  -6   1    1.07    0.75
  -1  -6  -1    0.24    0.65
  -1  -6  -2    0.44    0.51
   1  -6   2   -0.19    0.76
  -1  -6  -2   -0.26    0.58
   1   6   2   -0.36    0.45
  -1   6  -2   -0.23    0.66
  -1  -6  -3    0.29    0.59
  -1  -6  -3    0.00    0.50
  -1   6  -3    0.14    0.63
   1  -6   3   -0.11    0.81
  -1  -6  -4    1.34    0.64
   1  -6   4    2.29    0.84
  -1   6  -4    1.86    0.77
  -1  -6  -4    1.08    0.56
  -1  -6  -5    2.22    0.64
   1  -6   5    2.61    0.89
  -1   6  -5    3.24    0.77
  -1  -6  -5    2.06    0.71
  -1  -6  -6    0.25    0.66
   1  -6   6    0.76    0.92
  -1   6  -6    1.36    0.74
  -1  -6  -6    0.52    0.56
   1  -6   7   25.37    1.37
  -1  -6  -7   19.18    1.09
  -1   6  -7   24.60    1.27
  -1   6  -8    3.13    0.83
  -1  -6  -8    2.32    0.80
  -1  -6  -9   -0.45    0.74
  -1   6  -9    0.25    0.77
  -1  -6 -10   -0.40    0.77
  -1   6 -10    1.61    0.79
   1   7  -9    3.76    0.93
   1  -7  -9    2.89    0.99
  -1  -7   9    3.68    1.08
   1  -7  -8    0.16    0.78
   1   7  -8   -0.27    0.76
  -1  -7   8    0.53    1.02
  -1  -7   7    0.69    0.93
   1  -7  -7   -0.25    0.77
   1   7  -7   -0.32    0.78
   1   7  -6    0.21    0.72
   1  -7  -6   -0.57    0.74
  -1  -7   6    0.78    0.90
  -1  -7   5   -0.14    0.87
   1   7  -5   -0.06    0.77
   1  -7  -5   -0.18    0.73
   1   7  -4    0.77    0.62
  -1  -7   4    1.42    0.85
   1  -7  -4    1.69    0.74
   1  -7  -3    0.43    0.72
  -1  -7   3    0.28    0.79
   1   7  -3    0.51    0.66
  -1  -7   2    0.75    0.75
   1   7  -2    0.09    0.66
  -1   7   2   -0.14    0.56
   1  -7  -2   -0.10    0.79
   1   7  -1    4.95    0.76
  -1   7   1    4.62    0.73
   1  -7  -1    5.92    0.88
  -1  -7   1    4.84    0.84
   1   7   0    7.37    0.78
  -1  -7   0    7.40    0.88
   1  -7   0    9.50    0.98
  -1   7   0    8.55    0.85
  -1  -7  -1    1.23    0.74
   1  -7   1    1.97    0.85
   1   7   1    1.44    0.58
  -1   7  -1    1.42    0.70
  -1  -7  -2    6.05    0.81
  -1   7  -2    5.14    0.81
   1  -7   2    6.75    0.95
  -1   7  -3    5.19    0.86
   1  -7   3    5.43    0.97
  -1  -7  -3    5.75    0.78
  -1   7  -4    0.39    0.79
  -1  -7  -4    0.17    0.68
   1  -7   4    0.88    0.93
  -1  -7  -5    0.18    0.69
   1  -7   5    0.37    1.00
  -1   7  -5    0.35    0.67
  -1   7  -6    0.27    0.82
   1  -7   6    0.27    0.90
  -1  -7  -6   -0.50    0.73
  -1   7  -7    1.92    0.87
   1  -7   7    2.29    1.08
  -1  -7  -7    1.36    0.71
   1  -7   8    2.28    1.15
  -1  -7  -8    1.64    0.74
  -1   7  -8    1.24    1.03
  -1  -7  -9   -0.14    0.78
  -1  -8   7    0.41    1.08
   1  -8  -7    0.52    0.92
  -1  -8   6    1.37    0.99
   1  -8  -6    0.91    0.85
   1   8  -6    0.56    0.85
   1  -8  -5   -0.68    0.81
  -1  -8   5   -0.01    0.98
   1   8  -5    0.04    0.88
   1   8  -4    0.67    0.83
  -1  -8   4    1.16    0.88
   1  -8  -4    0.51    0.78
   1   8  -3    0.06    0.73
  -1  -8   3    1.07    0.84
   1  -8  -3    0.37    0.80
   1  -8  -2    1.41    0.84
   1   8  -2    1.11    0.73
  -1  -8   2    0.73    0.80
   1  -8  -1    0.53    0.83
  -1   8   1   -0.39    0.67
  -1  -8   1    0.37    0.78
   1   8  -1    0.59    0.68
  -1   8   0   -0.42    0.72
  -1  -8   0    0.20    0.76
   1  -8   0    0.00    0.82
   1   8   0   -0.01    0.61
  -1   8  -1   -0.40    0.76
  -1  -8  -1    0.45    0.76
   1  -8   1    0.94    0.82
  -1   8  -2    1.01    0.77
  -1  -8  -2    0.24    0.72
   1  -8   2    0.41    0.85
  -1   8  -3    0.65    0.81
  -1  -8  -3   -0.29    0.70
   1  -8   3    0.91    0.92
  -1   8  -4    1.31    0.80
  -1  -8  -4    1.79    0.76
   1  -8   4    0.36    0.99
  -1  -8  -5   -0.15    0.74
  -1   8  -5    0.50    0.82
   1  -8   5    0.15    1.01
   1  -8   6    0.25    1.07
  -1  -8  -6   -0.71    0.71
  -1   8  -6    0.30    0.79
  -1  -8  -7   -0.90    0.79
  -1  -9   4   -0.32    1.00
  -1  -9   3    3.49    0.99
   1   9  -3    3.32    0.93
   1   9  -2    0.14    0.72
   1  -9  -2    1.93    0.98
  -1  -9   2   -0.35    0.85
  -1  -9   1   -0.31    0.86
   1  -9  -1   -0.53    0.91
   1   9  -1   -0.12    0.67
   1  -9   0    0.72    0.92
  -1  -9   0   -0.91    0.87
   1  -9   1    0.38    0.94
  -1  -9  -1   -0.18    0.80
  -1   9  -1    0.46    0.73
  -1  -9  -2    0.17    0.84
  -1   9  -2   -0.51    0.76
  -1  -9  -3    0.30    0.71
   2   0 -14   -0.23    0.82
   2   0 -13    0.70    0.71
   2   0 -12    0.91    0.72
   2   0 -11    0.39    0.67
   2   0 -10  118.53    2.12
   2   0  -9    0.16    0.58
   2   0  -8    8.87    0.70
   2   0  -8    7.97    0.48
   2   0  -7   -0.10    0.30
   2   0  -7   -0.02    0.46
   2   0  -6    5.36    0.54
   2   0  -6    5.36    0.50
   2   0  -6    4.92    0.37
   2   0  -5    0.12    0.39
   2   0  -5    0.15    0.35
   2   0  -5    0.09    0.26
   2   0  -4   55.59    0.74
   2   0  -4   56.20    0.87
   2   0  -4   50.90    0.86
   2   0  -4   53.68    0.76
   2   0  -3    0.08    0.24
   2   0  -3   -0.03    0.28
   2   0  -3    0.04    0.26
   2   0  -3   -0.09    0.24
   2   0  -2   22.99    0.50
   2   0  -2   22.51    0.50
   2   0  -2   22.97    0.47
   2   0  -2   25.43    0.45
   2   0  -1    0.07    0.25
   2   0  -1    0.02    0.15
   2   0  -1    0.05    0.23
   2   0   0    0.76    0.23
   2   0   0    0.70    0.29
  -2   0  -1    0.23    0.32
   2   0   1   -0.11    0.37
  -2   0  -2 3409.78   22.93
   2   0   2 3422.56   22.94
   2   0   3    0.01    0.35
  -2   0  -3    0.64    0.31
   2   0   4    9.96    0.53
  -2   0  -4   10.33    0.55
  -2   0  -5   -0.11    0.41
  -2   0  -5    0.04    0.25
   2   0   5    0.12    0.42
  -2   0  -6   29.26    0.96
  -2   0  -6   28.59    0.62
   2   0   6   28.21    0.87
  -2   0  -7   -0.35    0.57
   2   0   7    0.05    0.56
  -2   0  -8    1.64    0.61
   2   0   8    2.04    0.67
  -2   0  -9   -0.29    0.59
  -2   0 -10    0.34    0.67
  -2   0 -11    0.33    0.68
  -2   0 -12   -0.67    0.83
  -2   0 -13   -0.43    0.82
   2  -1 -14    0.68    0.71
   2   1 -14    0.39    0.73
   2  -1 -13    0.29    0.67
   2   1 -13   -0.14    0.79
   2  -1 -12   16.10    1.04
   2   1 -12   16.29    1.08
   2   1 -11    4.32    0.77
   2  -1 -11    3.86    0.76
   2   1 -10    2.89    0.70
   2  -1 -10    3.51    0.67
   2  -1  -9    1.79    0.69
   2   1  -9    2.32    0.64
   2   1  -9    2.09    0.47
   2  -1  -9    2.57    0.62
   2  -1  -8   -0.01    0.53
   2   1  -8    0.51    0.43
   2   1  -8   -0.01    0.53
   2  -1  -8    0.53    0.64
   2  -1  -7    0.22    0.45
   2  -1  -7    0.25    0.28
   2   1  -7    0.23    0.47
   2   1  -7    0.16    0.36
   2  -1  -7    0.06    0.49
   2   1  -6   30.16    0.86
   2   1  -6   28.82    0.75
   2  -1  -6   28.43    0.87
   2  -1  -6   31.07    0.84
   2  -1  -6   29.14    0.59
   2  -1  -5  162.13    1.66
   2   1  -5  161.08    1.69
   2   1  -5  160.61    1.53
   2  -1  -5  163.29    1.60
   2  -1  -5  155.00    1.24
   2   1  -4   58.05    0.61
   2   1  -4   59.51    0.90
   2  -1  -4   60.03    0.75
   2  -1  -4   59.99    0.88
   2   1  -4   59.49    0.97
   2  -1  -4   59.76    0.91
   2  -1  -4   61.60    0.97
   2  -1  -3  157.63    1.31
   2  -1  -3  155.91    1.17
   2   1  -3  156.31    0.91
   2   1  -3  155.69    1.39
   2  -1  -3  159.66    1.33
   2  -1  -3  160.54    1.16
   2   1  -3  157.03    1.35
   2   1  -2   11.35    0.45
   2  -1  -2   11.59    0.43
   2   1  -2   11.37    0.42
   2  -1  -2   11.66    0.42
   2  -1  -2   10.95    0.31
   2   1  -2   12.08    0.33
   2   1  -1   24.74    0.50
   2  -1  -1   24.07    0.51
   2   1  -1   23.54    0.51
   2  -1  -1   23.18    0.52
   2   1   0  313.34    1.60
   2  -1   0  310.89    1.58
   2   1   0  310.26    1.46
   2  -1   0  304.77    1.54
  -2   1  -1  597.22    1.76
   2   1   1  598.53    1.84
   2  -1   1  597.16    2.12
  -2  -1  -1  594.29    1.59
  -2   1  -2  187.30    1.28
  -2  -1  -2  183.47    1.50
   2   1   2  184.61    0.96
  -2  -1  -2  187.37    1.17
   2  -1   2  188.62    1.27
  -2  -1  -3   26.89    0.59
  -2   1  -3   28.39    0.64
  -2  -1  -3   28.55    0.73
   2  -1   3   28.84    0.59
  -2   1  -4   15.88    0.60
  -2  -1  -4   16.90    0.65
  -2  -1  -4   16.24    0.59
   2  -1   4   17.43    0.55
  -2   1  -5    1.69    0.40
  -2  -1  -5    0.98    0.15
  -2   1  -5    1.66    0.39
   2  -1   5    1.33    0.39
  -2  -1  -5    1.32    0.44
  -2   1  -6    8.58    0.52
  -2   1  -6    8.01    0.60
   2  -1   6    8.14    0.55
  -2  -1  -6    8.02    0.67
  -2   1  -7   24.94    0.77
  -2  -1  -7   25.49    1.04
  -2   1  -7   23.55    0.94
   2  -1   7   22.99    0.80
  -2   1  -8   10.66    0.80
  -2  -1  -8   10.17    0.87
  -2  -1  -9    1.25    0.64
  -2   1  -9    1.43    0.62
  -2   1 -10   -0.27    0.65
  -2  -1 -10    0.45    0.64
  -2  -1 -11    0.23    0.70
  -2   1 -11    0.15    0.68
  -2  -1 -12    0.23    0.78
  -2   1 -12    0.33    0.74
  -2   1 -13    1.28    0.87
  -2  -1 -13    1.00    0.83
   2  -2 -14   -0.05    0.83
   2  -2 -13    1.86    0.78
   2   2 -13    2.06    0.83
   2   2 -12   -0.01    0.67
   2  -2 -12    0.03    0.63
   2  -2 -11    0.54    0.71
   2   2 -11    0.18    0.67
   2  -2 -11    0.57    0.61
   2  -2 -10    3.18    0.73
   2   2 -10    3.27    0.69
   2   2 -10    2.76    0.52
   2  -2 -10    3.35    0.65
   2  -2  -9    0.14    0.68
   2  -2  -9   -0.01    0.53
   2   2  -9    0.19    0.58
   2   2  -9    0.32    0.45
   2  -2  -8    0.28    0.50
   2   2  -8    0.22    0.47
   2  -2  -8    0.05    0.69
   2   2  -8    0.56    0.57
   2  -2  -7    0.38    0.44
   2   2  -7    0.47    0.46
   2   2  -7    0.46    0.50
   2  -2  -7    0.70    0.57
   2  -2  -6    2.32    0.42
   2  -2  -6    2.28    0.53
   2   2  -6    2.69    0.50
   2   2  -6    2.20    0.47
   2  -2  -5  118.93    1.54
   2   2  -5  124.40    1.58
   2  -2  -5  122.58    1.38
   2   2  -5  121.27    1.52
   2  -2  -4    0.15    0.27
   2  -2  -4   -0.04    0.39
   2   2  -4    0.01    0.10
   2   2  -4    0.20    0.37
   2   2  -4    0.11    0.37
   2   2  -3   51.13    0.51
   2   2  -3   55.38    0.94
   2  -2  -3   54.48    0.92
   2  -2  -3   54.86    0.68
   2   2  -3   55.26    0.95
   2  -2  -3   53.73    0.93
   2  -2  -2    8.45    0.45
   2   2  -2    8.65    0.45
   2   2  -2    8.51    0.33
   2  -2  -2    8.84    0.25
   2  -2  -2    9.44    0.47
   2   2  -1   13.25    0.47
   2   2  -1   13.62    0.44
  -2  -2   1   12.84    0.42
   2  -2  -1   13.11    0.47
   2  -2  -1   13.24    0.53
   2  -2   0   31.36    0.73
   2   2   0   31.31    0.59
  -2  -2   0   30.35    0.51
   2  -2   0   31.04    0.61
   2  -2   1   10.18    0.54
  -2   2  -1   10.12    0.26
   2  -2   1   10.72    0.40
  -2  -2  -1    9.75    0.35
   2   2   1   10.51    0.35
   2   2   2   11.05    0.31
  -2  -2  -2   10.65    0.52
   2  -2   2   11.36    0.39
  -2   2  -2   10.40    0.36
  -2  -2  -2   10.21    0.40
   2  -2   3    6.91    0.35
  -2   2  -3    6.34    0.38
  -2  -2  -3    6.19    0.42
  -2  -2  -3    6.75    0.51
   2   2   3    6.60    0.21
  -2   2  -4   -0.11    0.32
  -2  -2  -4    0.06    0.35
  -2  -2  -4    0.19    0.45
  -2   2  -4    0.06    0.42
   2  -2   4    0.10    0.26
  -2   2  -5   15.42    0.73
   2  -2   5   15.40    0.49
  -2   2  -5   14.76    0.64
  -2  -2  -5   14.87    0.67
  -2  -2  -5   16.07    0.74
  -2  -2  -6    5.99    0.62
  -2   2  -6    6.85    0.59
  -2   2  -6    6.19    0.60
  -2  -2  -6    6.49    0.68
  -2  -2  -7    0.95    0.66
  -2   2  -7    0.43    0.59
  -2   2  -7    0.75    0.53
  -2  -2  -7    0.45    0.58
  -2  -2  -8    2.24    0.71
  -2   2  -8    2.37    0.55
  -2   2  -8    2.48    0.61
  -2  -2  -9   14.74    1.02
  -2   2  -9   15.27    0.94
  -2   2 -10    0.54    0.61
  -2  -2 -10    0.91    0.66
  -2   2 -11   -0.26    0.67
  -2  -2 -11   -0.07    0.70
  -2  -2 -12    0.68    0.73
  -2   2 -12    1.26    0.72
   2  -3 -13    1.24    0.81
   2  -3 -13    2.49    0.97
   2   3 -13    1.34    0.83
   2  -3 -12    4.42    0.99
   2   3 -12    4.66    0.84
   2  -3 -12    5.15    0.81
   2  -3 -11   -0.65    0.79
   2   3 -11    0.29    0.53
   2   3 -11    0.20    0.62
   2  -3 -11   -0.26    0.62
   2   3 -10    9.93    0.89
   2  -3 -10    9.25    0.93
   2  -3 -10    9.85    0.84
   2   3 -10   10.59    0.80
   2  -3  -9    2.52    0.60
   2  -3  -9    2.99    0.74
   2   3  -9    3.24    0.68
   2   3  -9    2.79    0.58
   2  -3  -8    2.74    0.57
   2   3  -8    2.77    0.64
   2   3  -8    2.05    0.60
   2  -3  -8    2.14    0.70
   2  -3  -7    5.96    0.73
   2   3  -7    6.16    0.66
   2  -3  -7    6.96    0.62
   2   3  -7    6.91    0.66
   2  -3  -6    1.72    0.43
   2  -3  -6    1.57    0.60
   2   3  -6    1.55    0.57
   2   3  -6    1.81    0.52
   2   3  -5   16.28    0.73
   2  -3  -5   14.68    0.74
   2  -3  -5   15.82    0.59
   2   3  -5   16.68    0.78
   2   3  -4    2.64    0.49
   2  -3  -4    3.16    0.32
   2  -3  -4    3.22    0.50
   2   3  -4    2.61    0.44
   2   3  -3    4.04    0.48
   2   3  -3    3.38    0.28
   2  -3  -3    3.94    0.28
   2  -3  -3    3.87    0.50
   2   3  -2    0.04    0.37
   2  -3  -2    0.01    0.16
  -2  -3   2    0.23    0.40
   2  -3  -2    0.25    0.39
   2  -3  -2   -0.20    0.43
   2  -3  -1    1.97    0.45
   2  -3  -1    2.17    0.39
   2   3  -1    2.11    0.39
  -2  -3   1    1.77    0.40
   2  -3   0   65.83    1.13
   2   3   0   66.67    0.99
  -2  -3   0   65.41    0.93
   2  -3   0   63.77    0.95
   2  -3   1   27.70    0.63
  -2  -3  -1   27.53    0.66
   2   3   1   28.74    0.64
   2  -3   1   28.40    0.84
  -2   3  -2    0.07    0.22
   2   3   2    0.31    0.24
  -2  -3  -2   -0.08    0.34
   2  -3   2    0.12    0.27
   2  -3   2    0.46    0.50
   2  -3   3   11.81    0.42
  -2   3  -3   11.52    0.44
  -2  -3  -3   11.83    0.63
   2   3   3   12.26    0.35
  -2  -3  -3   11.28    0.55
  -2   3  -4    0.61    0.35
  -2  -3  -4    0.79    0.52
  -2   3  -4    1.15    0.55
  -2  -3  -4    0.80    0.45
   2  -3   4    0.79    0.26
  -2  -3  -5    0.36    0.48
  -2   3  -5    0.21    0.58
  -2   3  -5    0.01    0.39
  -2  -3  -5   -0.16    0.55
  -2  -3  -6    0.60    0.60
  -2  -3  -6    0.59    0.55
  -2   3  -6    0.57    0.60
  -2   3  -6    0.58    0.46
  -2  -3  -7   12.17    0.89
  -2   3  -7   12.65    0.84
  -2  -3  -7   11.44    0.81
  -2   3  -7   12.63    0.76
  -2   3  -8    4.88    0.66
  -2  -3  -8    4.13    0.72
  -2  -3  -8    4.88    0.74
  -2   3  -8    5.36    0.65
  -2  -3  -9    0.30    0.68
  -2  -3  -9    0.43    0.69
  -2   3  -9    0.29    0.54
  -2   3  -9    0.42    0.57
  -2  -3 -10    0.55    0.72
  -2   3 -10    0.86    0.60
  -2  -3 -11    0.44    0.62
  -2   3 -11    0.51    0.65
  -2   3 -12   -0.25    0.72
  -2  -3 -12    1.09    0.78
   2  -4 -13   -0.34    0.68
   2  -4 -12    2.00    0.88
   2   4 -12    3.12    0.83
   2  -4 -12    3.28    0.81
   2   4 -11    8.06    0.93
   2  -4 -11    7.56    0.95
   2  -4 -11    7.82    0.85
   2   4 -11    7.99    0.81
   2  -4 -10    2.98    0.66
   2  -4 -10    2.89    0.86
   2   4 -10    3.11    0.71
   2   4 -10    3.43    0.70
   2  -4  -9    0.55    0.51
   2   4  -9    0.15    0.66
   2   4  -9   -0.14    0.68
   2  -4  -9    0.05    0.70
   2  -4  -8    2.33    0.55
   2   4  -8    2.63    0.69
   2   4  -8    3.13    0.65
   2  -4  -8    2.20    0.70
   2   4  -7    0.45    0.56
   2  -4  -7    0.39    0.67
   2   4  -7    0.11    0.65
   2  -4  -7    0.57    0.45
   2   4  -6    5.42    0.71
   2   4  -6    5.67    0.68
   2  -4  -6    5.25    0.52
   2  -4  -6    5.48    0.77
   2   4  -5    0.01    0.59
   2  -4  -5    0.10    0.61
   2  -4  -5   -0.16    0.37
   2   4  -4    8.42    0.72
   2  -4  -4    8.39    0.46
   2  -4  -4    7.71    0.71
   2  -4  -3    0.06    0.26
   2   4  -3    0.09    0.49
  -2  -4   3    0.34    0.57
   2   4  -3    0.00    0.31
   2  -4  -3    0.23    0.55
   2  -4  -2    8.89    0.31
   2  -4  -2    8.74    0.68
   2   4  -2    9.13    0.64
  -2  -4   2    9.03    0.65
   2   4  -1   39.25    0.95
   2  -4  -1   42.23    1.07
  -2  -4   1   42.69    0.96
   2   4   0   16.06    0.66
  -2  -4   0   15.80    0.68
   2  -4   0   17.65    0.83
   2  -4   1   15.84    0.86
   2  -4   1   15.48    0.58
  -2  -4  -1   14.29    0.65
   2   4   1   14.82    0.64
   2  -4   2   35.23    1.13
   2   4   2   32.74    0.74
  -2  -4  -2   33.38    0.88
  -2   4  -2   35.76    1.12
   2  -4   2   33.72    0.72
   2  -4   3   12.27    0.87
   2  -4   3   11.54    0.47
  -2   4  -3   11.75    0.83
  -2   4  -3   11.18    0.47
  -2  -4  -3   10.51    0.72
  -2  -4  -3   10.44    0.64
   2   4   3   11.60    0.45
  -2  -4  -4    6.29    0.69
  -2   4  -4    7.59    0.80
  -2  -4  -4    6.71    0.61
  -2   4  -4    7.21    0.47
  -2  -4  -5   -0.14    0.59
  -2   4  -5    0.14    0.40
  -2  -4  -5    0.07    0.53
  -2   4  -5   -0.09    0.62
  -2   4  -6    0.29    0.65
  -2  -4  -6    0.23    0.56
  -2  -4  -6    0.31    0.58
  -2   4  -6   -0.16    0.46
  -2   4  -7    7.21    0.80
  -2   4  -7    5.99    0.65
  -2  -4  -7    6.68    0.74
  -2  -4  -7    6.10    0.75
  -2  -4  -8    3.80    0.76
  -2  -4  -8    3.14    0.72
  -2   4  -8    3.21    0.75
  -2   4  -8    3.58    0.59
  -2  -4  -9   -0.28    0.70
  -2   4  -9   -0.23    0.53
  -2   4  -9    0.51    0.61
  -2  -4  -9    0.46    0.67
  -2  -4 -10   -0.24    0.74
  -2  -4 -10   -0.51    0.74
  -2   4 -10    0.39    0.54
  -2   4 -10   -0.47    0.58
  -2  -4 -11   -0.34    0.78
  -2  -4 -11    0.06    0.81
  -2   4 -11    0.24    0.62
  -2  -4 -12   -0.30    0.75
   2   5 -12    0.11    0.68
   2   5 -12   -0.35    0.76
   2  -5 -11    0.05    0.93
   2   5 -11    0.71    0.71
   2   5 -11    0.41    0.72
   2  -5 -10    0.70    0.81
   2   5 -10    0.16    0.70
   2   5 -10   -0.02    0.71
   2   5  -9    0.09    0.73
   2  -5  -9    0.56    0.71
   2   5  -9    0.65    0.61
   2  -5  -8    0.38    0.72
   2   5  -8    0.21    0.61
   2   5  -8   -0.41    0.70
   2   5  -7   15.27    1.01
   2  -5  -7   13.64    0.99
   2   5  -6   45.25    1.39
   2  -5  -6   42.02    1.36
   2   5  -5   12.86    0.91
   2  -5  -5   11.37    0.89
   2   5  -4   13.01    0.87
  -2  -5   4   15.19    0.98
   2  -5  -4   12.47    0.90
   2   5  -3   11.65    0.80
   2  -5  -3   12.63    0.85
  -2  -5   3   12.71    0.89
   2   5  -2    9.23    0.72
  -2  -5   2    9.47    0.82
   2  -5  -2    9.50    0.84
   2  -5  -1   -0.13    0.69
   2   5  -1    0.13    0.52
  -2   5   1    0.34    0.63
  -2  -5   1    0.14    0.61
   2   5   0    7.51    0.64
   2  -5   0    7.42    0.84
  -2  -5   0    7.28    0.71
  -2   5   0    7.27    0.76
   2  -5   1   -0.27    0.78
  -2  -5  -1   -0.32    0.55
  -2   5  -1    0.19    0.67
   2   5   1   -0.11    0.47
   2   5   2   14.26    0.66
  -2   5  -2   14.84    0.98
  -2  -5  -2   13.14    0.77
   2  -5   2   14.60    1.04
   2  -5   3    5.00    0.89
  -2   5  -3    4.06    0.84
  -2  -5  -3    2.91    0.62
  -2  -5  -3    3.86    0.65
  -2   5  -4    8.83    0.88
  -2  -5  -4    7.04    0.74
   2  -5   4    7.90    1.00
  -2  -5  -4    6.77    0.71
  -2  -5  -5    4.24    0.63
  -2  -5  -5    3.94    0.70
  -2   5  -5    4.94    0.76
   2  -5   5    5.53    0.88
  -2   5  -6    3.58    0.75
  -2  -5  -6    3.43    0.71
  -2  -5  -6    4.50    0.70
  -2  -5  -7    0.44    0.64
  -2   5  -7   -0.31    0.67
  -2  -5  -7    0.54    0.59
  -2  -5  -8    0.57    0.66
  -2  -5  -8    0.35    0.67
  -2   5  -8    0.38    0.75
  -2  -5  -9    2.61    0.78
  -2   5  -9    3.06    0.82
  -2  -5  -9    2.35    0.84
  -2   5 -10    7.00    0.93
  -2  -5 -10    5.01    0.91
  -2  -5 -10    5.61    0.92
  -2  -5 -11   -0.07    0.82
  -2  -5 -11   -0.25    0.88
   2   6 -11   -0.51    0.74
   2   6 -10    0.85    0.78
   2  -6 -10    0.05    0.95
   2   6  -9    2.59    0.74
   2  -6  -9    1.27    0.89
   2  -6  -8    5.86    0.96
   2   6  -8    5.81    0.88
  -2  -6   7    5.07    0.91
   2   6  -7    4.52    0.86
   2  -6  -7    4.51    0.87
   2  -6  -6    6.68    0.89
  -2  -6   6    7.47    0.94
   2   6  -6    5.87    0.87
   2   6  -5    3.97    0.77
  -2  -6   5    4.14    0.84
   2  -6  -5    4.11    0.83
  -2  -6   4    1.38    0.80
   2  -6  -4    1.81    0.72
   2   6  -4    1.78    0.71
   2  -6  -3    2.71    0.72
   2   6  -3    3.20    0.70
  -2   6   3    3.23    0.64
  -2  -6   3    3.19    0.77
  -2  -6   2    2.56    0.68
   2   6  -2    1.99    0.66
   2  -6  -2    2.78    0.79
  -2   6   2    2.18    0.66
  -2   6   1    0.22    0.62
   2  -6  -1    0.27    0.73
   2   6  -1    0.34    0.57
  -2  -6   1   -0.45    0.64
  -2   6   0    1.78    0.72
   2   6   0    1.66    0.57
  -2  -6   0    1.49    0.64
   2  -6   0    2.04    0.75
   2   6   1    4.32    0.58
   2  -6   1    5.74    0.86
  -2  -6  -1    3.78    0.67
  -2   6  -1    5.01    0.79
  -2  -6  -2    1.97    0.60
  -2   6  -2    2.03    0.80
   2  -6   2    1.11    0.80
  -2  -6  -3    1.07    0.57
  -2   6  -3    1.22    0.73
   2  -6   3    0.94    0.86
  -2  -6  -3    1.04    0.57
   2  -6   4    0.18    0.80
  -2  -6  -4    0.96    0.59
  -2  -6  -4    0.24    0.57
  -2   6  -4    0.43    0.71
  -2  -6  -5   -0.21    0.62
  -2  -6  -5   -0.30    0.62
  -2   6  -5    0.33    0.71
   2  -6   5    0.08    0.81
  -2  -6  -6    2.33    0.65
  -2   6  -6    1.91    0.84
   2  -6   6    2.65    0.94
  -2  -6  -6    1.33    0.63
   2  -6   7    1.47    0.99
  -2  -6  -7    0.44    0.66
  -2   6  -7    0.43    0.76
  -2  -6  -7    0.84    0.66
  -2   6  -8    1.03    0.74
  -2  -6  -8    0.79    0.64
   2  -6   8    1.54    1.06
  -2  -6  -8    0.62    0.74
  -2  -6  -9    5.48    0.95
  -2   6  -9    6.08    0.97
  -2  -6 -10    2.37    0.86
  -2   6 -10    3.08    0.90
  -2  -7   9    2.03    1.04
   2  -7  -9    0.44    0.97
   2   7  -9    0.10    0.79
   2   7  -8    1.30    0.84
   2  -7  -8    1.61    0.82
  -2  -7   8    2.03    1.00
   2   7  -7    1.65    0.87
  -2  -7   7    1.90    0.90
   2  -7  -7    2.18    0.89
  -2  -7   6    0.41    0.87
   2   7  -6    0.46    0.80
   2  -7  -6    0.22    0.82
   2   7  -5    0.28    0.75
  -2  -7   5    0.14    0.84
   2  -7  -5    0.62    0.73
   2   7  -4   -0.19    0.72
  -2  -7   4   -0.43    0.81
   2  -7  -4    0.24    0.74
   2  -7  -3    0.42    0.76
   2   7  -3    0.18    0.70
  -2  -7   3    0.07    0.75
  -2  -7   2    3.68    0.75
   2   7  -2    3.06    0.71
  -2   7   2    3.28    0.74
   2  -7  -2    2.78    0.83
   2   7  -1    0.58    0.61
  -2   7   1    0.37    0.66
   2  -7  -1    0.28    0.83
  -2  -7   1    0.64    0.70
   2   7   0    0.24    0.61
  -2  -7   0    0.47    0.64
   2  -7   0    0.19    0.83
  -2   7   0    0.04    0.71
  -2  -7  -1    0.46    0.64
   2  -7   1   -0.26    0.78
  -2   7  -1    0.20    0.73
  -2  -7  -2    1.17    0.64
   2  -7   2    1.60    0.89
  -2   7  -2    0.71    0.84
  -2   7  -3    1.44    0.83
  -2  -7  -3    1.82    0.66
   2  -7   3    2.50    0.90
  -2  -7  -4    0.21    0.63
  -2   7  -4   -0.23    0.77
   2  -7   4   -0.50    0.98
  -2  -7  -5    0.25    0.66
  -2   7  -5    0.95    0.86
   2  -7   5    1.00    0.97
  -2   7  -6    3.01    0.93
   2  -7   6    3.10    1.05
  -2   7  -7    2.28    0.91
   2  -7   7    2.18    1.07
  -2   7  -8    0.48    0.81
  -2  -8   7    0.42    1.01
   2   8  -6   -0.27    0.81
  -2  -8   6    0.05    0.87
   2  -8  -6    0.56    0.86
   2   8  -5    1.13    0.83
  -2  -8   5    1.26    0.94
   2  -8  -5    0.40    0.79
   2   8  -4    0.99    0.79
  -2  -8   4    1.59    0.84
   2  -8  -4    0.84    0.83
   2   8  -3    4.14    0.86
   2  -8  -3    3.53    0.94
  -2  -8   3    3.97    0.85
  -2  -8   2    2.48    0.80
   2   8  -2    1.69    0.75
   2  -8  -2    1.73    0.86
  -2   8   1    0.20    0.67
   2   8  -1    0.00    0.68
   2  -8  -1    0.08    0.92
  -2  -8   1    0.62    0.72
   2  -8   0   -0.07    0.88
  -2  -8   0   -0.12    0.72
  -2   8   0   -0.13    0.75
  -2  -8  -1    1.54    0.69
  -2   8  -1    1.65    0.77
   2  -8   1    2.04    0.92
   2  -8   2   -0.01    0.90
  -2   8  -2    0.04    0.81
   2  -8   3    1.98    0.97
  -2   8  -3    0.53    0.81
  -2   8  -4    0.79    0.85
   2  -8   4   -0.63    0.97
  -2   8  -5    3.55    0.96
   2  -8   5    3.47    1.20
   2   9  -3    6.54    1.04
   2   9  -2    1.20    0.77
  -2   9   0    1.47    0.89
  -2   9  -1    0.48    0.83
   3   0 -14   -0.08    0.78
   3   0 -13    3.78    0.82
   3   0 -12    0.01    0.69
   3   0 -11   89.36    1.98
   3   0 -10   -0.24    0.64
   3   0  -9   39.61    1.25
   3   0  -9   37.10    0.94
   3   0  -8   -0.21    0.39
   3   0  -8    0.13    0.52
   3   0  -7   10.92    0.66
   3   0  -7   11.49    0.71
   3   0  -7   11.05    0.54
   3   0  -6    0.20    0.41
   3   0  -6    0.07    0.30
   3   0  -6   -0.17    0.32
   3   0  -6    0.03    0.37
   3   0  -5    0.29    0.37
   3   0  -5    0.10    0.31
   3   0  -5    0.13    0.35
   3   0  -5    0.08    0.31
   3   0  -4   -0.05    0.27
   3   0  -4    0.06    0.27
   3   0  -4    0.05    0.30
   3   0  -4   -0.07    0.29
   3   0  -3   59.13    0.81
   3   0  -3   59.38    0.87
   3   0  -3   60.99    0.88
   3   0  -3   63.30    0.78
   3   0  -2   -0.08    0.30
   3   0  -2    0.02    0.29
   3   0  -2    0.04    0.20
   3   0  -1    1.49    0.31
   3   0  -1    1.53    0.33
   3   0  -1    1.61    0.17
   3   0   0    0.11    0.27
   3   0   0   -0.05    0.34
   3   0   0    0.06    0.17
   3   0   1    3.56    0.40
  -3   0  -2    0.05    0.32
   3   0   2   -0.06    0.36
  -3   0  -3   51.37    0.94
   3   0   3   51.80    0.97
  -3   0  -4    0.08    0.39
   3   0   4    0.11    0.46
   3   0   5    0.97    0.51
  -3   0  -5    0.89    0.49
  -3   0  -6   -0.02    0.51
  -3   0  -6    0.24    0.33
   3   0   6    0.01    0.55
   3   0   7   20.98    0.94
  -3   0  -7   20.20    0.97
  -3   0  -8   -0.08    0.60
   3   0   8    0.07    0.61
  -3   0  -9    5.17    0.73
  -3   0 -10    0.33    0.66
  -3   0 -11    4.26    0.82
  -3   0 -12   -0.78    0.80
   3   1 -14    0.47    0.71
   3  -1 -14    0.28    0.75
   3  -1 -13    2.57    0.73
   3   1 -13    1.44    0.80
   3   1 -12    1.11    0.69
   3  -1 -12    1.14    0.74
   3  -1 -11    9.75    0.88
   3   1 -11    9.98    0.91
   3  -1 -10   18.78    1.02
   3   1 -10   19.45    1.04
   3  -1 -10   18.65    0.99
   3   1 -10   17.86    0.78
   3  -1  -9   16.67    0.89
   3   1  -9   15.03    0.92
   3  -1  -9   16.76    0.97
   3   1  -9   15.15    0.76
   3   1  -8   19.21    0.90
   3   1  -8   18.57    0.76
   3  -1  -8   18.77    0.93
   3  -1  -8   18.67    0.88
   3  -1  -8   17.15    0.61
   3  -1  -7    1.08    0.56
   3   1  -7    1.25    0.43
   3  -1  -7    1.06    0.35
   3   1  -7    1.08    0.51
   3  -1  -7    0.89    0.45
   3   1  -6   17.07    0.66
   3   1  -6   16.36    0.49
   3  -1  -6   16.54    0.67
   3  -1  -6   16.59    0.72
   3   1  -6   17.38    0.73
   3  -1  -6   16.51    0.56
   3  -1  -5    1.24    0.31
   3  -1  -5    1.27    0.39
   3   1  -5    1.15    0.37
   3  -1  -5    1.25    0.41
   3   1  -5    1.22    0.28
   3  -1  -5    0.89    0.35
   3   1  -5    1.31    0.39
   3  -1  -4    3.81    0.42
   3   1  -4    3.74    0.44
   3   1  -4    3.87    0.30
   3  -1  -4    3.80    0.35
   3  -1  -4    3.69    0.35
   3   1  -4    3.90    0.38
   3  -1  -4    4.03    0.40
   3   1  -3   12.37    0.52
   3   1  -3   12.22    0.39
   3  -1  -3   12.54    0.40
   3  -1  -3   12.32    0.46
   3  -1  -3   11.96    0.48
   3   1  -3   11.88    0.48
   3  -1  -3   12.30    0.46
   3  -1  -2   44.41    0.78
   3  -1  -2   42.98    0.58
   3  -1  -2   45.36    0.69
   3   1  -2   45.13    0.69
   3   1  -2   44.14    0.76
   3  -1  -1  294.05    1.55
   3  -1  -1  291.45    1.81
   3   1  -1  294.13    1.73
   3   1  -1  293.63    1.78
   3   1   0    0.58    0.26
   3  -1   0    0.41    0.29
   3  -1   0    0.70    0.32
   3   1   0    0.38    0.37
  -3   1  -1  111.62    0.95
   3  -1   1  111.62    1.15
   3   1   1  109.82    1.26
   3   1   1  112.99    1.02
   3   1   2    3.51    0.46
  -3   1  -2    3.54    0.31
  -3  -1  -2    3.41    0.42
   3  -1   2    3.57    0.38
   3   1   2    3.30    0.27
  -3  -1  -3   77.48    1.22
  -3   1  -3   77.00    1.05
   3   1   3   78.75    1.23
   3  -1   3   78.23    1.08
   3  -1   4   31.24    0.77
   3   1   4   30.62    0.92
  -3   1  -4   28.95    0.79
  -3  -1  -4   28.55    0.87
  -3   1  -5   -0.19    0.45
  -3  -1  -5    0.24    0.48
   3   1   5   -0.05    0.58
   3  -1   5    0.41    0.43
  -3   1  -6   13.24    0.75
  -3   1  -6   14.31    0.67
   3  -1   6   13.45    0.71
  -3  -1  -6   12.80    0.83
  -3   1  -7    3.80    0.62
  -3   1  -7    4.07    0.54
  -3  -1  -7    3.60    0.73
   3   1   7    4.01    0.78
   3  -1   7    3.87    0.61
  -3   1  -8    0.96    0.55
  -3  -1  -8    0.49    0.63
   3   1   8    0.60    0.70
  -3  -1  -9    8.99    0.88
   3   1   9    7.81    0.88
  -3   1  -9    8.41    0.79
  -3   1 -10    1.81    0.71
   3   1  10    1.88    0.76
  -3  -1 -10    1.78    0.70
  -3   1 -11   -0.02    0.71
  -3  -1 -11    0.64    0.74
  -3  -1 -12    0.12    0.78
  -3   1 -12    0.15    0.78
   3  -2 -14    0.96    0.79
   3   2 -13   -0.24    0.73
   3  -2 -13   -0.18    0.73
   3  -2 -12   -0.28    0.73
   3  -2 -12    0.62    0.77
   3   2 -12   -0.05    0.72
   3  -2 -11   -0.33    0.73
   3   2 -11   -0.10    0.68
   3  -2 -11    0.12    0.66
   3   2 -10   -0.23    0.52
   3  -2 -10    0.07    0.71
   3   2 -10    0.26    0.62
   3  -2 -10    0.02    0.59
   3  -2  -9    0.14    0.65
   3   2  -9    0.22    0.45
   3   2  -9    0.18    0.59
   3  -2  -9    0.02    0.53
   3   2  -8    9.90    0.71
   3   2  -8    9.99    0.79
   3  -2  -8    8.80    0.81
   3  -2  -8   10.22    0.72
   3   2  -7    5.07    0.65
   3  -2  -7    4.65    0.65
   3  -2  -7    5.06    0.56
   3   2  -7    4.45    0.58
   3   2  -6    7.81    0.64
   3   2  -6    6.90    0.29
   3   2  -6    8.33    0.60
   3  -2  -6    7.28    0.63
   3  -2  -6    8.11    0.52
   3  -2  -5    0.01    0.45
   3   2  -5    0.20    0.40
   3   2  -5    0.08    0.19
   3  -2  -5    0.07    0.44
   3   2  -5    0.04    0.40
   3  -2  -5    0.14    0.30
   3   2  -4  222.48    2.01
   3   2  -4  223.46    2.04
   3  -2  -4  217.55    1.97
   3  -2  -4  229.01    1.58
   3   2  -4  217.31    1.26
   3  -2  -4  227.04    1.98
   3   2  -3   24.23    0.51
   3  -2  -3   24.85    0.72
   3  -2  -3   25.49    0.48
   3  -2  -3   26.03    0.71
   3   2  -3   24.99    0.70
   3  -2  -2    3.89    0.18
   3  -2  -2    4.43    0.42
   3   2  -2    4.67    0.35
   3  -2  -2    4.27    0.42
   3   2  -2    4.45    0.41
   3  -2  -1   19.15    0.58
   3   2  -1   20.07    0.58
   3  -2  -1   18.91    0.61
  -3  -2   1   18.90    0.42
   3   2  -1   19.84    0.59
   3  -2   0    3.40    0.36
   3   2   0    3.52    0.43
   3   2   0    3.45    0.32
   3  -2   0    3.52    0.42
  -3  -2   0    3.36    0.23
   3  -2   1   34.12    0.81
   3  -2   1   36.40    0.73
  -3   2  -1   34.75    0.47
  -3  -2  -1   34.93    0.51
   3   2   1   35.73    0.63
   3   2   1   34.10    0.83
  -3   2  -2    0.18    0.23
  -3  -2  -2    0.16    0.24
   3   2   2    0.20    0.22
   3  -2   2    0.07    0.31
  -3  -2  -3   11.06    0.64
  -3   2  -3   10.92    0.44
   3  -2   3   11.94    0.48
  -3  -2  -3   10.36    0.45
   3   2   3   11.34    0.34
  -3  -2  -4   25.48    0.71
   3  -2   4   26.14    0.68
  -3   2  -4   24.72    0.70
  -3  -2  -4   25.33    0.90
  -3   2  -5    1.93    0.44
  -3  -2  -5    1.97    0.62
  -3  -2  -5    1.91    0.47
   3  -2   5    1.78    0.39
  -3   2  -6    6.24    0.66
  -3   2  -6    5.40    0.59
  -3  -2  -6    4.60    0.61
   3  -2   6    5.82    0.51
  -3  -2  -6    5.93    0.71
  -3   2  -7    0.28    0.56
  -3   2  -7    0.22    0.56
  -3  -2  -7    0.43    0.65
  -3   2  -8    0.58    0.57
  -3   2  -8    0.44    0.50
  -3  -2  -8    0.49    0.68
  -3  -2  -9    1.71    0.74
  -3   2  -9    2.57    0.70
  -3  -2 -10    0.36    0.72
  -3   2 -10   -0.16    0.63
  -3   2 -11   -0.33    0.72
   3   2  11    0.73    0.82
  -3  -2 -11    0.01    0.73
  -3  -2 -12    0.45    0.79
  -3   2 -12    0.57    0.71
   3  -3 -14   -0.12    0.73
   3  -3 -13    0.98    0.98
   3  -3 -13    0.43    0.64
   3   3 -13    0.05    0.80
   3  -3 -12    0.58    0.86
   3   3 -12    1.10    0.70
   3  -3 -12    0.37    0.66
   3  -3 -11    0.29    0.75
   3   3 -11    0.68    0.56
   3   3 -11    0.72    0.67
   3  -3 -11    0.76    0.59
   3   3 -10    0.06    0.56
   3  -3 -10   -0.34    0.72
   3  -3 -10    0.18    0.56
   3   3 -10    0.58    0.64
   3   3  -9    0.33    0.59
   3   3  -9    1.17    0.54
   3  -3  -9    0.65    0.62
   3  -3  -9    0.15    0.51
   3  -3  -8    4.55    0.58
   3   3  -8    4.56    0.67
   3  -3  -8    4.38    0.75
   3   3  -8    4.32    0.71
   3   3  -7    0.63    0.56
   3  -3  -7    0.11    0.60
   3   3  -7    0.43    0.60
   3  -3  -7    0.54    0.46
   3   3  -6    1.82    0.56
   3   3  -6    1.64    0.58
   3  -3  -6    1.53    0.60
   3  -3  -6    1.41    0.41
   3   3  -5    7.01    0.63
   3   3  -5    6.11    0.60
   3  -3  -5    6.16    0.43
   3  -3  -5    5.96    0.63
   3  -3  -4    2.58    0.30
   3   3  -4    2.40    0.26
   3  -3  -4    3.21    0.53
   3   3  -4    2.84    0.48
   3  -3  -4    2.92    0.55
   3  -3  -3    0.06    0.44
   3  -3  -3    0.02    0.16
   3   3  -3    0.08    0.28
   3   3  -3    0.26    0.41
   3  -3  -3    0.11    0.40
   3   3  -2    6.22    0.48
   3  -3  -2    5.67    0.49
   3   3  -2    5.63    0.42
   3  -3  -2    6.43    0.56
  -3  -3   2    5.99    0.46
   3  -3  -1    4.06    0.54
   3   3  -1    3.97    0.45
   3  -3  -1    4.29    0.45
  -3  -3   1    3.94    0.40
   3   3  -1    3.97    0.42
   3  -3   0    6.93    0.48
   3  -3   0    7.05    0.62
  -3  -3   0    6.34    0.38
   3   3   0    6.89    0.45
   3   3   1   79.13    1.04
  -3  -3  -1   77.30    0.94
   3  -3   1   78.87    1.08
   3  -3   1   77.10    1.34
  -3  -3  -2   33.52    0.71
   3  -3   2   34.67    1.02
   3  -3   2   37.23    0.77
  -3   3  -2   33.61    0.56
   3   3   2   36.88    0.68
  -3   3  -3   32.40    0.68
  -3  -3  -3   33.82    1.00
   3  -3   3   36.03    0.75
  -3  -3  -3   33.68    0.77
   3   3   3   34.47    0.59
  -3  -3  -4   16.69    0.85
  -3  -3  -4   15.04    0.68
  -3   3  -4   16.48    0.61
   3  -3   4   17.88    0.58
  -3  -3  -5    2.37    0.51
  -3  -3  -5    2.22    0.66
  -3   3  -5    2.91    0.67
  -3   3  -5    2.23    0.45
  -3  -3  -6    2.58    0.62
  -3   3  -6    3.12    0.71
  -3  -3  -6    3.53    0.72
  -3   3  -6    3.12    0.55
  -3  -3  -7    0.22    0.54
  -3  -3  -7   -0.03    0.57
  -3   3  -7    0.10    0.58
  -3   3  -7    0.25    0.48
  -3  -3  -8    0.35    0.62
  -3  -3  -8    0.92    0.70
  -3   3  -8    0.55    0.61
  -3   3  -8    0.15    0.55
  -3  -3  -9    0.34    0.68
  -3   3  -9   -0.14    0.62
  -3   3  -9    0.00    0.61
  -3  -3 -10    1.09    0.74
  -3   3 -10    1.68    0.66
  -3  -3 -11    0.48    0.80
  -3   3 -11   -0.70    0.65
  -3   3 -12    0.49    0.64
   3   4 -12    1.12    0.76
   3  -4 -12    0.52    0.89
   3   4 -12    1.56    0.71
   3   4 -11   -0.37    0.68
   3  -4 -11   -0.01    0.79
   3   4 -11   -0.37    0.61
   3  -4 -10    5.33    0.90
   3   4 -10    6.44    0.84
   3   4 -10    7.36    0.81
   3  -4  -9   10.48    0.78
   3   4  -9   10.26    0.89
   3  -4  -9   10.82    0.99
   3   4  -9   10.55    0.85
   3   4  -8    0.13    0.59
   3  -4  -8    0.06    0.71
   3   4  -8    0.55    0.55
   3  -4  -8   -0.38    0.48
   3  -4  -7    0.95    0.44
   3   4  -7    0.87    0.59
   3   4  -7    0.24    0.58
   3  -4  -7    1.18    0.62
   3   4  -6   28.76    1.13
   3  -4  -6   26.19    1.11
   3   4  -5   40.13    1.20
   3  -4  -5   40.00    1.20
   3   4  -4    5.16    0.72
   3  -4  -4    6.33    0.68
   3   4  -3    3.57    0.62
  -3  -4   3    3.46    0.58
   3   4  -3    3.11    0.42
   3  -4  -3    3.92    0.66
   3   4  -2    6.46    0.62
   3  -4  -2    7.22    0.61
   3   4  -2    5.99    0.51
   3  -4  -2    6.29    0.69
  -3  -4   2    7.13    0.61
   3   4  -1   12.71    0.66
   3  -4  -1   11.61    0.65
  -3  -4   1   12.22    0.61
   3  -4  -1   10.69    0.76
   3  -4   0    1.05    0.61
   3  -4   0    0.86    0.43
   3   4   0    0.53    0.40
  -3  -4   0    0.84    0.43
  -3  -4  -1    0.35    0.38
   3   4   1    0.32    0.35
   3  -4   1    0.06    0.68
   3  -4   1    0.32    0.40
  -3  -4  -2    8.07    0.54
   3  -4   2    8.84    0.51
   3  -4   2   10.15    0.84
   3   4   2    9.21    0.48
   3  -4   3    2.64    0.75
  -3  -4  -3    2.41    0.62
  -3  -4  -3    1.87    0.47
   3  -4   3    2.58    0.40
   3  -4   4   16.55    1.06
  -3   4  -4   16.12    0.96
  -3  -4  -4   12.72    0.71
  -3  -4  -4   13.85    0.89
  -3   4  -5    5.20    0.79
  -3  -4  -5    3.68    0.74
  -3  -4  -5    3.83    0.61
  -3   4  -6   19.24    1.06
  -3  -4  -6   16.14    0.85
  -3  -4  -6   15.84    0.95
  -3  -4  -7   35.33    1.19
  -3  -4  -7   38.01    1.34
  -3   4  -7   39.41    1.38
  -3   4  -8   18.53    1.06
  -3  -4  -8   17.03    1.08
  -3  -4  -8   14.97    0.95
  -3  -4  -9    0.44    0.67
  -3  -4  -9    0.01    0.74
  -3   4  -9    0.15    0.69
  -3  -4 -10    0.13    0.73
  -3  -4 -11   -0.33    0.84
   3   5 -12    0.03    0.66
   3   5 -12    0.08    0.89
   3  -5 -11    0.60    0.79
   3   5 -11   -0.08    0.71
   3   5 -11    0.77    0.71
   3   5 -10    1.38    0.74
   3  -5 -10    0.79    0.81
   3   5 -10    0.46    0.69
   3   5  -9    0.90    0.68
   3  -5  -9    0.28    0.77
   3   5  -9    0.33    0.65
   3   5  -8    0.40    0.70
   3  -5  -8    0.92    0.77
   3  -5  -7    0.05    0.71
   3   5  -7   -0.07    0.66
   3   5  -6    2.89    0.70
   3  -5  -6    2.57    0.74
   3   5  -5   27.06    1.13
  -3  -5   5   27.55    1.10
   3  -5  -5   26.76    1.15
   3   5  -4   48.74    1.40
   3  -5  -4   47.73    1.40
  -3  -5   4   47.41    1.29
  -3  -5   3    5.66    0.77
   3   5  -3    5.17    0.73
   3  -5  -3    5.80    0.83
   3   5  -2   22.90    0.96
   3  -5  -2   24.29    1.09
  -3  -5   2   24.41    0.94
   3   5  -1   58.69    1.33
   3  -5  -1   60.80    1.48
  -3  -5   1   59.91    1.26
   3   5   0    3.10    0.58
  -3  -5   0    3.46    0.61
   3  -5   0    4.39    0.82
   3   5   1    0.32    0.43
  -3  -5  -1    0.42    0.50
   3  -5   1   -0.51    0.79
   3  -5   1    0.21    0.47
  -3   5  -2    3.27    0.80
   3  -5   2    2.86    0.89
  -3  -5  -2    1.94    0.54
  -3  -5  -3    8.71    0.80
  -3  -5  -3    7.33    0.66
  -3   5  -3    9.55    0.92
   3  -5   3    7.93    0.99
   3  -5   4    0.20    0.81
  -3  -5  -4    0.72    0.50
  -3  -5  -4    0.40    0.61
  -3   5  -4    0.43    0.70
   3  -5   5    2.72    0.86
  -3  -5  -5    1.23    0.72
  -3   5  -5    1.11    0.72
  -3  -5  -5    0.91    0.54
  -3  -5  -6    0.72    0.57
  -3   5  -6    0.87    0.74
   3  -5   6    1.04    0.84
  -3  -5  -6    0.85    0.68
  -3  -5  -7    4.77    0.79
  -3   5  -7    5.18    0.86
  -3   5  -8   12.58    1.06
  -3  -5  -8   12.93    1.04
  -3  -5  -9    1.92    0.86
  -3   5  -9    2.70    0.83
  -3  -5 -10    2.14    0.89
  -3   5 -10    2.94    0.77
   3  -6 -10    0.20    0.86
   3   6 -10   -0.14    0.81
   3   6  -9    1.56    0.74
   3  -6  -9    0.09    0.84
   3  -6  -8    0.66    0.81
   3   6  -8    1.17    0.74
  -3  -6   7    0.72    0.80
   3   6  -7    0.19    0.69
   3  -6  -7   -1.11    0.72
  -3  -6   6   -0.05    0.75
   3   6  -6   -0.05    0.73
   3  -6  -6   -0.15    0.78
   3   6  -5    0.95    0.74
  -3  -6   5    1.88    0.79
   3  -6  -5    1.18    0.73
   3  -6  -4    3.81    0.77
  -3  -6   4    4.47    0.79
   3   6  -4    4.63    0.73
   3   6  -3   67.26    1.64
   3  -6  -3   68.66    1.68
  -3  -6   3   70.34    1.58
   3   6  -2   24.87    1.09
  -3  -6   2   24.85    1.02
   3  -6  -2   24.41    1.16
   3   6  -1    0.03    0.51
  -3   6   1    0.46    0.67
   3  -6  -1   -0.09    0.75
  -3  -6   1   -0.24    0.60
   3   6   0    7.61    0.68
  -3   6   0    7.58    0.86
   3  -6   0    8.29    0.89
  -3  -6   0    7.48    0.70
   3   6   1    9.65    0.68
  -3   6  -1   11.53    0.95
  -3  -6  -1    8.61    0.70
   3  -6   1   11.12    1.01
   3  -6   2    0.04    0.77
  -3   6  -2    0.02    0.69
  -3  -6  -2   -0.06    0.52
  -3  -6  -3    0.51    0.62
  -3   6  -3    0.84    0.71
   3  -6   3    0.71    0.85
  -3  -6  -3    0.41    0.52
   3  -6   4    0.07    0.91
  -3  -6  -4   -0.11    0.66
  -3   6  -4    0.23    0.78
  -3  -6  -5    0.10    0.65
  -3   6  -5    0.44    0.83
   3  -6   5    0.35    0.92
  -3  -6  -6    0.48    0.68
  -3   6  -6   -0.31    0.79
   3  -6   6    0.33    0.92
   3  -6   7    1.29    1.01
  -3   6  -7    1.07    0.80
  -3  -6  -7    0.75    0.70
  -3  -6  -8    0.72    0.71
   3  -6   8    0.65    1.01
  -3   6  -8    0.12    0.85
  -3  -6  -9    4.58    0.93
  -3   6  -9    5.94    0.93
   3  -6   9    5.46    1.16
  -3  -7   9    0.79    0.93
  -3  -7   8    1.95    1.01
   3   7  -8    1.11    0.85
   3  -7  -8    1.43    0.86
   3   7  -7    7.57    0.99
   3  -7  -7    6.18    0.99
  -3  -7   7    5.76    1.01
  -3  -7   6   -0.26    0.84
   3   7  -6   -0.29    0.82
   3  -7  -6   -0.29    0.81
   3   7  -5   -0.14    0.81
   3  -7  -5    0.30    0.81
  -3  -7   5    0.69    0.85
   3  -7  -4    1.79    0.79
   3   7  -4    0.76    0.67
  -3  -7   4    1.82    0.78
  -3  -7   3    2.72    0.72
   3  -7  -3    2.52    0.79
   3   7  -3    1.85    0.70
   3  -7  -2    0.89    0.83
   3   7  -2    1.65    0.72
  -3  -7   2    1.37    0.72
  -3   7   2    1.79    0.76
   3   7  -1    0.06    0.61
  -3   7   1   -0.11    0.70
   3  -7  -1   -0.45    0.83
  -3  -7   1   -0.09    0.63
   3   7   0   -0.19    0.58
  -3   7   0    0.12    0.74
   3  -7   0    0.04    0.82
  -3   7  -1    1.02    0.82
   3  -7   1    2.25    0.82
   3  -7   2    5.06    0.91
  -3   7  -2    3.25    0.85
  -3  -7  -2    3.66    0.73
   3  -7   3    0.93    0.98
  -3   7  -3    1.19    0.81
  -3   7  -4    1.44    0.85
   3  -7   4    0.85    0.98
  -3   7  -5    3.17    0.92
   3  -7   5    3.59    1.10
   3  -7   6    0.67    1.05
  -3   7  -6    0.04    0.85
   3  -7   7    0.75    1.08
  -3   7  -7    0.16    0.92
   3   8  -6    4.57    0.95
   3  -8  -6    6.51    1.08
   3   8  -5    0.35    0.80
   3  -8  -5   -0.55    0.90
   3   8  -4    2.12    0.86
   3  -8  -4    2.04    0.88
   3  -8  -3    0.24    0.86
   3   8  -3    0.45    0.68
   3  -8  -2   -0.19    0.87
   3   8  -2   -0.04    0.68
   3   8  -1   -0.87    0.65
   3  -8  -1   -0.13    0.88
  -3   8   1    0.20    0.70
  -3   8   0    0.72    0.75
   3  -8   0    0.52    0.89
  -3   8  -1    0.98    0.81
   3  -8   1    0.92    0.90
   3  -8   2    0.96    0.92
  -3   8  -2    0.58    0.85
   3  -8   3    2.01    0.96
  -3   8  -3    2.45    0.95
   3  -8   4    0.35    1.10
  -3   8  -4   -0.10    0.86
   3   9  -2    0.13    0.67
  -3   9   0   -0.16    0.81
  -3   9  -1   -1.31    0.95
   4   0 -14    0.29    0.71
   4   0 -13   -0.03    0.65
   4   0 -12    0.51    0.67
   4   0 -11    0.29    0.64
   4   0 -10    1.00    0.63
   4   0  -9    0.03    0.43
   4   0  -9   -0.05    0.55
   4   0  -8  178.29    2.26
   4   0  -8  171.80    1.92
   4   0  -7    0.00    0.49
   4   0  -7   -0.25    0.41
   4   0  -7    0.00    0.42
   4   0  -7   -0.16    0.48
   4   0  -6   12.97    0.57
   4   0  -6   13.85    0.67
   4   0  -6   14.70    0.66
   4   0  -6   12.99    0.61
   4   0  -5    0.01    0.35
   4   0  -5    0.04    0.34
   4   0  -5   -0.01    0.32
   4   0  -5    0.16    0.35
   4   0  -4  151.21    1.57
   4   0  -4  148.40    1.44
   4   0  -4  152.42    1.58
   4   0  -4  152.49    1.39
   4   0  -3   -0.05    0.33
   4   0  -3    0.00    0.25
   4   0  -3    0.07    0.31
   4   0  -2  115.75    1.26
   4   0  -2  117.70    0.87
   4   0  -2  117.08    1.31
   4   0  -1   -0.05    0.31
   4   0  -1   -0.07    0.33
   4   0  -1    0.05    0.16
   4   0   0   55.75    0.95
   4   0   0   50.51    0.52
   4   0   0   55.64    0.89
   4   0   1    0.21    0.40
  -4   0  -2    1.77    0.41
   4   0   2    2.55    0.45
  -4   0  -3    0.07    0.43
   4   0   3   -0.15    0.47
   4   0   4  381.05    2.80
  -4   0  -4  378.25    2.78
  -4   0  -5    0.26    0.51
   4   0   5    0.22    0.62
  -4   0  -6    3.16    0.65
   4   0   6    3.44    0.72
  -4   0  -7   -0.06    0.60
   4   0   7    0.01    0.70
   4   0   8   15.76    0.93
  -4   0  -8   15.95    1.00
  -4   0  -9    0.29    0.63
  -4   0 -10    0.27    0.64
  -4   0 -11    0.17    0.78
  -4   0 -12   -0.17    0.85
   4  -1 -14    0.74    0.72
   4   1 -14    1.32    0.82
   4   1 -13    0.27    0.72
   4  -1 -13   -0.18    0.68
   4   1 -12    0.34    0.67
   4  -1 -12    0.05    0.59
   4   1 -11    0.77    0.69
   4  -1 -11    1.49    0.59
   4   1 -10   31.28    1.25
   4  -1 -10   34.17    1.20
   4  -1 -10   32.31    1.24
   4   1 -10   31.04    1.00
   4  -1  -9   23.37    1.05
   4   1  -9   24.81    1.08
   4  -1  -9   25.35    1.02
   4   1  -9   23.35    0.88
   4  -1  -8    0.28    0.44
   4  -1  -8    0.22    0.59
   4   1  -8    0.15    0.46
   4  -1  -8    0.25    0.50
   4   1  -8    0.44    0.57
   4   1  -7    1.38    0.36
   4  -1  -7    0.79    0.40
   4  -1  -7    0.67    0.52
   4   1  -7    1.23    0.53
   4   1  -7    1.20    0.48
   4  -1  -7    0.70    0.45
   4  -1  -6    0.21    0.35
   4   1  -6   -0.05    0.41
   4  -1  -6    0.15    0.42
   4   1  -6    0.08    0.46
   4   1  -6    0.02    0.31
   4  -1  -6   -0.02    0.36
   4  -1  -6    0.07    0.45
   4  -1  -5    1.29    0.38
   4   1  -5    1.51    0.40
   4  -1  -5    1.29    0.41
   4  -1  -5    1.40    0.40
   4   1  -5    1.62    0.32
   4   1  -5    1.49    0.44
   4  -1  -5    1.41    0.36
   4   1  -4   70.82    1.20
   4   1  -4   69.59    0.95
   4  -1  -4   70.44    1.06
   4  -1  -4   68.27    1.10
   4  -1  -4   68.88    0.99
   4  -1  -4   69.14    1.08
   4   1  -4   70.11    1.14
   4  -1  -3  176.21    1.46
   4  -1  -3  174.92    1.65
   4   1  -3  174.13    1.47
   4  -1  -3  173.54    1.39
   4  -1  -3  177.05    1.65
   4   1  -3  176.91    1.70
   4  -1  -2   68.05    1.05
   4   1  -2   67.38    0.97
   4  -1  -2   68.44    0.87
   4   1  -2   67.94    1.04
   4   1  -1   27.01    0.69
   4  -1  -1   27.64    0.72
   4  -1  -1   26.94    0.57
   4   1  -1   27.08    0.68
   4   1   0    0.00    0.28
   4  -1   0    0.10    0.29
   4  -1   0    0.30    0.33
   4   1   0    0.14    0.39
   4   1   1    1.85    0.47
  -4   1  -1    2.01    0.31
   4  -1   1    1.70    0.37
   4  -1   1    1.71    0.40
   4   1   1    2.07    0.32
   4  -1   2   86.28    1.22
   4   1   2   83.74    1.32
  -4   1  -2   84.45    1.08
  -4  -1  -2   83.08    1.28
   4   1   3  234.37    2.23
  -4   1  -3  232.57    1.89
  -4  -1  -3  230.78    2.17
   4  -1   3  237.57    2.01
  -4  -1  -4   98.67    1.58
  -4   1  -4   95.04    1.40
   4  -1   4   99.07    1.41
   4   1   4   94.08    1.54
   4  -1   5    4.57    0.60
  -4   1  -5    3.75    0.58
  -4  -1  -5    4.08    0.63
   4   1   5    3.54    0.71
  -4  -1  -6    0.20    0.60
  -4   1  -6   -0.06    0.57
   4  -1   6    0.78    0.54
   4   1   6    0.43    0.66
  -4   1  -7    1.16    0.60
  -4  -1  -7    1.41    0.66
   4  -1   7    1.31    0.58
   4   1   7    1.41    0.73
  -4   1  -8    0.91    0.57
  -4  -1  -8    0.37    0.65
   4   1   8    0.41    0.70
  -4   1  -9    2.07    0.70
  -4  -1  -9    2.57    0.79
   4   1   9    1.57    0.79
   4   1  10    2.76    0.79
  -4   1 -10    3.13    0.81
  -4  -1 -10    2.60    0.79
  -4   1 -11    0.30    0.71
  -4  -1 -11    0.26    0.70
  -4  -1 -12   -0.29    0.82
  -4   1 -12   -0.39    0.73
   4  -2 -14    1.04    0.75
   4   2 -13    0.32    0.76
   4  -2 -13    0.90    0.71
   4  -2 -12    0.64    0.77
   4   2 -12    0.43    0.71
   4  -2 -12    0.34    0.60
   4  -2 -11    1.08    0.73
   4   2 -11    1.18    0.54
   4  -2 -11    1.41    0.62
   4   2 -11    1.52    0.73
   4  -2 -10    4.13    0.77
   4   2 -10    3.73    0.59
   4   2 -10    4.12    0.76
   4  -2 -10    3.77    0.68
   4  -2  -9    1.34    0.65
   4   2  -9    1.76    0.55
   4   2  -9    1.85    0.64
   4  -2  -9    1.56    0.56
   4  -2  -8    0.37    0.49
   4  -2  -8    0.92    0.66
   4   2  -8    0.36    0.54
   4   2  -8    0.59    0.62
   4   2  -7    0.12    0.56
   4   2  -7    0.12    0.45
   4  -2  -7    0.34    0.59
   4  -2  -7    0.11    0.44
   4   2  -6    0.32    0.26
   4   2  -6    0.53    0.48
   4  -2  -6    0.53    0.53
   4   2  -6    0.36    0.52
   4  -2  -6    0.49    0.51
   4  -2  -6    0.49    0.39
   4   2  -5   -0.02    0.26
   4   2  -5    0.02    0.42
   4  -2  -5    0.06    0.46
   4  -2  -5   -0.12    0.45
   4   2  -5    0.23    0.45
   4  -2  -5    0.08    0.30
   4  -2  -4    2.20    0.44
   4   2  -4    2.26    0.43
   4  -2  -4    2.27    0.29
   4   2  -4    1.91    0.31
   4  -2  -4    2.11    0.44
   4  -2  -3   46.48    0.98
   4   2  -3   45.34    0.99
   4  -2  -3   47.43    0.65
   4   2  -3   46.04    0.80
   4  -2  -3   46.44    0.93
   4  -2  -2   10.94    0.56
   4   2  -2   11.68    0.53
   4  -2  -2   11.17    0.55
   4   2  -2   11.66    0.55
   4  -2  -1   30.26    0.79
   4   2  -1   29.27    0.78
   4  -2  -1   29.54    0.74
  -4  -2   1   26.79    0.36
   4   2  -1   29.17    0.76
   4  -2   0    1.83    0.41
   4   2   0    2.03    0.35
   4  -2   0    1.84    0.44
  -4  -2   0    1.59    0.14
  -4   2   0    2.15    0.21
   4   2   0    2.03    0.51
   4   2   1    2.10    0.32
  -4   2  -1    1.37    0.23
  -4  -2  -1    1.08    0.18
   4  -2   1    1.66    0.47
   4  -2   1    1.37    0.40
   4   2   1    1.29    0.50
   4  -2   2   75.72    1.24
   4  -2   2   83.00    1.18
   4   2   2   77.37    1.38
  -4   2  -2   77.86    0.95
  -4  -2  -2   77.28    0.82
   4   2   2   83.03    1.01
  -4  -2  -3   34.59    0.68
   4   2   3   36.57    1.09
  -4   2  -3   35.05    0.77
   4  -2   3   37.35    0.85
  -4  -2  -3   34.83    1.02
   4   2   3   36.76    0.66
  -4   2  -4    0.58    0.41
   4   2   4    0.96    0.69
   4  -2   4    0.62    0.44
  -4  -2  -4    0.70    0.59
  -4  -2  -4    0.84    0.37
  -4  -2  -5    4.39    0.75
  -4   2  -5    4.68    0.52
   4  -2   5    4.88    0.56
   4   2   5    4.43    0.79
  -4   2  -6    0.18    0.48
  -4  -2  -6    0.23    0.61
   4  -2   6    0.07    0.48
   4   2   6    0.66    0.77
  -4   2  -7    1.86    0.54
  -4  -2  -7    2.37    0.69
  -4   2  -7    2.98    0.61
   4   2   7    2.57    0.83
  -4   2  -8   -0.46    0.54
  -4  -2  -8    0.12    0.67
   4   2   8    0.38    0.81
  -4   2  -9   -0.18    0.56
  -4  -2  -9    0.06    0.74
   4   2   9    1.39    0.83
   4   2  10    0.94    0.86
  -4  -2 -10    0.82    0.78
  -4   2 -10    1.12    0.66
  -4  -2 -11    1.17    0.86
   4   2  11    1.41    0.89
  -4   2 -11    2.13    0.76
  -4   2 -12    0.08    0.69
   4  -3 -14    0.34    0.73
   4  -3 -13    0.44    0.86
   4   3 -13   -0.05    0.79
   4  -3 -13   -0.05    0.72
   4  -3 -12    1.44    0.86
   4   3 -12    1.40    0.69
   4   3 -12    2.10    0.86
   4  -3 -12    2.06    0.60
   4  -3 -11    2.13    0.78
   4   3 -11    2.77    0.68
   4   3 -11    1.85    0.77
   4  -3 -11    2.18    0.64
   4   3 -10   12.35    1.01
   4  -3 -10   11.60    0.97
   4  -3 -10   12.71    0.85
   4   3 -10   12.02    0.84
   4   3  -9    0.57    0.59
   4  -3  -9    0.18    0.64
   4   3  -9    0.01    0.66
   4  -3  -9    0.25    0.49
   4  -3  -8   11.99    0.70
   4  -3  -8   11.30    0.88
   4   3  -8   10.99    0.86
   4   3  -8   11.80    0.83
   4   3  -7    2.87    0.63
   4   3  -7    3.07    0.67
   4  -3  -7    2.41    0.67
   4  -3  -7    2.75    0.47
   4   3  -6    1.90    0.59
   4   3  -6    2.07    0.62
   4  -3  -6    2.35    0.61
   4  -3  -6    1.77    0.40
   4   3  -5   10.83    0.72
   4  -3  -5   11.83    0.77
   4  -3  -5   11.05    0.50
   4  -3  -5   10.32    0.73
   4  -3  -4    7.46    0.62
   4  -3  -4    7.75    0.65
   4   3  -4    6.60    0.42
   4  -3  -4    7.61    0.36
   4   3  -4    8.14    0.64
   4  -3  -3   32.67    0.94
   4  -3  -3   29.50    0.44
   4  -3  -3   32.67    0.94
   4   3  -3   30.64    0.72
   4   3  -3   33.66    0.94
   4   3  -2   10.32    0.60
   4  -3  -2    9.32    0.62
   4   3  -2   10.24    0.56
   4  -3  -2   10.60    0.63
  -4  -3   2   10.13    0.47
   4  -3  -1   12.28    0.63
   4   3  -1   11.08    0.62
   4  -3  -1   12.14    0.65
  -4  -3   1   11.82    0.43
   4   3  -1   12.39    0.61
   4  -3   0    3.21    0.45
  -4  -3   0    3.32    0.29
   4  -3   0    3.91    0.58
   4   3   0    3.36    0.40
   4   3   0    3.70    0.55
   4   3   1    0.06    0.31
   4  -3   1   -0.05    0.56
   4  -3   1   -0.13    0.37
  -4  -3  -1   -0.06    0.25
   4   3   1    0.02    0.57
  -4  -3  -2   35.37    0.69
   4  -3   2   36.26    1.06
   4  -3   2   37.93    0.88
  -4   3  -2   32.32    0.59
   4   3   2   35.57    1.08
   4   3   2   38.15    0.75
   4  -3   3    8.86    0.76
   4  -3   3    9.20    0.55
  -4   3  -3    7.79    0.43
  -4  -3  -3    8.34    0.76
  -4  -3  -3    8.36    0.48
  -4  -3  -4    1.10    0.42
  -4  -3  -4    1.34    0.67
   4  -3   4    1.32    0.42
  -4   3  -4    1.22    0.39
  -4  -3  -5    1.33    0.47
  -4  -3  -5    1.78    0.75
  -4   3  -5    1.59    0.47
  -4  -3  -6    1.40    0.51
  -4   3  -6    1.59    0.68
  -4  -3  -6    0.93    0.69
  -4   3  -6    0.85    0.48
  -4  -3  -7    0.35    0.65
  -4   3  -7    0.41    0.67
  -4  -3  -7    0.75    0.55
  -4   3  -7    0.44    0.49
  -4  -3  -8    2.11    0.78
  -4   3  -8    2.03    0.68
  -4   3  -8    1.98    0.56
   4   3   9   10.00    1.06
  -4  -3  -9   10.07    1.00
  -4   3  -9    8.98    0.83
  -4  -3 -10    2.04    0.85
   4   3  10    2.04    0.96
  -4   3 -10    1.50    0.68
  -4  -3 -11   -0.03    0.88
   4   3  11    1.14    0.95
  -4   3 -11    0.70    0.71
   4  -4 -12    0.23    0.85
   4   4 -12    0.04    0.65
   4   4 -12    0.17    0.83
   4  -4 -11    0.27    0.79
   4   4 -11    0.43    0.68
   4   4 -11    0.63    0.81
   4   4 -10    1.53    0.68
   4  -4 -10    0.54    0.74
   4   4 -10    0.85    0.70
   4   4  -9   17.02    1.04
   4  -4  -9   15.67    1.11
   4   4  -9   15.55    0.98
   4   4  -8    2.52    0.63
   4  -4  -8    2.83    0.73
   4   4  -8    2.65    0.74
   4   4  -7    1.32    0.62
   4  -4  -7    1.25    0.65
   4  -4  -6   10.80    0.85
   4   4  -6   11.98    0.86
   4  -4  -5   13.02    0.89
   4   4  -5   13.95    0.84
   4  -4  -4    4.55    0.70
   4   4  -4    4.23    0.62
   4  -4  -4    4.76    0.66
   4  -4  -3    0.27    0.57
   4   4  -3    0.04    0.50
   4  -4  -3   -0.08    0.54
  -4  -4   3    0.54    0.50
   4   4  -3   -0.15    0.42
   4   4  -2    6.20    0.57
   4  -4  -2    7.02    0.63
   4  -4  -2    5.99    0.73
  -4  -4   2    6.39    0.55
   4   4  -2    6.59    0.63
   4  -4  -1    7.06    0.63
   4   4  -1    5.40    0.63
   4  -4  -1    7.19    0.70
  -4  -4   1    6.51    0.51
   4   4  -1    6.81    0.59
   4  -4   0    6.28    0.59
   4   4   0    5.41    0.68
  -4  -4   0    5.25    0.47
   4  -4   0    6.30    0.71
   4   4   0    6.00    0.53
   4  -4   1   14.15    0.67
   4  -4   1   13.68    0.90
  -4  -4  -1   12.24    0.55
   4   4   1   12.77    0.61
   4  -4   2    0.95    0.76
   4   4   2    0.61    0.34
   4  -4   2    0.82    0.42
  -4  -4  -2    0.72    0.40
  -4  -4  -3    0.72    0.68
   4  -4   3    0.54    0.44
   4  -4   3    1.05    0.74
   4  -4   4   11.97    1.02
  -4  -4  -4   10.96    0.91
  -4  -4  -5    1.02    0.69
  -4   4  -5    1.57    0.72
  -4  -4  -6    0.99    0.69
  -4   4  -6    1.36    0.70
  -4  -4  -7    0.45    0.73
  -4   4  -7    0.35    0.73
  -4  -4  -8   -0.12    0.69
  -4   4  -8    0.34    0.67
  -4  -4  -9    1.25    0.74
  -4   4  -9    1.61    0.77
  -4  -4 -10    2.13    0.89
   4   5 -12    2.46    0.80
   4   5 -11    0.48    0.76
   4  -5 -11   -0.14    0.78
   4   5 -11    0.50    0.67
   4   5 -10    0.42    0.57
   4  -5 -10    1.01    0.81
   4   5  -9   -0.18    0.60
   4  -5  -9    0.29    0.74
   4  -5  -8    0.49    0.67
   4   5  -8    0.01    0.63
   4   5  -7    0.42    0.64
   4  -5  -7    0.48    0.70
   4   5  -6    1.72    0.69
   4  -5  -6    1.89    0.69
  -4  -5   5   29.12    1.06
   4  -5  -5   27.46    1.13
   4   5  -5   27.40    1.11
   4   5  -4   48.78    1.36
   4  -5  -4   49.99    1.42
  -4  -5   4   48.92    1.24
   4  -5  -3   16.50    0.96
  -4  -5   3   16.24    0.87
   4   5  -3   16.31    0.93
   4   5  -2    7.47    0.65
   4  -5  -2    9.26    0.75
   4  -5  -2    8.09    0.83
  -4  -5   2    9.56    0.69
   4   5  -2    8.69    0.71
   4   5  -1    3.16    0.60
   4  -5  -1    3.50    0.62
   4  -5  -1    3.14    0.78
   4   5  -1    2.65    0.65
   4   5   0    1.57    0.53
   4  -5   0    1.75    0.57
   4  -5   0    0.88    0.78
   4  -5   1    3.49    0.88
   4   5   1    2.94    0.50
   4  -5   1    3.50    0.57
   4  -5   2    0.77    0.78
   4  -5   2    0.61    0.47
   4  -5   3    0.22    0.83
  -4  -5  -3    0.27    0.63
  -4   5  -4   16.04    1.08
  -4  -5  -4   15.06    0.98
   4  -5   4   17.37    1.13
   4  -5   5    2.59    0.83
  -4  -5  -5    1.10    0.69
  -4   5  -5    1.33    0.78
   4  -5   6    2.60    0.91
  -4  -5  -6    1.16    0.75
  -4   5  -6    2.47    0.84
  -4  -5  -7    1.16    0.65
  -4   5  -7    0.46    0.76
  -4  -5  -8    0.83    0.78
  -4   5  -8    0.98    0.77
  -4  -5  -9    0.07    0.86
  -4   5  -9   -0.60    0.78
  -4  -5 -10   -0.14    0.82
   4   6 -10    0.51    0.71
   4  -6 -10   -0.15    0.91
   4   6  -9    0.32    0.76
   4  -6  -9    1.48    0.87
   4   6  -8    0.59    0.74
   4  -6  -8    0.81    0.75
  -4  -6   7    2.19    0.78
   4   6  -7    1.64    0.73
   4  -6  -7    2.42    0.80
  -4  -6   6    4.81    0.85
   4   6  -6    3.96    0.79
   4  -6  -6    3.17    0.82
   4   6  -5    1.52    0.71
  -4  -6   5    1.43    0.71
   4  -6  -5    2.02    0.79
   4  -6  -4    0.91    0.69
   4   6  -4    1.05    0.66
   4  -6  -3    0.93    0.71
   4   6  -3   -0.06    0.56
   4   6  -2    2.10    0.60
   4  -6  -2    2.16    0.81
   4   6  -1    0.95    0.56
   4  -6  -1    1.72    0.73
   4   6  -1    1.27    0.64
   4  -6   0    3.69    0.83
   4   6   0    3.63    0.61
   4  -6   1    1.21    0.81
   4  -6   2    0.75    0.87
  -4   6  -2    0.94    0.82
  -4  -6  -3    1.18    0.70
  -4   6  -3    0.96    0.79
   4  -6   3    1.97    0.92
  -4  -6  -4    0.21    0.67
  -4   6  -4    0.87    0.84
   4  -6   4    0.75    0.92
   4  -6   5    0.03    0.91
  -4  -6  -5    0.25    0.74
  -4   6  -5   -0.20    0.75
  -4  -6  -6    0.20    0.75
  -4   6  -6    0.59    0.81
   4  -6   6    0.06    0.85
   4  -6   7    0.61    0.92
  -4  -6  -7    0.67    0.74
  -4   6  -7    0.28    0.80
  -4  -6  -8    1.22    0.85
  -4   6  -8    2.64    0.91
   4  -6   8    3.00    1.09
  -4  -6  -9   -0.41    0.80
  -4   6  -9    0.30    0.88
   4   7  -8    1.17    0.80
   4  -7  -8    1.43    0.97
   4   7  -7    2.08    0.81
   4  -7  -7    1.35    0.84
   4   7  -6    3.63    0.80
   4  -7  -6    3.08    0.88
   4   7  -5    2.17    0.74
   4  -7  -5    1.59    0.81
   4  -7  -4    0.93    0.79
   4   7  -4    1.75    0.74
   4  -7  -3    0.55    0.76
   4   7  -3    0.75    0.61
  -4   7   3    0.66    0.66
   4   7  -2    0.08    0.56
   4  -7  -2   -0.18    0.80
  -4   7   2    0.17    0.74
   4   7  -1    2.65    0.63
   4  -7  -1    2.10    0.87
  -4   7   1    1.88    0.79
  -4   7   0    1.18    0.83
   4  -7   0    0.60    0.82
  -4   7  -1    0.83    0.79
   4  -7   1    0.25    0.83
   4  -7   2    0.47    0.78
  -4   7  -2   -0.01    0.86
  -4  -7  -2    0.44    0.70
   4  -7   3    0.20    0.87
  -4  -7  -3    0.34    0.65
  -4   7  -3    0.11    0.86
  -4  -7  -4   -0.03    0.68
  -4   7  -4    0.86    0.85
   4  -7   4    0.85    0.97
  -4  -7  -5    0.60    0.73
  -4   7  -5    1.36    0.95
   4  -7   5    1.29    0.98
   4  -7   6    0.04    1.09
  -4  -7  -6    0.19    0.86
  -4   7  -6   -0.33    0.95
  -4  -7  -7   -0.04    0.77
   4   8  -5    0.39    0.76
   4  -8  -5    0.23    0.91
   4  -8  -4    0.08    0.86
   4   8  -4   -0.03    0.73
   4  -8  -3   -0.02    0.85
   4   8  -3    0.45    0.73
   4  -8  -2    2.23    0.90
   4   8  -2    1.33    0.67
  -4   8   2    1.66    0.77
   4  -8  -1    0.85    0.86
  -4   8   1    0.15    0.77
  -4   8   0    3.08    0.93
   4  -8   0    2.99    0.94
   4  -8   1   -0.54    0.93
  -4   8  -1    0.71    0.94
  -4   8  -2    0.24    0.85
   4  -8   2    0.07    0.92
  -4   8  -3    0.65    1.02
   4  -8   3    0.45    0.93
  -4   9   1    7.64    1.00
   5   0 -14   -0.12    0.83
   5   0 -13    1.03    0.77
   5   0 -12    0.24    0.65
   5   0 -11    4.70    0.76
   5   0 -10   -0.40    0.52
   5   0 -10    0.03    0.58
   5   0  -9  102.13    1.88
   5   0  -9   95.17    1.61
   5   0  -8   -0.02    0.49
   5   0  -8   -0.12    0.58
   5   0  -8    0.18    0.51
   5   0  -8    0.39    0.58
   5   0  -7   81.85    1.41
   5   0  -7   83.35    1.35
   5   0  -7   84.94    1.53
   5   0  -7   80.82    1.43
   5   0  -6   -0.05    0.44
   5   0  -6    0.00    0.44
   5   0  -6   -0.21    0.41
   5   0  -6    0.31    0.44
   5   0  -5    2.07    0.45
   5   0  -5    2.14    0.44
   5   0  -5    2.55    0.41
   5   0  -5    2.21    0.43
   5   0  -4    0.01    0.39
   5   0  -4    0.03    0.37
   5   0  -4    0.16    0.30
   5   0  -3    3.34    0.45
   5   0  -3    3.69    0.32
   5   0  -3    3.99    0.44
   5   0  -2    0.04    0.36
   5   0  -2   -0.02    0.18
   5   0  -2    0.16    0.41
   5   0  -1    0.32    0.38
   5   0  -1    0.02    0.42
   5   0  -1    0.10    0.17
   5   0   0    0.07    0.18
   5   0   0   -0.05    0.42
   5   0   1   18.41    0.75
   5   0   1   16.45    0.44
  -5   0  -2    0.00    0.41
   5   0   2   -0.12    0.47
  -5   0  -3    0.38    0.49
   5   0   3    0.38    0.54
  -5   0  -4   -0.15    0.56
   5   0   4    0.52    0.60
   5   0   5    6.18    0.78
  -5   0  -5    7.69    0.72
  -5   0  -6    0.18    0.62
   5   0   6    0.18    0.72
  -5   0  -7    0.05    0.66
   5   0   7    0.26    0.67
  -5   0  -8    0.09    0.68
   5   0   8   -0.14    0.70
  -5   0  -9    5.45    0.86
  -5   0 -10    0.35    0.73
  -5   0 -11    2.70    0.89
   5  -1 -14    1.22    0.78
   5   1 -13    0.33    0.72
   5  -1 -13    0.98    0.71
   5   1 -12    1.42    0.71
   5  -1 -12    1.01    0.72
   5   1 -11    2.56    0.61
   5   1 -11    3.66    0.74
   5  -1 -11    4.26    0.73
   5   1 -10    9.87    0.86
   5  -1 -10    8.29    0.88
   5  -1 -10    8.00    0.79
   5   1 -10    7.94    0.70
   5   1  -9   47.05    1.38
   5  -1  -9   45.26    1.32
   5  -1  -9   46.66    1.29
   5  -1  -9   41.50    1.07
   5   1  -9   43.93    1.20
   5  -1  -8   16.51    0.83
   5  -1  -8   17.21    0.84
   5  -1  -8   16.80    0.91
   5   1  -8   16.13    0.92
   5  -1  -8   16.33    0.75
   5   1  -8   15.77    0.82
   5  -1  -7    2.46    0.51
   5   1  -7    2.65    0.56
   5  -1  -7    2.87    0.59
   5  -1  -7    2.70    0.57
   5   1  -7    2.73    0.45
   5   1  -7    2.66    0.59
   5  -1  -7    2.28    0.52
   5  -1  -6    7.87    0.61
   5   1  -6    7.42    0.51
   5  -1  -6    7.08    0.61
   5  -1  -6    7.53    0.57
   5   1  -6    6.36    0.65
   5  -1  -6    7.75    0.58
   5   1  -6    7.40    0.62
   5  -1  -5    0.14    0.40
   5   1  -5    0.27    0.35
   5   1  -5    0.36    0.41
   5  -1  -5    0.05    0.40
   5  -1  -5    0.16    0.44
   5  -1  -5    0.09    0.36
   5  -1  -4    9.33    0.49
   5  -1  -4    8.54    0.58
   5   1  -4    8.27    0.51
   5  -1  -4    8.08    0.55
   5   1  -4    8.09    0.56
   5  -1  -3    5.85    0.52
   5   1  -3    5.52    0.46
   5  -1  -3    5.92    0.41
   5  -1  -3    5.85    0.49
   5   1  -3    6.21    0.53
   5  -1  -2    3.74    0.49
   5   1  -2    3.35    0.46
   5  -1  -2    3.86    0.36
   5   1  -2    4.32    0.46
   5  -1  -1   42.94    0.97
   5   1  -1   40.53    0.94
   5  -1  -1   40.60    0.72
   5   1  -1   42.17    0.93
   5  -1   0   11.28    0.60
   5   1   0    9.17    0.61
   5  -1   0    9.34    0.45
   5   1   0   10.41    0.53
   5  -1   1   39.90    0.78
   5   1   1   44.01    1.04
   5  -1   1   43.80    0.98
  -5   1  -1   43.41    0.81
   5   1   1   43.70    0.90
  -5   1  -2    1.64    0.41
  -5  -1  -2    2.01    0.51
   5  -1   2    1.47    0.50
   5   1   2    2.24    0.61
   5  -1   3   41.94    1.04
   5   1   3   42.91    1.19
  -5   1  -3   43.48    0.96
  -5  -1  -3   42.87    1.11
  -5   1  -4   -0.15    0.43
  -5  -1  -4   -0.21    0.59
   5  -1   4    0.07    0.52
   5   1   4   -0.05    0.65
   5  -1   5    3.72    0.66
  -5   1  -5    3.19    0.60
  -5  -1  -5    3.18    0.70
   5   1   5    3.42    0.80
   5  -1   6   11.92    0.83
   5   1   6   11.36    0.97
  -5   1  -6   11.09    0.79
  -5  -1  -6   12.02    0.87
  -5   1  -7   -0.47    0.60
  -5  -1  -7    0.04    0.66
   5  -1   7    0.22    0.56
   5   1   7   -0.18    0.73
  -5   1  -8    2.91    0.68
  -5  -1  -8    3.16    0.76
   5   1   8    2.63    0.81
  -5   1  -9    0.26    0.65
  -5  -1  -9   -0.17    0.72
   5   1   9    0.17    0.73
  -5   1 -10    0.64    0.73
  -5  -1 -10    0.24    0.79
   5   1  10    0.76    0.83
  -5   1 -11    1.68    0.78
  -5  -1 -11    1.70    0.85
   5  -2 -14    9.63    0.95
   5   2 -13    4.19    0.94
   5  -2 -13    4.83    0.84
   5  -2 -12    2.22    0.77
   5   2 -12    0.90    0.71
   5  -2 -12    1.24    0.69
   5  -2 -11    0.36    0.70
   5   2 -11    0.07    0.54
   5   2 -11   -0.35    0.67
   5  -2 -11    0.28    0.61
   5  -2 -10    2.49    0.73
   5   2 -10    3.13    0.63
   5  -2 -10    2.51    0.62
   5   2 -10    3.32    0.72
   5   2  -9    0.54    0.54
   5  -2  -9    0.33    0.61
   5   2  -9    0.23    0.64
   5  -2  -9    0.20    0.46
   5   2  -8    1.47    0.59
   5  -2  -8    2.43    0.65
   5   2  -8    1.10    0.63
   5  -2  -8    1.76    0.53
   5   2  -7    0.18    0.55
   5  -2  -7    0.04    0.59
   5  -2  -7    0.17    0.60
   5   2  -7    0.27    0.62
   5  -2  -7    0.17    0.44
   5  -2  -6   26.80    0.93
   5   2  -6   24.89    0.67
   5   2  -6   27.11    0.99
   5  -2  -6   28.00    0.98
   5  -2  -6   26.15    0.79
   5   2  -6   25.31    0.94
   5  -2  -5   10.75    0.54
   5   2  -5   10.43    0.52
   5  -2  -5   11.07    0.65
   5  -2  -5   10.85    0.69
   5   2  -5   10.55    0.68
   5  -2  -4   13.53    0.70
   5  -2  -4   12.69    0.50
   5  -2  -4   13.74    0.65
   5   2  -4   12.94    0.56
   5   2  -4   12.80    0.69
   5   2  -3    0.64    0.42
   5  -2  -3    0.81    0.46
   5   2  -3    0.32    0.40
   5  -2  -3    0.71    0.41
   5  -2  -2   90.13    1.38
   5   2  -2   88.62    1.30
   5  -2  -2   92.43    1.25
   5   2  -2   92.20    1.39
   5   2  -1   20.24    0.76
   5  -2  -1   20.66    0.75
   5  -2  -1   19.50    0.68
   5   2  -1   21.18    0.74
   5  -2   0    6.72    0.54
   5   2   0    5.98    0.63
  -5   2   0    6.18    0.32
   5  -2   0    6.08    0.53
   5   2   0    6.64    0.47
   5  -2   1    3.61    0.50
  -5   2  -1    3.37    0.32
   5   2   1    3.27    0.62
   5   2   1    3.62    0.41
   5  -2   1    3.79    0.53
   5  -2   2   11.49    0.65
   5   2   2   10.21    0.79
  -5   2  -2   10.16    0.48
   5   2   2   11.27    0.53
   5  -2   2   10.58    0.67
   5  -2   3   24.87    0.84
   5   2   3   21.81    1.01
  -5  -2  -3   24.06    0.98
  -5   2  -3   22.63    0.71
  -5   2  -4    0.52    0.44
   5  -2   4    0.69    0.50
  -5  -2  -4    0.51    0.68
   5   2   4    0.25    0.72
  -5   2  -5   10.81    0.71
   5   2   5    9.76    0.93
  -5  -2  -5   10.73    0.92
   5  -2   5   11.17    0.75
  -5   2  -6    0.47    0.46
  -5  -2  -6    0.70    0.66
   5   2   6    0.85    0.82
   5  -2   6    0.11    0.52
  -5   2  -7   -0.41    0.52
  -5  -2  -7    0.70    0.69
  -5   2  -7    0.38    0.60
   5   2   7   -0.13    0.77
  -5   2  -8    1.28    0.67
   5   2   8    0.47    0.81
  -5  -2  -8    0.55    0.77
  -5   2  -9    0.36    0.64
  -5  -2  -9    0.52    0.77
   5   2   9    0.59    0.81
  -5   2 -10    0.32    0.61
  -5  -2 -10    0.09    0.80
   5   2  10    0.13    0.84
  -5  -2 -11   -0.28    0.87
   5   2  11   -0.36    0.84
  -5   2 -11    0.66    0.76
   5  -3 -13    0.05    0.85
   5   3 -13   -0.82    0.90
   5  -3 -12    2.27    0.88
   5   3 -12    2.25    0.66
   5   3 -12    2.31    0.73
   5  -3 -11    0.07    0.80
   5   3 -11    0.21    0.57
   5   3 -11    0.40    0.74
   5   3 -10    0.95    0.68
   5  -3 -10    1.44    0.76
   5   3 -10    1.46    0.74
   5   3  -9    2.12    0.61
   5  -3  -9    1.60    0.71
   5   3  -9    2.81    0.71
   5  -3  -9    1.66    0.53
   5   3  -8   -0.11    0.59
   5  -3  -8   -0.26    0.62
   5   3  -8    0.26    0.62
   5  -3  -8   -0.07    0.44
   5   3  -7    0.37    0.58
   5  -3  -7    0.19    0.67
   5  -3  -7    0.35    0.42
   5  -3  -6    6.76    0.75
   5  -3  -6    6.94    0.75
   5   3  -6    6.25    0.74
   5   3  -5    7.25    0.48
   5  -3  -5    8.06    0.75
   5  -3  -5    7.30    0.71
   5   3  -5    8.02    0.68
   5  -3  -4   19.02    0.89
   5   3  -4   16.72    0.64
   5  -3  -4   18.77    0.83
   5   3  -4   18.83    0.86
  -5  -3   3   13.97    0.53
   5  -3  -3   13.43    0.74
   5   3  -3   12.36    0.63
   5  -3  -3   13.28    0.74
   5   3  -3   12.70    0.74
   5   3  -2    0.78    0.48
   5   3  -2    0.54    0.48
   5  -3  -2    0.26    0.50
   5  -3  -2    0.48    0.50
   5   3  -1    0.06    0.40
   5   3  -1    0.01    0.52
   5  -3  -1    0.09    0.50
   5  -3  -1   -0.08    0.48
   5  -3   0    9.01    0.63
   5   3   0    7.82    0.72
   5  -3   0    8.65    0.67
   5   3   0    7.52    0.54
   5   3   1    0.22    0.39
   5  -3   1    0.15    0.60
   5  -3   1    0.20    0.49
   5   3   1    0.19    0.62
   5  -3   2    3.61    0.68
   5  -3   2    3.47    0.54
   5   3   2    4.29    0.76
   5   3   2    3.96    0.43
   5  -3   3    5.65    0.60
   5   3   3    5.57    0.87
  -5  -3  -3    6.02    0.78
   5  -3   3    5.42    0.79
   5  -3   4   10.94    0.68
   5   3   4   10.67    0.99
  -5  -3  -4    9.35    0.88
   5   3   5    8.27    0.97
  -5  -3  -5    9.43    0.90
  -5  -3  -6    2.57    0.77
   5   3   6    3.30    0.79
  -5   3  -7    7.34    0.82
  -5  -3  -7    5.61    0.84
   5   3   7    5.98    1.00
  -5  -3  -8    5.55    0.87
  -5   3  -8    5.52    0.83
   5   3   8    5.45    1.01
  -5  -3  -9    1.74    0.83
   5   3   9    1.19    0.94
  -5  -3 -10    0.59    0.80
   5   3  10    0.47    0.83
   5   3  11   -0.26    0.90
   5   4 -13   -0.05    0.71
   5   4 -12    1.07    0.88
   5  -4 -12    0.86    0.86
   5   4 -12    0.53    0.61
   5   4 -11   -0.33    0.68
   5  -4 -11   -0.29    0.80
   5   4 -11    0.49    0.71
   5   4 -10    0.50    0.59
   5  -4 -10   -0.06    0.74
   5   4 -10    0.42    0.71
   5   4  -9    0.14    0.61
   5  -4  -9    0.08    0.68
   5  -4  -8    6.19    0.81
   5   4  -8    6.64    0.79
   5  -4  -7   11.60    0.88
   5   4  -7   11.80    0.89
   5   4  -6   -0.08    0.56
   5  -4  -6   -0.29    0.59
   5   4  -5    2.16    0.64
   5  -4  -5    1.84    0.68
   5  -4  -5    2.41    0.70
   5  -4  -4   37.75    1.20
   5  -4  -4   37.44    1.20
   5   4  -4   35.93    1.15
   5  -4  -3   70.92    1.48
   5   4  -3   59.93    1.15
   5  -4  -3   67.78    1.45
   5   4  -3   65.87    1.46
   5   4  -2   12.93    0.76
   5  -4  -2   14.25    0.82
   5  -4  -2   14.75    0.88
   5   4  -2   15.39    0.79
   5  -4  -1    4.78    0.62
   5  -4  -1    4.41    0.72
   5   4  -1    4.05    0.69
   5   4  -1    4.50    0.58
   5   4   0    4.47    0.74
   5  -4   0    5.80    0.62
   5  -4   0    5.86    0.76
   5   4   0    5.29    0.58
   5   4   1    0.70    0.43
   5  -4   1    0.22    0.73
   5  -4   1    0.43    0.51
   5   4   1    0.79    0.71
   5  -4   2    2.90    0.56
   5  -4   2    3.12    0.83
   5   4   2    2.78    0.78
  -5  -4  -3    0.74    0.70
   5  -4   3   -0.09    0.78
   5  -4   3    0.41    0.44
   5   4   3    0.30    0.75
   5  -4   4    4.31    0.81
  -5  -4  -4    3.24    0.75
   5   4   4    2.76    0.83
  -5  -4  -5    3.07    0.80
   5   4   5    3.72    0.90
   5  -4   5    4.49    0.82
  -5  -4  -6    1.70    0.78
  -5   4  -6    2.20    0.79
   5   4   6    1.66    0.92
  -5  -4  -7    1.37    0.79
  -5   4  -7    0.64    0.70
   5   4   7    1.40    0.88
  -5  -4  -8    4.44    0.83
  -5   4  -8    4.98    0.82
   5   4   8    5.06    1.08
   5   4   9   14.35    1.39
  -5  -4  -9   17.42    1.27
  -5  -4 -10    8.48    1.12
   5   4  10    7.67    1.22
   5   5 -12    0.52    0.79
   5   5 -11    3.39    0.86
   5  -5 -11    2.82    0.94
   5   5 -10   -0.48    0.64
   5  -5 -10    0.20    0.82
   5   5  -9    2.65    0.77
   5  -5  -9    2.30    0.86
   5   5  -8    1.77    0.67
   5  -5  -8    2.50    0.80
   5   5  -7    0.81    0.62
   5  -5  -7    0.60    0.72
   5   5  -6    0.20    0.66
   5  -5  -6    0.26    0.68
   5   5  -5    0.21    0.60
   5  -5  -5    0.23    0.71
   5  -5  -4    0.28    0.67
   5   5  -4   -0.03    0.57
   5  -5  -4    0.29    0.65
   5  -5  -3   11.68    0.85
   5  -5  -3   13.87    0.91
   5   5  -3   11.73    0.83
   5   5  -2   25.72    0.98
   5  -5  -2   28.67    1.07
   5  -5  -2   29.05    1.19
   5   5  -2   29.07    1.08
   5   5  -1    0.81    0.54
   5  -5  -1    0.73    0.71
   5  -5  -1    1.00    0.61
   5   5  -1    0.47    0.62
   5  -5   0    5.57    0.66
   5   5   0    5.12    0.73
   5  -5   0    7.06    0.83
   5   5   0    5.78    0.61
   5  -5   1   34.11    1.03
   5   5   1   27.49    1.16
   5  -5   1   34.00    1.28
   5   5   1   32.34    0.98
   5  -5   2    0.27    0.81
   5  -5   2    0.33    0.47
   5   5   2    0.13    0.74
  -5  -5  -3    0.60    0.69
   5   5   3    0.05    0.76
   5  -5   3    0.02    0.80
   5  -5   4    0.47    0.85
  -5  -5  -4    0.76    0.72
  -5  -5  -5    4.51    0.84
  -5   5  -5    6.17    0.97
   5  -5   5    5.62    0.94
  -5  -5  -6    0.36    0.75
  -5   5  -6    0.60    0.77
   5  -5   6    0.17    0.85
  -5  -5  -7    0.97    0.77
  -5   5  -7    0.94    0.76
   5   5   7    0.99    1.03
   5  -5   7    1.04    0.86
  -5  -5  -8    0.98    0.77
  -5   5  -8    0.37    0.86
   5  -5   8    1.33    1.03
   5   5   8   -0.45    0.94
  -5  -5  -9    0.88    0.83
  -5   5  -9    0.11    0.78
   5   6 -10    2.69    0.88
   5  -6 -10    1.36    0.90
   5   6  -9    2.64    0.82
   5  -6  -9    2.94    0.93
   5   6  -8    0.42    0.74
   5  -6  -8    0.44    0.81
   5   6  -7    2.07    0.73
   5  -6  -7    1.32    0.81
   5   6  -6    1.49    0.74
   5  -6  -6    1.61    0.80
   5   6  -5    1.12    0.68
   5  -6  -5    1.36    0.74
   5  -6  -4    0.40    0.74
   5   6  -4    0.84    0.61
   5  -6  -3    0.68    0.72
   5   6  -3    0.15    0.56
   5  -6  -2   11.34    0.96
   5   6  -2   10.43    0.81
   5  -6  -1   39.26    1.24
   5  -6  -1   36.91    1.39
   5   6  -1   36.92    1.21
   5  -6   0   25.61    1.01
   5   6   0   22.90    1.12
   5  -6   0   26.14    1.26
   5   6   0   24.95    0.98
   5   6   1    1.31    0.78
   5  -6   1    2.34    0.85
   5  -6   2    5.81    0.95
   5   6   2    5.50    0.92
  -5   6  -3    9.90    1.08
  -5  -6  -3    8.72    0.94
   5  -6   3    9.71    1.11
  -5  -6  -4    0.64    0.71
  -5   6  -4    1.23    0.83
   5  -6   4    0.14    0.91
   5  -6   5   -0.20    0.90
  -5  -6  -5    0.44    0.76
  -5   6  -5    0.57    0.78
  -5  -6  -6   -0.68    0.87
  -5   6  -6   -0.13    0.79
   5  -6   6    0.15    0.97
  -5  -6  -7    0.78    0.76
  -5   6  -7   -0.03    0.94
   5  -6   7    0.56    1.05
  -5  -6  -8    0.52    0.80
  -5   6  -8   -0.20    0.84
   5  -7  -8    2.02    0.86
   5   7  -8    1.32    0.84
   5   7  -7    1.72    0.85
   5  -7  -7    2.37    0.87
   5   7  -6    0.35    0.71
   5  -7  -6    0.65    0.86
   5  -7  -5    6.15    0.95
   5   7  -5    7.86    0.91
   5  -7  -4    0.42    0.78
   5   7  -4    0.36    0.67
   5  -7  -3    0.31    0.74
   5   7  -3    0.58    0.69
   5  -7  -2   11.38    1.08
   5   7  -2    8.45    0.83
   5   7  -1    5.45    0.73
   5  -7  -1    6.35    0.94
  -5   7   0    0.64    0.89
   5  -7   0    0.25    0.83
  -5   7  -1   -0.08    0.77
   5  -7   1   -0.06    0.77
   5   7   1   -0.15    0.77
  -5   7  -2    0.27    0.84
  -5  -7  -2    0.16    0.79
   5   7   2   -0.10    0.83
   5  -7   2    0.74    0.85
   5  -7   3    0.13    0.90
  -5  -7  -3   -0.23    0.68
  -5   7  -3    0.18    0.84
   5  -7   4    0.78    0.92
  -5  -7  -4    0.00    0.76
  -5   7  -4    0.10    0.97
  -5  -7  -5   -0.06    0.79
  -5   7  -5    0.79    0.93
   5  -7   5    1.34    0.99
  -5  -7  -6    1.05    0.85
   5   8  -5    0.83    0.80
   5  -8  -4    6.21    1.01
   5   8  -4    7.84    0.95
   5  -8  -3    0.35    0.88
   5   8  -3    0.91    0.67
   5  -8  -2   -0.04    0.92
   5   8  -2    0.12    0.70
  -5   8   2    0.88    0.86
   5  -8  -1   -0.08    0.98
  -5   8   1    0.16    0.85
  -5   8   0   -0.30    0.96
   5  -8   0    0.23    0.91
  -5   8  -1    0.47    0.84
   5  -8   1    0.15    1.00
  -5   8  -2    0.08    1.00
   5  -8   2   -0.01    0.92
   5   8   3    0.08    0.95
   5   8   4   -0.86    1.11
   6   0 -14    2.86    0.91
   6   0 -13   -0.23    0.77
   6   0 -12    6.77    0.89
   6   0 -11    0.08    0.62
   6   0 -10    2.58    0.51
   6   0 -10    2.68    0.66
   6   0  -9    0.39    0.47
   6   0  -9    0.28    0.45
   6   0  -9   -0.21    0.54
   6   0  -8    5.82    0.64
   6   0  -8    5.09    0.70
   6   0  -8    5.16    0.68
   6   0  -8    5.69    0.64
   6   0  -7    0.22    0.53
   6   0  -7    0.06    0.50
   6   0  -7    0.02    0.49
   6   0  -7    0.44    0.55
   6   0  -6   94.81    1.59
   6   0  -6   91.81    1.46
   6   0  -6   95.69    1.38
   6   0  -6   92.39    1.58
   6   0  -5    0.10    0.43
   6   0  -5   -0.08    0.35
   6   0  -5   -0.27    0.44
   6   0  -4    2.89    0.52
   6   0  -4    2.86    0.35
   6   0  -4    2.37    0.51
   6   0  -3   -0.09    0.45
   6   0  -3    0.15    0.26
   6   0  -3    0.02    0.47
   6   0  -2  227.08    2.18
   6   0  -2  235.11    1.28
   6   0  -2  234.31    2.25
   6   0  -1    0.08    0.46
   6   0  -1    0.02    0.16
   6   0  -1    0.43    0.49
   6   0   0   35.45    1.01
   6   0   0   30.63    0.48
   6   0   1    0.23    0.55
   6   0   1    0.10    0.26
   6   0   2    9.12    0.76
  -6   0  -2   10.34    0.70
  -6   0  -3   -0.12    0.56
   6   0   3    0.07    0.61
  -6   0  -4    0.34    0.66
   6   0   4    0.28    0.62
  -6   0  -5    0.16    0.59
   6   0   5    0.69    0.71
   6   0   6   34.30    1.25
  -6   0  -6   32.87    1.19
  -6   0  -7   -0.21    0.65
   6   0   7    0.64    0.68
  -6   0  -8    0.43    0.69
   6   0   8    0.45    0.67
  -6   0  -9    0.11    0.72
  -6   0 -10    4.39    0.89
   6  -1 -14    2.53    0.79
   6   1 -13    2.36    0.89
   6  -1 -13    2.57    0.79
   6   1 -12    0.69    0.68
   6  -1 -12    0.53    0.61
   6   1 -11   -0.15    0.47
   6  -1 -11    0.08    0.72
   6   1 -11   -0.17    0.65
   6  -1 -11    0.07    0.63
   6  -1 -10    0.93    0.69
   6   1 -10    0.47    0.56
   6   1 -10    0.79    0.67
   6  -1 -10    1.63    0.61
   6  -1  -9    1.51    0.55
   6  -1  -9    0.96    0.59
   6   1  -9    1.08    0.56
   6  -1  -9    0.99    0.56
   6   1  -9    0.67    0.64
   6  -1  -9    1.06    0.57
   6  -1  -8   31.78    1.06
   6   1  -8   30.37    1.16
   6  -1  -8   30.12    1.06
   6  -1  -8   31.29    1.08
   6  -1  -8   29.44    1.00
   6   1  -8   29.73    1.08
   6   1  -7   62.99    1.48
   6  -1  -7   64.95    1.40
   6  -1  -7   63.63    1.35
   6   1  -7   60.49    1.17
   6  -1  -7   63.46    1.33
   6  -1  -7   60.93    1.33
   6   1  -7   60.31    1.40
   6  -1  -6    7.11    0.59
   6  -1  -6    6.41    0.64
   6   1  -6    6.39    0.55
   6  -1  -6    7.11    0.61
   6  -1  -6    6.96    0.62
   6   1  -6    6.65    0.65
   6  -1  -5    6.37    0.61
   6   1  -5    6.22    0.57
   6  -1  -5    6.72    0.55
   6  -1  -5    6.95    0.60
   6   1  -5    6.75    0.62
   6  -1  -4    0.19    0.49
   6   1  -4    0.05    0.45
   6   1  -4   -0.01    0.43
   6  -1  -4    0.07    0.35
   6  -1  -4    0.03    0.47
   6   1  -3    0.86    0.47
   6  -1  -3    0.87    0.49
   6  -1  -3    1.11    0.35
   6   1  -3    1.01    0.47
   6  -1  -2   19.12    0.81
   6   1  -2   17.60    0.74
   6  -1  -2   19.14    0.56
   6   1  -2   19.20    0.78
   6  -1  -1   33.36    0.97
   6   1  -1   33.17    0.97
   6  -1  -1   34.44    0.69
   6   1  -1   32.72    0.91
   6  -1   0   22.15    0.83
   6   1   0   23.19    0.90
   6  -1   0   21.60    0.62
   6   1   0   22.38    0.80
  -6   1  -1    0.06    0.40
   6  -1   1    0.09    0.38
   6  -1   1   -0.08    0.52
   6   1   1    0.15    0.57
   6   1   1    0.17    0.40
  -6   1  -2    0.53    0.47
  -6  -1  -2    0.67    0.57
   6  -1   2    0.42    0.46
   6  -1   2    0.43    0.55
   6   1   2    0.66    0.64
  -6   1  -3    0.57    0.50
  -6  -1  -3    0.50    0.61
   6  -1   3    0.97    0.63
   6   1   3    1.15    0.69
   6  -1   4   21.18    0.97
   6   1   4   19.34    1.11
  -6   1  -4   20.11    0.85
  -6  -1  -4   20.85    1.04
   6  -1   5   46.86    1.29
   6   1   5   46.30    1.45
  -6   1  -5   46.24    1.24
  -6  -1  -5   44.92    1.36
   6  -1   6   28.66    1.09
   6   1   6   29.54    1.26
  -6   1  -6   26.66    1.08
  -6  -1  -6   28.35    1.18
  -6   1  -7    0.61    0.63
  -6  -1  -7    0.79    0.69
   6  -1   7    1.68    0.63
   6   1   7    0.59    0.78
  -6   1  -8    0.27    0.61
  -6  -1  -8    0.21    0.76
   6   1   8    0.12    0.75
  -6   1  -9    1.15    0.65
  -6  -1  -9    0.95    0.80
   6   1   9    1.36    0.87
  -6   1 -10    0.10    0.69
  -6  -1 -10    0.06    0.79
  -6   1 -11    0.84    0.71
   6  -2 -14   -0.49    0.73
   6  -2 -13    0.84    0.84
   6   2 -13   -0.10    0.86
   6  -2 -13    0.67    0.71
   6  -2 -12    1.05    0.75
   6   2 -12    1.16    0.66
   6   2 -12    1.24    0.77
   6  -2 -12    1.24    0.58
   6  -2 -11    0.97    0.69
   6   2 -11    0.26    0.58
   6   2 -11    0.08    0.72
   6  -2 -11    0.46    0.62
   6  -2 -10    3.69    0.73
   6   2 -10    3.20    0.68
   6   2 -10    4.70    0.83
   6  -2 -10    3.76    0.66
   6   2  -9    0.27    0.57
   6  -2  -9    0.33    0.67
   6   2  -9    0.23    0.65
   6  -2  -9    0.39    0.52
   6  -2  -8   20.61    0.98
   6   2  -8   20.80    1.05
   6  -2  -8   22.59    0.88
   6  -2  -8   21.81    0.99
   6   2  -8   20.73    0.98
   6   2  -7   -0.12    0.56
   6  -2  -7   -0.06    0.59
   6  -2  -7    0.10    0.59
   6  -2  -7    0.19    0.46
   6   2  -6    0.12    0.56
   6  -2  -6    0.15    0.53
   6  -2  -6    0.03    0.59
   6   2  -6    0.06    0.41
   6  -2  -6    0.12    0.42
   6   2  -5    0.15    0.54
   6  -2  -5   -0.02    0.48
   6  -2  -5   -0.11    0.54
   6   2  -5    0.05    0.44
   6   2  -4   -0.07    0.47
   6  -2  -4    0.27    0.52
   6  -2  -4    0.12    0.44
   6   2  -4    0.15    0.44
   6   2  -3    1.43    0.51
   6  -2  -3    1.12    0.52
   6   2  -3    1.15    0.49
   6  -2  -3    1.41    0.44
   6   2  -2    0.49    0.48
   6  -2  -2    0.97    0.42
   6  -2  -2    0.70    0.54
   6   2  -2    0.71    0.53
   6   2  -1    8.65    0.70
   6  -2  -1    7.78    0.66
   6  -2  -1    8.58    0.56
   6   2  -1    8.80    0.61
   6  -2   0    6.52    0.65
   6   2   0    7.51    0.73
  -6   2   0    6.66    0.40
   6  -2   0    6.77    0.57
   6   2   0    7.58    0.58
   6   2   1    1.91    0.47
  -6   2  -1    1.47    0.38
   6  -2   1    1.87    0.56
   6  -2   1    1.24    0.54
   6   2   1    1.25    0.70
   6   2   2    0.41    0.40
  -6   2  -2    0.35    0.36
   6  -2   2    0.29    0.54
   6  -2   2   -0.06    0.51
   6   2   2    0.38    0.73
  -6   2  -3    0.51    0.44
  -6  -2  -3    0.54    0.68
   6  -2   3    0.28    0.56
   6  -2   3    0.68    0.61
   6   2   3    0.20    0.78
   6  -2   4   65.25    1.37
   6   2   4   59.91    1.64
  -6   2  -4   60.97    1.24
  -6  -2  -4   61.60    1.57
   6  -2   5   21.93    0.92
   6   2   5   21.18    1.15
  -6  -2  -5   20.84    1.10
  -6   2  -5   20.62    0.87
  -6   2  -6   -0.15    0.55
  -6  -2  -6    0.66    0.71
   6  -2   6   -0.15    0.53
   6   2   6    0.14    0.82
  -6   2  -7    0.60    0.56
  -6  -2  -7    0.96    0.76
   6   2   7    0.80    0.85
  -6   2  -8   -0.26    0.59
  -6  -2  -8   -0.13    0.75
   6   2   8    0.17    0.88
  -6   2  -9    0.14    0.61
  -6  -2  -9   -0.47    0.82
   6   2   9    0.18    0.85
  -6   2 -10    0.24    0.72
  -6  -2 -10    0.06    0.80
   6   2  10    0.44    0.86
   6  -3 -13   -0.18    0.86
   6  -3 -12    0.79    0.79
   6   3 -12    0.58    0.63
   6   3 -12    0.15    0.80
   6  -3 -11    1.48    0.83
   6   3 -11    2.13    0.75
   6   3 -11    1.56    0.74
   6   3 -10    1.81    0.66
   6  -3 -10    1.20    0.71
   6   3 -10    1.91    0.77
   6  -3  -9    4.46    0.76
   6   3  -9    5.03    0.72
   6  -3  -8   18.72    1.01
   6   3  -8   19.30    0.99
   6   3  -7   -0.05    0.56
   6  -3  -7   -0.01    0.56
   6  -3  -7    0.19    0.62
   6  -3  -6    5.84    0.75
   6  -3  -6    6.38    0.70
   6   3  -6    5.98    0.70
   6  -3  -5    0.70    0.59
   6   3  -5    0.53    0.55
   6  -3  -5    0.20    0.64
   6   3  -5    0.63    0.40
   6  -3  -4    6.97    0.74
   6   3  -4    6.08    0.59
   6  -3  -4    5.73    0.66
   6   3  -4    6.55    0.71
   6  -3  -3    8.42    0.74
   6   3  -3    6.50    0.62
   6  -3  -3    7.65    0.67
   6   3  -3    7.86    0.68
   6   3  -2    2.38    0.54
   6  -3  -2    1.92    0.58
   6  -3  -2    2.07    0.58
   6   3  -2    2.59    0.60
   6  -3  -1   21.75    0.90
   6   3  -1   20.68    0.92
   6  -3  -1   20.46    0.87
   6   3  -1   20.93    0.85
   6  -3   0   18.56    0.86
   6   3   0   15.50    0.92
   6  -3   0   17.00    0.85
   6   3   0   17.39    0.77
   6  -3   1    6.04    0.66
   6   3   1    5.89    0.83
   6  -3   1    6.25    0.75
   6   3   1    6.54    0.58
   6  -3   2    2.86    0.74
   6   3   2    2.66    0.46
   6  -3   2    3.17    0.62
   6   3   2    2.22    0.84
  -6  -3  -3    1.25    0.76
   6  -3   3    0.34    0.54
   6  -3   3    0.66    0.67
   6   3   3    0.14    0.80
   6  -3   4    3.32    0.73
  -6  -3  -4    3.19    0.78
   6  -3   4    3.54    0.57
   6   3   4    3.28    0.82
  -6  -3  -5    2.51    0.80
   6   3   5    3.44    0.86
  -6  -3  -6    2.37    0.83
   6   3   6    2.37    0.93
  -6  -3  -7    0.19    0.73
  -6   3  -7    1.03    0.69
   6   3   7    0.10    0.86
  -6  -3  -8    1.20    0.79
   6   3   8    1.15    0.97
  -6  -3  -9    0.90    0.88
   6   3   9   -0.44    1.00
   6   3  10    0.35    1.04
   6   4 -13    0.19    0.70
   6  -4 -12    1.95    0.82
   6   4 -12    1.00    0.74
   6   4 -11    0.41    0.74
   6  -4 -11   -0.19    0.81
   6   4 -10    1.28    0.68
   6  -4 -10    0.69    0.78
   6   4  -9    0.67    0.68
   6  -4  -9    0.20    0.73
   6   4  -8   -0.17    0.66
   6  -4  -8    0.53    0.69
   6  -4  -7   14.75    0.96
   6   4  -7   14.19    0.95
   6   4  -6    2.85    0.69
   6  -4  -6    4.43    0.75
   6  -4  -6    3.41    0.71
   6   4  -5    0.13    0.57
   6  -4  -5   -0.04    0.64
   6  -4  -5    0.57    0.62
   6  -4  -4   20.94    1.00
   6  -4  -4   20.29    0.96
   6   4  -4   20.41    0.98
   6  -4  -3   38.93    1.26
   6   4  -3   31.57    0.99
   6  -4  -3   39.81    1.19
   6   4  -3   36.41    1.19
   6   4  -2    2.08    0.58
   6  -4  -2    2.19    0.72
   6  -4  -2    2.57    0.67
   6   4  -2    1.84    0.62
   6   4  -1    0.19    0.54
   6  -4  -1    0.14    0.69
   6  -4  -1    0.18    0.59
   6   4  -1    0.04    0.67
   6   4   0   -0.16    0.48
   6  -4   0    0.53    0.56
   6   4   0   -0.02    0.71
   6  -4   0    0.41    0.69
   6  -4   1    4.78    0.78
   6  -4   1    4.30    0.61
   6   4   1    3.16    0.84
   6   4   1    4.68    0.54
   6  -4   2    0.54    0.72
   6  -4   2    0.83    0.52
   6   4   2    0.66    0.79
   6  -4   3    0.87    0.74
  -6  -4  -3    0.37    0.71
   6  -4   3    0.25    0.50
   6   4   3    0.19    0.77
  -6  -4  -4    0.21    0.71
   6  -4   4    0.34    0.74
   6   4   4   -0.40    0.79
  -6  -4  -5    0.46    0.74
   6  -4   5    0.31    0.81
   6   4   5    0.53    0.88
  -6  -4  -6    1.09    0.80
   6  -4   6    2.28    0.86
   6   4   6    2.10    0.91
  -6  -4  -7    0.90    0.72
  -6   4  -7    0.61    0.77
   6   4   7    0.40    0.95
  -6  -4  -8    0.08    0.79
  -6   4  -8    0.24    0.74
   6   4   8    0.88    0.94
  -6  -4  -9    0.93    0.86
   6   4   9    0.06    1.09
   6   5 -11    2.99    0.83
   6  -5 -11    2.72    0.91
   6   5 -10    3.58    0.81
   6  -5 -10    3.30    0.86
   6   5  -9    0.33    0.64
   6  -5  -9    0.01    0.73
   6   5  -8    1.40    0.67
   6  -5  -8    0.50    0.70
   6   5  -7    1.22    0.71
   6  -5  -7    1.12    0.75
   6   5  -6    4.12    0.81
   6  -5  -6    3.12    0.76
   6   5  -5    0.46    0.62
   6  -5  -5    0.69    0.68
   6  -5  -5    0.83    0.68
   6  -5  -4    4.79    0.74
   6   5  -4    4.71    0.71
   6  -5  -4    4.52    0.74
   6  -5  -3   15.37    0.95
   6  -5  -3   15.40    0.95
   6   5  -3   13.84    0.91
   6   5  -2   18.09    0.91
   6  -5  -2   24.39    1.06
   6  -5  -2   24.64    1.14
   6   5  -2   21.60    0.98
   6  -5  -1   14.23    0.86
   6   5  -1   10.80    0.85
   6  -5  -1   12.74    0.94
   6   5  -1   12.36    0.80
   6   5   0    1.32    0.49
   6  -5   0    1.90    0.58
   6  -5   0    1.41    0.71
   6   5   0    1.53    0.71
   6  -5   1   -0.03    0.68
   6  -5   1    0.18    0.52
   6   5   1   -0.33    0.74
   6  -5   2   -0.20    0.78
   6  -5   2    0.17    0.51
   6   5   2    0.51    0.75
  -6  -5  -3    2.50    0.83
   6  -5   3    2.89    0.88
   6   5   3    2.44    0.87
   6  -5   4   -0.67    0.84
  -6  -5  -4    0.02    0.75
   6   5   4    0.13    0.85
  -6  -5  -5    0.79    0.73
   6  -5   5    1.71    0.87
   6   5   5    1.39    0.95
   6  -5   6    6.76    1.05
  -6  -5  -6    4.57    0.94
  -6   5  -6    5.72    1.01
   6   5   6    4.93    1.10
  -6  -5  -7    0.46    0.83
   6  -5   7    0.44    0.93
  -6   5  -7   -0.46    0.82
   6   5   7    1.13    1.04
   6  -5   8    1.04    0.98
  -6  -5  -8    0.34    0.73
  -6   5  -8   -0.17    0.90
   6   5   8    1.17    1.09
   6   6  -9    1.11    0.79
   6  -6  -9    2.37    0.90
   6   6  -8    0.54    0.75
   6  -6  -8    1.09    0.79
   6   6  -7    0.72    0.72
   6  -6  -7   -0.25    0.77
   6   6  -6   -0.09    0.70
   6  -6  -6    0.03    0.78
   6   6  -5    0.88    0.71
   6  -6  -5    0.75    0.77
   6  -6  -4    0.81    0.71
   6   6  -4    0.41    0.66
   6  -6  -3    0.22    0.70
   6   6  -3   -0.12    0.59
   6  -6  -3    0.18    0.69
   6   6  -2    0.28    0.58
   6  -6  -2    0.17    0.75
   6  -6  -2    0.00    0.65
   6   6  -1    2.81    0.62
   6  -6  -1    3.73    0.82
   6  -6  -1    3.32    0.70
   6   6  -1    2.29    0.70
   6  -6   0    0.60    0.55
   6  -6   0    0.84    0.78
   6   6   0    0.40    0.74
   6   6   1   -0.16    0.73
   6  -6   1    0.47    0.79
   6  -6   2    1.15    0.86
   6   6   2    0.84    0.84
   6  -6   3    0.18    0.85
  -6  -6  -3    1.28    0.77
   6   6   3    1.03    0.90
  -6  -6  -4    0.86    0.83
  -6   6  -4    1.24    0.88
   6  -6   4   -0.02    0.91
   6   6   4    0.47    0.87
  -6  -6  -5   -0.01    0.84
  -6   6  -5    0.68    0.92
   6   6   5    0.77    1.00
   6  -6   5    0.28    0.96
   6  -6   6    2.36    1.07
  -6  -6  -6    0.80    0.95
  -6   6  -6    1.21    0.96
   6   6   6    1.62    1.12
  -6  -6  -7    0.65    0.85
  -6   6  -7   -0.03    0.97
   6  -6   7   -0.40    1.01
   6   7  -7    0.89    0.81
   6  -7  -7   -0.35    0.86
   6   7  -6   -0.39    0.74
   6  -7  -6    0.08    0.85
   6   7  -5    2.50    0.83
   6  -7  -5    2.76    0.84
   6  -7  -4    2.22    0.81
   6   7  -4    1.95    0.73
   6  -7  -3    1.40    0.85
   6   7  -3    1.26    0.71
   6   7  -2    0.57    0.65
   6  -7  -2   -0.34    0.84
   6  -7  -1   -0.28    0.80
   6  -7   0    0.24    0.80
   6  -7   1    2.72    0.87
   6   7   1    1.74    0.85
  -6  -7  -2   -0.30    0.76
  -6   7  -2    0.10    0.87
   6   7   2    0.04    0.86
   6  -7   2    0.64    0.92
   6  -7   3    0.25    0.96
  -6  -7  -3    0.05    0.83
  -6   7  -3    0.47    0.94
   6   7   3    0.15    0.91
   6  -7   4   -0.16    1.06
  -6  -7  -4    0.25    0.89
  -6   7  -4    0.05    0.95
   6   7   4   -0.66    1.00
  -6  -7  -5   -0.19    0.88
   6   7   5    0.68    1.04
   6   8  -4    0.24    0.74
   6  -8  -3    1.50    0.91
   6   8  -3   -0.03    0.76
  -6   8   3    0.09    0.81
   6  -8  -2   -0.11    0.88
  -6   8   2   -0.34    0.84
   6  -8  -1    0.57    0.92
  -6   8   1    0.26    0.93
   6  -8   0    1.98    0.87
  -6   8   0    2.39    1.01
  -6  -8  -2    3.26    0.90
  -6  -8  -3   -0.60    0.83
   6   8   3    0.86    0.93
   7   0 -13    0.86    0.77
   7   0 -12   -0.02    0.71
   7   0 -11    3.11    0.61
   7   0 -11    3.88    0.74
   7   0 -10    0.45    0.58
   7   0 -10   -0.05    0.61
   7   0  -9    0.75    0.59
   7   0  -9    0.63    0.53
   7   0  -9    1.46    0.63
   7   0  -8   -0.31    0.56
   7   0  -8   -0.04    0.48
   7   0  -8   -0.06    0.48
   7   0  -8   -0.18    0.58
   7   0  -7   43.76    1.09
   7   0  -7   45.65    1.19
   7   0  -7   43.62    1.26
   7   0  -6   -0.09    0.44
   7   0  -6   -0.16    0.54
   7   0  -6   -0.01    0.56
   7   0  -5   49.28    1.20
   7   0  -5   51.03    0.96
   7   0  -5   49.65    1.30
   7   0  -4    0.21    0.52
   7   0  -4    0.02    0.31
   7   0  -4   -0.13    0.50
   7   0  -3    0.40    0.53
   7   0  -3    0.32    0.54
   7   0  -2    0.09    0.54
   7   0  -2   -0.03    0.53
   7   0  -1    0.43    0.56
   7   0   0   -0.24    0.60
   7   0   1    3.86    0.74
  -7   0  -2   -0.23    0.57
   7   0   2   -0.04    0.62
  -7   0  -3    4.46    0.69
   7   0   3    4.34    0.78
  -7   0  -4   -0.29    0.64
   7   0   4    0.18    0.67
  -7   0  -5    0.35    0.60
   7   0   5    0.83    0.70
  -7   0  -6    0.30    0.61
   7   0   6    0.36    0.63
  -7   0  -7    0.13    0.64
   7   0   7   -0.01    0.70
  -7   0  -8    0.41    0.70
   7   0   8    0.33    0.62
  -7   0  -9    0.51    0.82
  -7   0 -10    0.79    0.81
   7  -1 -14    5.34    0.93
   7   1 -13    4.30    0.95
   7  -1 -13    3.61    0.86
   7   1 -12    0.77    0.71
   7  -1 -12    0.35    0.67
   7   1 -11    0.17    0.59
   7  -1 -11    0.69    0.70
   7   1 -11    0.08    0.69
   7  -1 -11   -0.07    0.58
   7  -1 -10    0.66    0.62
   7  -1 -10    1.44    0.56
   7   1 -10    1.42    0.63
   7   1 -10    1.65    0.72
   7  -1 -10    1.16    0.66
   7  -1  -9    2.72    0.58
   7  -1  -9    2.38    0.65
   7   1  -9    1.98    0.59
   7  -1  -9    1.65    0.61
   7   1  -9    2.13    0.69
   7  -1  -9    2.38    0.61
   7  -1  -8   14.41    0.86
   7  -1  -8   15.03    0.85
   7   1  -8   14.36    0.74
   7  -1  -8   14.78    0.83
   7  -1  -8   13.45    0.83
   7   1  -8   14.36    0.87
   7  -1  -7   64.17    1.39
   7  -1  -7   64.76    1.45
   7   1  -7   62.24    1.27
   7  -1  -7   64.37    1.35
   7  -1  -7   62.10    1.43
   7   1  -7   62.92    1.50
   7  -1  -6   17.35    0.89
   7   1  -6   17.74    0.81
   7  -1  -6   18.95    0.78
   7  -1  -6   18.09    0.91
   7   1  -6   17.53    0.88
   7  -1  -5    3.61    0.64
   7  -1  -5    3.88    0.52
   7  -1  -5    3.81    0.65
   7   1  -5    4.05    0.62
   7   1  -5    4.16    0.65
   7   1  -4    0.24    0.52
   7  -1  -4    0.03    0.38
   7  -1  -4    0.01    0.54
   7   1  -4    0.22    0.50
   7   1  -3    0.18    0.54
   7  -1  -3    0.08    0.34
   7  -1  -3   -0.11    0.56
   7   1  -3    0.10    0.51
   7   1  -2    1.69    0.58
   7  -1  -2    1.49    0.59
   7   1  -2    1.35    0.58
   7  -1  -2    1.42    0.36
   7  -1  -1   12.82    0.79
   7   1  -1   13.42    0.82
   7  -1  -1   12.17    0.52
   7   1  -1   13.76    0.76
   7   1   0    1.19    0.50
   7  -1   0    0.77    0.38
   7  -1   0    1.11    0.57
   7   1   0    0.99    0.61
   7  -1   1   13.12    0.84
   7   1   1   14.23    0.91
  -7   1  -1   13.77    0.70
  -7   1  -2   -0.05    0.54
  -7  -1  -2    0.13    0.64
   7  -1   2   -0.59    0.63
   7   1   2    0.01    0.71
  -7   1  -3    1.78    0.60
  -7  -1  -3    2.17    0.69
   7  -1   3    1.76    0.70
   7   1   3    3.12    0.80
  -7   1  -4    2.87    0.56
  -7  -1  -4    2.60    0.73
   7  -1   4    2.97    0.72
   7   1   4    4.00    0.80
   7  -1   5   11.24    0.88
   7   1   5   11.04    0.95
  -7   1  -5   11.72    0.81
  -7  -1  -5   11.35    0.93
  -7   1  -6    0.05    0.60
  -7  -1  -6    0.03    0.68
   7  -1   6    0.06    0.66
   7   1   6    0.80    0.78
  -7   1  -7    0.17    0.63
  -7  -1  -7    0.25    0.70
   7  -1   7    0.51    0.68
   7   1   7   -0.03    0.76
  -7   1  -8    1.67    0.73
  -7  -1  -8    0.47    0.74
   7   1   8    2.65    0.89
  -7   1  -9    0.03    0.67
  -7  -1  -9   -0.30    0.82
   7   1   9    0.80    0.85
  -7   1 -10    1.24    0.75
   7  -2 -13    0.13    0.83
   7   2 -13   -0.98    0.79
   7   2 -12   10.66    1.06
   7  -2 -12    8.58    0.99
   7   2 -12    8.78    0.90
   7   2 -11    8.58    0.93
   7  -2 -11    7.11    0.90
   7   2 -11    7.12    0.81
   7  -2 -10    2.55    0.71
   7   2 -10    3.56    0.74
   7   2 -10    2.94    0.73
   7   2  -9    0.58    0.56
   7  -2  -9    0.81    0.63
   7  -2  -9    1.36    0.63
   7  -2  -8   18.10    0.98
   7  -2  -8   17.50    0.84
   7  -2  -8   17.81    0.95
   7   2  -8   16.49    0.96
   7   2  -7    1.42    0.57
   7  -2  -7    1.16    0.58
   7  -2  -7    1.18    0.49
   7  -2  -7    1.20    0.65
   7   2  -6    3.12    0.65
   7  -2  -6    4.08    0.62
   7  -2  -6    4.32    0.71
   7   2  -6    3.21    0.53
   7   2  -5    0.74    0.61
   7  -2  -5    0.91    0.51
   7  -2  -5    0.50    0.55
   7   2  -5    0.15    0.53
   7  -2  -4   10.42    0.78
   7   2  -4    9.13    0.70
   7  -2  -4    9.86    0.65
   7   2  -4   10.27    0.77
   7   2  -3    1.95    0.60
   7  -2  -3    1.58    0.63
   7   2  -3    1.78    0.58
   7  -2  -3    2.03    0.49
   7   2  -2    5.95    0.70
   7  -2  -2    6.49    0.53
   7  -2  -2    6.69    0.74
   7   2  -2    6.53    0.66
   7   2  -1    2.05    0.55
   7  -2  -1    1.90    0.49
   7  -2  -1    1.78    0.64
   7   2  -1    2.19    0.68
   7  -2   0    9.38    0.78
   7   2   0    8.82    0.83
   7  -2   0    8.51    0.62
   7   2   0    8.69    0.68
   7  -2   1    8.99    0.78
   7   2   1    7.99    0.84
   7  -2   1    7.31    0.69
   7   2   1    8.47    0.65
   7  -2   2    4.93    0.69
   7   2   2    3.92    0.83
   7  -2   2    3.53    0.67
  -7  -2  -3    0.42    0.71
   7  -2   3    0.58    0.58
   7   2   3    0.36    0.83
   7  -2   3    0.50    0.57
   7  -2   4    5.03    0.69
  -7  -2  -4    4.71    0.80
   7  -2   4    5.48    0.67
   7   2   4    4.51    0.90
  -7  -2  -5    4.88    0.87
   7  -2   5    5.42    0.68
   7   2   5    4.33    0.88
  -7  -2  -6   -0.18    0.74
   7  -2   6    0.34    0.58
   7   2   6   -0.37    0.88
  -7  -2  -7    5.50    0.90
   7   2   7    4.62    0.97
  -7  -2  -8    0.60    0.83
   7   2   8    0.09    0.92
  -7  -2  -9    0.86    0.93
   7   2   9    1.23    0.96
   7   2  10    0.31    1.04
   7   3 -13    3.42    0.72
   7  -3 -12    1.04    0.90
   7   3 -12    0.11    0.63
   7   3 -11   -0.01    0.69
   7  -3 -11    0.12    0.77
   7   3 -10    5.15    0.79
   7  -3 -10    4.43    0.81
   7   3  -9    0.31    0.63
   7  -3  -9   -0.12    0.67
   7   3  -8    1.83    0.63
   7  -3  -8    1.75    0.68
   7  -3  -8    1.47    0.70
   7   3  -7    0.27    0.60
   7  -3  -7    0.60    0.58
   7  -3  -7    0.60    0.64
   7   3  -6    0.01    0.58
   7  -3  -6    0.07    0.62
   7  -3  -6   -0.11    0.58
   7   3  -5   -0.18    0.59
   7  -3  -5    0.53    0.61
   7  -3  -5   -0.08    0.54
   7   3  -5    0.12    0.48
   7   3  -4    4.52    0.71
   7  -3  -4    5.59    0.75
   7  -3  -4    4.75    0.65
   7   3  -4    3.86    0.63
   7  -3  -3   27.51    1.09
   7   3  -3   24.92    0.99
   7  -3  -3   28.46    0.99
   7   3  -3   27.51    1.07
   7  -3  -2   32.80    1.11
   7   3  -2   29.96    1.08
   7  -3  -2   32.39    1.05
   7   3  -2   33.22    1.10
   7   3  -1    1.46    0.54
   7  -3  -1    1.77    0.59
   7  -3  -1    2.19    0.68
   7   3  -1    1.86    0.72
   7   3   0    3.39    0.58
   7  -3   0    3.14    0.68
   7  -3   0    2.45    0.63
   7   3   0    2.90    0.72
   7   3   1    1.90    0.50
   7  -3   1    2.47    0.67
   7  -3   1    1.64    0.66
   7   3   1    1.22    0.77
   7  -3   2    2.15    0.67
   7  -3   2    3.54    0.64
   7   3   2    2.86    0.84
   7  -3   3    0.60    0.62
  -7  -3  -3    0.40    0.70
   7  -3   3    1.10    0.56
   7   3   3    0.77    0.80
   7  -3   4    0.15    0.66
  -7  -3  -4    0.43    0.72
   7  -3   4    0.73    0.56
   7   3   4    0.27    0.85
   7  -3   5    0.52    0.73
  -7  -3  -5    0.05    0.82
   7   3   5   -0.12    0.94
  -7  -3  -6    2.99    0.89
   7   3   6    3.55    0.95
  -7  -3  -7    1.29    0.81
   7   3   7    0.25    1.00
  -7  -3  -8    0.30    0.86
   7   3   8    0.15    0.97
   7   3   9    2.56    1.15
   7   4 -12   -1.12    0.74
   7  -4 -12    0.14    0.79
   7   4 -11    0.23    0.77
   7  -4 -11   -0.45    0.84
   7   4 -10    0.48    0.68
   7  -4 -10    0.08    0.75
   7   4  -9   -0.32    0.67
   7  -4  -9   -0.17    0.76
   7   4  -8    0.82    0.68
   7  -4  -8    1.03    0.69
   7   4  -7   -0.26    0.67
   7  -4  -7    0.11    0.66
   7  -4  -7    0.29    0.72
   7   4  -6    3.13    0.70
   7  -4  -6    4.03    0.79
   7  -4  -6    3.53    0.73
   7  -4  -5    8.92    0.86
   7  -4  -5    8.67    0.80
   7   4  -5    8.67    0.79
   7   4  -4    0.25    0.55
   7  -4  -4    0.52    0.64
   7  -4  -4    0.12    0.57
   7  -4  -3    1.04    0.62
   7   4  -3    0.62    0.59
   7  -4  -3    0.37    0.64
   7   4  -3    1.31    0.54
   7  -4  -2   12.17    0.87
   7   4  -2   10.47    0.79
   7  -4  -2   11.24    0.85
   7   4  -2   11.25    0.82
   7  -4  -1   54.27    1.42
   7   4  -1   48.17    1.38
   7  -4  -1   52.26    1.39
   7   4  -1   53.33    1.34
   7  -4   0   11.80    0.81
   7   4   0    9.69    0.93
   7  -4   0   10.98    0.86
   7   4   0   12.06    0.74
   7  -4   1    1.84    0.71
   7  -4   1    1.38    0.57
   7   4   1    1.66    0.80
   7  -4   2    3.56    0.75
   7  -4   2    4.57    0.66
   7   4   2    3.17    0.80
  -7  -4  -3    0.85    0.80
   7  -4   3    0.60    0.55
   7  -4   3    1.27    0.77
   7   4   3    0.27    0.83
   7  -4   4    0.23    0.77
  -7  -4  -4    0.67    0.76
   7   4   4    0.47    0.89
  -7  -4  -5    0.49    0.77
   7  -4   5   -0.33    0.77
   7   4   5    0.60    0.90
   7  -4   6    2.20    0.85
  -7  -4  -6    1.84    0.87
   7   4   6    0.79    0.91
  -7  -4  -7    2.85    0.92
   7  -4   7    1.59    0.92
  -7   4  -7    1.83    0.85
   7   4   7    1.59    1.13
  -7  -4  -8    0.36    0.81
   7  -4   8    1.10    0.93
   7   4   8   -0.24    1.09
   7   5 -10   -0.87    0.82
   7  -5 -10   -0.87    0.87
   7   5  -9    5.35    0.91
   7  -5  -9    4.26    0.87
   7   5  -8    0.25    0.71
   7  -5  -8    0.65    0.73
   7   5  -7    3.88    0.79
   7  -5  -7    4.46    0.82
   7   5  -6    1.76    0.70
   7  -5  -6    1.66    0.75
   7  -5  -6    2.32    0.76
   7   5  -5    2.17    0.70
   7  -5  -5    1.37    0.67
   7  -5  -5    2.22    0.72
   7  -5  -4    0.18    0.66
   7   5  -4   -0.02    0.62
   7  -5  -4   -0.27    0.67
   7  -5  -3    0.62    0.66
   7   5  -3   -0.05    0.59
   7  -5  -3   -0.33    0.72
   7   5  -2    0.17    0.58
   7  -5  -2    0.01    0.72
   7  -5  -2    0.85    0.70
   7   5  -2   -0.04    0.53
   7   5  -1    1.80    0.60
   7  -5  -1    1.86    0.74
   7  -5  -1    1.49    0.63
   7   5  -1    1.22    0.71
   7  -5   0    6.48    0.73
   7  -5   0    6.22    0.85
   7   5   0    4.83    0.87
   7   5   0    4.70    0.65
   7  -5   1    0.18    0.57
   7   5   1    0.40    0.76
   7  -5   1    0.36    0.74
   7  -5   2    0.64    0.74
   7   5   2    1.02    0.81
   7   5   3    8.89    1.04
  -7  -5  -3    8.42    1.04
   7  -5   3    9.33    1.02
  -7  -5  -4    3.59    0.86
   7  -5   4    3.64    0.89
   7   5   4    2.85    1.01
   7  -5   5   -0.07    0.93
  -7  -5  -5   -0.17    0.87
   7   5   5    0.49    0.94
  -7  -5  -6    0.22    0.87
   7  -5   6    2.15    1.02
  -7   5  -6    1.74    0.92
   7   5   6    0.69    0.99
  -7  -5  -7    2.59    0.98
  -7   5  -7    1.76    0.95
   7  -5   7    2.77    1.03
   7   5   7    2.15    1.09
   7  -5   8    0.49    0.99
  -7   5  -8   -0.23    0.94
   7  -6  -9    0.68    0.87
   7   6  -8    1.93    0.92
   7  -6  -8    2.80    0.93
   7  -6  -7    8.15    1.02
   7   6  -7    7.56    0.93
   7   6  -6    0.14    0.74
   7  -6  -6   -0.02    0.73
   7   6  -5    0.85    0.64
   7  -6  -5    1.42    0.73
   7  -6  -4    1.48    0.74
   7   6  -4    1.70    0.76
   7  -6  -4    1.02    0.79
   7  -6  -3    2.03    0.79
   7   6  -3    1.61    0.65
   7  -6  -3    1.52    0.70
   7   6  -2   -0.06    0.62
   7  -6  -2   -0.43    0.80
   7  -6  -2    0.04    0.64
   7   6  -1    0.46    0.53
   7  -6  -1   -0.26    0.78
   7  -6  -1    0.01    0.61
   7  -6   0    7.09    0.81
   7  -6   0    7.90    0.97
   7   6   0    6.27    0.92
   7   6   1    9.96    1.04
   7  -6   1   12.83    1.08
   7   6   2   10.27    1.10
   7  -6   2   15.28    1.16
   7  -6   3    2.61    0.95
  -7  -6  -3    1.77    0.80
   7   6   3    1.03    0.92
   7  -6   4    1.57    1.00
  -7  -6  -4    1.73    0.87
   7   6   4    1.21    1.00
  -7  -6  -5    3.58    1.01
  -7   6  -5    4.15    1.03
   7  -6   5    3.82    1.11
   7   6   5    3.93    1.05
   7  -6   6   -1.30    0.99
   7   7  -6    0.13    0.78
   7  -7  -6    0.34    0.83
   7   7  -5    1.55    0.74
   7  -7  -5    2.58    0.94
   7  -7  -4    0.66    0.86
   7   7  -4    0.81    0.76
   7  -7  -3    4.39    0.92
   7   7  -3    3.12    0.76
   7   7  -2    1.17    0.71
   7  -7  -2    0.83    0.91
   7  -7  -1   -0.40    0.95
   7  -7   0   11.53    1.15
   7  -7   1    7.51    1.12
   7   7   1    6.06    1.03
  -7  -7  -2    0.78    0.85
   7  -7   2    1.43    0.94
   7   7   2   -0.05    0.91
  -7  -7  -3    0.44    0.89
   7   7   3    1.61    1.07
   7  -7   3    0.84    0.94
   8   0 -13    0.19    0.83
   8   0 -12   13.19    1.11
   8   0 -11   -0.37    0.62
   8   0 -11    0.26    0.64
   8   0 -10   12.29    0.95
   8   0 -10   10.32    0.83
   8   0  -9   -0.12    0.64
   8   0  -9    0.24    0.54
   8   0  -8    2.51    0.64
   8   0  -8    2.63    0.61
   8   0  -7   -0.15    0.62
   8   0  -7    0.12    0.54
   8   0  -6    1.87    0.61
   8   0  -6    1.97    0.60
   8   0  -5    0.04    0.66
   8   0  -5   -0.12    0.61
   8   0  -4   12.28    0.86
   8   0  -4   12.87    0.89
   8   0  -3   -0.02    0.61
   8   0  -3   -0.03    0.58
   8   0  -2    0.60    0.63
   8   0  -2    1.02    0.59
   8   0  -1    0.38    0.65
   8   0   0  102.68    1.87
  -8   0  -1    0.07    0.61
   8   0   1    0.02    0.69
  -8   0  -2    2.95    0.65
   8   0   2    2.04    0.74
  -8   0  -3   -0.15    0.59
   8   0   3    0.10    0.64
  -8   0  -4    0.11    0.68
   8   0   4    0.40    0.68
  -8   0  -5    0.22    0.62
   8   0   5   -0.52    0.71
  -8   0  -6    0.56    0.63
   8   0   6    0.49    0.76
  -8   0  -7   -0.41    0.70
   8   0   7    0.04    0.80
  -8   0  -8    1.81    0.80
   8   0   8    1.13    0.79
  -8   0  -9   -0.44    0.81
   8   1 -13    0.42    0.84
   8  -1 -13    0.14    0.71
   8   1 -12    3.28    0.72
   8   1 -12    1.98    0.81
   8  -1 -12    1.66    0.75
   8   1 -11    0.56    0.71
   8  -1 -11    1.58    0.68
   8   1 -11    0.84    0.76
   8  -1 -11    1.50    0.71
   8  -1 -10   -0.12    0.65
   8  -1 -10    0.29    0.61
   8   1 -10    0.22    0.63
   8  -1 -10    0.00    0.69
   8  -1 -10    0.13    0.65
   8  -1  -9    1.18    0.59
   8  -1  -9    1.39    0.59
   8   1  -9    1.05    0.62
   8  -1  -9    0.70    0.58
   8  -1  -9    1.25    0.59
   8  -1  -8    2.14    0.62
   8   1  -8    2.27    0.64
   8  -1  -8    2.04    0.62
   8  -1  -8    2.64    0.65
   8   1  -8    2.44    0.55
   8  -1  -7    0.12    0.59
   8   1  -7    0.53    0.62
   8  -1  -7    0.58    0.51
   8  -1  -7    0.00    0.56
   8   1  -7    0.17    0.49
   8  -1  -6   12.94    0.84
   8   1  -6   13.05    0.78
   8  -1  -6   13.24    0.84
   8   1  -6   12.45    0.86
   8  -1  -5   53.54    1.39
   8   1  -5   53.66    1.34
   8   1  -5   56.96    1.49
   8  -1  -4    8.74    0.79
   8   1  -4    7.89    0.75
   8   1  -4    8.43    0.78
   8   1  -3    3.06    0.64
   8  -1  -3    2.70    0.69
   8   1  -3    2.71    0.69
   8   1  -2    0.03    0.60
   8  -1  -2    0.15    0.66
   8   1  -2    0.41    0.62
   8  -1  -1    8.38    0.83
   8   1  -1    7.87    0.77
   8   1  -1    7.60    0.74
   8  -1   0    0.85    0.66
   8   1   0    0.93    0.72
  -8   1  -1    2.76    0.58
   8  -1   1    2.45    0.70
   8   1   1    1.97    0.77
   8  -1   2    6.60    0.76
   8   1   2    6.26    0.81
  -8   1  -2    5.45    0.66
  -8  -1  -2    6.91    0.80
  -8   1  -3    0.23    0.55
  -8  -1  -3    0.76    0.60
   8  -1   3    0.17    0.69
   8   1   3    0.24    0.70
  -8   1  -4    0.35    0.55
  -8  -1  -4    0.70    0.68
   8  -1   4   -0.48    0.66
   8   1   4    0.43    0.73
  -8   1  -5    1.73    0.60
  -8  -1  -5    1.59    0.78
   8  -1   5    1.50    0.75
   8   1   5    1.70    0.84
  -8   1  -6    3.67    0.72
  -8  -1  -6    3.83    0.77
   8  -1   6    3.87    0.81
   8   1   6    3.34    0.88
   8  -1   7    7.46    0.88
  -8   1  -7    7.37    0.90
  -8  -1  -7    7.39    0.98
   8   1   7    6.64    0.97
  -8   1  -8    5.33    0.82
  -8  -1  -8    5.52    1.01
   8   1   8    7.14    1.05
  -8  -1  -9    0.29    0.92
   8   1   9    0.26    0.84
   8  -2 -13    1.60    0.79
   8  -2 -12   -0.02    0.68
   8   2 -12   -0.61    0.65
   8  -2 -11    0.76    0.72
   8   2 -11    0.18    0.60
   8   2 -10    0.91    0.67
   8  -2 -10    0.77    0.68
   8  -2 -10    1.17    0.66
   8   2  -9    0.08    0.57
   8  -2  -9   -0.19    0.61
   8  -2  -9    0.55    0.62
   8  -2  -8    7.90    0.82
   8  -2  -8    7.81    0.77
   8   2  -8    7.37    0.81
   8   2  -7   -0.05    0.64
   8  -2  -7    0.59    0.55
   8  -2  -7   -0.16    0.60
   8  -2  -6   47.59    1.39
   8   2  -6   45.19    1.18
   8  -2  -6   46.14    1.18
   8   2  -6   45.77    1.39
   8   2  -5    1.95    0.67
   8  -2  -5    2.10    0.51
   8  -2  -5    1.97    0.65
   8   2  -5    2.01    0.58
   8   2  -4   -0.12    0.60
   8  -2  -4    0.26    0.60
   8  -2  -4    0.03    0.47
   8   2  -4   -0.08    0.54
   8   2  -3    0.15    0.61
   8  -2  -3    0.31    0.63
   8   2  -3    0.27    0.58
   8  -2  -3    0.22    0.44
   8   2  -2    0.46    0.56
   8  -2  -2    0.06    0.63
   8   2  -2   -0.10    0.69
   8   2  -1    0.11    0.58
   8  -2  -1    0.17    0.64
   8   2  -1    0.12    0.64
   8   2   0    0.21    0.52
   8  -2   0    0.08    0.63
   8   2   0    0.51    0.68
   8   2   1    1.69    0.51
   8  -2   1    2.02    0.65
   8   2   1    1.85    0.74
  -8  -2  -2    1.24    0.70
   8  -2   2    0.77    0.64
   8   2   2    0.90    0.74
  -8  -2  -3    0.10    0.70
   8  -2   3    0.44    0.63
   8   2   3    0.91    0.74
  -8  -2  -4    0.04    0.74
   8  -2   4    0.39    0.58
   8   2   4    0.87    0.79
  -8  -2  -5    0.33    0.78
   8  -2   5    0.72    0.61
   8   2   5    0.50    0.87
   8   2   6   27.54    1.46
  -8  -2  -6   28.34    1.42
  -8  -2  -7    6.96    1.00
   8   2   7    6.91    1.09
  -8  -2  -8    0.89    0.91
   8   2   8    1.69    1.07
   8   2   9    0.20    0.92
   8  -3 -12    0.87    0.87
   8   3 -12    0.03    0.80
   8   3 -11    0.14    0.76
   8  -3 -11   -0.28    0.85
   8   3 -10   -0.22    0.70
   8  -3 -10   -0.21    0.73
   8   3  -9    2.57    0.68
   8  -3  -9    2.21    0.70
   8  -3  -9    3.65    0.81
   8   3  -8    0.02    0.67
   8  -3  -8   -0.68    0.62
   8  -3  -8    0.16    0.66
   8  -3  -7    8.45    0.87
   8  -3  -7    7.98    0.76
   8   3  -7    7.41    0.84
   8  -3  -6   12.19    0.92
   8  -3  -6   12.33    0.83
   8   3  -6   11.42    0.93
   8   3  -5    0.35    0.59
   8  -3  -5   -0.09    0.59
   8  -3  -5    0.08    0.54
   8   3  -5    0.01    0.53
   8   3  -4    3.11    0.69
   8  -3  -4    3.41    0.73
   8   3  -4    3.01    0.60
   8  -3  -4    3.29    0.57
   8  -3  -3    0.18    0.49
   8   3  -3    0.46    0.58
   8  -3  -3    0.70    0.61
   8   3  -3    0.66    0.63
   8  -3  -2   17.09    0.96
   8   3  -2   13.32    0.90
   8  -3  -2   15.79    0.80
   8   3  -2   16.32    0.91
   8  -3  -1    5.30    0.75
   8   3  -1    4.82    0.74
   8  -3  -1    4.86    0.63
   8   3  -1    5.08    0.68
   8   3   0    0.29    0.52
   8  -3   0   -0.10    0.53
   8  -3   0   -0.26    0.63
   8   3   0    0.60    0.68
   8  -3   1    8.37    0.81
   8   3   1    8.68    0.93
   8  -3   1    9.75    0.77
   8   3   1    9.15    0.69
   8  -3   2    5.91    0.76
   8   3   2    7.11    0.90
  -8  -3  -3    1.02    0.81
   8  -3   3    0.81    0.65
   8   3   3    0.54    0.82
  -8  -3  -4    0.48    0.79
   8  -3   4    0.97    0.62
   8   3   4    1.05    0.92
  -8  -3  -5    1.66    0.83
   8   3   5    1.70    0.94
  -8  -3  -6    0.33    0.84
   8   3   6    0.62    0.94
  -8  -3  -7    2.37    0.89
   8   3   7    0.22    1.09
   8   3   8    0.57    1.09
   8   4 -11   -0.03    0.80
   8  -4 -11   -0.24    0.83
   8   4 -10    0.34    0.89
   8  -4 -10    0.04    0.81
   8   4  -9    0.49    0.70
   8  -4  -9    0.24    0.70
   8   4  -8    1.12    0.75
   8  -4  -8    1.41    0.71
   8  -4  -8    2.23    0.73
   8   4  -7    0.22    0.67
   8  -4  -7    0.25    0.66
   8  -4  -7   -0.06    0.75
   8   4  -6    1.94    0.76
   8  -4  -6    3.13    0.78
   8  -4  -6    2.95    0.74
   8   4  -5    3.81    0.71
   8  -4  -5    3.74    0.79
   8  -4  -5    3.03    0.67
   8   4  -4    1.66    0.61
   8  -4  -4    1.60    0.71
   8  -4  -4    1.56    0.63
   8  -4  -3    0.30    0.57
   8   4  -3   -0.20    0.62
   8  -4  -3    0.53    0.67
   8   4  -3   -0.04    0.59
   8  -4  -2   13.53    0.92
   8   4  -2   11.19    0.90
   8  -4  -2   12.42    0.89
   8   4  -2   12.59    0.88
   8  -4  -1   29.89    1.19
   8   4  -1   27.43    1.20
   8  -4  -1   31.18    1.19
   8   4  -1   29.60    1.13
   8   4   0    1.45    0.53
   8  -4   0    1.68    0.67
   8  -4   0    1.52    0.66
   8   4   0    1.52    0.76
   8  -4   1    2.39    0.69
   8   4   1    1.97    0.85
   8  -4   1    1.74    0.69
   8  -4   2    1.41    0.68
   8  -4   2    0.55    0.63
   8   4   2    0.71    0.86
   8  -4   3    0.48    0.70
  -8  -4  -3    0.76    0.82
   8  -4   3    0.54    0.62
   8   4   3    0.89    0.92
  -8  -4  -4    0.28    0.81
   8  -4   4   -0.16    0.81
   8   4   4    0.09    0.90
  -8  -4  -5    0.53    0.93
   8   4   5    0.35    0.93
  -8  -4  -6   -1.11    0.93
   8   4   6   -0.96    1.06
  -8  -4  -7    0.91    0.94
  -8   4  -7    0.92    0.75
   8   4   7    1.11    1.09
   8  -5 -10    4.01    0.95
   8   5  -9   -0.09    0.78
   8  -5  -9    0.45    0.79
   8   5  -8    5.58    0.94
   8  -5  -8    3.36    0.81
   8   5  -7    0.44    0.75
   8  -5  -7   -0.26    0.77
   8  -5  -7    0.06    0.73
   8   5  -6    2.59    0.82
   8  -5  -6    2.18    0.80
   8  -5  -6    3.23    0.78
   8   5  -5    1.31    0.67
   8  -5  -5    0.76    0.77
   8  -5  -5    1.08    0.72
   8   5  -4    4.55    0.77
   8  -5  -4    5.36    0.86
   8  -5  -4    5.26    0.81
   8  -5  -3   -0.05    0.67
   8   5  -3    0.39    0.58
   8  -5  -3    0.02    0.66
   8   5  -2    2.87    0.66
   8  -5  -2    2.51    0.71
   8  -5  -2    2.57    0.70
   8   5  -2    1.18    0.65
   8   5  -1    1.14    0.59
   8  -5  -1    1.50    0.75
   8  -5  -1    1.41    0.66
   8   5  -1    1.57    0.69
   8  -5   0    4.24    0.82
   8  -5   0    3.81    0.69
   8   5   0    3.50    0.85
   8  -5   1    3.84    0.67
   8  -5   1    3.29    0.80
   8   5   1    2.66    0.84
   8   5   2    0.04    0.87
   8  -5   2    0.26    0.74
   8  -5   3    0.07    0.81
  -8  -5  -3    0.27    0.83
   8   5   3    0.44    0.88
  -8  -5  -4    0.44    0.89
   8  -5   4    0.01    0.78
   8   5   4   -0.14    0.96
  -8  -5  -5    0.24    0.91
   8  -5   5    0.94    0.95
   8   5   5    0.29    1.07
   8  -5   6    1.05    0.91
  -8   5  -6    0.65    0.90
   8  -6  -8    1.12    0.86
   8   6  -7    2.76    0.87
   8  -6  -7    1.90    0.86
   8   6  -6    0.60    0.80
   8  -6  -6   -0.43    0.83
   8   6  -5   -0.26    0.74
   8  -6  -5    0.47    0.83
   8  -6  -5   -0.05    0.77
   8  -6  -4    0.01    0.74
   8   6  -4    0.25    0.71
   8  -6  -4   -0.04    0.70
   8  -6  -3    0.65    0.73
   8   6  -3    0.04    0.70
   8  -6  -3   -0.24    0.70
   8   6  -2    0.37    0.63
   8  -6  -2   -0.29    0.78
   8  -6  -2    0.24    0.74
   8  -6  -1   -0.19    0.80
   8  -6  -1    0.73    0.66
   8  -6   0   -0.05    0.81
   8  -6   0    1.44    0.65
   8   6   0   -0.35    0.87
   8  -6   1    4.54    0.91
   8   6   1    2.92    0.93
  -8  -6  -2    0.22    0.94
   8   6   2   -0.17    0.91
   8  -6   2    0.51    0.91
   8  -6   3    0.33    0.74
  -8  -6  -3    0.00    0.91
   8   6   3   -0.43    1.00
   8  -6   4   -0.20    0.93
  -8  -6  -4    0.23    0.93
   8   6   4    0.87    1.06
   8  -6   5    0.59    0.79
   8   7  -5   -0.46    0.79
   8  -7  -5    0.20    0.85
   8   7  -4   -0.31    0.71
   8  -7  -4    0.89    0.85
   8  -7  -3    1.66    0.86
   8   7  -3    0.75    0.68
   8  -7  -3    1.81    0.80
   8  -7  -2    0.60    0.85
   8  -7  -2    1.53    0.78
   8  -7  -1    0.89    0.86
   8  -7   0   -0.18    0.88
   8  -7   1    0.15    0.90
   8   7   1    0.30    0.91
   8  -7   2    2.37    0.98
   8   7   2    0.30    0.89
   9   0 -11    1.23    0.70
   9   0 -10    0.07    0.64
   9   0  -9    1.09    0.64
   9   0  -9    1.63    0.61
   9   0  -8    0.04    0.62
   9   0  -8   -0.05    0.57
   9   0  -7    0.21    0.61
   9   0  -7   -0.25    0.58
   9   0  -6    0.49    0.62
   9   0  -6    0.04    0.62
   9   0  -5    8.07    0.81
   9   0  -5    7.89    0.80
   9   0  -4   -0.30    0.59
   9   0  -4    0.35    0.61
   9   0  -3    5.13    0.77
   9   0  -3    5.32    0.75
   9   0  -2    0.07    0.60
   9   0  -1    0.39    0.63
   9   0   0    0.38    0.68
  -9   0  -1    0.45    0.60
   9   0   1   -0.04    0.70
  -9   0  -2    0.15    0.62
   9   0   2   -0.14    0.71
  -9   0  -3    1.75    0.69
   9   0   3    1.71    0.79
  -9   0  -4   -0.28    0.66
   9   0   4    0.15    0.76
  -9   0  -5   -0.30    0.66
   9   0   5    0.37    0.81
  -9   0  -6   -0.16    0.73
   9   0   6    0.13    0.78
  -9   0  -7   -0.22    0.76
   9   0   7    0.67    0.74
  -9   0  -8    0.66    0.77
   9   0   8    0.31    0.88
   9   1 -12    3.92    0.75
   9   1 -11    5.47    0.89
   9  -1 -10    0.58    0.62
   9   1 -10   -0.29    0.63
   9  -1 -10    0.20    0.67
   9  -1  -9    1.35    0.71
   9   1  -9    1.55    0.71
   9  -1  -9    1.83    0.66
   9  -1  -8    0.38    0.64
   9   1  -8   -0.07    0.67
   9  -1  -8    0.29    0.62
   9   1  -7    0.08    0.62
   9  -1  -7    0.04    0.63
   9   1  -7   -0.21    0.55
   9  -1  -7    0.28    0.62
   9  -1  -6    7.50    0.79
   9   1  -6    6.91    0.74
   9   1  -6    7.08    0.81
   9  -1  -5   36.59    1.27
   9   1  -5   35.89    1.22
   9   1  -5   35.44    1.28
   9  -1  -4   14.07    0.97
   9   1  -4   13.91    0.91
   9   1  -4   13.90    0.92
   9  -1  -3    8.37    0.85
   9   1  -3    7.29    0.81
   9   1  -3    8.14    0.82
   9   1  -2    0.54    0.59
   9  -1  -2    0.29    0.62
   9   1  -2    0.39    0.64
   9  -1  -1    0.19    0.64
   9   1  -1   -0.30    0.68
   9   1  -1   -0.09    0.57
   9  -1   0    0.35    0.65
   9   1   0    0.26    0.71
   9  -1   1    5.55    0.79
   9   1   1    4.86    0.86
  -9  -1  -2    0.47    0.71
   9  -1   2    0.67    0.63
   9   1   2    0.54    0.72
  -9  -1  -3    2.71    0.77
   9  -1   3    3.15    0.75
   9   1   3    3.23    0.90
  -9  -1  -4    0.18    0.66
   9  -1   4   -0.13    0.70
   9   1   4    0.41    0.82
  -9  -1  -5   -0.55    0.73
   9  -1   5   -0.77    0.74
   9   1   5    0.33    0.81
  -9  -1  -6    1.45    0.81
   9  -1   6    0.81    0.68
   9   1   6    2.14    0.89
  -9  -1  -7    2.70    0.84
   9  -1   7    3.00    0.89
   9   1   7    3.09    0.99
  -9  -1  -8    0.45    0.83
   9   1   8    0.02    0.79
   9   2 -12   -0.06    0.73
   9   2 -11    0.33    0.77
   9   2 -10    3.22    0.77
   9  -2 -10    3.41    0.87
   9  -2  -9    7.99    0.95
   9   2  -9    7.37    0.90
   9   2  -8    3.17    0.73
   9  -2  -8    3.43    0.75
   9   2  -7    3.50    0.75
   9  -2  -7    5.22    0.79
   9  -2  -6   28.03    1.20
   9   2  -6   25.63    1.03
   9   2  -6   26.64    1.21
   9   2  -5    3.10    0.70
   9  -2  -5    3.65    0.74
   9   2  -5    3.32    0.65
   9   2  -4    1.18    0.61
   9  -2  -4    0.48    0.63
   9   2  -4    0.62    0.63
   9   2  -3    0.08    0.66
   9  -2  -3    0.57    0.65
   9   2  -3    0.71    0.60
   9   2  -2   -0.04    0.58
   9  -2  -2    0.25    0.70
   9   2  -2   -0.11    0.67
   9   2  -1    0.84    0.60
   9  -2  -1    0.90    0.65
   9   2  -1    0.78    0.69
   9   2   0    2.23    0.62
   9  -2   0    1.90    0.71
   9   2   0    1.81    0.70
   9  -2   1    0.16    0.66
   9   2   1    0.46    0.72
  -9  -2  -2    0.60    0.72
   9  -2   2    0.40    0.64
   9   2   2    0.39    0.73
  -9  -2  -3    1.65    0.82
   9  -2   3    1.69    0.70
   9   2   3    1.58    0.86
  -9  -2  -4    0.08    0.76
   9  -2   4    0.00    0.69
   9   2   4    0.45    0.86
  -9  -2  -5    0.33    0.81
   9  -2   5    0.36    0.67
   9   2   5    0.28    0.89
  -9  -2  -6    1.61    0.84
   9   2   6    0.65    0.90
  -9  -2  -7    1.77    0.88
   9   2   7    1.26    0.97
   9  -3 -12    5.37    0.98
   9   3 -11    6.24    0.95
   9  -3 -11    6.50    0.85
   9   3 -10    1.39    0.74
   9  -3 -10    1.83    0.77
   9  -3 -10    1.50    0.84
   9   3  -9    1.59    0.70
   9  -3  -9    0.56    0.66
   9  -3  -9    1.52    0.65
   9   3  -8    3.74    0.81
   9  -3  -8    4.89    0.81
   9  -3  -8    3.78    0.80
   9  -3  -7    0.65    0.61
   9  -3  -7    0.59    0.67
   9   3  -6    0.74    0.68
   9  -3  -6    1.83    0.70
   9   3  -5    0.39    0.61
   9  -3  -5    0.02    0.65
   9   3  -5   -0.11    0.58
   9   3  -4    0.25    0.62
   9  -3  -4   -0.23    0.65
   9   3  -4   -0.08    0.58
   9   3  -3    0.34    0.61
   9  -3  -3    0.42    0.66
   9   3  -3    0.04    0.62
   9   3  -2    1.96    0.67
   9  -3  -2    2.14    0.72
   9   3  -2    1.65    0.72
   9  -3  -1   20.23    1.08
   9   3  -1   18.70    1.08
   9   3  -1   19.94    1.04
   9  -3   0   25.32    1.16
   9   3   0   23.90    1.22
   9   3   0   24.68    1.06
   9  -3   1    0.59    0.66
   9   3   1    0.11    0.76
  -9  -3  -2    3.34    0.86
   9  -3   2    1.99    0.76
   9   3   2    1.94    0.91
  -9  -3  -3    3.03    0.88
   9  -3   3    3.49    0.73
   9   3   3    2.27    0.86
  -9  -3  -4    0.49    0.83
   9  -3   4    0.51    0.62
   9   3   4    1.29    0.89
  -9  -3  -5    0.25    0.85
   9   3   5    2.12    0.98
  -9  -3  -6    1.01    0.99
   9   3   6    0.55    0.92
   9  -4 -11    1.23    0.79
   9   4 -10    1.40    0.82
   9  -4 -10   -0.39    0.78
   9   4  -9    1.16    0.71
   9  -4  -9    0.41    0.75
   9  -4  -9    0.61    0.81
   9   4  -8    1.30    0.74
   9  -4  -8    0.05    0.66
   9  -4  -8    0.41    0.77
   9   4  -7    0.20    0.70
   9  -4  -7    1.09    0.65
   9  -4  -7    0.34    0.73
   9   4  -6    0.42    0.72
   9  -4  -6    1.61    0.76
   9  -4  -6    1.15    0.68
   9   4  -5    0.41    0.68
   9  -4  -5    0.93    0.72
   9  -4  -5    0.33    0.62
   9   4  -4    1.91    0.72
   9  -4  -4    3.40    0.78
   9  -4  -4    1.69    0.62
   9   4  -3    4.47    0.77
   9  -4  -3    4.80    0.83
   9  -4  -3    5.69    0.75
   9   4  -3    5.02    0.73
   9   4  -2    0.34    0.57
   9  -4  -2   -0.18    0.67
   9   4  -2    0.11    0.68
   9   4  -1    0.74    0.62
   9  -4  -1    0.23    0.70
   9   4  -1    0.54    0.75
   9  -4   0    0.59    0.63
   9   4   0    0.67    0.75
   9  -4   1   22.08    1.13
   9   4   1   19.60    1.23
  -9  -4  -2    3.50    0.93
   9  -4   2    3.54    0.74
   9   4   2    3.76    0.92
  -9  -4  -3    0.02    0.84
   9  -4   3    0.36    0.61
   9   4   3    1.20    0.80
  -9  -4  -4    1.74    0.92
   9   4   4    0.63    0.98
  -9  -4  -5    1.87    0.95
   9   4   5    1.99    1.07
   9  -5  -9   -1.02    0.75
   9   5  -8    0.30    0.76
   9  -5  -8    0.95    0.86
   9  -5  -8   -0.09    0.72
   9   5  -7    3.10    0.92
   9  -5  -7    3.72    0.91
   9  -5  -7    3.37    0.82
   9   5  -6    3.68    0.83
   9  -5  -6    5.25    0.92
   9  -5  -6    4.00    0.75
   9   5  -5    2.25    0.74
   9  -5  -5    2.12    0.83
   9  -5  -5    2.46    0.77
   9   5  -4    1.33    0.68
   9  -5  -4    1.09    0.86
   9  -5  -4    1.28    0.69
   9  -5  -3    2.36    0.68
   9   5  -3    1.96    0.73
   9  -5  -3    1.62    0.71
   9   5  -2    0.42    0.57
   9  -5  -2    1.51    0.68
   9  -5  -2    0.38    0.72
   9   5  -2    0.33    0.62
   9   5  -1    0.50    0.61
   9  -5  -1   -0.01    0.64
   9  -5  -1    0.13    0.67
   9   5  -1   -0.40    0.76
   9  -5   0   -0.42    0.64
   9  -5   0   -0.49    0.69
   9   5   0    0.26    0.77
   9  -5   1   -0.64    0.62
   9   5   1    0.84    0.86
  -9  -5  -2    0.69    0.90
   9   5   2   -0.49    0.87
  -9  -5  -3    0.16    0.94
   9   5   3    0.42    0.95
  -9  -5  -4   -0.43    0.89
   9   5   4   -0.70    1.21
   9  -6  -7    0.88    0.76
   9   6  -6    0.15    0.76
   9  -6  -6    0.29    0.83
   9  -6  -6   -0.11    0.84
   9  -6  -5    8.16    1.09
   9  -6  -5    8.84    0.92
   9   6  -5    7.88    1.01
   9   6  -4    0.35    0.70
   9  -6  -4    0.42    0.81
   9  -6  -4   -0.07    0.70
   9  -6  -3    0.07    0.72
   9   6  -3   -0.09    0.70
   9  -6  -3   -0.32    0.73
   9   6  -2    1.05    0.64
   9  -6  -2    2.32    0.79
   9  -6  -2    1.84    0.82
   9  -6  -1    1.08    0.83
   9  -6  -1    1.30    0.80
   9  -6   0    0.24    0.84
   9  -6   0   -0.13    0.68
   9   6   0    0.45    0.81
   9  -6   1    0.71    0.78
   9   6   1    0.47    0.93
  -9  -6  -2    2.72    1.03
   9  -6   2    2.42    0.83
   9   6   2    1.03    0.97
   9  -7  -3    2.36    0.97
   9  -7  -2    2.46    0.86
   9  -7  -2    1.18    0.83
   9  -7  -1    2.87    0.95
  10   0 -11    0.31    0.71
  10   0 -10   16.41    1.12
  10   0  -9    0.34    0.78
  10   0  -9    0.37    0.64
  10   0  -8    5.27    0.80
  10   0  -8    4.87    0.78
  10   0  -7    0.06    0.62
  10   0  -7    0.19    0.64
  10   0  -6    1.32    0.67
  10   0  -6    0.79    0.67
  10   0  -5   -0.20    0.70
  10   0  -5    0.13    0.59
  10   0  -4    0.47    0.66
  10   0  -3    0.34    0.69
  10   0  -2    0.33    0.70
  10   0  -1   -0.09    0.65
  10   0   0    1.03    0.77
 -10   0  -1    0.09    0.64
  10   0   1    0.24    0.73
  10   0   2   26.27    1.31
 -10   0  -2   26.25    1.16
 -10   0  -3    0.00    0.66
  10   0   3   -0.62    0.80
 -10   0  -4   -0.04    0.69
  10   0   4   -0.46    0.86
 -10   0  -5    0.22    0.67
  10   0   5    0.42    0.77
  10   0   6   -0.25    0.89
  10   0   7   -0.36    0.99
  10   1 -12    2.40    0.73
  10   1 -11    0.36    0.77
  10   1 -10    0.69    0.77
  10  -1 -10    1.85    0.71
  10   1  -9   -0.49    0.72
  10  -1  -9   -0.53    0.72
  10   1  -8    0.54    0.77
  10  -1  -8    0.22    0.70
  10   1  -7    3.00    0.77
  10  -1  -7    2.93    0.74
  10   1  -7    3.33    0.67
  10   1  -6    3.91    0.76
  10  -1  -6    2.84    0.71
  10   1  -6    3.70    0.72
  10   1  -5    0.40    0.70
  10  -1  -5    0.71    0.64
  10   1  -5    0.45    0.68
  10   1  -4    1.86    0.73
  10  -1  -4    2.28    0.76
  10   1  -4    1.57    0.70
  10  -1  -3   19.61    1.09
  10   1  -3   18.87    1.09
  10   1  -3   19.88    1.10
  10  -1  -2    3.27    0.75
  10   1  -2    2.05    0.74
  10   1  -2    2.35    0.68
  10  -1  -1    0.72    0.74
  10   1  -1    0.76    0.68
  10  -1   0    0.65    0.73
  10   1   0   -0.15    0.76
 -10  -1  -1    6.49    0.81
  10  -1   1    5.31    0.87
  10   1   1    5.56    0.97
 -10  -1  -2    0.88    0.69
  10  -1   2    0.53    0.70
  10   1   2   -0.18    0.78
 -10  -1  -3   -0.72    0.75
  10  -1   3    0.63    0.71
  10   1   3    0.35    0.72
 -10  -1  -4    1.15    0.83
  10  -1   4    1.59    0.72
  10   1   4    1.11    0.87
 -10  -1  -5   -0.29    0.74
  10  -1   5    0.61    0.79
  10   1   5    0.06    0.83
 -10  -1  -6    0.10    0.75
  10  -1   6   -0.55    0.79
  10   1   6    0.24    0.88
  10   2 -11    0.74    0.80
  10  -2 -11    1.02    0.79
  10   2 -10    0.40    0.77
  10  -2 -10   -0.02    0.70
  10   2  -9    0.71    0.74
  10  -2  -9    0.52    0.77
  10   2  -8    0.28    0.70
  10  -2  -8    0.25    0.76
  10   2  -7    0.09    0.66
  10  -2  -7    0.13    0.76
  10   2  -6    5.07    0.85
  10  -2  -6    5.31    0.86
  10   2  -6    5.04    0.68
  10   2  -5    0.32    0.72
  10  -2  -5    0.20    0.70
  10   2  -5   -0.14    0.66
  10  -2  -4   48.46    1.56
  10   2  -4   44.68    1.40
  10   2  -4   46.72    1.53
  10   2  -3    3.56    0.77
  10  -2  -3    3.57    0.79
  10   2  -3    3.62    0.75
  10   2  -2    0.57    0.64
  10  -2  -2    0.08    0.76
  10   2  -2    0.30    0.71
  10   2  -1   -0.08    0.65
  10  -2  -1    0.83    0.71
  10   2  -1    0.34    0.79
  10  -2   0    1.37    0.74
  10   2   0    0.47    0.80
  10  -2   1    0.04    0.70
  10   2   1    0.30    0.73
 -10  -2  -2    0.64    0.84
  10  -2   2    1.05    0.66
  10   2   2    1.30    0.76
 -10  -2  -3    0.82    0.79
  10  -2   3    0.76    0.70
  10   2   3    0.70    0.79
 -10  -2  -4    0.60    0.82
  10  -2   4   -0.13    0.67
  10   2   4   -0.16    0.89
 -10  -2  -5   -0.48    0.84
  10  -2   5    0.49    0.74
  10   2   5    0.43    0.92
 -10  -2  -6    0.47    0.93
  10   3 -10    0.43    0.70
  10  -3 -10   -0.51    0.79
  10   3  -9    0.35    0.77
  10  -3  -9   -0.10    0.84
  10   3  -8    0.19    0.76
  10  -3  -8    0.75    0.74
  10   3  -7    0.77    0.73
  10  -3  -7    0.88    0.76
  10   3  -6    1.00    0.73
  10  -3  -6    0.86    0.77
  10  -3  -5    7.97    0.92
  10   3  -5    6.93    0.73
  10   3  -5    7.44    0.92
  10   3  -4    0.81    0.66
  10  -3  -4    0.75    0.75
  10   3  -4    0.88    0.70
  10   3  -3    0.78    0.66
  10  -3  -3    1.25    0.69
  10   3  -3    0.92    0.70
  10   3  -2    0.52    0.65
  10  -3  -2    1.34    0.76
  10   3  -2    0.95    0.76
  10   3  -1    1.43    0.68
  10  -3  -1    2.30    0.72
  10   3  -1    1.44    0.80
  10  -3   0   14.59    1.03
  10   3   0   11.77    1.11
  10   3   0   13.93    0.89
  10  -3   1    3.78    0.80
  10   3   1    3.94    0.99
 -10  -3  -2    0.17    0.88
  10  -3   2   -0.26    0.75
  10   3   2    0.39    0.83
 -10  -3  -3    2.69    0.93
  10  -3   3    2.33    0.77
  10   3   3    2.27    0.94
 -10  -3  -4    1.11    0.85
  10  -3   4    0.30    0.71
  10   3   4    1.25    0.99
 -10  -3  -5    0.01    0.99
  10   3   5   -0.02    1.06
  10  -4  -9    0.24    0.82
  10   4  -8    0.51    0.75
  10  -4  -8    0.09    0.92
  10   4  -7    0.73    0.73
  10  -4  -7   -0.06    0.79
  10   4  -6    1.37    0.79
  10  -4  -6    0.55    0.81
  10   4  -5    0.50    0.69
  10  -4  -5    0.59    0.67
  10   4  -4    2.96    0.82
  10  -4  -4    2.54    0.86
  10   4  -3    0.54    0.69
  10  -4  -3    0.06    0.73
  10   4  -3    0.98    0.67
  10   4  -2    0.61    0.65
  10  -4  -2   -0.23    0.68
  10   4  -2   -0.29    0.75
  10   4  -1   -0.47    0.61
  10  -4  -1   -0.31    0.73
  10   4  -1    0.41    0.76
  10  -4   0    2.77    0.78
  10   4   0    3.06    0.89
  10  -4   1   11.84    0.95
  10   4   1    7.75    1.04
 -10  -4  -2    0.89    0.87
  10  -4   2    0.58    0.69
  10   4   2    0.58    0.85
 -10  -4  -3    3.07    0.99
  10   4   3    2.16    1.06
  10   4   4    1.08    0.92
  10   5  -7    0.25    0.72
  10  -5  -7    0.70    0.83
  10   5  -6    3.35    0.88
  10  -5  -6    3.27    0.92
  10   5  -5    0.13    0.78
  10  -5  -5   -0.48    0.75
  10   5  -4    3.31    0.77
  10  -5  -4    4.47    0.95
  10   5  -3    0.70    0.68
  10  -5  -3   -0.40    0.77
  10   5  -2    1.80    0.66
  10  -5  -2    2.12    0.83
  10   5  -2    1.57    0.74
  10  -5  -1    0.17    0.69
  10   5  -1    0.35    0.81
  10  -5   0    1.51    0.68
  10   5   0    0.63    0.86
  10  -5   1    0.85    0.68
  10   5   1   -0.44    0.84
 -10  -5  -2    1.43    1.02
  10   5   2    0.71    0.90
  10   6  -4    0.47    0.70
  10   6  -3    0.74    0.76
  10  -6  -3    0.67    0.87
  10  -6  -2    0.41    0.80
  10  -6  -1    1.98    0.78
  10   6   0    0.36    0.77
  11   0 -11    9.50    1.13
  11   0 -10    0.96    0.80
  11   0  -9    0.89    0.85
  11   0  -9    0.55    0.69
  11   0  -8    0.13    0.68
  11   0  -8    0.21    0.57
  11   0  -7    0.15    0.71
  11   0  -7    0.49    0.68
  11   0  -6    0.37    0.72
  11   0  -6    0.25    0.71
  11   0  -5    0.31    0.70
  11   0  -4   -0.28    0.74
  11   0  -3    1.07    0.76
  11   0  -2   -0.21    0.73
  11   0  -1    0.21    0.77
  11   0   0    0.47    0.76
  11   0   1    0.42    0.82
  11   0   2    0.11    0.76
  11   0   3   -0.26    0.83
  11   0   4   -0.18    0.81
  11   0   5    0.50    0.98
  11   1 -10    3.01    0.83
  11  -1 -10    3.67    0.77
  11   1  -9    3.54    0.84
  11  -1  -9    5.14    0.85
  11   1  -8    0.05    0.71
  11  -1  -8   -0.01    0.71
  11   1  -7    1.52    0.84
  11  -1  -7    1.37    0.71
  11   1  -7    1.41    0.68
  11   1  -6    0.25    0.71
  11  -1  -6    0.05    0.69
  11   1  -6   -0.15    0.73
  11   1  -5    0.19    0.73
  11  -1  -5    0.10    0.70
  11   1  -5   -0.02    0.74
  11   1  -4    1.65    0.73
  11  -1  -4    2.04    0.78
  11   1  -4    1.47    0.75
  11  -1  -3   12.55    1.03
  11   1  -3   12.17    0.99
  11   1  -3   11.71    0.99
  11  -1  -2    4.66    0.86
  11   1  -2    5.20    0.87
  11  -1  -1    2.73    0.83
  11   1  -1    3.07    0.82
  11  -1   0   -0.03    0.77
  11   1   0   -0.41    0.74
 -11  -1  -1    0.84    0.69
  11  -1   1   -0.12    0.83
  11   1   1    0.20    0.78
 -11  -1  -2    0.06    0.73
  11  -1   2    0.22    0.82
  11   1   2   -0.52    0.78
 -11  -1  -3    1.34    0.80
  11  -1   3    1.93    0.86
  11   1   3    0.70    0.92
 -11  -1  -4    0.01    0.76
  11  -1   4   -0.13    0.80
  11   1   4    0.21    0.90
 -11  -1  -5    0.28    0.80
  11  -1   5    0.24    0.80
  11  -2 -10    0.73    0.76
  11   2  -9   -0.71    0.82
  11  -2  -9   -0.64    0.87
  11   2  -8   -0.03    0.71
  11  -2  -8    0.21    0.76
  11   2  -7    4.55    0.91
  11  -2  -7    4.64    0.86
  11   2  -6    0.75    0.72
  11  -2  -6    0.66    0.74
  11   2  -6    0.66    0.70
  11   2  -5    4.80    0.84
  11  -2  -5    5.20    0.86
  11   2  -5    4.53    0.82
  11  -2  -4   15.48    1.10
  11   2  -4   15.52    1.06
  11   2  -4   16.40    1.13
  11   2  -3    5.70    0.85
  11  -2  -3    5.47    0.89
  11   2  -3    5.60    0.81
  11   2  -2    0.43    0.71
  11  -2  -2   -0.43    0.77
  11   2  -2    0.01    0.73
  11  -2  -1    0.14    0.70
  11   2  -1    0.61    0.78
  11  -2   0    1.97    0.84
  11   2   0    0.85    0.81
 -11  -2  -1    3.62    0.94
  11  -2   1    4.13    0.90
  11   2   1    3.25    0.97
 -11  -2  -2    1.85    0.86
  11  -2   2    1.04    0.81
  11   2   2    1.13    0.89
 -11  -2  -3    0.43    0.80
  11  -2   3    0.05    0.77
  11   2   3    0.37    1.00
 -11  -2  -4    0.53    0.93
  11  -2   4   -0.25    0.88
  11   2   4   -0.31    0.98
  11  -2   5   -0.12    0.76
  11  -3  -9    3.96    0.92
  11   3  -8    1.40    0.77
  11  -3  -8    1.29    0.84
  11   3  -7    2.33    0.83
  11  -3  -7    3.03    0.86
  11   3  -6    1.07    0.79
  11  -3  -6    1.02    0.75
  11   3  -5    2.80    0.82
  11  -3  -5    3.03    0.86
  11   3  -5    3.01    0.74
  11   3  -4    0.68    0.77
  11  -3  -4    1.68    0.85
  11   3  -4    1.47    0.75
  11   3  -3   -0.03    0.68
  11  -3  -3    0.64    0.79
  11   3  -3   -0.18    0.70
  11   3  -2    0.49    0.69
  11  -3  -2   -0.02    0.71
  11   3  -2   -0.32    0.75
  11   3  -1    0.23    0.59
  11  -3  -1    0.73    0.75
  11   3  -1   -0.28    0.82
  11  -3   0    0.81    0.77
  11   3   0   -0.25    0.84
  11  -3   1    5.82    0.91
  11   3   1    5.29    0.99
  11  -3   2   11.56    1.09
  11   3   2    9.73    1.23
 -11  -3  -2    9.55    1.20
 -11  -3  -3    0.64    0.89
  11  -3   3    1.47    0.77
  11   3   3    1.33    0.96
  11  -3   4    0.35    0.75
  11   4  -7    0.23    0.79
  11  -4  -7   -0.42    0.78
  11   4  -6    2.67    0.90
  11  -4  -6    2.83    0.89
  11   4  -5    1.40    0.79
  11  -4  -5    2.69    0.89
  11   4  -4   -0.34    0.69
  11  -4  -4    0.79    0.84
  11   4  -3   -0.33    0.69
  11  -4  -3    1.43    0.81
  11   4  -3    0.52    0.78
  11   4  -2    1.56    0.73
  11  -4  -2    1.26    0.88
  11   4  -2    1.32    0.85
  11  -4  -1    1.11    0.78
  11   4  -1    0.06    0.88
  11  -4   0   -0.32    0.76
  11   4   0    0.03    0.94
  11  -4   1    0.46    0.76
  11   4   1   -0.18    0.83
  11  -4   2    0.20    0.71
  11   5  -4    3.55    0.82
  11   5  -3    1.10    0.72
  11  -5  -3    0.07    0.94
  11  -5  -2    1.48    0.89
  11  -5  -1    0.34    0.83
  11   5  -1    0.46    0.75
  11  -5   0    0.62    0.77
  11   5   0    0.36    0.96
  12   0  -8   12.25    1.04
  12   0  -7    0.45    0.79
  12   0  -6    0.01    0.78
  12   0  -5    0.92    0.84
  12   0  -4    1.19    0.81
  12   0  -3   -0.31    0.78
  12   0  -2   -0.38    0.74
  12   0  -1    0.37    0.83
  12   0   0   -0.67    0.84
  12   0   1   -0.15    0.82
  12   0   2    0.95    0.94
  12  -1  -9    0.13    0.77
  12   1  -8    0.28    0.75
  12  -1  -8    0.30    0.80
  12   1  -7    0.07    0.78
  12  -1  -7    0.26    0.85
  12   1  -7    0.06    0.71
  12   1  -6    1.73    0.83
  12  -1  -6   -0.07    0.80
  12   1  -6   -0.04    0.83
  12   1  -5    1.25    0.79
  12  -1  -5    2.08    0.82
  12   1  -5    1.47    0.83
  12  -1  -4    4.85    0.88
  12   1  -4    4.10    0.88
  12  -1  -3    1.32    0.81
  12   1  -3    1.89    0.77
  12  -1  -2   -0.33    0.84
  12   1  -2    0.32    0.78
  12  -1  -1    4.19    0.98
  12   1  -1    3.61    0.95
 -12  -1   0    0.70    0.79
  12  -1   0    0.51    0.86
  12   1   0    1.20    0.83
 -12  -1  -1    0.57    0.76
  12  -1   1    0.42    0.84
  12   1   1    0.42    0.84
  12  -1   2    1.01    0.91
  12   1   2    0.63    0.93
  12  -2  -8    0.79    0.80
  12   2  -7    0.02    0.86
  12  -2  -7    0.22    0.79
  12   2  -6    0.91    0.89
  12  -2  -6   -0.71    0.77
  12   2  -6   -0.49    0.67
  12   2  -5    0.13    0.85
  12  -2  -5    1.43    0.81
  12   2  -5   -0.36    0.77
  12   2  -4    1.78    0.80
  12  -2  -4    2.03    0.92
  12   2  -4    1.57    0.80
  12   2  -3    0.61    0.78
  12  -2  -3    0.46    0.80
  12   2  -3    0.82    0.86
  12  -2  -2   23.10    1.34
  12   2  -2   20.45    1.29
  12  -2  -1    2.37    0.91
  12   2  -1    3.48    0.87
  12  -2   0   -0.89    0.89
  12   2   0    0.06    0.92
 -12  -2  -1    2.17    0.91
  12  -2   1    1.43    0.83
  12   2   1    0.29    0.95
 -12  -2  -2    2.09    0.94
  12  -2   2    2.60    0.93
 -12  -2  -3    0.32    0.96
  12   3  -6    0.32    1.03
  12  -3  -6   -0.52    0.76
  12   3  -5    0.17    0.88
  12  -3  -5   -0.24    0.84
  12   3  -4    1.07    0.84
  12  -3  -4    0.91    0.91
  12   3  -4    2.17    0.74
  12   3  -3    5.24    0.93
  12  -3  -3    4.38    0.91
  12   3  -3    4.52    0.97
  12   3  -2    1.50    0.77
  12  -3  -2    1.51    0.94
  12   3  -2    2.01    0.91
  12  -3  -1    0.24    0.85
  12   3  -1   -0.80    0.87
  12  -3   0    0.09    0.89
  12   3   0   -0.02    0.85
  12   4  -3    0.33    0.75
  12   4  -3   -0.22    0.73
  12   4  -2    0.80    0.78
  12   4  -2    0.28    0.82
  12   4  -1    0.00    0.90
  13   0  -7    0.62    0.96
  13   0  -6    0.36    0.76
  13   0  -5   -0.23    0.80
  13   0  -4   -0.92    0.79
  13   0  -3    0.54    0.89
  13   0  -2    0.14    0.81
  13   1  -7    0.99    0.74
  13   1  -6    0.84    0.74
  13  -1  -5    1.81    0.82
  13   1  -5    0.38    0.78
  13  -1  -4    0.21    0.77
  13   1  -4    0.30    0.87
  13  -1  -3   -0.91    0.79
  13   1  -3   -1.31    0.95
  13   1  -2   -0.71    0.75
  13   2  -5    1.44    0.78
  13   2  -4   -0.19    0.78
  13   2  -3    3.18    0.91
  13   3  -4    1.08    0.79
   0   0   0    0.00    0.00
;
_shelx_hkl_checksum              53338
#END Tags that were not found in dictionaries
loop_
_space_group_symop_operation_xyz
'x, y, z'
'-x+1/2, y+1/2, -z+1/2'
'-x, -y, -z'
'x-1/2, -y-1/2, z-1/2'
loop_
_atom_site_label
_atom_site_type_symbol
_atom_site_fract_x
_atom_site_fract_y
_atom_site_fract_z
_atom_site_U_iso_or_equiv
_atom_site_adp_type
_atom_site_occupancy
_atom_site_site_symmetry_order
_atom_site_calc_flag
_atom_site_refinement_flags_posn
_atom_site_refinement_flags_adp
O1 O 0.49038(11) 0.42527(16) 0.18858(10) 0.0497(3) Uani 1 1 d . .
O2 O 0.48408(11) 0.14569(16) 0.27966(10) 0.0467(3) Uani 1 1 d . .
N1 N 0.85073(12) -0.05612(18) -0.10525(12) 0.0334(3) Uani 1 1 d . .
H1 H 0.8791(14) 0.021(2) -0.1542(13) 0.040 Uiso 1 1 d . U
N2 N 0.52436(12) 0.25055(18) 0.20223(11) 0.0354(3) Uani 1 1 d . .
C1 C 0.77353(13) 0.0160(2) -0.02819(12) 0.0274(3) Uani 1 1 d . .
C2 C 0.73864(15) 0.2157(2) -0.03411(13) 0.0321(4) Uani 1 1 d . .
H2 H 0.7708 0.2966 -0.0904 0.039 Uiso 1 1 calc R U
C3 C 0.65888(14) 0.2923(2) 0.04092(13) 0.0323(4) Uani 1 1 d . .
H3 H 0.6357 0.4240 0.0352 0.039 Uiso 1 1 calc R U
C4 C 0.61204(13) 0.1720(2) 0.12657(13) 0.0281(3) Uani 1 1 d . .
C5 C 0.64506(13) -0.0247(2) 0.13531(12) 0.0298(3) Uani 1 1 d . .
H5 H 0.6132 -0.1038 0.1926 0.036 Uiso 1 1 calc R U
C6 C 0.72467(13) -0.1019(2) 0.05937(12) 0.0293(4) Uani 1 1 d . .
H6 H 0.7469 -0.2339 0.0656 0.035 Uiso 1 1 calc R U
C7 C 0.88776(16) -0.2590(2) -0.11039(15) 0.0408(4) Uani 1 1 d . .
H7A H 0.9443 -0.2755 -0.1710 0.061 Uiso 1 1 calc R U
H7B H 0.8052 -0.3360 -0.1360 0.061 Uiso 1 1 calc R U
H7C H 0.9384 -0.3005 -0.0276 0.061 Uiso 1 1 calc R U
loop_
_atom_site_aniso_label
_atom_site_aniso_U_11
_atom_site_aniso_U_22
_atom_site_aniso_U_33
_atom_site_aniso_U_23
_atom_site_aniso_U_13
_atom_site_aniso_U_12
O1 0.0575(8) 0.0495(8) 0.0460(7) 0.0003(6) 0.0203(6) 0.0206(6)
O2 0.0491(7) 0.0592(8) 0.0396(6) -0.0023(5) 0.0260(5) -0.0074(6)
N1 0.0368(8) 0.0313(8) 0.0367(7) 0.0015(6) 0.0182(6) -0.0001(6)
N2 0.0319(8) 0.0450(9) 0.0302(7) -0.0032(6) 0.0092(6) 0.0030(6)
C1 0.0242(8) 0.0305(8) 0.0276(7) -0.0009(6) 0.0065(6) -0.0031(6)
C2 0.0366(9) 0.0294(9) 0.0336(8) 0.0037(6) 0.0148(7) -0.0043(6)
C3 0.0359(9) 0.0267(8) 0.0344(8) 0.0008(6) 0.0085(7) 0.0006(6)
C4 0.0246(8) 0.0340(9) 0.0263(7) -0.0020(6) 0.0068(6) 0.0005(6)
C5 0.0292(8) 0.0351(9) 0.0262(8) 0.0041(6) 0.0091(6) -0.0035(6)
C6 0.0303(8) 0.0264(8) 0.0315(8) 0.0017(6) 0.0080(7) -0.0002(6)
C7 0.0437(10) 0.0391(10) 0.0424(9) -0.0042(7) 0.0161(8) 0.0067(7)
loop_
_atom_type_symbol
_atom_type_description
_atom_type_scat_dispersion_real
_atom_type_scat_dispersion_imag
_atom_type_scat_source
C C 0.0033 0.0016 'International Tables Vol C Tables 4.2.6.8 and 6.1.1.4'
H H 0.0000 0.0000 'International Tables Vol C Tables 4.2.6.8 and 6.1.1.4'
N N 0.0061 0.0033 'International Tables Vol C Tables 4.2.6.8 and 6.1.1.4'
O O 0.0106 0.0060 'International Tables Vol C Tables 4.2.6.8 and 6.1.1.4'
loop_
_geom_angle_atom_site_label_1
_geom_angle_atom_site_label_2
_geom_angle_atom_site_label_3
_geom_angle
C1 N1 C7 124.33(12)
C1 N1 H1 118.5(10)
C7 N1 H1 117.2(10)
O2 N2 O1 121.29(12)
O2 N2 C4 119.99(13)
O1 N2 C4 118.72(12)
N1 C1 C6 122.21(14)
N1 C1 C2 119.85(12)
C6 C1 C2 117.94(13)
C3 C2 C1 121.25(12)
C3 C2 H2 119.4
C1 C2 H2 119.4
C2 C3 C4 119.48(13)
C2 C3 H3 120.3
C4 C3 H3 120.3
C5 C4 C3 120.75(13)
C5 C4 N2 119.63(12)
C3 C4 N2 119.57(13)
C6 C5 C4 119.77(13)
C6 C5 H5 120.1
C4 C5 H5 120.1
C5 C6 C1 120.82(14)
C5 C6 H6 119.6
C1 C6 H6 119.6
N1 C7 H7A 109.5
N1 C7 H7B 109.5
H7A C7 H7B 109.5
N1 C7 H7C 109.5
H7A C7 H7C 109.5
H7B C7 H7C 109.5
loop_
_geom_bond_atom_site_label_1
_geom_bond_atom_site_label_2
_geom_bond_distance
O1 N2 1.2438(14)
O2 N2 1.2345(14)
N1 C1 1.3458(17)
N1 C7 1.4431(18)
N1 H1 0.839(15)
N2 C4 1.4269(16)
C1 C6 1.4094(18)
C1 C2 1.4100(19)
C2 C3 1.3594(18)
C2 H2 0.9300
C3 C4 1.3942(18)
C3 H3 0.9300
C4 C5 1.3853(18)
C5 C6 1.3672(18)
C5 H5 0.9300
C6 H6 0.9300
C7 H7A 0.9600
C7 H7B 0.9600
C7 H7C 0.9600
loop_
_geom_hbond_atom_site_label_D
_geom_hbond_atom_site_label_H
_geom_hbond_atom_site_label_A
_geom_hbond_distance_DH
_geom_hbond_distance_HA
_geom_hbond_distance_DA
_geom_hbond_angle_DHA
_geom_hbond_site_symmetry_A
N1 H1 O1 0.839(15) 2.253(14) 3.0103(16) 150.2(13) 4_665
C3 H3 O1 0.93 2.65 3.2182(18) 119.7 3_665
C7 H7A O2 0.96 2.64 3.1401(17) 112.8 4_655
C7 H7C O2 0.96 2.63 3.5534(18) 162.3 2_645
loop_
_geom_torsion_atom_site_label_1
_geom_torsion_atom_site_label_2
_geom_torsion_atom_site_label_3
_geom_torsion_atom_site_label_4
_geom_torsion
C7 N1 C1 C6 2.2(2)
C7 N1 C1 C2 -177.52(13)
N1 C1 C2 C3 178.87(14)
C6 C1 C2 C3 -0.8(2)
C1 C2 C3 C4 0.8(2)
C2 C3 C4 C5 -0.5(2)
C2 C3 C4 N2 -177.84(13)
O2 N2 C4 C5 3.66(19)
O1 N2 C4 C5 -176.55(13)
O2 N2 C4 C3 -178.93(13)
O1 N2 C4 C3 0.86(18)
C3 C4 C5 C6 0.1(2)
N2 C4 C5 C6 177.49(12)
C4 C5 C6 C1 -0.1(2)
N1 C1 C6 C5 -179.22(13)
C2 C1 C6 C5 0.5(2)
