#------------------------------------------------------------------------------
#$Date: 2016-03-24 14:36:54 +0200 (Thu, 24 Mar 2016) $
#$Revision: 179669 $
#$URL: svn://www.crystallography.net/cod/cif/4/51/22/4512283.cif $
#------------------------------------------------------------------------------
#
# This file is available in the Crystallography Open Database (COD),
# http://www.crystallography.net/
#
# All data on this site have been placed in the public domain by the
# contributors.
#
data_4512283
loop_
_publ_author_name
'Hain, Malia S.'
'Fukuda, Yoko'
'Rojas Ram\'irez, Carolina'
'Winer, Benjamin Y.'
'Winslow, Stephanie E.'
'Pike, Robert D.'
'Bebout, Deborah C.'
_publ_section_title
;
 Staging Bonding between Group 12 Metal Ions and Neutral Selenium Donors:
 Intermolecular Interactions of Mixed N,Se Donor Ligands and Anions
;
_journal_issue                   12
_journal_name_full               'Crystal Growth &amp; Design'
_journal_page_first              6497
_journal_paper_doi               10.1021/cg501395p
_journal_volume                  14
_journal_year                    2014
_chemical_formula_moiety         'C12 H12 Cd N4 O6 Se2'
_chemical_formula_sum            'C12 H12 Cd N4 O6 Se2'
_chemical_formula_weight         578.58
_chemical_name_systematic
;
bis(nitrato-O,O')-(1,2-bis(2-pyridylmethyl)diselane-N,N',Se)-cadmium(ii)
;
_space_group_crystal_system      triclinic
_space_group_IT_number           2
_space_group_name_Hall           '-P 1'
_space_group_name_H-M_alt        'P -1'
_symmetry_space_group_name_Hall  '-P 1'
_symmetry_space_group_name_H-M   'P -1'
_atom_sites_solution_hydrogens   geom
_audit_creation_method           SHELXL-2013
_cell_angle_alpha                80.1250(6)
_cell_angle_beta                 81.8550(6)
_cell_angle_gamma                63.4800(5)
_cell_formula_units_Z            2
_cell_length_a                   8.06500(10)
_cell_length_b                   8.51580(10)
_cell_length_c                   13.8712(2)
_cell_measurement_reflns_used    9986
_cell_measurement_temperature    100(2)
_cell_measurement_theta_max      72.32
_cell_measurement_theta_min      3.24
_cell_volume                     837.509(19)
_computing_cell_refinement       'SAINTPLUS (Bruker AXS, 2004)'
_computing_data_collection       'APEX2 (Bruker AXS, 2004)'
_computing_data_reduction        SAINTPLUS
_computing_molecular_graphics    'SHELXLE (Hubschle, 2011)'
_computing_publication_material  'Mercury 3.3 (CCDC, 2014)'
_computing_structure_refinement  'SHELXL-2013 (Sheldrick, 2013)'
_computing_structure_solution    'SHELXS97 (Sheldrick, 1997)'
_diffrn_ambient_temperature      100(2)
_diffrn_measured_fraction_theta_full 0.959
_diffrn_measured_fraction_theta_max 0.974
_diffrn_measurement_device_type  'Bruker SMART APEX II CCD'
_diffrn_measurement_method       '\w and \y'
_diffrn_radiation_monochromator  graphite
_diffrn_radiation_source         'fine-focus sealed tube'
_diffrn_radiation_type           CuK\a
_diffrn_radiation_wavelength     1.54178
_diffrn_reflns_av_R_equivalents  0.0348
_diffrn_reflns_av_unetI/netI     0.0274
_diffrn_reflns_Laue_measured_fraction_full 0.959
_diffrn_reflns_Laue_measured_fraction_max 0.974
_diffrn_reflns_limit_h_max       9
_diffrn_reflns_limit_h_min       -9
_diffrn_reflns_limit_k_max       9
_diffrn_reflns_limit_k_min       -10
_diffrn_reflns_limit_l_max       16
_diffrn_reflns_limit_l_min       -16
_diffrn_reflns_number            14982
_diffrn_reflns_point_group_measured_fraction_full 0.959
_diffrn_reflns_point_group_measured_fraction_max 0.974
_diffrn_reflns_theta_full        67.679
_diffrn_reflns_theta_max         66.993
_diffrn_reflns_theta_min         3.243
_exptl_absorpt_coefficient_mu    15.786
_exptl_absorpt_correction_T_max  0.3344
_exptl_absorpt_correction_T_min  0.0816
_exptl_absorpt_correction_type   numerical
_exptl_absorpt_process_details   'SADABS (Sheldrick, 2004)'
_exptl_crystal_colour            colorless
_exptl_crystal_density_diffrn    2.294
_exptl_crystal_description       block
_exptl_crystal_F_000             552
_exptl_crystal_size_max          0.400
_exptl_crystal_size_mid          0.200
_exptl_crystal_size_min          0.160
_refine_diff_density_max         0.714
_refine_diff_density_min         -1.190
_refine_diff_density_rms         0.137
_refine_ls_extinction_method     none
_refine_ls_goodness_of_fit_ref   1.061
_refine_ls_hydrogen_treatment    constr
_refine_ls_matrix_type           full
_refine_ls_number_parameters     226
_refine_ls_number_reflns         2910
_refine_ls_number_restraints     0
_refine_ls_restrained_S_all      1.061
_refine_ls_R_factor_all          0.0270
_refine_ls_R_factor_gt           0.0268
_refine_ls_shift/su_max          0.001
_refine_ls_shift/su_mean         0.000
_refine_ls_structure_factor_coef Fsqd
_refine_ls_weighting_details
;
 w=1/[\s^2^(Fo^2^)+(0.0443P)^2^+1.6334P]
 where P=(Fo^2^+2Fc^2^)/3
;
_refine_ls_weighting_scheme      calc
_refine_ls_wR_factor_gt          0.0711
_refine_ls_wR_factor_ref         0.0712
_reflns_Friedel_coverage         0.000
_reflns_number_gt                2900
_reflns_number_total             2910
_reflns_threshold_expression     'I > 2\s(I)'
_cod_data_source_file            cg501395p_si_002.cif
_cod_data_source_block           P1bar_Compound_5a
_cod_depositor_comments
'Adding full bibliography for 4512278--4512284.cif.'
_cod_database_code               4512283
#BEGIN Tags that were not found in dictionaries:
_shelx_space_group_comment
;
The symmetry employed for this shelxl refinement is uniquely defined
by the following loop, which should always be used as a source of
symmetry information in preference to the above space-group names.
They are only intended as comments.
;
_shelx_estimated_absorpt_t_min   0.061
_shelx_estimated_absorpt_t_max   0.187
_shelxl_version_number           2013-2
_shelx_res_file
;
REM Solution 1  R1  0.071  Rweak  0.009,  Alpha = 0.0439  in P-1
REM Formula:  C13 N3 O6 Se2 Cd
TITL P1bar in P-1
CELL  1.54178   8.0650   8.5158  13.8712   80.125   81.855   63.480
ZERR    2.00   0.00010   0.00010   0.00020   0.0006   0.0006   0.0005
LATT  1
SFAC C H N O SE CD
UNIT 24 24 8 12 4 2
TEMP -173.000
SIZE 0.16 0.20 0.40
L.S. 20
BOND $H
CONF
OMIT -2 134
LIST 4
FMAP 2
PLAN 5
ACTA
WGHT    0.044300    1.633400
FVAR       0.53529
CD1   6    0.344758    0.332560    0.245346    11.00000    0.01016    0.01226 =
         0.01285   -0.00491   -0.00252   -0.00267
SE1   5    0.721218    0.290945    0.190654    11.00000    0.01440    0.01702 =
         0.01418   -0.00326   -0.00015   -0.00642
SE2   5    0.884938   -0.011350    0.188807    11.00000    0.01067    0.01834 =
         0.01795   -0.00664    0.00130   -0.00456
O1    4    0.385707    0.155853    0.407054    11.00000    0.01707    0.01897 =
         0.01663   -0.00363   -0.00104   -0.00609
O2    4    0.104811    0.331614    0.371952    11.00000    0.01450    0.03217 =
         0.03069   -0.00166   -0.00512   -0.00752
O3    4    0.158803    0.170701    0.515053    11.00000    0.03620    0.04273 =
         0.02207   -0.00209    0.00812   -0.02073
O4    4    0.305175    0.492200    0.075532    11.00000    0.01596    0.02271 =
         0.02280   -0.00406   -0.00072   -0.00214
O5    4    0.068756    0.545265    0.181131    11.00000    0.01656    0.03146 =
         0.01535   -0.00171   -0.00372    0.00061
O6    4    0.031225    0.682577    0.032631    11.00000    0.03101    0.03248 =
         0.02257   -0.00079   -0.01149    0.00849
N1    3    0.392040    0.515188    0.331672    11.00000    0.01543    0.01388 =
         0.01221   -0.00117   -0.00284   -0.00771
N2    3    0.401520    0.084555    0.179397    11.00000    0.01111    0.01280 =
         0.01303   -0.00524    0.00147   -0.00439
N3    3    0.214312    0.219129    0.433332    11.00000    0.01815    0.02120 =
         0.01760   -0.00624   -0.00023   -0.00946
N4    3    0.134281    0.576468    0.093279    11.00000    0.02092    0.01609 =
         0.01806   -0.00574   -0.00414   -0.00190
C1    1    0.249453    0.664714    0.355470    11.00000    0.01692    0.01491 =
         0.01849   -0.00396   -0.00337   -0.00400
AFIX  43
H1    2    0.128784    0.688591    0.339944    11.00000   -1.20000
AFIX   0
C2    1    0.268957    0.787103    0.401838    11.00000    0.02466    0.01521 =
         0.01745   -0.00285   -0.00277   -0.00609
AFIX  43
H2    2    0.164242    0.891877    0.418123    11.00000   -1.20000
AFIX   0
C3    1    0.445857    0.751893    0.423689    11.00000    0.02925    0.01791 =
         0.01325   -0.00176   -0.00403   -0.01421
AFIX  43
H3    2    0.464953    0.833542    0.454276    11.00000   -1.20000
AFIX   0
C4    1    0.593647    0.596507    0.400331    11.00000    0.02169    0.02283 =
         0.01242    0.00153   -0.00443   -0.01397
AFIX  43
H4    2    0.715453    0.569893    0.415318    11.00000   -1.20000
AFIX   0
C5    1    0.563790    0.479622    0.355010    11.00000    0.01537    0.01784 =
         0.01193   -0.00034   -0.00117   -0.00771
C6    1    0.718990    0.306797    0.331702    11.00000    0.01549    0.02168 =
         0.01491   -0.00424   -0.00331   -0.00729
AFIX  23
H6A   2    0.700032    0.207708    0.372276    11.00000   -1.20000
H6B   2    0.839053    0.299952    0.345966    11.00000   -1.20000
AFIX   0
C7    1    0.698276   -0.092932    0.253586    11.00000    0.01116    0.01615 =
         0.01488   -0.00224    0.00055   -0.00397
AFIX  23
H7A   2    0.763035   -0.219415    0.279491    11.00000   -1.20000
H7B   2    0.634156   -0.026233    0.310099    11.00000   -1.20000
AFIX   0
C8    1    0.556337   -0.071503    0.188003    11.00000    0.01468    0.01342 =
         0.01096   -0.00034    0.00249   -0.00641
C9    1    0.583206   -0.209233    0.137485    11.00000    0.01902    0.01409 =
         0.01530   -0.00296    0.00379   -0.00801
AFIX  43
H9    2    0.692818   -0.317112    0.143977    11.00000   -1.20000
AFIX   0
C10   1    0.449272   -0.188822    0.077389    11.00000    0.02483    0.02088 =
         0.01499   -0.00649    0.00623   -0.01526
AFIX  43
H10   2    0.465397   -0.282422    0.042852    11.00000   -1.20000
AFIX   0
C11   1    0.291998   -0.029619    0.068799    11.00000    0.02051    0.02538 =
         0.01335   -0.00258   -0.00126   -0.01542
AFIX  43
H11   2    0.198115   -0.011852    0.028208    11.00000   -1.20000
AFIX   0
C12   1    0.273853    0.102970    0.120232    11.00000    0.01291    0.01669 =
         0.01651   -0.00359    0.00021   -0.00638
AFIX  43
H12   2    0.166098    0.212429    0.113536    11.00000   -1.20000
AFIX   0
HKLF 4

REM  P1bar in P-1
REM R1 =  0.0268 for    2900 Fo > 4sig(Fo)  and  0.0270 for all    2910 data
REM    226 parameters refined using      0 restraints

END

WGHT      0.0317      1.7280

REM Highest difference peak  0.714,  deepest hole -1.190,  1-sigma level  0.137
Q1    1   0.7258  0.1758  0.1757  11.00000  0.05    0.71
Q2    1   0.4350  0.3615  0.1910  11.00000  0.05    0.59
Q3    1   0.6290  0.2649  0.2537  11.00000  0.05    0.53
Q4    1   0.7666 -0.0389  0.2279  11.00000  0.05    0.50
Q5    1   0.2495  0.3051  0.3053  11.00000  0.05    0.50
;
_shelx_res_checksum              24313
_shelx_hkl_file
;
  -1   0   0 1205.88   70.79
   1   0   0 1238.28   46.30
   1   0   0 1059.59   69.29
  -2   0   0 2422.66   92.09
  -2   0   0 2146.09  135.49
  -2   0   0 2181.88   90.19
   2   0   0 2329.57   90.69
   2   0   0 2327.87   90.89
  -3   0   0 1943.71  143.19
  -3   0   0 1891.31   78.89
  -3   0   0 2050.79   81.89
   3   0   0 2015.90   79.69
  -4   0   0 1264.07  128.29
  -4   0   0 1522.25   62.99
   4   0   0 1484.95   59.59
  -5   0   0 1473.55   59.29
   5   0   0 1431.66   61.79
  -6   0   0   28.90    4.30
  -6   0   0   31.10    4.40
  -6   0   0   30.10    4.00
   6   0   0   23.10    4.60
   6   0   0   27.10    6.60
   6   0   0   30.70    6.30
  -7   0   0  141.29    9.40
  -7   0   0  148.49    9.70
  -7   0   0  149.29    9.00
   7   0   0  144.49   11.30
  -8   0   0  133.49    8.40
  -8   0   0  136.89    8.30
  -8   0   0  115.39    7.70
   8   0   0  116.59    8.50
   8  -1   0  301.77   15.20
  -8   1   0  293.87   14.40
  -8   1   0  318.17   14.90
   7  -1   0  475.55   24.20
   7  -1   0  478.65   25.00
  -7   1   0  479.45   22.30
  -7   1   0  463.95   22.50
  -7   1   0  460.15   21.80
   6  -1   0  154.48   13.10
   6  -1   0  144.79   10.80
  -6   1   0  146.99    9.10
  -6   1   0  150.58    9.60
  -6   1   0  142.89    9.60
   5  -1   0 2478.85  107.29
   5  -1   0 2598.74  104.19
  -5   1   0 2529.75  101.99
   4  -1   0  108.69    7.50
   4  -1   0  127.89   14.20
  -4   1   0  107.19    7.40
  -4   1   0  107.39    6.40
   3  -1   0    7.60    1.90
  -3   1   0   13.80   16.80
  -3   1   0    7.30    1.90
   2  -1   0  288.07   13.20
   2  -1   0  321.57   13.80
  -2   1   0  260.77   44.20
   1  -1   0 1215.28   50.09
   1  -1   0 1266.27   49.99
   1  -1   0 1434.96   90.59
  -1   1   0 1095.89   84.29
   0  -1   0  106.99   13.90
   0   1   0   86.99   14.80
  -1  -1   0   70.49   11.90
   1   1   0   63.89    3.40
   1   1   0   60.69   11.60
  -2  -1   0 1172.58   49.40
  -2  -1   0 1292.97   83.59
  -2  -1   0 1203.68   50.49
  -2  -1   0 1306.47   50.89
   2   1   0 1241.18   49.00
  -3  -1   0 6653.93  309.47
  -3  -1   0 5911.21  240.68
  -3  -1   0 6213.68  241.38
  -3  -1   0 5968.70  238.58
   3   1   0 5688.13  239.48
  -4  -1   0   60.29    6.70
  -4  -1   0   54.79   24.60
   4   1   0   62.19    5.20
  -5  -1   0 1791.22   77.09
  -5  -1   0 1636.54   70.29
   5   1   0 1810.02   73.39
  -6  -1   0 1790.12   71.99
  -6  -1   0 1523.55   77.29
  -6  -1   0 1741.43   71.19
  -6  -1   0 2005.40   73.49
   6   1   0 1647.44   74.49
   6   1   0 1781.02   87.69
  -7  -1   0   30.60    4.30
  -7  -1   0   25.90    4.00
  -7  -1   0   33.30    5.00
   7   1   0   41.10    7.50
  -8  -1   0 1655.43   68.89
  -8  -1   0 1574.94   68.09
  -8  -1   0 1720.33   68.89
   8   1   0 1692.83   70.39
  -9  -1   0    7.00    1.90
  -9  -1   0    8.00    2.10
   9   1   0    8.00    2.20
   7  -2   0   77.59    7.50
   7  -2   0   75.79    6.80
  -7   2   0   68.39    5.70
  -7   2   0   76.39    6.20
  -7   2   0   68.59    5.50
   6  -2   0  583.54   30.70
   6  -2   0  601.34   34.00
   6  -2   0  588.84   29.10
  -6   2   0  601.94   27.80
  -6   2   0  593.14   27.90
  -6   2   0  637.64   27.50
   5  -2   0  542.85   26.10
   5  -2   0  537.35   24.90
   5  -2   0  454.85   28.10
   5  -2   0  568.24   30.70
   5  -2   0  480.85   23.40
   5  -2   0  517.05   27.80
  -5   2   0  512.75   23.60
   4  -2   0 1601.14   68.49
   4  -2   0 1524.75   64.39
   4  -2   0 1502.75   63.39
  -4   2   0 1505.05   64.99
   3  -2   0 1525.45   63.89
   3  -2   0 1667.63   67.29
   3  -2   0 1671.03   65.79
  -3   2   0 1388.66  129.99
   2  -2   0 3290.77  123.49
   2  -2   0 3297.07  122.49
  -2   2   0 2660.73  184.58
   1  -2   0 1484.65   59.09
   1  -2   0 1677.23   59.99
   1  -2   0 1527.35   59.59
  -1   2   0 1250.57  100.29
   0  -2   0  579.24   23.60
   0   2   0  565.64   53.69
  -1  -2   0  378.86   16.30
  -1  -2   0  407.76   33.80
   1   2   0  421.66   34.20
  -2  -2   0   62.19    3.70
  -2  -2   0   65.89    4.00
   2   2   0   58.49    3.70
  -3  -2   0  469.85   21.40
  -3  -2   0  485.25   22.20
  -3  -2   0  521.85   54.49
  -3  -2   0  450.45   22.00
   3   2   0  544.35   20.90
  -4  -2   0  325.97   17.60
  -4  -2   0  378.46   54.89
  -4  -2   0  321.77   17.50
  -5  -2   0 1452.35   64.69
  -5  -2   0 1528.95   61.39
  -6  -2   0   29.70    6.10
  -6  -2   0   43.10    4.10
  -7  -2   0  433.56   21.00
  -7  -2   0  445.96   21.70
  -7  -2   0  437.46   21.50
   7   2   0  461.45   26.10
  -8  -2   0  536.55   25.80
  -8  -2   0  559.04   25.30
  -8  -2   0  552.64   25.70
   8   2   0  546.55   27.90
  -9  -2   0  401.46   18.60
  -9  -2   0  392.16   18.80
   9   2   0  405.86   19.20
  -7   3   0  104.99    6.50
   6  -3   0   21.70    5.00
   6  -3   0   17.60    3.50
   6  -3   0   16.30    5.10
  -6   3   0   15.80    3.20
  -6   3   0   22.40    4.10
  -6   3   0   18.60    3.40
   5  -3   0  389.36   21.20
   5  -3   0  381.66   18.40
   5  -3   0  393.46   20.30
   5  -3   0  432.16   25.50
   5  -3   0  426.96   21.30
   5  -3   0  415.46   23.00
  -5   3   0  420.56   20.50
  -5   3   0  439.36   20.20
   4  -3   0  179.68   14.10
   4  -3   0  161.58   11.10
   4  -3   0  175.88   10.70
   4  -3   0  184.58   10.70
   4  -3   0  148.79   10.70
   4  -3   0  167.48   11.10
   4  -3   0  164.08   10.50
   4  -3   0  167.18    9.10
   4  -3   0  163.48   10.70
   4  -3   0  166.48   12.80
   4  -3   0  168.78    8.80
  -4   3   0  151.38   11.80
   3  -3   0  374.36   19.60
   3  -3   0  363.56   20.60
   3  -3   0  363.96   18.20
   3  -3   0  370.66   17.50
   2  -3   0 1843.02   74.19
   2  -3   0 1944.61   76.29
   2  -3   0 1924.11   75.29
  -2   3   0 1580.54  131.29
   1  -3   0 1508.85   55.09
  -1   3   0 1164.48   97.79
   0  -3   0 4500.65  161.98
   0   3   0 3697.33  209.08
  -1  -3   0  302.97   13.60
   1   3   0  339.57   39.30
  -2  -3   0   21.00    2.20
  -2  -3   0   20.40   10.20
   2   3   0   19.70    2.90
  -3  -3   0 2239.98   86.19
  -3  -3   0 2296.97  130.59
  -3  -3   0 2152.38   88.09
  -3  -3   0 2062.59   86.09
  -4  -3   0 1543.75  113.19
  -4  -3   0 1407.86   61.19
  -4  -3   0 1439.16   59.99
  -5  -3   0 2984.70  127.99
  -5  -3   0 3009.30  131.69
  -5  -3   0 3079.79  129.59
  -5  -3   0 3343.57  129.69
  -5  -3   0 3582.84  131.89
  -6  -3   0 1269.37   51.89
  -6  -3   0 1211.58   54.19
  -7  -3   0    6.70    2.70
  -7  -3   0    5.70    2.80
  -7  -3   0   11.60    5.30
  -7  -3   0   12.80    3.80
  -7  -3   0    9.40    2.90
  -7  -3   0   10.90    3.20
   7   3   0    7.30    5.10
  -8  -3   0   24.30    4.30
  -8  -3   0   26.60    4.30
  -8  -3   0   20.90    3.60
  -8  -3   0   26.00    4.30
  -8  -3   0   28.80    4.50
   8   3   0   23.40    5.40
  -9  -3   0  499.65   22.40
  -9  -3   0  475.55   22.00
  -9  -3   0  469.35   21.80
  -9  -3   0  465.45   22.40
   9   3   0  512.85   23.40
   6  -4   0   73.59    5.50
   6  -4   0   86.49    6.40
  -6   4   0   71.09    5.20
  -6   4   0   78.39    5.80
   5  -4   0 1654.73   69.59
   5  -4   0 1595.54   73.39
   5  -4   0 1708.53   70.99
   5  -4   0 1645.34   72.39
   5  -4   0 1802.02   69.69
   5  -4   0 1864.71   73.79
   5  -4   0 1734.43   71.79
  -5   4   0 1730.33   71.89
  -5   4   0 1799.22   71.39
  -5   4   0 1757.12   71.59
   4  -4   0  135.19   10.30
   4  -4   0  130.69    8.20
   4  -4   0  126.79    9.70
   4  -4   0  147.39   10.60
   4  -4   0  137.39   11.50
   4  -4   0  145.49    9.70
   4  -4   0  140.19    8.60
   4  -4   0  140.09    9.50
   4  -4   0  140.99    9.70
   4  -4   0  148.29   11.50
   4  -4   0  153.58    8.20
   3  -4   0  158.08   10.70
   3  -4   0  174.48    9.10
   3  -4   0  166.18   11.30
   3  -4   0  170.18    8.80
   3  -4   0  177.08   10.80
   3  -4   0  173.28   10.20
   3  -4   0  172.08   10.20
   3  -4   0  160.08   12.30
   3  -4   0  172.08    9.60
   3  -4   0  161.68   12.00
   3  -4   0  165.18   10.90
   3  -4   0  153.88   10.50
  -3   4   0  163.88   12.50
   2  -4   0  240.18   14.20
   2  -4   0  238.38   12.50
   2  -4   0  238.28   12.80
   2  -4   0  245.88   11.40
   2  -4   0  231.18   13.60
   1  -4   0  804.72   34.90
   1  -4   0  809.62   35.20
   1  -4   0  804.32   34.20
   0  -4   0  517.35   22.80
   0  -4   0  530.95   22.70
  -1  -4   0  101.29    5.80
  -2  -4   0  190.88    9.90
  -2  -4   0  232.18   30.50
   2   4   0  210.98   11.80
  -3  -4   0 4063.19  201.78
  -3  -4   0 4093.39  161.88
  -4  -4   0   33.60    4.10
  -4  -4   0   27.90    4.80
  -4  -4   0   28.30    3.40
  -4  -4   0   32.40   15.40
  -5  -4   0  120.39    7.90
  -5  -4   0  122.99    8.50
  -5  -4   0  127.09    8.60
  -5  -4   0  132.79   10.70
  -6  -4   0  946.91   45.90
  -6  -4   0  971.60   42.70
  -6  -4   0  960.80   40.80
  -6  -4   0  997.50   45.50
  -6  -4   0  973.40   43.50
  -6  -4   0  963.60   41.90
  -6  -4   0  996.50   42.60
  -7  -4   0  178.48   11.30
  -7  -4   0  177.48   11.40
  -7  -4   0  175.68   10.00
  -7  -4   0  160.28   10.40
  -7  -4   0  172.28   10.90
  -7  -4   0  174.88   10.50
  -8  -4   0 1722.23   70.89
  -8  -4   0 1720.43   71.89
  -8  -4   0 1749.72   70.69
  -8  -4   0 1765.02   71.79
  -8  -4   0 1733.53   71.09
   8   4   0 1556.24   73.39
  -9  -4   0   99.19    6.60
  -9  -4   0  102.09    7.50
  -9  -4   0   96.29    6.60
  -9  -4   0  109.99    7.60
   9   4   0   89.29    7.80
   5  -5   0  319.07   15.20
   5  -5   0  279.07   12.80
   5  -5   0  293.07   14.70
   5  -5   0  295.07   13.80
   5  -5   0  292.07   13.90
  -5   5   0  304.57   14.50
  -5   5   0  300.17   14.20
  -5   5   0  261.97   13.80
   4  -5   0  908.21   40.50
   4  -5   0  903.41   41.80
   4  -5   0  976.60   41.70
   4  -5   0  985.40   42.40
   4  -5   0  904.81   40.70
   4  -5   0  949.60   42.10
   4  -5   0  941.61   39.50
   4  -5   0  964.50   40.60
   4  -5   0  935.61   39.10
  -4   5   0  976.30   40.80
   3  -5   0 1475.95   65.39
   3  -5   0 1484.65   61.69
   3  -5   0 1531.25   63.39
   3  -5   0 1505.25   64.19
   3  -5   0 1542.75   64.69
   3  -5   0 1554.74   64.49
   3  -5   0 1431.86   63.69
   3  -5   0 1558.24   63.89
   3  -5   0 1681.53   65.29
   3  -5   0 1474.35   62.09
   3  -5   0 1511.15   65.29
   2  -5   0 2250.97   96.29
   2  -5   0 2297.47   96.19
   2  -5   0 2304.87   97.39
   2  -5   0 2435.76   94.99
   2  -5   0 2384.26   97.29
   2  -5   0 2281.87   93.39
   2  -5   0 2408.76   96.19
   2  -5   0 2422.36   93.89
   2  -5   0 2365.86   96.09
   2  -5   0 2260.47   95.79
   2  -5   0 2421.36   95.79
   2  -5   0 2307.97   97.19
   1  -5   0    3.60    1.90
   1  -5   0    5.10    2.30
   1  -5   0    3.60    1.30
   1  -5   0    4.10    1.70
   1  -5   0    3.00    1.70
   0  -5   0  606.44   26.80
   0  -5   0  575.14   25.20
   0  -5   0  620.04   26.50
   0  -5   0  608.14   25.90
  -1  -5   0 3273.67  131.49
  -1  -5   0 3471.95  132.19
   1   5   0 3241.38  135.69
  -2  -5   0   20.10    2.30
  -2  -5   0   19.20    2.30
  -2  -5   0   19.80    4.30
   2   5   0   20.10    4.10
  -3  -5   0 1892.81   71.69
  -3  -5   0 1687.23   74.49
  -3  -5   0 1693.73   70.49
  -4  -5   0   12.10    2.90
  -4  -5   0   11.20    2.40
  -4  -5   0   10.30    2.90
  -4  -5   0    8.50    3.40
  -4  -5   0   15.20    2.80
  -5  -5   0  206.08   11.60
  -5  -5   0  233.18   13.50
  -5  -5   0  212.18   12.40
  -5  -5   0  213.88   12.10
  -5  -5   0  213.58   14.90
  -6  -5   0   16.80    5.30
  -6  -5   0    3.00    2.60
  -6  -5   0    6.00    1.80
  -6  -5   0    5.80    2.40
  -6  -5   0    6.00    2.60
  -6  -5   0    4.30    1.80
  -6  -5   0    4.20    2.90
  -6  -5   0    3.00    2.30
  -6  -5   0    4.40    2.50
  -6  -5   0    2.20    2.30
  -6  -5   0    3.20    3.00
  -7  -5   0  111.39    8.90
  -7  -5   0  108.59   10.50
  -7  -5   0  115.09    8.90
  -7  -5   0  108.19    7.00
  -7  -5   0  113.39    9.00
  -7  -5   0  106.09    7.90
  -7  -5   0  110.49    7.50
  -7  -5   0  108.39    6.40
  -7  -5   0   98.99    7.70
  -7  -5   0  106.29    8.30
  -8  -5   0    4.90    2.30
  -8  -5   0    6.60    2.50
  -8  -5   0    5.00    2.40
  -8  -5   0    4.70    2.70
  -8  -5   0    7.00    3.10
   8   5   0    5.50    3.90
  -9  -5   0  565.74   24.80
  -9  -5   0  571.24   25.40
  -9  -5   0  574.84   25.70
  -9  -5   0  529.65   26.40
  -9  -5   0  596.14   24.20
   9   5   0  569.14   26.40
   4  -6   0  305.87   15.30
   4  -6   0  297.07   13.70
   4  -6   0  313.97   14.00
   4  -6   0  322.77   14.40
   4  -6   0  327.67   15.40
   4  -6   0  307.97   13.60
  -4   6   0  317.57   15.00
  -4   6   0  302.07   14.60
   3  -6   0  251.37   14.00
   3  -6   0  266.87   12.60
   3  -6   0  267.47   15.00
   3  -6   0  263.27   12.40
   3  -6   0  266.27   13.60
   3  -6   0  258.67   12.90
   3  -6   0  276.47   14.20
   3  -6   0  270.17   14.50
   3  -6   0  282.07   14.90
   2  -6   0   26.10    3.10
   2  -6   0   29.40    5.10
   2  -6   0   20.80    3.10
   2  -6   0   16.30    3.70
   2  -6   0   18.30    3.50
   2  -6   0   22.10    3.70
   2  -6   0   19.40    4.10
   2  -6   0   17.80    2.60
   2  -6   0   21.60    4.00
   2  -6   0   17.50    3.70
   1  -6   0  401.06   18.60
   1  -6   0  408.76   19.60
   1  -6   0  398.46   20.40
   1  -6   0  426.26   19.90
   1  -6   0  391.96   20.00
   1  -6   0  353.16   19.10
   1  -6   0  411.56   18.40
   1  -6   0  427.26   19.60
   1  -6   0  398.76   20.90
   1  -6   0  427.56   17.80
   0  -6   0 1925.21   88.09
   0  -6   0 2166.28   88.59
   0  -6   0 2035.10   87.19
   0  -6   0 2243.88   86.89
   0  -6   0 2255.17   86.09
   0  -6   0 2142.09   91.89
   0  -6   0 2167.28   85.09
   0  -6   0 2199.18   84.49
   0  -6   0 1999.70   85.79
  -1  -6   0  556.04   24.30
  -1  -6   0  568.24   25.40
  -1  -6   0  579.64   23.20
  -1  -6   0  572.54   24.30
   1   6   0  568.54   29.30
  -2  -6   0  229.48   10.80
  -2  -6   0  226.98   11.60
  -2  -6   0  222.28   10.40
  -3  -6   0  436.76   19.30
  -3  -6   0  431.76   20.80
  -3  -6   0  446.16   19.70
  -3  -6   0  471.15   20.10
  -3  -6   0  429.36   23.10
  -4  -6   0 1688.93   70.39
  -4  -6   0 1686.43   69.79
  -4  -6   0 1647.64   73.29
  -4  -6   0 1725.23   68.99
  -4  -6   0 1726.23   69.09
  -5  -6   0  812.12   39.10
  -5  -6   0  759.72   35.20
  -5  -6   0  810.02   34.40
  -5  -6   0  803.32   35.60
  -5  -6   0  811.42   35.00
  -5  -6   0  792.82   35.70
  -5  -6   0  797.32   33.90
  -5  -6   0  815.22   36.10
  -5  -6   0  785.82   35.70
  -6  -6   0  979.90   43.40
  -6  -6   0  977.10   42.00
  -6  -6   0 1041.10   47.30
  -6  -6   0 1019.60   43.80
  -6  -6   0  971.20   44.70
  -6  -6   0  993.20   41.00
  -6  -6   0 1030.30   42.40
  -6  -6   0  965.50   40.50
  -6  -6   0  981.40   43.50
  -6  -6   0  973.80   43.30
  -6  -6   0 1031.90   43.50
  -6  -6   0  957.90   40.10
  -7  -6   0   29.30    4.60
  -7  -6   0   38.80    5.50
  -7  -6   0   29.10    4.80
  -7  -6   0   27.90    4.00
  -7  -6   0   27.70    2.90
  -7  -6   0   30.60    3.90
  -7  -6   0   34.30    3.20
  -7  -6   0   38.60    6.40
  -7  -6   0   33.50    3.50
  -7  -6   0   32.10    4.50
  -8  -6   0   12.80    2.80
  -8  -6   0   16.00    3.60
  -8  -6   0   13.50    3.00
  -8  -6   0   13.10    2.00
  -8  -6   0   14.00    3.10
  -8  -6   0   13.50    2.80
  -8  -6   0   14.60    3.10
  -8  -6   0   14.60    1.90
  -8  -6   0   14.40    4.20
   8   6   0    9.70    3.80
  -9  -6   0  612.64   25.60
  -9  -6   0  560.44   25.00
  -9  -6   0  584.94   25.20
  -9  -6   0  592.94   25.30
   9   6   0  569.84   25.90
   3  -7   0    3.80    1.60
   3  -7   0    4.70    1.10
   3  -7   0    5.60    1.20
   3  -7   0    3.20    1.60
   3  -7   0    3.80    1.00
   3  -7   0    4.40    1.40
   2  -7   0  114.89    6.10
   2  -7   0  118.89    8.10
   2  -7   0  115.49    7.70
   2  -7   0  115.39    7.00
   2  -7   0  130.59    6.40
   2  -7   0  122.49    7.40
   2  -7   0  120.79    6.20
   2  -7   0  116.09    7.40
   2  -7   0  128.29    7.40
   1  -7   0  866.71   36.30
   1  -7   0  897.31   36.70
   1  -7   0  879.11   38.40
   1  -7   0  918.61   37.80
   1  -7   0  908.41   36.50
   1  -7   0  910.51   39.40
   1  -7   0  876.71   38.00
   1  -7   0  911.01   38.20
   1  -7   0  869.41   38.60
   0  -7   0   53.69    5.10
   0  -7   0   53.49    3.50
   0  -7   0   57.39    5.00
   0  -7   0   56.49    3.70
   0  -7   0   50.29    5.40
   0  -7   0   59.79    5.90
   0  -7   0   53.59    5.20
  -1  -7   0   72.89    4.60
  -1  -7   0   72.69    6.50
  -1  -7   0   71.19    6.00
  -1  -7   0   70.89    3.90
  -1  -7   0   66.89    5.50
  -1  -7   0   68.29    4.00
  -2  -7   0   11.60    1.40
  -2  -7   0    8.70    2.50
  -2  -7   0   13.70    3.20
  -2  -7   0    7.90    2.30
  -2  -7   0   12.80    1.60
  -2  -7   0   12.00    2.90
  -2  -7   0    9.90    3.10
  -2  -7   0   14.80    1.80
  -3  -7   0  737.03   30.70
  -3  -7   0  735.53   29.80
  -3  -7   0  737.43   32.30
  -3  -7   0  697.43   32.10
  -3  -7   0  747.83   32.50
  -3  -7   0  738.43   31.60
  -3  -7   0  751.92   30.00
  -3  -7   0  753.52   30.40
  -4  -7   0   63.99    7.40
  -4  -7   0   62.59    5.50
  -4  -7   0   53.99    4.20
  -4  -7   0   56.59    5.30
  -4  -7   0   55.39    3.70
  -4  -7   0   60.29    4.30
  -4  -7   0   58.09    4.70
  -4  -7   0   53.89    5.30
  -4  -7   0   54.19    5.50
  -4  -7   0   53.79    3.40
  -5  -7   0  137.29    8.00
  -5  -7   0  129.69    7.10
  -5  -7   0  121.59    8.70
  -5  -7   0  128.09    7.70
  -5  -7   0  118.89    6.30
  -5  -7   0  122.89    6.60
  -5  -7   0  125.09    8.60
  -5  -7   0  125.89    8.40
  -5  -7   0  137.69   11.20
  -5  -7   0  129.89    8.50
  -6  -7   0  392.16   17.30
  -6  -7   0  383.76   22.20
  -6  -7   0  384.36   19.00
  -6  -7   0  420.86   19.20
  -6  -7   0  394.06   19.50
  -6  -7   0  411.66   18.30
  -6  -7   0  371.86   16.80
  -6  -7   0  382.46   19.20
  -6  -7   0  387.36   17.90
  -7  -7   0  255.37   13.50
  -7  -7   0  252.07   13.30
  -7  -7   0  253.37   13.70
  -7  -7   0  241.98   13.40
  -7  -7   0  242.28   11.40
  -7  -7   0  250.57   16.00
  -7  -7   0  252.37   12.50
  -7  -7   0  249.48   12.50
  -7  -7   0  268.57   11.90
  -7  -7   0  257.67   11.50
  -8  -7   0 1534.85   64.29
  -8  -7   0 1461.55   65.79
  -8  -7   0 1667.23   65.19
  -8  -7   0 1683.03   65.99
  -8  -7   0 1600.34   65.49
  -8  -7   0 1651.63   70.29
  -8  -7   0 1586.84   65.69
  -8  -7   0 1669.23   63.99
  -9  -7   0  502.75   21.50
  -9  -7   0  516.85   21.50
  -9  -7   0  501.35   21.30
  -9  -7   0  487.35   21.10
   2  -8   0  717.63   29.00
   2  -8   0  725.53   29.60
   2  -8   0  734.53   30.20
   1  -8   0   94.59    5.30
   1  -8   0  103.49    5.80
   1  -8   0  103.79    4.90
   1  -8   0   97.59    6.00
   1  -8   0   98.29    4.80
   1  -8   0   98.89    6.40
   1  -8   0   95.39    5.70
   0  -8   0  129.49    7.30
   0  -8   0  126.69    8.10
   0  -8   0  129.39    6.10
   0  -8   0  135.89    7.30
   0  -8   0  130.29    6.10
   0  -8   0  134.29    7.60
   0  -8   0  125.39    7.60
   0  -8   0  127.79    6.50
  -1  -8   0 1229.48   48.10
  -1  -8   0 1149.89   49.50
  -1  -8   0 1230.48   49.30
  -1  -8   0 1150.08   49.50
  -1  -8   0 1203.48   47.60
  -1  -8   0 1203.18   50.19
  -2  -8   0  272.57   13.50
  -2  -8   0  263.87   11.30
  -2  -8   0  275.37   14.00
  -2  -8   0  276.97   11.80
  -2  -8   0  258.37   13.30
  -2  -8   0  266.17   13.50
  -2  -8   0  263.87   13.00
  -3  -8   0 1117.39   44.40
  -3  -8   0 1082.19   46.60
  -3  -8   0 1098.99   46.70
  -3  -8   0 1172.28   46.30
  -3  -8   0 1140.49   45.00
  -3  -8   0 1092.19   46.70
  -4  -8   0  205.98   11.20
  -4  -8   0  194.48   10.90
  -4  -8   0  199.88    9.60
  -4  -8   0  219.48    8.90
  -4  -8   0  196.48    9.00
  -4  -8   0  196.28   10.80
  -4  -8   0  209.08   10.40
  -5  -8   0   75.89    5.90
  -5  -8   0   84.09    5.20
  -5  -8   0   83.79    6.00
  -5  -8   0   79.29    4.40
  -5  -8   0   78.29    4.30
  -5  -8   0   78.09    4.40
  -5  -8   0   80.39    6.20
  -5  -8   0   76.79    4.30
  -5  -8   0   77.99    5.40
  -5  -8   0   85.19    8.00
  -6  -8   0  118.29    7.50
  -6  -8   0  111.39    7.50
  -6  -8   0  126.09   10.00
  -6  -8   0  121.99    6.40
  -6  -8   0  125.29    8.00
  -6  -8   0  127.69    7.20
  -6  -8   0  140.49    6.40
  -6  -8   0  110.79    6.00
  -6  -8   0  128.39    7.10
  -7  -8   0  306.67   13.20
  -7  -8   0  278.27   16.50
  -7  -8   0  307.67   14.50
  -7  -8   0  287.07   14.20
  -7  -8   0  311.77   13.50
  -7  -8   0  292.57   14.20
  -7  -8   0  311.77   12.90
  -8  -8   0   12.40    2.10
  -8  -8   0   14.30    1.50
  -8  -8   0   15.30    2.30
  -8  -8   0   13.00    2.20
  -8  -8   0   11.10    1.40
  -8  -8   0   12.80    1.70
   0  -9   0  371.56   15.00
   0  -9   0  369.06   16.10
  -1  -9   0   42.10    3.50
  -1  -9   0   41.90    3.30
  -1  -9   0   38.10    2.00
  -1  -9   0   39.20    2.20
  -2  -9   0  129.09    7.00
  -2  -9   0  126.09    6.90
  -2  -9   0  131.09    5.50
  -2  -9   0  133.49    7.30
  -2  -9   0  123.09    6.70
  -3  -9   0  217.18   10.30
  -3  -9   0  205.48    8.60
  -3  -9   0  194.28    9.80
  -3  -9   0  208.38   10.20
  -3  -9   0  213.28   10.40
  -4  -9   0 1078.29   44.00
  -4  -9   0 1137.59   45.80
  -4  -9   0 1115.69   45.70
  -4  -9   0 1124.19   45.80
  -4  -9   0 1117.09   46.70
  -5  -9   0   44.90    3.90
  -5  -9   0   43.90    2.60
  -5  -9   0   45.70    2.60
  -5  -9   0   43.00    2.50
  -5  -9   0   46.00    4.00
  -5  -9   0   49.60    3.90
  -6  -9   0  662.03   27.90
  -6  -9   0  663.73   28.00
  -6  -9   0  658.63   26.90
  -6  -9   0  701.03   28.50
  -6  -9   0  662.23   26.90
  -6  -9   0  658.33   27.20
  -7  -9   0  155.28    7.90
  -7  -9   0  163.38    7.80
  -7  -9   0  165.38    8.20
  -7  -9   0  165.88    7.10
  -7  -9   0  159.08    7.10
  -8  -9   0   35.20    1.90
  -8  -9   0   33.60    2.50
  -5 -10   0    5.50    1.10
  -5 -10   0    7.10    0.70
  -6 -10   0  168.98    8.40
  -6 -10   0  175.58    7.70
  -7  -9   1   38.00    3.00
  -7  -9   1   39.80    2.20
  -7  -9   1   36.20    2.90
  -7  -9   1   38.80    2.20
  -6  -9   1  292.17   12.50
  -6  -9   1  306.97   13.90
  -6  -9   1  296.77   12.50
  -6  -9   1  312.17   13.60
  -5  -9   1   51.39    4.00
  -5  -9   1   53.39    4.10
  -5  -9   1   51.39    2.80
  -5  -9   1   49.60    2.60
  -4  -9   1   56.19    3.20
  -4  -9   1   59.29    4.20
  -1  -9   1  165.48    8.30
   0  -9   1   85.09    3.80
   0  -9   1   84.99    4.70
  -8  -8   1  845.02   34.90
  -8  -8   1  891.11   36.80
  -8  -8   1  856.31   35.00
  -8  -8   1  877.61   35.90
  -8  -8   1  879.21   34.70
  -8  -8   1  852.41   35.60
  -7  -8   1  352.16   16.40
  -7  -8   1  356.56   15.10
  -7  -8   1  346.57   16.30
  -7  -8   1  355.76   15.40
  -7  -8   1  373.06   15.60
  -7  -8   1  363.26   16.30
  -7  -8   1  344.07   19.00
  -7  -8   1  383.46   17.10
  -6  -8   1  482.25   21.00
  -6  -8   1  426.06   21.10
  -6  -8   1  459.85   20.70
  -6  -8   1  455.35   19.20
  -6  -8   1  496.25   19.50
  -6  -8   1  459.75   19.40
  -6  -8   1  445.26   23.80
  -6  -8   1  465.05   20.40
  -5  -8   1  275.07   11.80
  -5  -8   1  282.37   16.40
  -5  -8   1  267.87   11.50
  -5  -8   1  253.67   13.70
  -5  -8   1  261.97   12.40
  -5  -8   1  267.67   13.40
  -5  -8   1  277.17   13.40
  -4  -8   1  364.06   16.50
  -4  -8   1  335.07   14.30
  -4  -8   1  337.07   16.60
  -4  -8   1  346.47   14.70
  -4  -8   1  344.37   16.40
  -3  -8   1  769.42   32.70
  -3  -8   1  763.82   30.40
  -3  -8   1  759.52   32.70
  -3  -8   1  759.52   32.80
  -2  -8   1  664.63   28.30
  -2  -8   1  638.24   25.90
  -2  -8   1  645.34   27.70
  -1  -8   1   78.29    6.10
  -1  -8   1   73.99    5.20
  -1  -8   1   75.49    3.70
  -1  -8   1   75.49    5.60
   0  -8   1  149.09    6.90
   0  -8   1  145.89    6.80
   0  -8   1  154.78    6.80
   0  -8   1  152.78    8.80
   0  -8   1  156.58    8.00
   0  -8   1  143.79    8.00
   0  -8   1  159.98    9.60
   1  -8   1   53.79    2.90
   1  -8   1   54.89    3.80
   1  -8   1   49.70    2.80
   1  -8   1   49.80    4.20
   1  -8   1   44.80    4.90
   2  -8   1   24.10    1.60
   2  -8   1   23.20    2.00
   2  -8   1   24.50    2.40
  -9  -7   1    7.20    1.50
  -9  -7   1    8.20    1.40
  -9  -7   1    5.50    1.40
  -8  -7   1   32.10    3.80
  -8  -7   1   30.20    2.70
  -8  -7   1   27.90    3.50
  -8  -7   1   32.80    2.50
  -8  -7   1   31.10    3.10
  -8  -7   1   31.20    3.60
  -8  -7   1   31.60    3.50
  -7  -7   1   64.39    5.50
  -7  -7   1   57.29    5.70
  -7  -7   1   66.79    4.10
  -7  -7   1   58.89    5.40
  -7  -7   1   70.89    4.50
  -7  -7   1   63.29    7.40
  -7  -7   1   60.09    5.50
  -7  -7   1   69.89    4.90
  -6  -7   1  731.33   31.20
  -6  -7   1  808.12   34.60
  -6  -7   1  736.23   31.60
  -6  -7   1  762.52   33.40
  -6  -7   1  763.42   37.40
  -6  -7   1  800.42   33.60
  -6  -7   1  766.42   32.30
  -6  -7   1  762.62   34.20
  -6  -7   1  738.53   33.50
  -5  -7   1    6.80    1.50
  -5  -7   1    3.60    3.00
  -5  -7   1    4.70    1.80
  -5  -7   1    0.80    1.70
  -5  -7   1    1.30    2.10
  -5  -7   1    8.00    1.70
  -5  -7   1    3.10    2.20
  -5  -7   1    4.60    2.50
  -4  -7   1  631.14   28.00
  -4  -7   1  619.34   31.30
  -4  -7   1  612.44   26.20
  -4  -7   1  631.74   25.70
  -4  -7   1  645.64   28.00
  -4  -7   1  662.03   27.20
  -4  -7   1  625.94   26.60
  -4  -7   1  606.74   25.80
  -4  -7   1  620.94   28.50
  -4  -7   1  604.74   28.20
  -3  -7   1  635.54   28.10
  -3  -7   1  622.34   27.70
  -3  -7   1  648.54   27.20
  -3  -7   1  609.94   25.80
  -3  -7   1  612.74   27.70
  -3  -7   1  625.04   25.20
  -3  -7   1  616.14   25.20
  -2  -7   1  219.38   11.20
  -2  -7   1  223.38    9.70
  -2  -7   1  203.08   11.60
  -2  -7   1  213.08   11.70
  -1  -7   1 1639.84   66.19
  -1  -7   1 1662.03   68.39
  -1  -7   1 1611.24   68.89
  -1  -7   1 1682.83   70.39
  -1  -7   1 1669.73   66.89
  -1  -7   1 1685.43   69.69
  -1  -7   1 1758.72   66.09
   0  -7   1  644.94   29.20
   0  -7   1  637.94   26.70
   0  -7   1  655.53   27.60
   0  -7   1  644.74   30.00
   0  -7   1  665.03   28.70
   0  -7   1  662.83   28.80
   0  -7   1  654.33   26.70
   1  -7   1  328.17   14.30
   1  -7   1  336.57   16.00
   1  -7   1  333.77   14.40
   1  -7   1  330.17   16.00
   1  -7   1  326.07   15.30
   1  -7   1  340.77   14.40
   1  -7   1  315.27   16.20
   1  -7   1  328.57   17.00
   2  -7   1  303.57   13.20
   2  -7   1  315.27   14.50
   2  -7   1  314.77   15.50
   2  -7   1  287.67   14.60
   2  -7   1  314.77   13.20
   2  -7   1  291.27   14.00
   2  -7   1  294.27   14.30
   2  -7   1  302.97   13.20
   3  -7   1  199.88   10.30
   3  -7   1  202.38    9.60
   3  -7   1  205.38    9.00
   3  -7   1  212.48    8.80
   3  -7   1  198.88    9.00
   9   6  -1  282.07   14.50
  -9  -6   1  286.57   13.50
  -9  -6   1  299.67   13.90
  -9  -6   1  295.67   13.70
  -9  -6   1  298.17   13.60
   8   6  -1  515.55   28.50
  -8  -6   1  630.94   26.20
  -8  -6   1  631.34   27.10
  -8  -6   1  559.54   27.90
  -8  -6   1  630.04   27.90
  -8  -6   1  652.03   25.70
  -8  -6   1  632.84   27.60
  -8  -6   1  608.24   30.20
  -8  -6   1  655.93   28.10
  -7  -6   1   41.80    6.80
  -7  -6   1   46.40    4.00
  -7  -6   1   48.20    4.60
  -7  -6   1   30.60    4.60
  -7  -6   1   46.00    5.40
  -7  -6   1   45.80    5.10
  -7  -6   1   51.79    5.40
  -7  -6   1   45.80    3.60
  -7  -6   1   41.00    2.60
  -7  -6   1   42.80    5.30
  -6  -6   1 1374.26   59.39
  -6  -6   1 1467.55   59.49
  -6  -6   1 1421.96   58.09
  -6  -6   1 1475.25   63.79
  -6  -6   1 1363.46   56.49
  -6  -6   1 1326.67   58.99
  -6  -6   1 1426.56   58.09
  -6  -6   1 1404.76   59.69
  -6  -6   1 1359.06   59.59
  -5  -6   1   73.99    6.60
  -5  -6   1   73.09    5.80
  -5  -6   1   75.19    5.60
  -5  -6   1   74.59    5.30
  -5  -6   1   74.39    6.90
  -5  -6   1   76.09    6.70
  -5  -6   1   75.39    8.80
  -5  -6   1   65.29    4.40
  -5  -6   1   80.19    6.60
  -5  -6   1   75.29    6.60
  -4  -6   1   23.90    5.20
  -4  -6   1   20.00    3.90
  -4  -6   1   26.30    3.00
  -4  -6   1   27.70    3.30
  -4  -6   1   32.30    4.00
  -3  -6   1   86.49    5.80
  -3  -6   1   83.59    5.00
  -3  -6   1   83.59    8.30
  -3  -6   1  114.79    7.40
  -3  -6   1   87.69    5.20
  -2  -6   1  735.83   31.20
  -2  -6   1  714.93   29.50
   1   6  -1  391.26   21.90
  -1  -6   1  381.16   16.40
  -1  -6   1  370.06   16.10
  -1  -6   1  379.16   17.90
   0  -6   1  583.34   23.60
   0  -6   1  559.14   26.00
   0  -6   1  574.84   27.30
   0  -6   1  541.45   26.40
   0  -6   1  568.64   24.10
   0  -6   1  597.34   24.90
   1  -6   1   21.60    4.60
   1  -6   1   24.20    3.90
   1  -6   1   28.90    3.00
   1  -6   1   24.30    3.30
   1  -6   1   21.50    3.90
   1  -6   1   16.20    3.90
   1  -6   1   21.00    2.60
   2  -6   1 2639.04  107.19
   2  -6   1 2656.13  106.39
   2  -6   1 2651.83  110.19
   2  -6   1 2756.52  108.69
   2  -6   1 2776.92  108.59
   2  -6   1 2682.33  108.99
   2  -6   1 2530.05  109.59
   2  -6   1 2658.83  108.59
   2  -6   1 2785.92  106.79
   3  -6   1    5.20    1.70
   3  -6   1    7.20    1.70
   3  -6   1    6.30    1.70
   3  -6   1    3.30    2.30
   3  -6   1    5.60    2.60
   3  -6   1    6.60    2.80
   3  -6   1    6.40    2.20
   3  -6   1    5.20    2.10
  -4   6  -1  142.39    8.20
   4  -6   1  137.59    7.20
   4  -6   1  151.38    7.90
   4  -6   1  154.38    8.80
   4  -6   1  154.38    7.50
   4  -6   1  144.99    8.80
   4  -6   1  157.48    7.20
   9   5  -1  221.88   13.00
  -9  -5   1  232.28   10.50
  -9  -5   1  232.78   11.70
  -9  -5   1  245.08   12.30
  -9  -5   1  226.58   11.80
   8   5  -1  545.85   30.30
  -8  -5   1  663.03   29.20
  -8  -5   1  631.44   27.30
  -8  -5   1  650.73   28.20
  -8  -5   1  628.54   29.20
  -8  -5   1  642.14   29.10
  -7  -5   1  707.13   31.50
  -7  -5   1  657.93   30.20
  -7  -5   1  662.13   31.40
  -7  -5   1  680.33   31.70
  -7  -5   1  685.23   34.60
  -7  -5   1  637.84   30.30
  -7  -5   1  680.13   29.40
  -7  -5   1  678.53   28.60
  -7  -5   1  682.63   31.30
  -7  -5   1  683.53   30.60
  -7  -5   1  678.63   32.00
  -7  -5   1  660.93   29.20
  -6  -5   1  710.93   33.20
  -6  -5   1  743.43   33.30
  -6  -5   1  761.52   32.10
  -6  -5   1  764.12   36.20
  -6  -5   1  765.92   34.50
  -6  -5   1  826.32   34.70
  -6  -5   1  748.83   37.80
  -6  -5   1  778.02   33.30
  -6  -5   1  737.23   34.50
  -6  -5   1  757.52   31.50
  -6  -5   1  716.53   34.40
  -6  -5   1  737.23   34.30
  -5  -5   1 1769.42   69.39
  -5  -5   1 1568.64   71.49
  -5  -5   1 1632.34   67.69
  -5  -5   1 1575.74   68.19
  -5  -5   1 1601.84   66.99
  -4  -5   1  451.95   21.60
  -4  -5   1  474.95   25.50
  -4  -5   1  483.05   22.90
  -4  -5   1  485.15   21.70
  -4  -5   1  517.95   22.80
  -3  -5   1 7090.29  285.17
  -3  -5   1 7533.95  286.17
  -3  -5   1 7194.38  289.97
  -2  -5   1   79.29    4.50
  -2  -5   1   79.39    7.30
  -1  -5   1   26.40    2.20
  -1  -5   1   26.40    2.10
   0  -5   1 1814.22   70.99
   0  -5   1 1715.63   71.99
   0  -5   1 1767.72   71.29
   1  -5   1  453.95   20.10
   1  -5   1  431.16   21.40
   1  -5   1  475.75   24.10
   1  -5   1  459.85   19.50
   1  -5   1  481.55   21.20
   1  -5   1  468.25   21.50
   2  -5   1  211.98   12.80
   2  -5   1  213.38   11.90
   2  -5   1  220.28   12.40
   2  -5   1  216.38   12.70
   2  -5   1  219.78   12.20
   2  -5   1  221.08   11.50
   2  -5   1  224.98   13.70
   2  -5   1  218.48   10.60
   2  -5   1  220.28   10.40
   2  -5   1  198.28   13.40
   2  -5   1  222.98   14.20
   3  -5   1  159.18    9.90
   3  -5   1  145.59   11.20
   3  -5   1  139.79    9.90
   3  -5   1  155.38    8.40
   3  -5   1  150.18    9.90
   3  -5   1  151.88    9.40
   3  -5   1  141.29   10.10
   3  -5   1  141.69   10.70
   3  -5   1  153.78    9.70
   3  -5   1  166.28   10.60
   3  -5   1  154.78    8.20
  -4   5  -1  152.18    9.40
   4  -5   1  158.28    8.40
   4  -5   1  153.68    8.10
   4  -5   1  156.88   10.80
   4  -5   1  146.19    9.10
   4  -5   1  150.08    9.90
   4  -5   1  144.49   10.10
   4  -5   1  146.49    8.90
   4  -5   1  151.68    9.50
   4  -5   1  154.08   10.50
  -5   5  -1  285.07   13.90
  -5   5  -1  284.67   14.30
   5  -5   1  263.27   13.00
   5  -5   1  285.77   13.60
   5  -5   1  298.87   14.80
   5  -5   1  293.07   12.80
   5  -5   1  298.57   13.80
   5  -5   1  308.27   14.80
   9   4  -1  227.48   12.90
  -9  -4   1  215.08   11.70
  -9  -4   1  208.28   11.60
  -9  -4   1  212.68   10.80
  -9  -4   1  198.58   10.90
   8   4  -1  323.27   20.80
  -8  -4   1  374.36   18.90
  -8  -4   1  386.26   18.60
  -8  -4   1  362.66   18.90
  -8  -4   1  382.26   17.90
  -8  -4   1  344.57   18.00
  -7  -4   1  176.88    9.70
  -7  -4   1  164.98   11.30
  -7  -4   1  188.78   11.50
  -7  -4   1  190.08   11.70
  -7  -4   1  180.28   11.10
  -7  -4   1  194.78   10.80
  -6  -4   1  438.56   21.10
  -6  -4   1  449.06   21.70
  -6  -4   1  456.65   24.30
  -6  -4   1  428.66   24.90
  -6  -4   1  428.16   22.40
  -6  -4   1  417.96   21.70
  -6  -4   1  465.65   26.10
  -5  -4   1   14.90    3.20
  -5  -4   1   16.50    3.80
  -5  -4   1   12.20    4.30
  -5  -4   1   17.70    3.50
  -4  -4   1  642.34   27.60
  -4  -4   1  569.94   26.50
  -4  -4   1  592.74   64.19
  -4  -4   1  612.64   29.80
  -3  -4   1  438.26   19.00
  -3  -4   1  404.06   21.40
  -3  -4   1  425.36   47.70
   2   4  -1 1609.94   65.89
  -2  -4   1 1576.94   63.49
   1   4  -1 3107.09  188.28
  -1  -4   1 3153.98  123.19
   0  -4   1 4048.70  165.78
   0  -4   1 4387.96  166.28
   1  -4   1  570.14   25.10
   1  -4   1  589.94   24.50
   1  -4   1  539.45   25.30
   2  -4   1  457.65   19.60
   2  -4   1  460.85   21.20
   2  -4   1  472.65   22.40
   2  -4   1  427.66   22.50
   2  -4   1  464.95   21.10
   3  -4   1 2493.25   99.49
   3  -4   1 2554.04  100.49
   3  -4   1 2433.16   98.69
   3  -4   1 2498.35  103.89
   3  -4   1 2422.46  103.49
   3  -4   1 2530.25   99.09
   3  -4   1 2492.45  100.59
   3  -4   1 2384.96  101.19
   3  -4   1 2476.05  101.29
   3  -4   1 2501.95  101.69
   3  -4   1 2545.75  102.29
   3  -4   1 2422.16  100.89
   4  -4   1   44.70    5.90
   4  -4   1   38.00    5.20
   4  -4   1   46.00    5.70
   4  -4   1   45.30    5.30
   4  -4   1   43.70    4.00
   4  -4   1   40.60    5.50
   4  -4   1   36.80    3.80
   4  -4   1   41.60    6.30
   4  -4   1   39.20    6.60
   4  -4   1   39.00    6.20
   4  -4   1   39.50    4.50
  -5   4  -1 1067.39   47.40
  -5   4  -1 1084.89   48.00
  -5   4  -1 1133.59   47.60
   5  -4   1 1180.48   46.80
   5  -4   1 1138.29   47.60
   5  -4   1 1148.49   48.20
   5  -4   1 1060.69   49.30
   5  -4   1 1135.99   45.60
   5  -4   1 1117.49   46.10
   5  -4   1 1088.09   49.70
   5  -4   1 1153.48   49.20
   5  -4   1 1209.88   50.19
  -6   4  -1   10.40    2.20
   6  -4   1    7.40    2.10
   6  -4   1    9.30    2.50
   6  -4   1   11.80    3.00
   9   3  -1  155.48   10.00
  -9  -3   1  150.58    9.00
  -9  -3   1  139.49    8.90
  -9  -3   1  146.29    8.60
   8   3  -1  404.16   23.60
  -8  -3   1  453.65   21.70
  -8  -3   1  444.36   21.00
  -8  -3   1  437.66   21.00
  -8  -3   1  435.96   21.00
  -8  -3   1  436.86   21.70
  -7  -3   1  603.04   27.00
  -7  -3   1  585.04   27.10
  -7  -3   1  565.34   27.40
  -7  -3   1  592.74   27.50
  -7  -3   1  579.44   26.80
  -6  -3   1 1509.45   63.99
  -6  -3   1 1607.94   66.39
  -6  -3   1 1541.25   65.59
  -5  -3   1  200.68   12.70
  -5  -3   1  184.68   11.70
  -5  -3   1  209.38   11.60
  -5  -3   1  180.58   10.10
  -5  -3   1  170.98   13.10
  -4  -3   1   72.99    5.80
  -4  -3   1   68.09    4.80
  -4  -3   1   56.99    6.30
  -4  -3   1   60.39   22.50
  -3  -3   1   23.50   15.10
  -3  -3   1   16.00    2.40
   2   3  -1  994.90   41.20
  -2  -3   1  987.20   72.79
  -2  -3   1  985.20   39.90
   1   3  -1  207.58   36.00
  -1  -3   1  238.38   31.20
   0   3  -1   28.20   20.30
   0  -3   1   26.30    2.10
  -1   3  -1   47.90   23.00
   1  -3   1   66.89    4.40
   2  -3   1 2850.81  118.39
   2  -3   1 3049.09  117.59
   2  -3   1 2850.51  116.39
  -3   3  -1  154.38   11.10
   3  -3   1  175.28   10.10
   3  -3   1  176.18   12.40
   3  -3   1  165.58    9.30
  -4   3  -1  146.19   11.50
   4  -3   1  156.38    9.80
   4  -3   1  146.29   10.10
   4  -3   1  137.29   12.10
   4  -3   1  173.78   13.50
   4  -3   1  156.58    9.90
   4  -3   1  157.28   10.60
   4  -3   1  163.08   10.10
   4  -3   1  158.08   10.60
   4  -3   1  157.38   10.10
  -5   3  -1 1555.84   59.39
  -5   3  -1 1372.26   59.59
  -5   3  -1 1342.67   59.09
   5  -3   1 1434.46   60.89
   5  -3   1 1387.76   62.59
   5  -3   1 1422.96   59.49
   5  -3   1 1511.05   65.69
   5  -3   1 1404.56   57.59
   5  -3   1 1357.86   59.09
   5  -3   1 1423.06   60.19
   5  -3   1 1341.57   59.99
  -6   3  -1  579.54   26.60
  -6   3  -1  596.94   26.60
  -6   3  -1  595.34   27.20
   6  -3   1  625.34   29.30
   6  -3   1  586.54   27.90
   6  -3   1  555.34   30.30
   6  -3   1  625.44   26.50
  -7   3  -1  556.34   23.90
   9   2  -1  253.87   13.00
  -9  -2   1  250.07   12.40
  -9  -2   1  226.98   12.30
  -9  -2   1  241.68   12.50
   8   2  -1 1107.19   48.10
  -8  -2   1 1049.30   45.50
  -8  -2   1 1044.00   45.70
  -8  -2   1 1058.39   45.00
  -8  -2   1 1022.40   44.70
   7   2  -1  157.88   13.90
  -7  -2   1  151.88    9.90
  -7  -2   1  155.18    9.70
  -7  -2   1  155.78    9.50
  -7  -2   1  149.49    9.80
  -6  -2   1  195.08   10.80
  -6  -2   1  207.18   14.90
  -6  -2   1  204.38   11.40
  -5  -2   1 1153.88   50.79
  -5  -2   1 1098.39   46.80
  -4  -2   1   13.30   15.10
  -4  -2   1   10.70    3.30
  -4  -2   1    8.80    3.00
  -3  -2   1 8124.49  315.37
  -3  -2   1 7126.49  314.97
  -3  -2   1 8791.42  381.16
   2   2  -1  103.79    5.20
  -2  -2   1  120.19    5.10
  -2  -2   1  107.29    5.20
  -2  -2   1  110.39   22.10
  -1  -2   1  716.13   55.29
   0   2  -1  614.74   63.19
   0  -2   1  635.64   26.10
   0  -2   1  704.63   26.10
  -1   2  -1 1713.63  132.29
   1  -2   1 2273.27   79.79
  -2   2  -1  802.22   88.59
   2  -2   1  952.20   36.80
   2  -2   1  952.30   38.30
  -3   2  -1    9.90   15.90
  -3   2  -1   13.20    3.00
   3  -2   1    9.10    1.90
   3  -2   1   11.80    3.60
   3  -2   1   14.20    4.20
  -4   2  -1   59.29    6.00
   4  -2   1   57.89    4.70
   4  -2   1   62.39    7.70
   4  -2   1   59.29    5.60
  -5   2  -1  158.78    9.90
  -5   2  -1  149.19    9.10
  -5   2  -1  159.18    9.80
   5  -2   1  152.78   11.60
   5  -2   1  165.48   10.30
   5  -2   1  154.48   10.50
   5  -2   1  151.48   13.10
   5  -2   1  160.18   14.30
  -6   2  -1  437.06   21.10
  -6   2  -1  424.36   21.30
  -6   2  -1  484.15   21.10
   6  -2   1  447.16   24.60
   6  -2   1  452.95   27.70
   6  -2   1  445.06   22.70
   6  -2   1  382.06   21.50
  -7   2  -1   11.80    2.70
  -7   2  -1   13.10    2.70
  -7   2  -1   11.10    2.60
   7  -2   1   15.70    4.00
   7  -2   1   25.10    4.10
  -9  -1   1    6.10    1.80
  -9  -1   1    7.20    2.00
   8   1  -1 1059.09   47.30
  -8  -1   1 1052.59   45.40
  -8  -1   1 1108.49   46.10
  -8  -1   1 1084.09   46.10
   7   1  -1   19.60    6.00
  -7  -1   1   12.40    2.80
  -7  -1   1   10.80    3.10
  -7  -1   1   11.20    3.10
  -7  -1   1   28.00    4.30
   6   1  -1  160.38   14.20
  -6  -1   1  168.28    9.40
  -6  -1   1  154.68   14.50
  -6  -1   1  167.68   10.00
  -6  -1   1  174.88   10.20
  -5  -1   1   49.80    3.90
  -5  -1   1   51.49    7.50
  -4  -1   1 1410.16  125.09
  -4  -1   1 1469.45   62.69
   3   1  -1  102.59    6.50
  -3  -1   1  112.89   28.60
  -3  -1   1  111.39    7.80
  -3  -1   1  114.99    7.50
  -2  -1   1 2120.69   83.69
  -2  -1   1 2045.50  120.29
   1   1  -1 3129.69  151.68
  -1  -1   1 3020.00  149.39
  -1  -1   1 3302.07  124.79
  -1   1  -1   71.99   25.00
   1  -1   1   89.69    4.40
   1  -1   1   83.69    4.00
  -2   1  -1  862.11   87.69
   2  -1   1  924.81   36.40
   2  -1   1  884.11   36.90
  -3   1  -1 4249.08  265.77
  -3   1  -1 4247.48  174.88
   3  -1   1 4723.03  174.58
  -4   1  -1    9.40    2.40
  -4   1  -1    6.20    1.70
   4  -1   1    9.70    2.40
   4  -1   1    2.60    2.60
  -5   1  -1 1895.21   76.39
   5  -1   1 1834.52   81.29
   5  -1   1 1911.81   78.09
  -6   1  -1   14.80    3.10
  -6   1  -1   19.10    3.50
  -6   1  -1   23.50    4.00
   6  -1   1   28.70    5.90
   6  -1   1   25.40    6.70
   6  -1   1   21.00    5.00
  -7   1  -1   67.29    5.60
  -7   1  -1   61.09    5.90
  -7   1  -1   63.29    5.80
   7  -1   1   61.79    8.10
   7  -1   1   51.29    6.20
   7  -1   1   70.19    8.30
  -8   1  -1  202.08   10.60
  -8   1  -1  219.78   11.10
   8  -1   1  215.18   11.60
   8   0  -1  548.55   25.90
  -8   0   1  560.04   25.40
  -8   0   1  597.34   26.10
  -8   0   1  599.14   26.10
   7   0  -1 1032.60   45.40
   7   0  -1  995.00   46.30
  -7   0   1  991.40   43.60
  -7   0   1  971.30   43.30
  -7   0   1 1030.10   42.90
   6   0  -1 1718.33   74.69
   6   0  -1 1737.43   76.69
   6   0  -1 1715.43   75.09
  -6   0   1 1777.62   72.19
  -6   0   1 1720.63   71.29
  -6   0   1 1772.12   72.09
   5   0  -1 2576.94  106.19
  -5   0   1 2579.54  103.19
   4   0  -1  251.37   13.20
  -4   0   1  221.98   50.89
  -4   0   1  242.58   15.60
   3   0  -1  997.30   39.90
   3   0  -1  934.71   40.00
  -3   0   1  909.91   38.60
  -3   0   1  923.51   89.69
  -3   0   1  981.40   41.90
   2   0  -1 2211.38   86.99
   2   0  -1 2307.67   86.99
  -2   0   1 1987.60   87.69
  -2   0   1 2072.99  128.59
  -2   0   1 2329.77   88.29
   1   0  -1  534.65   41.70
  -1   0   1  600.34   42.90
   0   0  -1  348.67   24.10
   0   0   1  369.36   23.80
   0   0   1  324.57   14.20
  -1   0  -1   22.90   12.60
  -1   0  -1   23.20    1.80
   1   0   1   23.90    1.70
   1   0   1   25.80   14.90
  -2   0  -1 2464.65  153.58
  -2   0  -1 2399.56   99.79
   2   0   1 2712.83   99.89
   2   0   1 2512.75   99.99
  -3   0  -1   26.20   21.40
  -3   0  -1   22.60    2.50
   3   0   1   25.30    2.70
  -4   0  -1   46.60   29.10
  -4   0  -1   45.60    4.00
  -5   0  -1  144.59    8.10
   5   0   1  145.89    9.80
  -6   0  -1 1867.61   76.39
  -6   0  -1 1934.61   76.99
  -6   0  -1 1883.11   77.09
   6   0   1 1793.42   80.29
   6   0   1 1881.81   80.09
   6   0   1 1866.41   79.19
  -7   0  -1  152.28    9.90
  -7   0  -1  173.28    9.90
  -7   0  -1  173.38   10.50
   7   0   1  161.78   12.00
  -8   0  -1  694.53   30.10
  -8   0  -1  726.93   30.60
  -8   0  -1  657.23   29.80
   8   0   1  688.23   30.80
   8   0   1  660.73   31.80
   8  -1  -1  250.27   13.10
  -8   1   1  257.07   12.60
  -8   1   1  250.27   12.70
   7  -1  -1  202.78   13.40
   7  -1  -1  200.38   14.10
  -7   1   1  229.38   12.30
  -7   1   1  210.78   12.30
  -7   1   1  208.58   11.50
   6  -1  -1  203.38   15.50
  -6   1   1  225.18   12.60
  -6   1   1  215.88   12.60
  -6   1   1  203.98   11.60
   5  -1  -1 1344.67   60.69
   5  -1  -1 1355.96   57.89
  -5   1   1 1372.66   55.39
  -5   1   1 1286.27   56.49
   4  -1  -1  431.06   20.40
  -4   1   1  401.56   18.40
   3  -1  -1 6995.60  273.57
   3  -1  -1 7092.39  272.97
  -3   1   1 6665.53  357.86
   2  -1  -1  385.16   16.90
   2  -1  -1  380.66   16.60
  -2   1   1  368.86   17.90
  -2   1   1  337.67   46.60
   1  -1  -1 1529.85   91.29
   1  -1  -1 1504.45   58.99
   1  -1  -1 1468.85   58.79
  -1   1   1 1349.07   86.29
   0  -1  -1 2460.85   98.49
   0   1   1 2045.70   95.19
  -1  -1  -1 3994.30  155.68
   1   1   1 3923.41  155.38
  -2  -1  -1 6225.58  263.67
  -2  -1  -1 7276.07  263.77
  -2  -1  -1 6091.49  263.07
  -2  -1  -1 7462.75  308.87
   2   1   1 6401.06  262.77
  -3  -1  -1  363.56   49.70
  -3  -1  -1  340.57   17.10
  -3  -1  -1  343.77   17.00
  -3  -1  -1  297.27   14.40
  -3  -1  -1  303.07   16.30
   3   1   1  302.97   15.10
   3   1   1  348.97   14.30
  -4  -1  -1  943.91   98.39
  -4  -1  -1  798.52   36.40
  -4  -1  -1  898.21   40.40
   4   1   1  865.11   37.60
  -5  -1  -1  136.49   11.70
  -5  -1  -1  134.29    7.60
   5   1   1  147.49    9.80
  -6  -1  -1 1043.40   41.10
  -6  -1  -1  860.71   46.30
  -6  -1  -1 1008.50   41.50
   6   1   1  946.01   44.00
  -7  -1  -1   46.00    4.70
  -7  -1  -1   66.09    5.70
  -7  -1  -1   47.30    5.30
   7   1   1   35.10    6.50
  -8  -1  -1  325.27   16.80
  -8  -1  -1  327.27   16.60
  -8  -1  -1  347.27   17.20
   8   1   1  360.86   18.90
  -9  -1  -1  145.79    7.90
  -9  -1  -1  126.99    7.50
   9   1   1  134.39    7.80
   7  -2  -1   76.19    7.50
   7  -2  -1   88.09    7.00
  -7   2   1   85.49    6.40
  -7   2   1   89.79    6.70
  -7   2   1   69.39    5.70
   6  -2  -1  124.29   10.50
   6  -2  -1  127.79   11.20
  -6   2   1  142.79    8.90
  -6   2   1  129.39    9.20
  -6   2   1  144.89    9.70
   5  -2  -1   31.00    5.80
   5  -2  -1   33.70    7.40
   5  -2  -1   43.20    7.40
   5  -2  -1   34.20    5.10
   5  -2  -1   34.10    4.60
  -5   2   1   35.20    4.10
  -5   2   1   30.30    4.40
   4  -2  -1  268.97   18.00
   4  -2  -1  245.08   16.60
   4  -2  -1  238.98   13.50
   3  -2  -1  123.29    9.50
   3  -2  -1  124.09    7.70
   3  -2  -1  118.79    8.50
  -3   2   1  117.99   36.10
   2  -2  -1 1601.04   64.59
   2  -2  -1 1644.84   63.89
  -2   2   1 1465.25  114.69
   1  -2  -1  128.79    7.00
   1  -2  -1  149.99    7.60
  -1   2   1  133.79   25.90
   0  -2  -1 5634.14  210.58
   0  -2  -1 5364.76  211.28
   0   2   1 5108.09  235.28
  -1  -2  -1   19.50    2.40
  -1  -2  -1   20.50    6.60
  -1  -2  -1   23.00    1.50
   1   2   1   18.40    6.50
   1   2   1   25.60    3.40
  -2  -2  -1  994.90   41.10
  -2  -2  -1  955.60   40.30
  -2  -2  -1  969.90   40.30
  -2  -2  -1 1023.80   40.90
   2   2   1  986.50   40.30
  -3  -2  -1 3269.37  136.19
  -3  -2  -1 3263.37  135.99
  -3  -2  -1 3737.93  185.88
  -3  -2  -1 3256.37  135.19
   3   2   1 3506.65  134.29
  -4  -2  -1 1422.96   60.99
  -4  -2  -1 1531.15  116.69
  -4  -2  -1 1367.26   60.99
  -5  -2  -1 4515.75  181.38
  -5  -2  -1 4650.03  185.68
  -6  -2  -1  651.03   34.00
  -6  -2  -1  688.03   29.40
  -7  -2  -1   37.90    4.60
  -7  -2  -1   71.59    6.10
  -7  -2  -1   59.69    5.70
   7   2   1   48.10    8.90
  -8  -2  -1 1157.18   49.00
  -8  -2  -1 1140.49   49.30
  -8  -2  -1 1148.49   49.60
   8   2   1 1174.98   51.79
  -9  -2  -1 1003.60   40.90
  -9  -2  -1  985.50   40.40
  -9  -2  -1  849.22   41.40
   9   2   1  985.20   41.00
   7  -3  -1  776.62   36.90
  -7   3   1  807.42   34.10
  -7   3   1  864.51   34.50
   6  -3  -1  412.16   21.30
   6  -3  -1  414.46   19.10
   6  -3  -1  356.86   22.70
  -6   3   1  423.86   20.10
  -6   3   1  390.16   19.10
  -6   3   1  401.96   19.60
   5  -3  -1 1165.28   52.99
   5  -3  -1 1327.67   59.59
   5  -3  -1 1241.48   54.09
   5  -3  -1 1228.28   55.79
  -5   3   1 1336.07   53.09
  -5   3   1 1178.98   53.19
   4  -3  -1   67.19    6.90
   4  -3  -1   75.99    7.40
   4  -3  -1   68.09    5.20
   4  -3  -1   72.79    6.90
   4  -3  -1   68.09    5.40
   4  -3  -1   62.39    8.20
   4  -3  -1   88.99    7.60
   4  -3  -1   77.79    7.20
   4  -3  -1   76.89    9.40
   4  -3  -1   85.09    7.10
   3  -3  -1    6.80    3.20
   3  -3  -1   13.20    3.50
   3  -3  -1   10.40    2.70
   3  -3  -1    2.80    1.90
   3  -3  -1    6.40    1.50
   2  -3  -1 3477.75  135.39
   2  -3  -1 3499.45  134.39
   2  -3  -1 3092.09  135.09
   2  -3  -1 3250.67  131.19
   1  -3  -1  203.18   10.30
  -1   3   1  165.08   30.10
   0  -3  -1 3135.69  114.09
   0   3   1 2567.74  142.59
  -1  -3  -1  307.47   14.50
   1   3   1  305.67   25.00
   1   3   1  340.67   15.80
  -2  -3  -1  506.05   23.20
  -2  -3  -1  559.14   41.50
   2   3   1  547.85   24.20
  -3  -3  -1  184.68   10.30
  -3  -3  -1  177.88    9.00
  -3  -3  -1  198.88   29.30
   3   3   1  176.98    9.50
  -4  -3  -1  110.29   26.40
  -4  -3  -1  109.99    7.10
  -4  -3  -1  105.99    7.90
  -5  -3  -1   49.20    6.60
  -5  -3  -1   56.59    6.80
  -5  -3  -1   46.70    4.20
  -5  -3  -1   52.49    6.30
  -5  -3  -1   51.39    5.40
  -6  -3  -1 1377.06   59.69
  -6  -3  -1 1364.66   56.99
  -7  -3  -1  205.68   11.90
  -7  -3  -1  187.98   13.10
  -7  -3  -1  197.98   11.30
  -7  -3  -1  180.08   11.60
   7   3   1  186.88   15.30
  -8  -3  -1 1107.69   48.80
  -8  -3  -1 1144.89   48.60
  -8  -3  -1 1123.59   48.10
   8   3   1 1123.29   50.99
  -9  -3  -1  216.28   12.10
  -9  -3  -1  236.88   12.90
  -9  -3  -1  240.28   12.60
  -9  -3  -1  232.58   12.50
   9   3   1  258.67   13.60
   6  -4  -1   11.90    2.80
  -6   4   1   11.20    2.40
  -6   4   1   10.00    2.40
   5  -4  -1   69.79    5.20
   5  -4  -1   56.29    7.20
   5  -4  -1   66.69    6.40
   5  -4  -1   66.69    7.20
   5  -4  -1   61.89    5.90
   5  -4  -1   80.89    7.30
   5  -4  -1   58.59    6.60
   5  -4  -1   68.79    7.00
  -5   4   1   67.09    6.50
  -5   4   1   79.49    7.00
  -5   4   1   64.59    6.00
   4  -4  -1  444.26   20.50
   4  -4  -1  445.06   21.70
   4  -4  -1  440.56   23.50
   4  -4  -1  414.96   22.50
   4  -4  -1  440.76   22.50
   4  -4  -1  467.85   23.50
   4  -4  -1  434.46   19.80
   4  -4  -1  424.16   21.60
   4  -4  -1  445.76   22.20
   4  -4  -1  422.86   20.20
   4  -4  -1  464.45   24.90
   3  -4  -1 1237.18   52.39
   3  -4  -1 1189.78   51.39
   3  -4  -1 1281.97   51.09
   3  -4  -1 1238.18   52.49
   3  -4  -1 1211.48   53.09
   3  -4  -1 1180.18   54.99
   3  -4  -1 1254.77   53.69
   3  -4  -1 1236.58   55.79
   3  -4  -1 1226.08   53.69
   3  -4  -1 1252.87   50.59
   3  -4  -1 1289.97   55.19
   3  -4  -1 1227.88   52.89
   3  -4  -1 1245.18   53.49
   2  -4  -1  436.16   20.00
   2  -4  -1  458.65   21.30
   2  -4  -1  451.65   22.80
   2  -4  -1  461.35   21.90
   2  -4  -1  457.65   23.40
   1  -4  -1   20.30    3.30
   1  -4  -1   20.60    3.10
   1  -4  -1   19.60    3.50
   0  -4  -1 1559.34   63.89
   0  -4  -1 1547.85   63.59
  -1  -4  -1 4146.39  165.38
   1   4   1 4191.28  167.18
  -2  -4  -1  334.07   15.60
   2   4   1  339.67   17.10
  -3  -4  -1 1303.97   55.49
   3   4   1 1382.86   55.89
  -4  -4  -1 1072.89   53.79
  -4  -4  -1 1408.86   56.89
  -4  -4  -1 1265.17   53.09
  -5  -4  -1   65.39    6.20
  -5  -4  -1   60.99    5.40
  -5  -4  -1   71.69    4.60
  -5  -4  -1   68.09    6.20
  -5  -4  -1   81.99    7.40
  -5  -4  -1   69.89    7.50
  -6  -4  -1 1167.18   45.50
  -6  -4  -1 1033.40   44.90
  -6  -4  -1 1016.30   47.50
  -6  -4  -1 1032.10   49.70
  -6  -4  -1 1106.09   49.80
  -6  -4  -1 1125.19   52.59
  -6  -4  -1 1106.29   46.30
  -7  -4  -1   12.60    3.40
  -7  -4  -1   11.20    3.40
  -7  -4  -1    9.40    3.00
  -7  -4  -1   14.30    3.60
  -7  -4  -1   10.90    2.40
  -7  -4  -1   11.00    3.30
   7   4   1    5.50    4.90
  -8  -4  -1    2.90    2.40
  -8  -4  -1    4.70    2.70
  -8  -4  -1    3.10    2.50
  -8  -4  -1    5.60    3.00
  -8  -4  -1    5.60    2.50
   8   4   1    6.70    4.30
  -9  -4  -1   89.69    6.70
  -9  -4  -1  101.79    7.50
  -9  -4  -1  102.19    6.90
  -9  -4  -1   98.89    7.30
   9   4   1  100.29    8.10
   5  -5  -1  175.68    9.10
   5  -5  -1  175.98    9.40
   5  -5  -1  184.38   10.20
   5  -5  -1  171.18    9.90
  -5   5   1  183.78   10.20
  -5   5   1  166.68    9.70
  -5   5   1  181.88    9.70
   4  -5  -1 1562.84   64.39
   4  -5  -1 1515.15   66.59
   4  -5  -1 1646.84   67.19
   4  -5  -1 1584.24   63.99
   4  -5  -1 1569.94   66.59
   4  -5  -1 1522.35   66.09
   4  -5  -1 1531.15   66.89
   4  -5  -1 1644.84   65.69
   4  -5  -1 1569.94   65.59
  -4   5   1 1658.13   65.89
   3  -5  -1  202.98   12.70
   3  -5  -1  205.88   12.10
   3  -5  -1  207.28    9.90
   3  -5  -1  209.68   13.10
   3  -5  -1  204.08   10.90
   3  -5  -1  216.48   10.70
   3  -5  -1  220.58   12.60
   3  -5  -1  216.58   13.30
   3  -5  -1  197.78   13.20
   3  -5  -1  203.08   13.40
   3  -5  -1  211.88   12.00
   3  -5  -1  218.48   13.40
   2  -5  -1   10.40    3.30
   2  -5  -1   16.30    2.60
   2  -5  -1   12.10    2.90
   2  -5  -1   13.90    3.50
   2  -5  -1    7.30    3.20
   2  -5  -1   11.60    3.60
   2  -5  -1   12.00    3.50
   2  -5  -1   14.60    2.30
   2  -5  -1    3.30    2.50
   2  -5  -1    8.80    2.10
   2  -5  -1   13.70    3.80
   2  -5  -1   11.80    3.10
   2  -5  -1    9.90    3.60
   1  -5  -1  111.59    7.70
   1  -5  -1  113.29    8.20
   1  -5  -1  113.39    6.40
   1  -5  -1  115.69    7.90
   1  -5  -1  113.99    7.80
   0  -5  -1 1098.59   44.30
   0  -5  -1 1006.00   43.20
   0  -5  -1 1028.30   43.50
   0  -5  -1 1025.10   44.00
   0   5   1 1025.80   47.20
  -1  -5  -1   10.60    2.00
  -1  -5  -1   15.00    2.40
  -1  -5  -1    8.70    1.80
   1   5   1   10.10    3.20
  -2  -5  -1  337.37   19.20
  -2  -5  -1  424.86   17.80
  -2  -5  -1  375.86   16.80
   2   5   1  390.76   19.90
  -3  -5  -1 1035.30   48.20
  -3  -5  -1 1078.09   45.00
  -3  -5  -1 1171.28   46.20
  -4  -5  -1 1721.33   67.19
  -4  -5  -1 1545.65   68.99
  -4  -5  -1 1696.03   67.59
  -4  -5  -1 1456.35   65.29
  -4  -5  -1 1601.74   65.69
  -5  -5  -1 1939.31   76.89
  -5  -5  -1 1838.92   75.09
  -5  -5  -1 1748.72   72.79
  -5  -5  -1 1810.82   75.19
  -5  -5  -1 1748.93   78.09
  -5  -5  -1 1814.72   74.49
  -6  -5  -1  795.32   35.80
  -6  -5  -1  782.22   38.50
  -6  -5  -1  795.22   35.50
  -6  -5  -1  788.52   32.80
  -6  -5  -1  799.12   33.40
  -6  -5  -1  783.32   34.90
  -6  -5  -1  786.22   35.30
  -6  -5  -1  802.82   34.20
  -6  -5  -1  772.32   35.50
  -6  -5  -1  821.72   36.20
  -6  -5  -1  770.82   37.50
  -6  -5  -1  792.32   36.10
  -7  -5  -1  735.13   34.80
  -7  -5  -1  753.42   33.90
  -7  -5  -1  753.52   34.40
  -7  -5  -1  778.42   35.70
  -7  -5  -1  795.52   37.70
  -7  -5  -1  748.93   33.30
  -7  -5  -1  767.72   34.50
  -7  -5  -1  742.93   35.00
  -7  -5  -1  742.03   31.60
  -8  -5  -1  319.47   16.90
  -8  -5  -1  322.37   15.80
  -8  -5  -1  307.37   15.40
  -8  -5  -1  306.17   16.70
  -8  -5  -1  309.37   16.00
   8   5   1  266.27   17.00
  -9  -5  -1 1328.77   54.79
  -9  -5  -1 1254.67   53.79
  -9  -5  -1 1359.26   53.69
  -9  -5  -1 1353.56   54.89
   9   5   1 1271.77   55.09
   4  -6  -1  408.46   18.60
   4  -6  -1  397.76   18.70
   4  -6  -1  409.46   17.80
   4  -6  -1  368.36   17.10
   4  -6  -1  410.86   18.50
   4  -6  -1  412.76   17.60
   4  -6  -1  388.36   16.90
  -4   6   1  383.46   18.20
  -4   6   1  403.46   18.20
   3  -6  -1    2.80    2.80
   3  -6  -1    5.50    2.80
   3  -6  -1    5.10    1.80
   3  -6  -1   17.60    3.20
   3  -6  -1    3.70    2.40
   3  -6  -1    4.90    2.60
   3  -6  -1    4.10    2.10
   3  -6  -1    2.60    1.60
   3  -6  -1    3.30    1.50
   3  -6  -1    6.70    2.80
   2  -6  -1 2068.39   86.59
   2  -6  -1 2184.68   85.19
   2  -6  -1 2117.29   87.79
   2  -6  -1 2225.78   87.69
   2  -6  -1 2104.29   88.49
   2  -6  -1 2056.39   85.89
   2  -6  -1 2187.28   87.29
   2  -6  -1 2105.99   85.29
   2  -6  -1 2141.59   88.09
   2  -6  -1 2120.39   85.09
   2  -6  -1 2063.39   87.59
   1  -6  -1  369.06   19.20
   1  -6  -1  372.86   18.10
   1  -6  -1  368.86   16.50
   1  -6  -1  372.76   18.30
   1  -6  -1  375.66   16.40
   1  -6  -1  372.46   18.40
   1  -6  -1  376.46   19.10
   1  -6  -1  373.26   19.60
   1  -6  -1  360.86   17.00
   1  -6  -1  318.97   18.00
   1  -6  -1  376.26   16.30
   0  -6  -1  913.31   37.70
   0  -6  -1  827.62   38.00
   0  -6  -1  893.91   36.40
   0  -6  -1  877.21   39.20
   0  -6  -1  922.41   38.10
   0  -6  -1  854.81   45.00
   0  -6  -1  930.61   38.60
  -1  -6  -1  613.04   27.60
  -1  -6  -1  653.93   27.30
  -1  -6  -1  646.84   25.90
  -1  -6  -1  630.04   28.00
   1   6   1  619.64   31.80
  -2  -6  -1  794.62   32.80
  -2  -6  -1  768.62   32.90
  -2  -6  -1  777.42   32.10
   2   6   1  733.13   36.10
  -3  -6  -1  149.99    9.20
  -3  -6  -1  165.18    8.80
  -3  -6  -1  160.08    8.90
  -3  -6  -1  147.59    7.20
  -3  -6  -1  167.18    8.40
  -3  -6  -1  150.18   11.00
  -4  -6  -1  243.48   10.80
  -4  -6  -1  238.68   12.90
  -4  -6  -1  239.18   12.10
  -4  -6  -1  230.98   15.10
  -4  -6  -1  238.68   12.10
  -4  -6  -1  230.18   12.90
  -5  -6  -1   69.89    6.40
  -5  -6  -1   80.09    8.30
  -5  -6  -1   56.69    5.70
  -5  -6  -1   57.69    6.10
  -5  -6  -1   68.39    5.90
  -5  -6  -1   70.09    5.70
  -5  -6  -1   69.29    4.50
  -5  -6  -1   70.39    9.50
  -5  -6  -1   72.39    5.60
  -6  -6  -1  722.23   31.70
  -6  -6  -1  704.33   30.10
  -6  -6  -1  744.03   36.20
  -6  -6  -1  716.63   30.40
  -6  -6  -1  711.43   33.00
  -6  -6  -1  728.93   30.70
  -6  -6  -1  727.33   32.90
  -6  -6  -1  743.73   32.10
  -6  -6  -1  790.92   33.40
  -6  -6  -1  731.23   33.20
  -6  -6  -1  703.03   34.40
  -7  -6  -1   20.40    4.90
  -7  -6  -1   20.60    2.70
  -7  -6  -1   22.80    3.80
  -7  -6  -1   27.50    4.50
  -7  -6  -1   18.50    3.80
  -7  -6  -1   20.50    3.00
  -7  -6  -1   23.80    4.20
  -7  -6  -1   21.50    3.90
  -7  -6  -1   27.20    2.80
  -8  -6  -1  228.28   10.40
  -8  -6  -1  236.18   12.60
  -8  -6  -1  230.48   10.80
  -8  -6  -1  224.08   11.90
  -8  -6  -1  224.98   11.70
  -8  -6  -1  224.98   12.70
  -8  -6  -1  232.88   12.90
   8   6   1  198.88   13.20
  -9  -6  -1   68.69    4.90
  -9  -6  -1   74.09    5.60
  -9  -6  -1   73.59    5.40
   9   6   1   69.79    5.80
   3  -7  -1  372.46   15.20
   3  -7  -1  369.26   16.70
   3  -7  -1  351.06   15.20
   3  -7  -1  363.76   15.80
   3  -7  -1  352.16   16.10
   3  -7  -1  372.36   15.40
  -3   7   1  334.97   16.20
   2  -7  -1   82.69    4.90
   2  -7  -1   87.29    4.90
   2  -7  -1   89.79    5.90
   2  -7  -1   85.99    6.00
   2  -7  -1   86.39    6.50
   2  -7  -1   88.69    6.80
   2  -7  -1   81.39    5.80
   2  -7  -1   88.09    5.10
   2  -7  -1   85.49    6.30
   1  -7  -1   46.10    5.00
   1  -7  -1   47.00    5.40
   1  -7  -1   41.40    4.90
   1  -7  -1   42.90    4.10
   1  -7  -1   46.30    3.40
   1  -7  -1   44.50    4.30
   1  -7  -1   43.40    3.30
   1  -7  -1   44.20    3.50
   0  -7  -1   65.89    5.20
   0  -7  -1   56.39    5.60
   0  -7  -1   54.49    5.70
   0  -7  -1   57.69    3.80
   0  -7  -1   57.29    4.00
   0  -7  -1   61.69    4.70
   0  -7  -1   57.39    3.80
   0  -7  -1   54.39    5.00
   0  -7  -1   57.19    5.60
  -1  -7  -1 3652.23  144.79
  -1  -7  -1 3687.13  147.19
  -1  -7  -1 3613.24  147.49
  -1  -7  -1 3744.33  147.09
  -1  -7  -1 3444.56  145.39
  -1  -7  -1 3783.52  146.59
  -1  -7  -1 3652.63  147.19
  -1  -7  -1 3769.72  144.49
  -1  -7  -1 3710.13  145.79
  -2  -7  -1   13.70    2.90
  -2  -7  -1    6.20    1.20
  -2  -7  -1    3.50    2.00
  -2  -7  -1    1.40    1.80
  -2  -7  -1    4.60    1.40
  -2  -7  -1    3.70    1.30
  -2  -7  -1    4.60    1.30
  -2  -7  -1    3.40    1.80
  -2  -7  -1   -0.10    2.00
  -3  -7  -1 1085.59   45.10
  -3  -7  -1 1065.49   45.80
  -3  -7  -1 1083.59   46.00
  -3  -7  -1 1080.39   44.40
  -3  -7  -1 1102.49   44.70
  -3  -7  -1 1070.39   43.80
  -3  -7  -1 1096.49   45.90
  -3  -7  -1 1071.79   43.30
  -4  -7  -1 1089.59   45.00
  -4  -7  -1 1072.49   44.10
  -4  -7  -1 1046.50   44.90
  -4  -7  -1 1032.30   47.80
  -4  -7  -1 1013.10   44.30
  -4  -7  -1 1073.39   42.60
  -4  -7  -1 1056.49   45.20
  -4  -7  -1 1070.79   43.90
  -4  -7  -1 1056.69   43.10
  -5  -7  -1  134.29    8.90
  -5  -7  -1  130.89    6.70
  -5  -7  -1  144.19    8.90
  -5  -7  -1  136.49    8.90
  -5  -7  -1  122.29    9.40
  -5  -7  -1  142.39    8.30
  -5  -7  -1  136.39    8.10
  -5  -7  -1  138.79    7.00
  -5  -7  -1  136.29   11.10
  -5  -7  -1  138.39    7.50
  -6  -7  -1 1654.03   70.99
  -6  -7  -1 1645.94   72.49
  -6  -7  -1 1835.22   76.29
  -6  -7  -1 1740.53   72.59
  -6  -7  -1 1737.93   72.39
  -6  -7  -1 1794.02   71.59
  -6  -7  -1 1726.43   69.89
  -6  -7  -1 1751.52   70.39
  -6  -7  -1 1897.61   72.59
  -7  -7  -1   71.49    4.50
  -7  -7  -1   82.99    6.40
  -7  -7  -1   85.89    6.60
  -7  -7  -1   84.39    8.30
  -7  -7  -1   79.99    6.50
  -7  -7  -1   71.79    5.40
  -7  -7  -1   70.49    5.50
  -7  -7  -1   82.69    6.60
  -7  -7  -1   80.29    5.00
  -8  -7  -1  145.29    9.20
  -8  -7  -1  150.58    8.40
  -8  -7  -1  167.58    9.50
  -8  -7  -1  167.18    9.30
  -8  -7  -1  172.68    8.80
  -8  -7  -1  162.88    9.30
  -8  -7  -1  166.78    7.60
  -8  -7  -1  157.98    8.00
  -9  -7  -1    2.30    1.10
  -9  -7  -1    4.00    1.40
  -9  -7  -1    3.20    1.40
  -9  -7  -1    2.70    1.30
   2  -8  -1   20.00    1.60
   2  -8  -1   16.40    1.90
   2  -8  -1   22.50    2.20
   2  -8  -1   23.90    2.50
   1  -8  -1  188.68    8.60
   1  -8  -1  193.58    9.40
   1  -8  -1  202.88    8.40
   1  -8  -1  189.28    9.50
   1  -8  -1  196.18    9.90
   1  -8  -1  190.58   10.20
   1  -8  -1  187.68    9.60
   1  -8  -1  180.78    9.00
   1  -8  -1  200.68    8.60
   0  -8  -1  117.19    5.70
   0  -8  -1  114.09    5.60
   0  -8  -1  121.79    6.90
   0  -8  -1  113.29    6.90
   0  -8  -1  117.29    7.40
   0  -8  -1  117.99    7.20
   0  -8  -1  119.99    7.70
   0  -8  -1  106.79    6.20
   0  -8  -1  120.99    5.60
  -1  -8  -1  453.55   19.30
  -1  -8  -1  457.25   21.20
  -1  -8  -1  476.75   19.20
  -1  -8  -1  452.05   21.90
  -1  -8  -1  472.95   20.10
  -1  -8  -1  488.05   20.90
  -1  -8  -1  460.35   21.30
  -1  -8  -1  458.15   21.70
  -2  -8  -1   30.70    3.80
  -2  -8  -1   29.30    2.10
  -2  -8  -1   29.90    3.80
  -2  -8  -1   24.40    3.50
  -2  -8  -1   26.70    2.10
  -2  -8  -1   29.70    2.60
  -2  -8  -1   30.10    3.80
  -2  -8  -1   31.10    4.10
  -3  -8  -1  330.57   14.80
  -3  -8  -1  319.97   16.00
  -3  -8  -1  315.27   16.10
  -3  -8  -1  336.97   14.10
  -3  -8  -1  337.47   16.20
  -3  -8  -1  330.37   14.00
  -3  -8  -1  356.76   16.60
  -3  -8  -1  338.37   15.70
  -4  -8  -1  663.93   27.60
  -4  -8  -1  691.33   29.10
  -4  -8  -1  682.23   29.70
  -4  -8  -1  666.53   29.80
  -4  -8  -1  686.73   27.70
  -4  -8  -1  681.73   28.50
  -4  -8  -1  668.63   29.60
  -5  -8  -1  475.75   19.90
  -5  -8  -1  448.56   19.40
  -5  -8  -1  486.45   20.90
  -5  -8  -1  457.25   19.60
  -5  -8  -1  488.35   21.60
  -5  -8  -1  484.95   20.90
  -5  -8  -1  453.95   24.00
  -5  -8  -1  462.25   21.80
  -5  -8  -1  462.65   21.50
  -6  -8  -1  342.57   14.40
  -6  -8  -1  333.27   18.60
  -6  -8  -1  320.17   15.90
  -6  -8  -1  322.57   15.60
  -6  -8  -1  331.47   14.70
  -6  -8  -1  339.17   15.40
  -6  -8  -1  317.07   14.10
  -6  -8  -1  340.27   16.10
  -6  -8  -1  318.27   16.20
  -7  -8  -1  687.53   29.20
  -7  -8  -1  662.13   32.30
  -7  -8  -1  673.03   29.90
  -7  -8  -1  691.73   29.90
  -7  -8  -1  727.33   29.10
  -7  -8  -1  678.93   28.30
  -7  -8  -1  705.63   28.60
  -7  -8  -1  716.13   30.20
  -7  -8  -1  710.13   30.30
  -8  -8  -1    6.40    1.70
  -8  -8  -1    4.90    1.60
  -8  -8  -1    4.10    1.20
  -8  -8  -1    6.40    1.20
  -8  -8  -1    5.40    1.10
  -8  -8  -1    3.40    1.50
  -9  -8  -1 1063.29   42.40
   0  -9  -1  148.69    6.30
   0  -9  -1  144.49    7.20
   0  -9  -1  143.49    7.40
   0  -9  -1  145.19    7.10
   0  -9  -1  148.49    6.30
  -1  -9  -1  284.27   11.80
  -1  -9  -1  297.37   13.10
  -1  -9  -1  276.07   12.90
  -1  -9  -1  299.07   13.50
  -1  -9  -1  281.07   11.80
  -1  -9  -1  277.27   12.70
  -2  -9  -1  435.66   17.90
  -2  -9  -1  449.06   19.20
  -2  -9  -1  449.06   19.50
  -2  -9  -1  445.36   19.50
  -2  -9  -1  433.56   18.00
  -2  -9  -1  421.96   19.20
  -2  -9  -1  469.05   19.90
  -3  -9  -1   51.59    3.20
  -3  -9  -1   57.39    4.00
  -3  -9  -1   57.09    4.40
  -3  -9  -1   54.99    4.40
  -3  -9  -1   53.89    4.20
  -3  -9  -1   54.49    2.80
  -4  -9  -1  655.63   27.60
  -4  -9  -1  658.53   28.10
  -4  -9  -1  642.44   26.60
  -4  -9  -1  658.53   28.00
  -4  -9  -1  671.03   26.40
  -4  -9  -1  662.63   28.10
  -4  -9  -1  647.04   26.40
  -5  -9  -1   17.80    1.60
  -5  -9  -1   18.70    2.70
  -5  -9  -1   17.90    2.80
  -5  -9  -1   18.90    1.80
  -5  -9  -1   15.30    2.40
  -5  -9  -1   17.80    1.50
  -5  -9  -1   22.70    2.70
  -6  -9  -1   43.80    3.60
  -6  -9  -1   29.90    2.50
  -6  -9  -1   31.50    2.80
  -6  -9  -1   32.90    2.00
  -6  -9  -1   39.00    3.50
  -6  -9  -1   29.70    2.20
  -6  -9  -1   33.10    3.30
  -6  -9  -1   31.90    2.20
  -7  -9  -1   40.40    2.50
  -7  -9  -1   55.39    3.70
  -7  -9  -1   49.00    2.70
  -7  -9  -1   46.90    2.50
  -7  -9  -1   41.00    3.50
  -7  -9  -1   41.60    3.40
  -8  -9  -1  324.67   13.40
  -8  -9  -1  344.77   14.40
  -8  -9  -1  343.47   13.60
  -8  -9  -1  337.87   15.30
  -8  -9  -1  310.87   14.20
  -3 -10  -1  129.99    6.20
  -3 -10  -1  132.89    6.50
  -3 -10  -1  127.39    5.40
  -4 -10  -1  351.96   14.90
  -4 -10  -1  341.17   14.00
  -4 -10  -1  357.16   14.90
  -4 -10  -1  347.07   14.90
  -5 -10  -1  222.48   10.00
  -5 -10  -1  221.78    9.90
  -5 -10  -1  219.48    9.10
  -5 -10  -1  219.78    9.90
  -6 -10  -1  735.83   29.60
  -6 -10  -1  705.93   29.10
  -6 -10  -1  697.73   28.20
  -7  -9   2   83.79    3.90
  -7  -9   2   83.59    4.60
  -6  -9   2  330.07   14.40
  -6  -9   2  324.57   13.20
  -6  -9   2  316.17   13.30
  -5  -9   2  248.88   10.20
  -5  -9   2  255.67   11.70
  -8  -8   2   30.40    2.00
  -8  -8   2   30.80    2.80
  -8  -8   2   32.80    2.00
  -8  -8   2   28.40    2.30
  -8  -8   2   29.20    2.80
  -7  -8   2   55.59    4.10
  -7  -8   2   53.39    3.10
  -7  -8   2   44.70    3.60
  -7  -8   2   52.59    3.10
  -7  -8   2   47.90    3.10
  -7  -8   2   49.00    4.30
  -7  -8   2   54.29    3.10
  -6  -8   2    8.00    2.10
  -6  -8   2   13.70    1.50
  -6  -8   2   13.60    2.00
  -6  -8   2   15.00    4.00
  -6  -8   2    7.70    2.20
  -6  -8   2   10.90    1.50
  -6  -8   2   13.40    1.70
  -5  -8   2  290.07   15.00
  -5  -8   2  259.77   16.00
  -5  -8   2  279.47   11.70
  -5  -8   2  261.67   13.50
  -5  -8   2  262.57   12.00
  -4  -8   2    5.90    1.00
  -4  -8   2    5.40    2.00
   0  -8   2   55.29    2.90
   0  -8   2   57.39    4.10
   0  -8   2   56.09    4.80
   1  -8   2    9.80    1.10
   1  -8   2   12.80    1.40
   1  -8   2   12.10    1.80
   1  -8   2    9.90    2.10
   2  -8   2  436.26   19.10
   2  -8   2  427.56   18.70
   2  -8   2  442.86   17.50
  -9  -7   2  113.39    6.00
  -9  -7   2  116.89    5.70
  -8  -7   2  887.11   34.90
  -8  -7   2  855.81   35.70
  -8  -7   2  885.21   36.60
  -8  -7   2  856.81   36.10
  -8  -7   2  831.32   35.20
  -7  -7   2   95.19    5.50
  -7  -7   2   89.29    6.90
  -7  -7   2   89.49    6.50
  -7  -7   2   94.19    5.20
  -7  -7   2   94.39    6.60
  -7  -7   2   91.79    8.90
  -7  -7   2   92.89    5.80
  -6  -7   2 1779.82   71.29
  -6  -7   2 1806.62   71.29
  -6  -7   2 1780.02   69.49
  -6  -7   2 1672.33   68.99
  -6  -7   2 1666.23   71.69
  -6  -7   2 1659.33   75.29
  -6  -7   2 1708.03   69.89
  -6  -7   2 1781.52   72.29
  -5  -7   2   11.90    3.20
  -5  -7   2   14.90    4.80
  -5  -7   2    9.60    1.80
  -5  -7   2   10.20    2.20
  -5  -7   2   14.70    3.60
  -5  -7   2   14.00    3.00
  -4  -7   2    3.50    2.40
  -4  -7   2    3.50    2.10
  -4  -7   2    3.90    2.50
  -4  -7   2    7.10    1.60
  -4  -7   2    7.50    3.50
  -4  -7   2    4.50    1.00
  -3  -7   2  549.35   22.50
  -1  -7   2  158.78   11.20
  -1  -7   2  151.48    7.10
   0  -7   2  218.28    9.90
   0  -7   2  232.88    9.50
   0  -7   2  214.78   11.50
   0  -7   2  227.68   10.50
   0  -7   2  217.28   12.90
   0  -7   2  232.88   12.00
   1  -7   2  277.27   13.80
   1  -7   2  285.77   12.20
   1  -7   2  268.87   13.60
   1  -7   2  274.67   14.90
   1  -7   2  278.67   12.00
   1  -7   2  277.47   13.00
   1  -7   2  285.57   12.20
   2  -7   2  126.39    6.30
   2  -7   2  134.09    6.20
   2  -7   2  130.29    6.40
   2  -7   2  137.79    7.60
   2  -7   2  143.99    8.50
   2  -7   2  123.39    6.90
   3  -7   2   10.40    1.70
   3  -7   2   10.20    1.30
   3  -7   2   10.60    1.30
   3  -7   2   12.30    2.20
   9   6  -2  389.76   18.90
  -9  -6   2  398.96   18.00
  -9  -6   2  423.76   18.40
  -9  -6   2  440.66   18.30
   8   6  -2   17.80    4.60
  -8  -6   2   22.90    2.40
  -8  -6   2   20.30    4.70
  -8  -6   2   21.40    3.40
  -8  -6   2   19.00    3.70
  -8  -6   2   19.50    2.60
  -8  -6   2   20.90    3.30
  -8  -6   2   19.70    3.20
  -8  -6   2   26.60    3.30
  -7  -6   2  397.16   19.10
  -7  -6   2  361.66   18.80
  -7  -6   2  385.96   16.90
  -7  -6   2  367.36   17.90
  -7  -6   2  347.27   17.50
  -7  -6   2  374.66   16.30
  -7  -6   2  364.06   18.30
  -7  -6   2  349.37   21.40
  -7  -6   2  373.46   18.70
  -7  -6   2  360.36   18.90
  -6  -6   2  437.26   22.70
  -6  -6   2  451.45   19.80
  -6  -6   2  473.55   21.20
  -6  -6   2  429.96   21.30
  -6  -6   2  445.26   22.30
  -6  -6   2  493.55   26.60
  -6  -6   2  476.05   22.40
  -6  -6   2  453.55   22.10
  -6  -6   2  479.75   23.10
  -5  -6   2 1445.96   61.99
  -5  -6   2 1443.56   60.19
  -5  -6   2 1438.06   62.29
  -5  -6   2 1524.45   61.59
  -5  -6   2 1489.75   66.69
  -5  -6   2 1486.85   62.69
  -5  -6   2 1531.45   60.49
  -5  -6   2 1497.65   62.99
  -4  -6   2  950.80   38.90
  -4  -6   2  910.11   40.70
  -4  -6   2  914.91   40.40
  -4  -6   2  915.41   39.30
  -4  -6   2  945.21   37.60
  -4  -6   2  932.51   44.10
  -3  -6   2 1332.27   53.29
  -3  -6   2 1314.87   53.49
  -3  -6   2 1316.47   56.09
  -3  -6   2 1368.76   59.29
  -1  -6   2  313.87   15.50
  -1  -6   2  292.67   12.90
   0  -6   2 2137.69   87.09
   0  -6   2 2185.28   85.49
   0  -6   2 2045.70   85.69
   0  -6   2 2095.19   84.09
   0  -6   2 2176.48   82.99
   0  -6   2 1961.20   83.19
   1  -6   2    6.30    3.10
   1  -6   2    4.80    2.30
   1  -6   2    4.60    1.30
   1  -6   2    3.40    2.90
   1  -6   2    5.30    1.60
   1  -6   2    7.90    2.10
   1  -6   2    2.30    2.50
   2  -6   2  782.62   36.20
   2  -6   2  828.12   37.70
   2  -6   2  814.72   34.80
   2  -6   2  855.01   34.30
   2  -6   2  819.72   37.60
   2  -6   2  843.52   34.50
   2  -6   2  829.02   36.10
   2  -6   2  872.21   36.10
  -3   6  -2   13.70    2.90
   3  -6   2   10.00    2.50
   3  -6   2   13.90    2.30
   3  -6   2   13.60    2.10
   3  -6   2   16.20    3.00
   3  -6   2   11.90    2.00
   3  -6   2   17.80    3.80
   3  -6   2   17.00    3.90
   4  -6   2  156.28    8.20
   4  -6   2  166.08    9.20
   4  -6   2  168.28    7.80
   4  -6   2  154.98    7.40
   4  -6   2  163.58    9.20
   4  -6   2  149.88    7.50
   9   5  -2  529.95   24.60
  -9  -5   2  519.95   23.30
  -9  -5   2  533.45   23.30
  -9  -5   2  525.75   23.00
   8   5  -2  252.87   17.10
  -8  -5   2  294.87   13.70
  -8  -5   2  309.57   15.90
  -8  -5   2  305.57   15.20
  -8  -5   2  307.57   15.80
  -8  -5   2  284.27   15.40
  -7  -5   2   43.50    5.70
  -7  -5   2   41.00    5.70
  -7  -5   2   30.90    5.30
  -7  -5   2   25.80    4.40
  -7  -5   2   33.50    7.10
  -7  -5   2   36.60    4.10
  -7  -5   2   37.00    5.10
  -7  -5   2   55.79    6.10
  -7  -5   2   30.60    5.20
  -7  -5   2   36.90    3.90
  -7  -5   2   38.50    3.70
  -6  -5   2   63.39    6.50
  -6  -5   2   64.59    6.90
  -6  -5   2   59.49    6.20
  -6  -5   2   59.49    6.30
  -6  -5   2   73.79    5.00
  -6  -5   2   58.19    8.40
  -6  -5   2   68.29    5.80
  -6  -5   2   64.79    6.20
  -6  -5   2   60.99    6.60
  -6  -5   2   80.69    5.00
  -6  -5   2   56.99    6.90
  -5  -5   2  735.23   32.70
  -5  -5   2  706.93   30.80
  -5  -5   2  748.23   33.50
  -5  -5   2  763.62   34.00
  -5  -5   2  719.03   36.70
  -4  -5   2  122.39    7.60
  -4  -5   2  131.99   10.80
  -4  -5   2  128.19    8.70
  -4  -5   2  137.49    8.30
  -3  -5   2  452.15   19.80
  -3  -5   2  478.25   20.50
  -3  -5   2  469.85   24.30
  -2  -5   2   69.39    6.90
   0  -5   2  691.63   28.70
   0  -5   2  690.53   30.00
   1  -5   2  196.28    9.00
   1  -5   2  182.28   12.50
   1  -5   2  188.18   10.10
   1  -5   2  204.28   10.80
   2  -5   2 1261.47   52.19
   2  -5   2 1293.47   51.29
   2  -5   2 1235.08   50.89
   2  -5   2 1232.38   53.69
   2  -5   2 1323.97   51.89
   2  -5   2 1285.07   54.79
   2  -5   2 1254.37   53.19
   2  -5   2 1246.78   52.89
   2  -5   2 1207.28   55.29
   3  -5   2 1385.86   55.39
   3  -5   2 1299.97   58.39
   3  -5   2 1298.57   56.29
   3  -5   2 1328.97   57.19
   3  -5   2 1343.67   56.59
   3  -5   2 1434.86   57.99
   3  -5   2 1378.76   55.99
   3  -5   2 1323.57   59.09
   3  -5   2 1371.26   54.99
   3  -5   2 1359.06   57.49
  -4   5  -2  538.15   25.40
   4  -5   2  601.64   24.80
   4  -5   2  596.64   24.40
   4  -5   2  574.34   27.20
   4  -5   2  581.04   27.70
   4  -5   2  562.04   26.00
   4  -5   2  588.64   26.10
   4  -5   2  559.34   26.80
   4  -5   2  526.05   25.30
   5  -5   2  220.38   10.00
   5  -5   2  218.58   11.80
   5  -5   2  211.48   10.30
   5  -5   2  232.68   12.10
   5  -5   2  217.28   10.80
   5  -5   2  223.78   10.80
   9   4  -2   18.10    3.90
  -9  -4   2   14.50    2.60
  -9  -4   2   12.20    2.80
  -9  -4   2   13.90    2.40
  -9  -4   2   14.70    2.90
   8   4  -2 1402.26   65.29
  -8  -4   2 1560.34   62.89
  -8  -4   2 1484.05   63.09
  -8  -4   2 1543.25   61.69
  -8  -4   2 1485.55   62.99
  -7  -4   2  199.78   10.80
  -7  -4   2  197.08   11.80
  -7  -4   2  181.78   12.20
  -7  -4   2  189.28   11.80
  -7  -4   2  189.28   10.10
  -7  -4   2  178.08   12.00
  -6  -4   2 1925.91   80.29
  -6  -4   2 1868.91   79.59
  -6  -4   2 2047.60   78.49
  -6  -4   2 1857.41   80.19
  -6  -4   2 1888.81   80.59
  -6  -4   2 2016.60   79.99
  -6  -4   2 1994.00   83.29
  -6  -4   2 1967.80   77.89
  -6  -4   2 1877.01   79.99
  -6  -4   2 1880.51   84.49
  -5  -4   2  456.35   22.00
  -5  -4   2  408.76   23.60
  -5  -4   2  409.66   20.70
  -5  -4   2  401.36   18.90
  -5  -4   2  440.16   21.00
  -4  -4   2  561.54   24.80
  -4  -4   2  533.35   24.00
  -4  -4   2  523.45   23.90
  -4  -4   2  528.05   27.00
  -3  -4   2 2663.03  108.49
  -3  -4   2 2540.35  156.28
  -3  -4   2 2722.13  105.49
  -2  -4   2 1943.71   76.29
  -2  -4   2 1912.61  121.39
   1   4  -2  805.22   88.19
   0   4  -2  107.19   36.50
   0  -4   2  132.79    6.40
   1  -4   2 1263.77   49.00
   1  -4   2 1134.59   49.50
  -2   4  -2   99.09    8.80
   2  -4   2  119.49    5.90
   2  -4   2  107.69    7.00
   2  -4   2  101.09    7.90
   2  -4   2  101.39    6.80
   2  -4   2  100.19   13.60
   3  -4   2   59.59    4.30
   3  -4   2   48.80    5.70
   3  -4   2   55.89    6.80
   3  -4   2   60.29    6.20
   3  -4   2   61.09    5.30
   3  -4   2   59.19    4.90
   3  -4   2   47.80    4.90
   3  -4   2   51.39    4.10
   3  -4   2   54.19    5.60
   3  -4   2   50.19    5.60
   3  -4   2   53.79    7.00
  -4   4  -2   10.60    3.00
   4  -4   2    8.60    2.80
   4  -4   2   10.10    4.00
   4  -4   2   10.10    2.40
   4  -4   2    7.90    2.00
   4  -4   2    9.80    3.70
   4  -4   2   12.00    2.30
   4  -4   2    9.40    3.30
   4  -4   2   11.10    3.40
   4  -4   2   11.20    3.60
   4  -4   2   24.10    4.20
  -5   4  -2  817.72   36.50
  -5   4  -2  848.82   37.00
   5  -4   2  867.11   35.50
   5  -4   2  887.41   39.30
   5  -4   2  857.81   36.00
   5  -4   2  899.61   37.60
   5  -4   2  838.12   38.30
   5  -4   2  830.62   38.60
   5  -4   2  821.32   38.50
   5  -4   2  868.71   36.90
  -6   4  -2   89.09    6.10
   6  -4   2  121.39    7.70
   6  -4   2  109.39    6.70
   6  -4   2  110.49    7.20
   9   3  -2  341.27   17.10
  -9  -3   2  339.37   15.80
  -9  -3   2  322.37   15.80
  -9  -3   2  354.76   16.60
  -9  -3   2  355.86   16.60
   8   3  -2    2.00    3.90
  -8  -3   2    5.90    2.60
  -8  -3   2    7.80    2.60
  -8  -3   2   13.40    3.00
  -7  -3   2   25.20    4.40
  -7  -3   2   38.30    5.30
  -7  -3   2   27.60    4.30
  -7  -3   2   33.50    4.80
  -7  -3   2   24.80    4.30
  -6  -3   2   10.40    2.90
  -6  -3   2   10.70    2.90
  -6  -3   2   10.40    4.10
  -6  -3   2    7.60    2.70
  -6  -3   2   10.30    3.10
  -5  -3   2 1643.04   69.29
  -5  -3   2 1652.43   71.29
  -5  -3   2 1648.44   73.69
  -5  -3   2 1731.43   72.29
  -5  -3   2 1800.62   70.19
  -4  -3   2  531.55   24.50
  -4  -3   2  532.05   21.70
  -4  -3   2  517.55   25.90
  -4  -3   2  507.75   64.99
  -3  -3   2 1681.13  117.39
  -3  -3   2 1684.43   68.29
  -2  -3   2  111.29   24.70
   1   3  -2   48.90   23.10
  -1  -3   2   63.89   19.30
   0   3  -2 6145.98  343.27
   0  -3   2 6908.81  255.27
   0  -3   2 6435.86  254.47
  -1   3  -2   73.19   31.00
   1  -3   2   84.39    5.10
  -2   3  -2 3518.55  143.39
   2  -3   2 3611.74  140.99
   2  -3   2 3520.75  143.39
  -3   3  -2   86.99    7.60
   3  -3   2   85.49    5.10
   3  -3   2   82.59    5.70
   3  -3   2   85.49    6.40
   3  -3   2   86.19    8.40
   4  -3   2  756.72   30.80
   4  -3   2  730.63   33.60
   4  -3   2  755.22   32.80
   4  -3   2  722.93   36.20
   4  -3   2  732.13   32.80
   4  -3   2  729.83   33.60
   4  -3   2  701.93   32.70
   4  -3   2  720.33   31.00
   4  -3   2  729.33   37.20
   4  -3   2  743.93   32.80
  -5   3  -2 1021.00   45.40
  -5   3  -2 1130.59   45.20
   5  -3   2  996.50   44.90
   5  -3   2 1011.80   45.70
   5  -3   2 1081.79   47.00
   5  -3   2 1101.49   47.50
   5  -3   2 1097.19   45.60
   5  -3   2  994.00   48.50
   5  -3   2 1081.29   50.99
  -6   3  -2  435.46   20.80
  -6   3  -2  438.26   20.50
   6  -3   2  471.25   20.30
   6  -3   2  453.45   23.20
   6  -3   2  427.96   24.10
   6  -3   2  440.26   22.00
  -7   3  -2    5.50    2.00
   9   2  -2  671.63   28.40
  -9  -2   2  645.14   28.00
  -9  -2   2  614.94   27.80
  -9  -2   2  652.53   28.10
   8   2  -2  834.32   38.80
  -8  -2   2  822.72   36.80
  -8  -2   2  802.92   36.00
  -8  -2   2  870.31   36.80
  -8  -2   2  821.62   36.10
   7   2  -2  209.18   16.30
  -7  -2   2  226.98   12.30
  -7  -2   2  231.98   12.90
  -7  -2   2  207.18   12.50
  -7  -2   2  225.38   12.50
  -6  -2   2   30.60    6.40
  -6  -2   2   33.20    4.50
  -6  -2   2   40.60    6.60
  -6  -2   2   36.50    4.00
  -5  -2   2 2071.69   88.09
  -5  -2   2 1811.42   78.69
  -5  -2   2 2000.40   83.49
  -4  -2   2   77.59    6.70
  -4  -2   2   70.99    6.60
  -3  -2   2    2.80    1.90
  -3  -2   2    3.90    2.00
  -3  -2   2    2.50    9.50
  -2  -2   2 1960.10  120.19
  -1  -2   2   97.89    4.50
  -1  -2   2   92.49   22.20
   0  -2   2   55.79    3.50
   0  -2   2   58.19    2.80
   1  -2   2  389.36   16.70
  -2   2  -2  483.75   72.79
  -2   2  -2  621.54   25.50
  -3   2  -2 4334.97  331.97
  -3   2  -2 3762.82  154.08
   3  -2   2 3798.42  152.68
   3  -2   2 3533.55  150.98
   3  -2   2 3834.32  155.68
  -4   2  -2  262.17   12.90
  -4   2  -2  269.87   15.40
   4  -2   2  271.27   17.40
   4  -2   2  258.37   12.00
   4  -2   2  273.17   12.50
   4  -2   2  282.67   14.50
   4  -2   2  229.98   16.70
  -5   2  -2 2502.55  100.39
  -5   2  -2 2373.76  100.79
  -5   2  -2 2459.85  100.99
   5  -2   2 2502.55  102.89
   5  -2   2 2489.85  102.09
   5  -2   2 2406.66  105.29
   5  -2   2 2465.35   99.09
   5  -2   2 2692.83  108.49
  -6   2  -2 1135.29   44.90
  -6   2  -2 1020.60   45.10
  -6   2  -2 1016.70   44.60
   6  -2   2  999.30   46.10
   6  -2   2 1099.19   49.30
   6  -2   2 1078.69   52.29
   6  -2   2 1020.30   46.50
  -7   2  -2   11.50    2.70
  -7   2  -2   15.20    2.90
   7  -2   2   19.40    4.40
   7  -2   2   16.00    3.50
  -9  -1   2   34.00    3.40
  -9  -1   2   33.50    3.50
   8   1  -2  540.15   25.90
  -8  -1   2  540.65   24.80
  -8  -1   2  552.04   24.80
  -8  -1   2  537.35   24.10
  -8  -1   2  497.75   24.90
   7   1  -2  228.68   16.40
  -7  -1   2  224.68   13.30
  -7  -1   2  263.47   13.10
  -7  -1   2  247.18   13.50
  -7  -1   2  224.38   12.90
  -6  -1   2 1255.17   52.29
  -6  -1   2 1146.69   59.19
  -6  -1   2 1268.17   53.19
  -6  -1   2 1292.47   52.99
  -6  -1   2 1331.07   53.39
  -5  -1   2  443.06   20.10
  -5  -1   2  470.05   26.30
  -4  -1   2 1149.39   54.09
  -4  -1   2 1316.37   55.69
  -4  -1   2 1280.27  119.09
  -3  -1   2 1635.44   68.99
  -3  -1   2 1581.84   68.19
  -3  -1   2 1742.53  124.29
  -2  -1   2 9132.59  393.46
  -2  -1   2 8168.48  339.97
  -1  -1   2 1763.32  103.39
  -1  -1   2 1706.43   70.39
  -1  -1   2 1849.02   69.59
   0   1  -2  218.28   34.80
   0   1  -2  203.38    8.90
   0  -1   2  193.18    8.80
   0  -1   2  197.28   28.30
  -1   1  -2  803.62   83.29
  -1   1  -2  895.41   35.90
   1  -1   2  947.41   35.80
   1  -1   2  852.01   34.80
  -2   1  -2  121.49    6.90
  -2   1  -2  109.89   34.00
   2  -1   2  125.49    6.10
  -3   1  -2 1166.58  119.29
  -3   1  -2 1207.48   50.69
   3  -1   2 1263.77   49.80
  -4   1  -2  127.99    8.50
  -4   1  -2  112.99    6.70
   4  -1   2  131.09   10.40
   4  -1   2  123.29    7.60
   4  -1   2  120.69    7.90
  -5   1  -2  403.96   18.60
   5  -1   2  407.76   24.40
   5  -1   2  404.86   23.00
   5  -1   2  391.56   19.50
  -6   1  -2  235.48   12.90
  -6   1  -2  242.08   13.30
  -6   1  -2  253.27   12.90
   6  -1   2  237.68   14.70
   6  -1   2  230.88   16.20
   6  -1   2  228.38   13.80
   6  -1   2  249.58   15.50
  -7   1  -2  610.04   26.00
  -7   1  -2  561.84   26.20
  -7   1  -2  568.94   25.90
   7  -1   2  555.64   26.80
   7  -1   2  578.04   28.50
   7  -1   2  576.14   28.70
  -8   1  -2  164.58    9.10
   8  -1   2  175.38    9.90
  -8   0   2   79.39    6.00
  -8   0   2   88.99    6.50
  -8   0   2   84.49    6.40
   7   0  -2  625.84   30.70
   7   0  -2  642.04   32.00
  -7   0   2  675.13   29.60
  -7   0   2  628.74   28.70
  -7   0   2  629.04   29.30
  -7   0   2  652.53   28.70
   6   0  -2   70.69    7.90
   6   0  -2   63.39    8.70
   6   0  -2   71.19    9.60
  -6   0   2   65.79    5.50
  -6   0   2   71.59    6.10
  -6   0   2   73.79    6.20
  -6   0   2   71.09   10.80
  -6   0   2   75.29    6.20
   5   0  -2  685.23   33.30
  -5   0   2  705.33   30.30
  -5   0   2  740.53   38.00
   4   0  -2  900.31   37.60
  -4   0   2  733.93   93.39
  -4   0   2  882.81   40.60
   3   0  -2 2157.78   84.59
  -3   0   2 2161.58   86.79
  -3   0   2 1931.01  142.19
   2   0  -2  249.78   11.40
  -2   0   2  219.08   33.70
  -2   0   2  241.58   12.60
   1   0  -2   25.90   11.80
  -1   0   2   26.70   11.10
  -1   0   2   22.30    2.00
  -1   0   2   32.00    3.40
   0   0  -2 5531.05  247.68
   0   0  -2 5212.18  223.08
   0   0   2 5623.04  224.68
   0   0   2 6408.56  267.57
  -1   0  -2 2367.56  140.99
  -1   0  -2 2353.36  100.79
   1   0   2 2470.85  100.69
   1   0   2 2911.71  150.38
   1   0   2 2684.23  100.79
  -2   0  -2 2231.58  147.89
  -2   0  -2 2082.69   85.39
   2   0   2 1953.70   85.19
   2   0   2 2316.77   85.39
  -3   0  -2 1764.42   76.89
  -3   0  -2 2011.90  155.08
   3   0   2 1946.51   76.89
   3   0   2 1904.91   76.99
  -4   0  -2 1311.27  133.59
  -4   0  -2 1139.39   51.69
   4   0   2 1287.97   52.09
  -5   0  -2 1077.39   45.00
   5   0   2 1097.19   47.20
  -6   0  -2  539.15   24.50
  -6   0  -2  524.25   23.80
  -6   0  -2  519.45   24.10
   6   0   2  528.35   27.00
   6   0   2  519.05   26.00
  -7   0  -2  183.58   10.20
  -7   0  -2  162.38   10.40
  -7   0  -2  174.18   10.40
   7   0   2  177.48   12.20
  -8   0  -2   93.79    6.60
  -8   0  -2   93.19    6.60
  -8   0  -2   99.29    6.90
   8   0   2   88.79    8.80
   8   0   2   97.49    7.60
   8  -1  -2  456.75   21.10
  -8   1   2  468.75   20.80
  -8   1   2  458.35   20.70
   7  -1  -2  862.11   40.00
  -7   1   2  871.91   37.90
  -7   1   2  879.71   37.80
  -7   1   2  829.72   36.90
   6  -1  -2   76.79    9.50
  -6   1   2   72.49    6.40
  -6   1   2   81.99    7.00
  -6   1   2   85.19    7.00
  -6   1   2   84.69    6.30
   5  -1  -2 2388.26  104.29
   5  -1  -2 2504.55  102.09
  -5   1   2 2549.34   99.79
  -5   1   2 2370.26   98.69
   4  -1  -2  593.14   27.00
  -4   1   2  545.35   24.50
   3  -1  -2 1693.83   65.39
   3  -1  -2 1506.45   65.49
  -3   1   2 1531.35  124.89
   2  -1  -2  645.94   26.20
   2  -1  -2  564.84   26.10
  -2   1   2  600.84   27.50
  -2   1   2  602.04   59.99
   1  -1  -2 1245.08   79.09
   1  -1  -2 1259.77   51.99
   1  -1  -2 1287.47   52.19
  -1   1   2 1322.47   77.39
   0  -1  -2    4.40    3.80
   0   1   2    8.40    4.70
   0   1   2    4.30    1.80
  -1  -1  -2   80.19    5.20
  -1  -1  -2   93.79   15.30
   1   1   2  101.29    5.20
   1   1   2   99.69   18.60
  -2  -1  -2   22.40    3.50
  -2  -1  -2   16.50    3.20
  -2  -1  -2   20.80   14.00
   2   1   2   16.80    2.00
   2   1   2   18.80    2.50
  -3  -1  -2 5233.38  200.98
  -3  -1  -2 5273.07  203.38
  -3  -1  -2 4510.75  202.68
   3   1   2 5666.53  200.68
   3   1   2 4785.12  201.18
  -4  -1  -2    5.20   12.10
  -4  -1  -2    3.90    1.60
   4   1   2    5.30    1.70
   4   1   2    3.70    1.70
  -5  -1  -2  327.47   20.20
  -5  -1  -2  358.16   15.90
   5   1   2  346.57   18.10
  -6  -1  -2  583.34   25.60
  -6  -1  -2  565.94   26.00
   6   1   2  597.34   38.80
   6   1   2  566.34   28.40
  -7  -1  -2  174.48   10.20
  -7  -1  -2  185.08   10.90
  -7  -1  -2  149.59   10.00
   7   1   2  182.58   13.10
  -8  -1  -2 1732.13   74.59
  -8  -1  -2 1849.31   75.39
  -8  -1  -2 1840.52   74.99
   8   1   2 1887.01   76.69
  -9  -1  -2  248.38   12.00
   9   1   2  216.18   12.60
   9   1   2  249.97   12.00
   7  -2  -2  182.98   11.80
   7  -2  -2  192.68   11.10
  -7   2   2  182.68   10.60
  -7   2   2  190.58   10.80
  -7   2   2  185.38   10.10
   6  -2  -2  664.03   32.20
   6  -2  -2  696.83   34.00
  -6   2   2  699.03   31.50
  -6   2   2  698.03   30.50
  -6   2   2  664.43   31.30
   5  -2  -2  285.77   17.90
   5  -2  -2  250.17   15.10
   5  -2  -2  260.27   15.00
   5  -2  -2  283.37   16.40
  -5   2   2  265.47   14.60
  -5   2   2  262.97   13.80
   4  -2  -2  977.00   48.00
   4  -2  -2 1057.29   47.50
   4  -2  -2 1017.30   44.60
   3  -2  -2  921.81   41.40
   3  -2  -2  973.80   43.00
   3  -2  -2  916.41   40.20
  -3   2   2  912.01   93.29
   2  -2  -2 6321.47  252.97
   2  -2  -2 6709.63  252.47
  -2   2   2 6139.79  307.47
   1  -2  -2  108.29    6.90
   1  -2  -2  109.39    6.60
  -1   2   2  119.69   20.70
   0  -2  -2  144.49    8.20
   0  -2  -2  169.08   14.40
   0  -2  -2  118.59    7.50
   0   2   2  141.69   12.50
   0   2   2  150.88    8.60
  -1  -2  -2 9309.87  359.56
   1   2   2 8904.91  357.86
  -2  -2  -2   24.80    9.50
  -2  -2  -2   23.10    3.00
  -2  -2  -2   23.20    3.00
  -2  -2  -2   21.70    3.20
   2   2   2   22.80   13.00
  -3  -2  -2 3794.22  165.18
  -3  -2  -2 4039.00  166.28
  -3  -2  -2 4013.70  166.48
  -3  -2  -2 4461.45  214.38
   3   2   2 4503.15  167.48
   3   2   2 4227.58  164.68
  -4  -2  -2   16.90   14.70
  -4  -2  -2   12.70    3.50
  -4  -2  -2   13.30    3.50
  -4  -2  -2   13.60    2.70
   4   2   2   17.90    2.40
  -5  -2  -2  156.88   11.70
  -5  -2  -2  157.08    8.40
  -6  -2  -2   51.79    7.30
  -6  -2  -2   61.39    4.90
  -7  -2  -2  420.76   20.90
  -7  -2  -2  425.96   20.80
  -7  -2  -2  422.76   20.50
   7   2   2  443.76   24.50
  -8  -2  -2   21.70    3.70
  -8  -2  -2   33.00    5.00
  -8  -2  -2   27.30    4.10
   8   2   2   25.60    6.00
  -9  -2  -2  257.97   13.00
  -9  -2  -2  260.67   13.00
  -9  -2  -2  274.57   13.60
   9   2   2  260.37   13.80
   7  -3  -2  488.15   19.40
  -7   3   2  471.85   20.90
  -7   3   2  452.85   20.60
   6  -3  -2  199.48   21.00
   6  -3  -2  217.78   12.00
   6  -3  -2  239.88   13.90
  -6   3   2  202.88   12.20
  -6   3   2  215.18   12.60
  -6   3   2  209.88   11.60
   5  -3  -2   14.20    4.10
   5  -3  -2   19.60    5.30
   5  -3  -2   18.40    4.20
   5  -3  -2   18.50    6.40
  -5   3   2   20.10    3.60
  -5   3   2   10.80    3.10
   4  -3  -2  211.28   13.30
   4  -3  -2  215.68   13.20
   4  -3  -2  191.08   10.60
   4  -3  -2  207.58   11.20
   4  -3  -2  205.58   12.80
   4  -3  -2  231.78   16.70
   4  -3  -2  246.78   15.20
   4  -3  -2  199.88   12.40
   3  -3  -2  308.67   18.50
   3  -3  -2  289.37   16.00
   3  -3  -2  273.17   14.50
   3  -3  -2  314.07   17.50
   3  -3  -2  294.67   14.80
   2  -3  -2   15.40    3.80
   2  -3  -2    7.20    1.90
   2  -3  -2    9.80    3.30
   2  -3  -2    9.80    3.00
   1  -3  -2  397.86   18.70
   1  -3  -2  368.56   17.00
   0  -3  -2 4240.88  168.68
   0  -3  -2 4186.58  166.18
   0  -3  -2 4158.08  165.88
   0   3   2 4419.06  169.58
   0   3   2 4175.48  188.08
  -1  -3  -2 5449.85  221.18
   1   3   2 5737.93  222.08
  -2  -3  -2 3611.44  146.89
  -2  -3  -2 3462.65  146.99
  -2  -3  -2 3965.30  165.58
  -2  -3  -2 3799.52  148.69
   2   3   2 3828.02  148.99
  -3  -3  -2 1549.64   90.19
  -3  -3  -2 1397.46   57.39
  -3  -3  -2 1387.06   58.59
   3   3   2 1285.57   57.69
  -4  -3  -2 3882.71  202.68
  -4  -3  -2 3550.74  149.88
  -4  -3  -2 3674.53  149.29
  -4  -3  -2 3781.12  148.89
  -5  -3  -2  285.67   15.90
  -5  -3  -2  319.67   14.40
  -5  -3  -2  295.57   17.10
  -5  -3  -2  270.67   17.20
  -6  -3  -2 4033.30  161.68
  -6  -3  -2 3914.31  158.48
  -7  -3  -2    6.60    3.30
  -7  -3  -2    5.50    2.40
  -7  -3  -2    5.40    2.50
  -7  -3  -2   22.10    4.10
   7   3   2   10.90    5.30
  -8  -3  -2   25.90    4.50
  -8  -3  -2   27.10    4.30
  -8  -3  -2   23.40    3.90
   8   3   2   21.60    5.30
  -9  -3  -2  373.06   19.40
  -9  -3  -2  417.66   19.50
  -9  -3  -2  388.96   19.10
  -9  -3  -2  426.76   19.90
   9   3   2  465.35   20.60
   6  -4  -2  163.38    9.30
  -6   4   2  152.98    9.00
  -6   4   2  146.99    8.70
   5  -4  -2 1185.08   49.20
   5  -4  -2 1066.59   46.70
   5  -4  -2 1132.59   48.50
   5  -4  -2 1008.90   49.70
   5  -4  -2 1123.79   46.00
  -5   4   2 1084.19   47.10
  -5   4   2 1144.49   48.00
  -5   4   2 1134.99   48.20
   4  -4  -2  296.77   17.10
   4  -4  -2  321.47   16.60
   4  -4  -2  331.97   18.50
   4  -4  -2  294.97   16.60
   4  -4  -2  301.37   15.50
   4  -4  -2  327.37   19.90
   4  -4  -2  321.77   17.70
   4  -4  -2  279.87   17.10
   4  -4  -2  328.17   18.50
   4  -4  -2  307.27   14.80
   3  -4  -2  236.08   12.90
   3  -4  -2  243.58   16.30
   3  -4  -2  247.68   15.20
   3  -4  -2  239.28   11.90
   3  -4  -2  242.18   13.80
   3  -4  -2  221.98   15.40
   3  -4  -2  252.17   14.50
   3  -4  -2  236.58   13.50
   3  -4  -2  243.88   14.60
   3  -4  -2  245.98   14.60
   3  -4  -2  231.28   12.20
   3  -4  -2  240.38   13.40
   3  -4  -2  236.28   14.10
   2  -4  -2  196.88   12.70
   2  -4  -2  195.98   10.10
   2  -4  -2  201.78   11.90
   2  -4  -2  181.68   10.90
   2  -4  -2  199.38   13.20
   1  -4  -2 2796.32  113.49
   1  -4  -2 2695.43  112.39
   1  -4  -2 2866.01  113.99
   0  -4  -2  439.76   20.70
   0  -4  -2  430.36   20.90
   0   4   2  436.06   22.30
  -1  -4  -2 1113.39   46.50
   1   4   2 1079.59   47.70
  -2  -4  -2   89.29    6.20
   2   4   2   95.59    7.20
  -3  -4  -2 2900.41  120.39
   3   4   2 3091.39  120.69
  -4  -4  -2   78.09    7.60
  -4  -4  -2   81.39    6.80
  -4  -4  -2   82.49    4.60
  -5  -4  -2  803.62   36.10
  -5  -4  -2  782.02   34.70
  -5  -4  -2  806.82   32.90
  -5  -4  -2  742.33   33.30
  -5  -4  -2  747.53   36.50
  -5  -4  -2  717.93   34.00
  -6  -4  -2 1002.90   48.70
  -6  -4  -2 1100.49   45.30
  -6  -4  -2 1074.69   45.40
  -7  -4  -2  545.35   25.20
  -7  -4  -2  542.45   25.80
  -7  -4  -2  568.74   26.70
  -7  -4  -2  560.04   26.30
  -7  -4  -2  563.04   26.00
   7   4   2  513.95   28.50
  -8  -4  -2 1136.09   50.39
  -8  -4  -2 1172.38   49.70
  -8  -4  -2 1184.48   50.29
  -8  -4  -2 1180.68   49.80
   8   4   2 1130.39   51.59
  -9  -4  -2  601.64   26.80
  -9  -4  -2  561.64   26.60
  -9  -4  -2  627.44   27.70
  -9  -4  -2  600.24   27.20
   9   4   2  633.74   28.00
   5  -5  -2   99.99    6.70
   5  -5  -2   87.19    6.00
   5  -5  -2   92.19    5.80
  -5   5   2   93.89    6.30
  -5   5   2  101.89    7.00
  -5   5   2   95.29    6.70
   4  -5  -2  397.86   18.80
   4  -5  -2  395.76   20.70
   4  -5  -2  387.06   21.10
   4  -5  -2  427.26   21.10
   4  -5  -2  398.56   18.40
   4  -5  -2  421.06   21.20
   4  -5  -2  398.26   20.90
   4  -5  -2  450.35   21.20
   4  -5  -2  420.86   17.40
   4  -5  -2  409.66   20.00
  -4   5   2  432.06   20.30
   3  -5  -2   14.50    3.90
   3  -5  -2   26.90    4.40
   3  -5  -2   23.00    4.00
   3  -5  -2   16.00    2.70
   3  -5  -2   27.20    5.20
   3  -5  -2   14.70    2.80
   3  -5  -2   11.50    3.10
   3  -5  -2   12.50    3.90
   3  -5  -2   10.70    3.50
   3  -5  -2   18.80    3.90
   2  -5  -2 2934.31  118.29
   2  -5  -2 2961.20  115.29
   2  -5  -2 2891.91  118.19
   2  -5  -2 2895.51  114.59
   2  -5  -2 2877.71  116.39
   2  -5  -2 2852.21  118.09
   2  -5  -2 2823.82  118.19
   2  -5  -2 2844.72  116.49
   2  -5  -2 2980.20  118.09
   2  -5  -2 2895.71  117.09
   2  -5  -2 2693.43  118.69
   2  -5  -2 2877.91  117.89
   2  -5  -2 2956.90  114.89
   1  -5  -2    9.70    2.10
   1  -5  -2    6.10    2.30
   1  -5  -2    7.00    2.70
   1  -5  -2    5.00    2.30
   1  -5  -2    7.10    2.60
  -1   5   2    4.30    3.30
   0  -5  -2  906.71   39.40
   0  -5  -2  924.71   39.50
   0  -5  -2  962.50   40.40
   0  -5  -2  890.01   39.30
   0   5   2  894.21   42.50
  -1  -5  -2 1509.05   60.69
  -1  -5  -2 1501.15   61.79
   1   5   2 1437.16   63.79
  -2  -5  -2  216.78   13.30
  -2  -5  -2  245.98   11.40
  -2  -5  -2  241.58   12.30
   2   5   2  225.58   13.70
  -3  -5  -2 1328.47   53.79
  -3  -5  -2 1194.08   56.39
  -3  -5  -2 1411.26   55.09
   3   5   2 1308.17   55.69
  -4  -5  -2  326.57   18.80
  -4  -5  -2  351.46   17.50
  -4  -5  -2  337.27   16.20
  -4  -5  -2  325.27   16.00
  -5  -5  -2   41.20    4.50
  -5  -5  -2   35.90    5.70
  -5  -5  -2   40.50    5.20
  -5  -5  -2   35.60    3.30
  -5  -5  -2   39.30    4.30
  -5  -5  -2   33.70    4.30
  -6  -5  -2   27.50    4.90
  -6  -5  -2   23.80    4.10
  -6  -5  -2   31.40    4.60
  -6  -5  -2   28.40    5.60
  -6  -5  -2   31.40    3.60
  -6  -5  -2   31.10    5.30
  -6  -5  -2   26.50    4.60
  -6  -5  -2   28.90    6.30
  -6  -5  -2   34.90    5.00
  -6  -5  -2   28.10    3.10
  -6  -5  -2   32.90    3.50
  -7  -5  -2  393.66   20.80
  -7  -5  -2  437.66   22.00
  -7  -5  -2  467.65   24.40
  -7  -5  -2  425.76   21.00
  -7  -5  -2  425.96   18.60
  -7  -5  -2  432.76   21.80
  -7  -5  -2  450.45   20.70
   7   5   2  355.86   22.10
  -8  -5  -2   10.00    3.20
  -8  -5  -2    7.10    2.50
  -8  -5  -2   11.20    3.30
  -8  -5  -2    9.10    3.10
  -8  -5  -2   13.70    3.30
   8   5   2   13.90    4.20
  -9  -5  -2  120.79    7.90
  -9  -5  -2  118.19    7.30
  -9  -5  -2  119.49    7.20
  -9  -5  -2  129.19    8.10
   9   5   2  108.39    8.10
   4  -6  -2  272.07   13.30
   4  -6  -2  284.57   12.60
   4  -6  -2  241.58   11.90
   4  -6  -2  251.37   11.60
   4  -6  -2  276.07   13.30
   4  -6  -2  276.67   13.30
   4  -6  -2  269.97   12.50
  -4   6   2  251.07   13.10
  -4   6   2  258.97   12.90
   3  -6  -2  348.87   17.40
   3  -6  -2  352.96   17.80
   3  -6  -2  340.87   15.30
   3  -6  -2  341.37   17.20
   3  -6  -2  339.27   16.10
   3  -6  -2  342.97   15.60
   3  -6  -2  335.27   17.70
   3  -6  -2  321.67   16.10
   3  -6  -2  345.57   17.00
   3  -6  -2  328.77   15.40
   3  -6  -2  304.47   17.00
   2  -6  -2  157.48   10.70
   2  -6  -2  157.68    8.30
   2  -6  -2  142.79    9.10
   2  -6  -2  136.79   10.40
   2  -6  -2  157.58   10.20
   2  -6  -2  172.88   10.30
   2  -6  -2  138.69   10.20
   2  -6  -2  151.68    8.40
   2  -6  -2  146.69    9.00
   2  -6  -2  151.08    9.00
   1  -6  -2  460.05   21.60
   1  -6  -2  450.55   23.10
   1  -6  -2  461.15   21.10
   1  -6  -2  482.65   20.50
   1  -6  -2  480.25   21.40
   1  -6  -2  488.85   22.90
   1  -6  -2  461.55   23.10
   1  -6  -2  470.55   22.40
   1  -6  -2  452.85   22.10
   1  -6  -2  467.25   23.00
   1  -6  -2  406.16   22.20
   1  -6  -2  457.75   20.10
   0  -6  -2  267.77   14.50
   0  -6  -2  251.87   13.50
   0  -6  -2  268.47   15.20
   0  -6  -2  252.37   13.40
   0  -6  -2  255.97   12.50
   0  -6  -2  252.67   12.70
   0  -6  -2  268.57   12.00
   0  -6  -2  233.48   14.40
   0  -6  -2  237.18   13.50
  -1  -6  -2 1192.38   46.00
  -1  -6  -2 1128.49   47.50
  -1  -6  -2 1160.18   47.90
  -1  -6  -2 1130.79   48.20
  -1  -6  -2 1151.18   46.70
   1   6   2 1074.29   51.49
  -2  -6  -2   84.89    5.80
  -2  -6  -2   81.09    5.30
  -2  -6  -2   78.89    4.30
  -2  -6  -2   79.09    5.80
   2   6   2   79.79    7.90
  -3  -6  -2   46.90    4.10
  -3  -6  -2   43.50    3.00
  -3  -6  -2   49.30    5.80
  -3  -6  -2   46.40    4.40
  -3  -6  -2   47.10    3.90
  -4  -6  -2 2367.36   93.59
  -4  -6  -2 2361.46   91.99
  -4  -6  -2 2271.77   97.19
  -4  -6  -2 2229.28   93.49
  -4  -6  -2 2369.16   94.89
  -5  -6  -2    5.40    2.20
  -5  -6  -2    6.50    2.60
  -5  -6  -2   12.70    2.10
  -5  -6  -2    4.30    2.50
  -5  -6  -2    4.70    3.10
  -5  -6  -2   11.50    2.80
  -6  -6  -2 1819.52   73.59
  -6  -6  -2 1888.51   75.09
  -6  -6  -2 1779.52   77.59
  -6  -6  -2 1991.50   79.79
  -6  -6  -2 1802.52   75.89
  -6  -6  -2 1769.72   72.89
  -6  -6  -2 1875.31   76.19
  -6  -6  -2 1761.42   75.59
  -6  -6  -2 1795.42   72.89
  -6  -6  -2 1858.81   75.89
  -6  -6  -2 1819.02   73.49
  -6  -6  -2 1761.72   74.49
  -7  -6  -2    8.10    2.00
  -7  -6  -2    9.20    2.70
  -7  -6  -2    8.10    3.00
  -7  -6  -2    5.50    2.20
  -7  -6  -2   12.80    2.00
  -7  -6  -2    6.90    2.30
  -7  -6  -2   11.90    4.00
  -7  -6  -2    9.40    2.90
  -7  -6  -2   16.80    3.70
  -7  -6  -2    7.50    2.50
  -8  -6  -2    1.80    2.30
  -8  -6  -2    3.80    2.10
  -8  -6  -2    7.50    2.40
  -8  -6  -2    2.50    1.60
  -8  -6  -2    1.60    2.10
  -8  -6  -2    1.40    1.60
   8   6   2    3.90    3.90
  -9  -6  -2  574.54   25.40
  -9  -6  -2  586.54   24.30
  -9  -6  -2  611.24   26.20
  -9  -6  -2  613.14   26.20
   9   6   2  595.74   26.60
   3  -7  -2    4.20    1.40
   3  -7  -2    6.00    1.20
   3  -7  -2    3.60    1.80
   3  -7  -2    5.60    1.20
   3  -7  -2    5.00    1.70
   2  -7  -2  449.66   18.60
   2  -7  -2  431.56   20.20
   2  -7  -2  436.66   18.70
   2  -7  -2  435.96   19.00
   2  -7  -2  437.46   20.70
   2  -7  -2  429.06   19.80
   2  -7  -2  435.96   19.60
   2  -7  -2  404.06   19.80
   2  -7  -2  446.86   20.50
   1  -7  -2 1221.38   50.19
   1  -7  -2 1282.47   52.19
   1  -7  -2 1230.78   52.69
   1  -7  -2 1263.77   51.79
   1  -7  -2 1319.07   52.19
   1  -7  -2 1270.97   50.59
   1  -7  -2 1227.18   52.49
   1  -7  -2 1214.08   50.79
   1  -7  -2 1175.18   52.89
   0  -7  -2   36.90    4.80
   0  -7  -2   38.20    3.90
   0  -7  -2   35.60    3.30
   0  -7  -2   31.70    2.90
   0  -7  -2   33.70    3.80
   0  -7  -2   33.30    4.70
   0  -7  -2   41.30    5.30
   0  -7  -2   23.40    3.80
   0  -7  -2   35.40    4.40
   0  -7  -2   33.30    2.90
  -1  -7  -2  210.08   10.10
  -1  -7  -2  213.68    9.70
  -1  -7  -2  216.88   11.90
  -1  -7  -2  211.78   11.90
  -1  -7  -2  211.58   10.90
  -1  -7  -2  182.98   10.70
  -1  -7  -2  207.58   12.10
  -1  -7  -2  210.98   11.90
  -1  -7  -2  224.38   11.50
  -2  -7  -2   22.30    3.70
  -2  -7  -2   21.80    2.80
  -2  -7  -2   19.50    2.40
  -2  -7  -2   22.20    2.10
  -2  -7  -2   15.30    3.10
  -2  -7  -2   23.40    3.60
  -2  -7  -2   29.60    4.20
  -2  -7  -2   28.30    3.00
  -2  -7  -2   25.30    4.30
  -3  -7  -2  267.57   11.90
  -3  -7  -2  276.67   12.50
  -3  -7  -2  274.77   13.10
  -3  -7  -2  285.37   13.60
  -3  -7  -2  270.47   14.10
  -3  -7  -2  279.17   14.40
  -3  -7  -2  280.77   14.30
  -3  -7  -2  264.27   13.50
  -3  -7  -2  267.27   14.20
  -4  -7  -2   65.89    5.40
  -4  -7  -2   64.19    7.10
  -4  -7  -2   63.69    3.90
  -4  -7  -2   64.79    5.10
  -4  -7  -2   67.19    5.90
  -4  -7  -2   69.69    4.50
  -4  -7  -2   64.69    4.90
  -4  -7  -2   64.79    5.60
  -5  -7  -2  113.89    9.90
  -5  -7  -2  116.99    6.20
  -5  -7  -2  105.79    5.80
  -5  -7  -2  117.39    8.10
  -5  -7  -2  120.49    7.40
  -5  -7  -2  116.39    6.80
  -5  -7  -2  122.49    7.60
  -5  -7  -2  120.09    8.00
  -5  -7  -2  111.09    7.80
  -5  -7  -2  112.09    8.00
  -5  -7  -2  106.29    5.80
  -6  -7  -2    8.40    1.80
  -6  -7  -2    7.70    2.30
  -6  -7  -2    8.60    2.30
  -6  -7  -2    7.60    2.50
  -6  -7  -2    9.70    2.90
  -6  -7  -2   11.10    1.80
  -6  -7  -2   10.90    2.90
  -6  -7  -2   13.00    3.90
  -6  -7  -2    8.60    2.20
  -7  -7  -2  157.78   11.50
  -7  -7  -2  143.69    9.30
  -7  -7  -2  149.88    7.80
  -7  -7  -2  154.38    8.70
  -7  -7  -2  151.18    7.40
  -7  -7  -2  142.09    9.20
  -7  -7  -2  151.18    8.50
  -7  -7  -2  157.28    9.40
  -7  -7  -2  151.68    9.40
   7   7   2  116.29   13.10
  -8  -7  -2  594.94   28.20
  -8  -7  -2  650.63   26.70
  -8  -7  -2  673.33   27.70
  -8  -7  -2  684.53   28.50
  -8  -7  -2  657.13   28.30
  -8  -7  -2  675.43   26.30
  -8  -7  -2  621.44   27.40
  -8  -7  -2  661.03   28.00
   8   7   2  536.75   31.70
  -9  -7  -2  432.76   19.30
  -9  -7  -2  434.36   19.50
  -9  -7  -2  457.75   19.80
  -9  -7  -2  495.75   20.10
   2  -8  -2 1262.17   48.80
   2  -8  -2 1234.88   49.60
   2  -8  -2 1277.07   49.90
   2  -8  -2 1290.67   50.29
   2  -8  -2 1128.29   49.70
   2  -8  -2 1236.28   49.00
   1  -8  -2   43.40    2.80
   1  -8  -2   44.10    2.80
   1  -8  -2   38.30    3.60
   1  -8  -2   40.70    4.00
   1  -8  -2   38.60    3.60
   1  -8  -2   45.60    3.40
   1  -8  -2   43.60    3.60
   1  -8  -2   45.50    2.80
   1  -8  -2   45.50    4.20
   0  -8  -2   99.29    5.00
   0  -8  -2   95.09    6.70
   0  -8  -2   98.99    6.60
   0  -8  -2   99.99    6.00
   0  -8  -2   90.79    6.00
   0  -8  -2   92.39    4.80
   0  -8  -2   95.39    5.00
   0  -8  -2   88.79    5.60
   0  -8  -2   85.19    6.20
  -1  -8  -2 1014.60   43.50
  -1  -8  -2 1018.30   41.10
  -1  -8  -2 1022.40   40.90
  -1  -8  -2  978.90   42.90
  -1  -8  -2 1015.50   41.20
  -1  -8  -2 1041.00   42.10
  -1  -8  -2 1023.40   42.90
  -1  -8  -2 1042.30   42.60
  -1  -8  -2 1019.90   43.10
  -2  -8  -2  754.42   32.30
  -2  -8  -2  741.33   31.70
  -2  -8  -2  756.52   31.20
  -2  -8  -2  763.52   30.30
  -2  -8  -2  712.43   32.10
  -2  -8  -2  747.53   30.20
  -2  -8  -2  733.53   32.60
  -2  -8  -2  722.13   32.20
  -3  -8  -2 1444.96   59.09
  -3  -8  -2 1443.06   59.29
  -3  -8  -2 1434.96   58.99
  -3  -8  -2 1458.55   58.49
  -3  -8  -2 1396.16   57.09
  -3  -8  -2 1396.56   58.99
  -3  -8  -2 1445.06   57.89
  -3  -8  -2 1403.86   56.79
  -4  -8  -2  604.84   27.70
  -4  -8  -2  630.74   27.80
  -4  -8  -2  639.24   27.30
  -4  -8  -2  629.54   25.80
  -4  -8  -2  642.44   27.00
  -4  -8  -2  656.03   28.10
  -4  -8  -2  628.64   26.10
  -4  -8  -2  600.04   25.60
  -5  -8  -2   15.40    1.90
  -5  -8  -2   18.30    2.60
  -5  -8  -2   29.40    4.00
  -5  -8  -2   12.30    2.50
  -5  -8  -2   24.50    3.40
  -5  -8  -2   18.10    3.30
  -5  -8  -2   15.00    2.20
  -5  -8  -2   24.90    4.70
  -5  -8  -2   19.60    2.00
   5   8   2   14.00    5.60
  -6  -8  -2   45.60    4.80
  -6  -8  -2   51.79    3.40
  -6  -8  -2   49.40    4.30
  -6  -8  -2   59.49    3.40
  -6  -8  -2   47.40    4.70
  -6  -8  -2   51.89    4.90
  -6  -8  -2   47.10    6.10
  -6  -8  -2   52.39    4.30
  -6  -8  -2   50.39    3.80
   6   8   2   37.70    8.30
  -7  -8  -2  648.14   27.20
  -7  -8  -2  655.13   28.10
  -7  -8  -2  611.04   27.80
  -7  -8  -2  629.64   27.80
  -7  -8  -2  651.03   26.50
  -7  -8  -2  653.03   26.20
  -7  -8  -2  645.74   27.00
  -7  -8  -2  613.64   27.80
  -8  -8  -2   10.80    1.90
  -8  -8  -2   10.80    2.00
  -8  -8  -2   11.00    1.50
  -8  -8  -2   11.00    1.80
  -8  -8  -2   10.50    1.40
  -8  -8  -2   10.60    2.10
  -8  -8  -2    8.30    1.80
  -9  -8  -2    4.00    1.10
  -9  -8  -2    4.70    1.20
  -9  -8  -2    5.90    1.00
   0  -9  -2  120.79    6.10
   0  -9  -2  115.79    6.20
   0  -9  -2  119.59    5.30
   0  -9  -2  125.89    6.50
   0  -9  -2  117.39    5.30
  -1  -9  -2  168.68    8.80
  -1  -9  -2  173.08    8.70
  -1  -9  -2  172.28    7.40
  -1  -9  -2  163.98    8.50
  -1  -9  -2  170.78    8.30
  -1  -9  -2  168.78    7.40
  -2  -9  -2  104.69    4.90
  -2  -9  -2  112.29    6.60
  -2  -9  -2  103.69    4.90
  -2  -9  -2  105.49    6.00
  -2  -9  -2  108.99    6.40
  -2  -9  -2  100.49    6.10
  -2  -9  -2   99.19    6.20
  -2  -9  -2  103.19    5.20
  -3  -9  -2   45.60    4.10
  -3  -9  -2   47.30    4.10
  -3  -9  -2   44.80    4.00
  -3  -9  -2   45.70    2.70
  -3  -9  -2   44.20    3.60
  -3  -9  -2   45.40    2.70
  -3  -9  -2   50.09    4.30
  -3  -9  -2   47.80    3.00
  -4  -9  -2  701.03   29.60
  -4  -9  -2  687.63   30.00
  -4  -9  -2  721.83   28.10
  -4  -9  -2  699.93   30.10
  -4  -9  -2  695.93   29.00
  -4  -9  -2  735.13   30.10
  -4  -9  -2  697.53   28.40
  -4  -9  -2  701.33   28.40
  -5  -9  -2   15.00    2.60
  -5  -9  -2   15.00    2.50
  -5  -9  -2   14.80    2.40
  -5  -9  -2   14.60    1.80
  -5  -9  -2   16.20    1.60
  -5  -9  -2   12.20    1.50
  -5  -9  -2   12.50    1.40
  -5  -9  -2   22.90    3.10
  -6  -9  -2 1350.16   52.49
  -6  -9  -2 1358.36   53.89
  -6  -9  -2 1243.58   53.29
  -6  -9  -2 1349.56   52.59
  -6  -9  -2 1371.46   54.19
  -6  -9  -2 1304.27   52.59
  -6  -9  -2 1262.27   53.29
  -6  -9  -2 1338.07   53.99
  -7  -9  -2  140.89    7.40
  -7  -9  -2  133.39    6.40
  -7  -9  -2  134.19    7.30
  -7  -9  -2  136.09    6.40
  -7  -9  -2  141.09    6.30
  -7  -9  -2  147.29    7.40
  -8  -9  -2   19.90    2.10
  -8  -9  -2   19.30    1.40
  -8  -9  -2   19.20    1.50
  -8  -9  -2   19.10    2.00
  -8  -9  -2   19.40    2.00
  -2 -10  -2   28.90    1.60
  -2 -10  -2   33.60    2.50
  -3 -10  -2   56.59    3.40
  -3 -10  -2   59.79    3.60
  -3 -10  -2   58.19    2.70
  -3 -10  -2   57.09    3.60
  -4 -10  -2  178.18    8.40
  -4 -10  -2  174.08    7.50
  -4 -10  -2  182.98    7.50
  -4 -10  -2  177.58    8.30
  -4 -10  -2  179.88    8.40
  -5 -10  -2  238.78   10.70
  -5 -10  -2  232.48    9.70
  -5 -10  -2  233.08    9.80
  -5 -10  -2  242.48   10.70
  -5 -10  -2  238.98   10.70
  -6 -10  -2    4.20    1.10
  -6 -10  -2    2.20    0.60
  -6 -10  -2    4.00    1.10
  -6 -10  -2    1.50    0.90
  -7  -9   3   74.49    3.40
  -6  -9   3  370.76   15.30
  -6  -9   3  385.26   16.10
  -8  -8   3  552.94   21.60
  -8  -8   3  545.45   22.40
  -8  -8   3  513.85   21.30
  -7  -8   3  139.59    6.30
  -7  -8   3  138.29    6.10
  -7  -8   3  132.09    6.40
  -7  -8   3  136.39    7.60
  -7  -8   3  137.19    6.30
  -6  -8   3  332.97   14.10
  -6  -8   3  325.57   14.60
  -6  -8   3  339.17   13.60
  -6  -8   3  334.47   14.00
  -6  -8   3  324.67   18.20
  -6  -8   3  337.17   15.70
  -5  -8   3  213.38   11.00
  -5  -8   3  203.58    9.20
  -5  -8   3  206.18   13.50
  -5  -8   3  213.88    9.20
  -4  -8   3   18.50    1.40
   0  -8   3   81.69    5.60
   1  -8   3  222.68    9.20
   1  -8   3  223.68   10.00
   1  -8   3  211.88    9.10
   1  -8   3  217.48   10.40
  -8  -7   3  198.98    9.30
  -8  -7   3  186.68    8.90
  -8  -7   3  203.48    8.70
  -8  -7   3  190.18   10.00
  -8  -7   3  191.98    9.50
  -7  -7   3   47.00    5.00
  -7  -7   3   48.40    3.50
  -7  -7   3   49.60    3.30
  -7  -7   3   43.00    4.30
  -7  -7   3   49.60    6.90
  -7  -7   3   47.50    6.50
  -7  -7   3   45.70    3.70
  -7  -7   3   43.50    4.70
  -7  -7   3   46.90    4.30
  -6  -7   3  235.68   11.40
  -6  -7   3  228.08   15.80
  -6  -7   3  240.38   13.10
  -6  -7   3  247.08   13.60
  -6  -7   3  240.68   12.40
  -6  -7   3  235.78   10.80
  -5  -7   3   93.59    6.00
  -5  -7   3   89.99    9.30
  -5  -7   3   83.79    6.80
  -5  -7   3   93.59    7.50
  -5  -7   3   86.69    5.10
  -4  -7   3  155.28    9.30
  -4  -7   3  142.99    9.60
  -4  -7   3  147.09    7.50
  -4  -7   3  154.68    6.70
  -4  -7   3  136.39   11.50
   0  -7   3 1388.76   58.19
   0  -7   3 1439.46   56.19
   0  -7   3 1437.46   59.59
   0  -7   3 1391.26   56.29
   1  -7   3  223.38   12.30
   1  -7   3  222.18    9.70
   1  -7   3  207.38   10.00
   1  -7   3  213.08   11.30
   1  -7   3  218.98    9.60
   2  -7   3  452.85   19.00
   2  -7   3  458.05   19.10
   2  -7   3  454.05   19.50
   2  -7   3  477.65   20.40
   2  -7   3  462.85   21.00
   2  -7   3  455.45   21.10
   3  -7   3  587.74   25.20
   3  -7   3  602.74   24.70
   3  -7   3  596.74   24.00
   9   6  -3  324.77   15.70
  -9  -6   3  340.17   15.00
  -9  -6   3  342.47   14.80
  -8  -6   3  382.06   15.40
  -8  -6   3  340.47   15.80
  -8  -6   3  318.67   17.20
  -8  -6   3  356.66   17.20
  -8  -6   3  349.07   16.40
  -8  -6   3  385.06   15.50
  -8  -6   3  344.67   16.70
  -7  -6   3  589.34   30.90
  -7  -6   3  588.44   26.90
  -7  -6   3  635.14   28.10
  -7  -6   3  594.54   26.60
  -7  -6   3  605.34   25.30
  -7  -6   3  580.34   27.80
  -7  -6   3  626.64   25.80
  -7  -6   3  556.04   27.10
  -7  -6   3  603.44   27.90
  -6  -6   3  996.90   41.50
  -6  -6   3  940.91   38.80
  -6  -6   3  943.01   42.10
  -6  -6   3  916.81   41.10
  -6  -6   3  915.51   41.80
  -6  -6   3 1003.80   46.20
  -6  -6   3  901.91   40.60
  -6  -6   3  948.91   40.10
  -5  -6   3 1188.78   47.10
  -5  -6   3 1223.28   54.49
  -5  -6   3 1103.59   46.60
  -5  -6   3 1175.88   50.29
  -5  -6   3 1179.98   47.70
  -5  -6   3 1102.79   49.30
  -5  -6   3 1082.39   49.60
  -5  -6   3 1184.48   48.80
  -4  -6   3  233.68   16.10
  -4  -6   3  238.48   13.30
  -4  -6   3  231.88   10.40
  -4  -6   3  230.38   11.70
  -4  -6   3  236.18   11.50
  -4  -6   3  225.48   10.70
  -4  -6   3  209.28   12.80
  -3  -6   3   27.40    4.50
  -3  -6   3   19.60    2.00
   0  -6   3    4.30    3.10
   0  -6   3    5.20    1.10
   0  -6   3    6.30    1.50
   0  -6   3   10.10    1.50
   0  -6   3    8.40    2.80
   1  -6   3   66.19    6.80
   1  -6   3   64.39    4.00
   1  -6   3   64.09    6.70
   1  -6   3   59.79    4.10
   1  -6   3   59.69    5.80
   1  -6   3   63.09    4.80
   2  -6   3  786.92   35.60
   2  -6   3  838.72   33.50
   2  -6   3  827.02   37.00
   2  -6   3  823.52   33.70
   2  -6   3  788.92   33.90
   2  -6   3  818.22   37.10
   2  -6   3  816.72   35.10
   3  -6   3   67.69    5.50
   3  -6   3   63.79    4.10
   3  -6   3   70.09    4.20
   3  -6   3   61.69    4.90
   3  -6   3   62.19    4.30
   3  -6   3   66.59    6.30
   3  -6   3   67.69    6.10
   4  -6   3  172.98    9.50
   4  -6   3  173.08    8.00
   4  -6   3  171.28    8.00
   4  -6   3  188.88    8.20
   4  -6   3  177.28    9.50
   4  -6   3  170.88    8.70
   9   5  -3   22.80    3.70
  -9  -5   3   29.60    3.30
  -9  -5   3   26.40    3.20
  -8  -5   3 1131.69   47.30
  -8  -5   3 1098.99   46.60
  -8  -5   3 1090.79   44.40
  -8  -5   3 1082.29   46.90
  -7  -5   3  311.77   14.40
  -7  -5   3  330.37   17.40
  -7  -5   3  319.47   17.60
  -7  -5   3  308.77   20.10
  -7  -5   3  325.97   14.70
  -7  -5   3  315.47   17.10
  -7  -5   3  316.47   16.70
  -7  -5   3  306.37   16.10
  -7  -5   3  311.37   16.90
  -6  -5   3  539.05   25.70
  -6  -5   3  529.25   26.00
  -6  -5   3  532.25   26.20
  -6  -5   3  562.24   23.60
  -6  -5   3  545.85   29.30
  -6  -5   3  545.55   24.90
  -6  -5   3  547.95   26.40
  -6  -5   3  528.55   26.40
  -6  -5   3  573.44   30.60
  -6  -5   3  541.45   23.20
  -5  -5   3  633.64   28.70
  -5  -5   3  605.54   26.00
  -5  -5   3  580.14   32.60
  -5  -5   3  555.24   28.40
  -5  -5   3  635.94   32.40
  -5  -5   3  625.44   28.80
  -5  -5   3  579.74   28.20
  -5  -5   3  601.04   26.60
  -5  -5   3  625.04   27.90
  -4  -5   3   18.40    3.90
  -4  -5   3   24.10    3.20
  -4  -5   3   19.70    2.40
  -4  -5   3   37.00    6.70
  -4  -5   3   18.20    2.80
  -4  -5   3   21.80    2.90
  -3  -5   3 4434.76  178.88
  -3  -5   3 4650.23  184.18
  -3  -5   3 4685.93  179.28
  -3  -5   3 4407.26  180.78
  -2  -5   3  617.84   29.70
   0   5  -3  209.48   14.00
   0  -5   3  252.37   10.70
  -1   5  -3  773.32   39.60
   1  -5   3  837.62   39.10
   1  -5   3  890.41   34.50
   1  -5   3  888.51   36.00
   2  -5   3  585.34   27.40
   2  -5   3  562.44   25.80
   2  -5   3  567.14   24.90
   2  -5   3  567.94   23.70
   2  -5   3  543.55   28.20
   2  -5   3  580.94   26.60
   2  -5   3  555.04   25.40
   2  -5   3  543.95   23.80
   3  -5   3  116.19    7.40
   3  -5   3  107.99    8.90
   3  -5   3  106.19    8.10
   3  -5   3  109.89    6.50
   3  -5   3  103.49    8.10
   3  -5   3  112.29    9.60
   3  -5   3  108.29    6.30
  -4   5  -3  112.69    7.50
   4  -5   3  119.09    6.90
   4  -5   3  134.89    9.20
   4  -5   3  108.69    7.30
   4  -5   3  124.59    6.70
   4  -5   3  126.79    8.30
   4  -5   3  115.69    8.40
   4  -5   3  138.19    9.70
   5  -5   3  194.48    9.40
   5  -5   3  189.48    8.70
   5  -5   3  181.38    9.00
   5  -5   3  196.88   10.60
   5  -5   3  204.18   10.70
   5  -5   3  187.58    9.50
   9   4  -3   24.60    4.10
  -9  -4   3   23.10    3.30
  -9  -4   3   22.50    2.40
  -9  -4   3   19.70    2.80
  -9  -4   3   17.80    2.90
   8   4  -3  885.91   45.30
  -8  -4   3 1010.80   43.40
  -8  -4   3 1076.59   43.50
  -8  -4   3  981.90   43.30
  -8  -4   3 1022.70   41.80
  -7  -4   3  155.98   10.20
  -7  -4   3  147.29   10.80
  -7  -4   3  153.78    8.70
  -7  -4   3  147.19   10.50
  -7  -4   3  156.28    9.00
  -7  -4   3  144.89   10.10
  -6  -4   3   30.20    6.40
  -6  -4   3   41.30    6.10
  -6  -4   3   31.10    5.00
  -6  -4   3   34.60    6.40
  -6  -4   3   32.40    4.70
  -6  -4   3   31.60    3.90
  -6  -4   3   42.40    5.70
  -6  -4   3   32.40    5.20
  -6  -4   3   25.70    4.80
  -6  -4   3   36.30    4.00
  -5  -4   3   89.19    6.10
  -5  -4   3   96.49    7.50
  -5  -4   3   92.69    7.90
  -5  -4   3   92.69    7.30
  -5  -4   3   95.99    9.60
  -4  -4   3  801.92   34.50
  -4  -4   3  779.52   34.20
  -4  -4   3  767.42   33.80
  -4  -4   3  782.92   37.10
  -3  -4   3  161.28    8.70
  -3  -4   3  176.58    9.10
  -3  -4   3  183.98   11.70
  -2  -4   3  364.26   18.70
  -2  -4   3  373.56   49.20
   1   4  -3  321.67   60.29
   0   4  -3 2066.19  178.48
  -1   4  -3  450.15   23.10
   1  -4   3  465.35   20.10
   1  -4   3  466.95   20.70
  -2   4  -3  640.04   31.70
   2  -4   3  606.94   31.70
   2  -4   3  648.34   30.00
   2  -4   3  700.23   27.10
   2  -4   3  645.94   28.20
   2  -4   3  658.03   28.70
   3  -4   3 1679.63   68.09
   3  -4   3 1755.62   68.49
   3  -4   3 1702.93   69.79
   3  -4   3 1760.82   70.99
   3  -4   3 1613.64   67.59
   3  -4   3 1775.92   72.79
   3  -4   3 1640.14   69.49
   3  -4   3 1708.33   73.99
   3  -4   3 1652.33   71.39
   3  -4   3 1688.63   70.69
  -4   4  -3    9.80    2.80
   4  -4   3   23.00    2.90
   4  -4   3    7.50    2.90
   4  -4   3   11.30    2.20
   4  -4   3   12.00    3.00
   4  -4   3    9.40    4.10
   4  -4   3   13.50    4.10
   4  -4   3   14.10    3.80
   4  -4   3    6.60    2.80
  -5   4  -3  862.91   38.40
   5  -4   3  872.71   40.00
   5  -4   3  919.71   39.00
   5  -4   3  877.81   40.60
   5  -4   3  955.40   40.70
   5  -4   3  924.61   38.10
   5  -4   3  921.41   37.60
   5  -4   3  942.81   39.60
   5  -4   3  916.81   41.30
   6  -4   3  107.49    6.90
   6  -4   3  100.89    6.40
   6  -4   3  105.59    7.20
   9   3  -3  301.77   14.90
  -9  -3   3  292.17   14.00
  -9  -3   3  277.37   13.70
  -9  -3   3  277.67   13.30
  -9  -3   3  300.37   14.20
   8   3  -3  265.67   16.90
  -8  -3   3  257.37   14.00
  -8  -3   3  257.97   14.40
  -8  -3   3  256.87   14.20
  -8  -3   3  266.47   13.50
  -7  -3   3  794.52   37.20
  -7  -3   3  884.61   39.20
  -7  -3   3  867.81   37.20
  -7  -3   3  826.02   36.30
  -7  -3   3  810.22   37.10
  -6  -3   3 1063.99   44.10
  -6  -3   3  984.90   43.60
  -6  -3   3 1027.70   44.90
  -6  -3   3 1013.00   45.10
  -6  -3   3 1116.49   47.00
  -6  -3   3 1069.69   43.50
  -6  -3   3 1034.40   44.70
  -5  -3   3 2077.69   81.39
  -5  -3   3 2001.30   83.89
  -5  -3   3 1982.10   87.49
  -5  -3   3 2133.79   86.29
  -5  -3   3 2009.20   85.19
  -4  -3   3  219.68   12.20
  -4  -3   3  190.88   11.40
  -4  -3   3  207.68   13.10
  -3  -3   3   13.50    3.20
  -3  -3   3   16.10   14.60
  -2  -3   3 2221.88  141.69
   1   3  -3   89.39   32.10
  -1  -3   3   87.99    4.30
  -1  -3   3   93.99   25.10
   0   3  -3   59.49   31.20
  -1   3  -3   10.90   19.90
  -1   3  -3   17.90    3.50
   1  -3   3   18.10    3.40
  -2   3  -3 1070.89   46.70
   2  -3   3 1063.99   44.20
   2  -3   3 1061.79   46.90
  -3   3  -3  226.28   14.50
   3  -3   3  235.78   12.80
   3  -3   3  233.28   11.00
   3  -3   3  235.58   15.50
   3  -3   3  227.88   11.80
   3  -3   3  279.17   16.50
  -4   3  -3  674.03   30.70
   4  -3   3  725.03   32.80
   4  -3   3  730.03   29.70
   4  -3   3  726.23   31.70
   4  -3   3  708.63   32.60
   4  -3   3  729.33   31.70
   4  -3   3  697.23   30.00
   4  -3   3  697.43   31.90
   4  -3   3  732.23   36.50
   4  -3   3  644.64   34.80
  -5   3  -3  402.96   20.80
  -5   3  -3  452.25   20.70
   5  -3   3  449.16   21.80
   5  -3   3  433.76   21.00
   5  -3   3  445.66   19.50
   5  -3   3  423.86   22.30
   5  -3   3  458.85   20.10
   5  -3   3  483.95   23.30
   5  -3   3  430.36   25.60
   5  -3   3  429.56   24.40
   5  -3   3  444.96   21.20
  -6   3  -3  735.33   32.90
  -6   3  -3  743.43   33.10
   6  -3   3  767.52   35.90
   6  -3   3  804.52   32.00
   6  -3   3  740.83   37.00
   6  -3   3  784.22   34.30
   6  -3   3  818.82   35.00
   9   2  -3   73.69    5.40
  -9  -2   3   62.79    4.80
  -9  -2   3   70.79    5.10
  -9  -2   3   71.89    5.10
   8   2  -3  182.58   12.90
  -8  -2   3  189.98   11.30
  -8  -2   3  183.48   10.70
  -8  -2   3  181.88   11.00
  -8  -2   3  177.08   10.80
  -7  -2   3   46.20    5.30
  -7  -2   3   46.70    5.40
  -7  -2   3   50.59    5.30
  -6  -2   3   62.69    5.70
  -6  -2   3   67.39    5.90
  -6  -2   3   83.89    6.50
  -6  -2   3   63.49    8.10
  -6  -2   3   67.39    8.80
  -5  -2   3  394.26   22.00
  -5  -2   3  374.76   21.20
  -4  -2   3  623.24   78.79
  -4  -2   3  676.23   30.50
  -4  -2   3  638.14   30.40
  -4  -2   3  645.74   30.30
  -3  -2   3 5134.89  279.57
  -3  -2   3 5668.83  214.08
  -2  -2   3 2135.49  135.09
   1   2  -3  762.82   32.90
  -1  -2   3  812.72   71.69
  -1  -2   3  843.22   32.80
   0   2  -3 2315.77  169.68
   0   2  -3 2368.76   97.79
   0  -2   3 2668.23   98.19
  -1   2  -3 5303.37  343.27
  -1   2  -3 7163.28  246.88
  -2   2  -3 1824.62   74.99
   2  -2   3 1831.22   76.09
  -3   2  -3 1531.65   64.39
   3  -2   3 1557.14   66.09
   3  -2   3 1487.25   62.59
  -4   2  -3  105.59    6.70
  -4   2  -3  106.09    8.80
   4  -2   3  107.89    6.40
   4  -2   3  116.59    8.10
   4  -2   3  119.59   10.90
   4  -2   3  113.79   10.50
  -5   2  -3  641.84   28.10
  -5   2  -3  598.54   28.40
   5  -2   3  631.74   26.90
   5  -2   3  625.14   29.90
   5  -2   3  609.74   32.50
   5  -2   3  597.34   30.30
   5  -2   3  672.93   32.80
   5  -2   3  683.93   35.40
   5  -2   3  657.63   29.90
  -6   2  -3  833.12   33.70
  -6   2  -3  730.73   33.60
   6  -2   3  717.83   35.00
   6  -2   3  761.62   34.60
   6  -2   3  748.23   35.10
   6  -2   3  813.72   37.80
   6  -2   3  779.32   40.70
  -7   2  -3   26.70    3.50
  -7   2  -3   26.30    3.50
   7  -2   3   28.50    3.80
   7  -2   3   24.50    4.70
   7  -2   3   24.00    3.90
   8   1  -3  865.51   39.50
  -8  -1   3  901.71   38.90
  -8  -1   3  928.21   38.50
  -8  -1   3  900.01   38.90
   7   1  -3   12.50    5.00
  -7  -1   3   13.40    3.20
  -7  -1   3   16.90    3.60
  -7  -1   3   16.40    3.70
   6   1  -3   28.60    6.60
  -6  -1   3   42.80    4.90
  -6  -1   3   45.90    4.40
  -6  -1   3   40.50    4.80
  -6  -1   3   50.09    4.90
  -6  -1   3   46.70    9.00
  -5  -1   3   44.90    7.50
  -5  -1   3   44.30    3.80
  -4  -1   3  757.12   35.60
  -4  -1   3  757.82   36.40
  -4  -1   3  750.22   90.89
  -3  -1   3  253.27   14.50
  -3  -1   3  254.27   44.70
  -2  -1   3  316.67   43.10
  -2  -1   3  305.17   15.70
   1   1  -3 3068.59  124.69
  -1  -1   3 3169.48  124.49
  -1  -1   3 3208.38  169.88
  -1  -1   3 3246.68  125.29
   0   1  -3 9936.61  439.06
   0   1  -3 8938.91  373.76
   0  -1   3 8944.71  371.46
   0  -1   3 9999.00  421.96
  -1   1  -3    3.20   13.60
   1  -1   3    6.60    1.50
   1  -1   3    8.50    1.30
  -2   1  -3  381.56   63.49
  -2   1  -3  458.15   20.50
   2  -1   3  472.55   19.10
   2  -1   3  480.65   20.20
  -3   1  -3 2130.09  174.08
  -3   1  -3 2107.69   85.89
   3  -1   3 2029.20   87.59
   3  -1   3 2163.08   84.39
  -4   1  -3 1354.76   57.19
  -4   1  -3 1283.57   54.39
   4  -1   3 1371.76   56.19
   4  -1   3 1322.67   55.19
   4  -1   3 1370.46   59.99
  -5   1  -3 1208.68   49.50
  -5   1  -3 1202.38   52.79
   5  -1   3 1173.08   53.69
   5  -1   3 1228.78   56.69
   5  -1   3 1151.08   49.90
  -6   1  -3  372.26   18.90
  -6   1  -3  422.96   18.90
   6  -1   3  378.76   22.20
   6  -1   3  421.86   26.40
   6  -1   3  388.86   20.80
   6  -1   3  396.26   21.80
   6  -1   3  365.36   19.90
  -7   1  -3   39.10    4.40
  -7   1  -3   34.60    4.40
   7  -1   3   40.20    5.20
   7  -1   3   53.69    7.50
   7  -1   3   35.60    5.00
   7  -1   3   47.10    7.00
  -8   1  -3   48.30    4.20
   8  -1   3   50.09    4.40
   8  -1   3   55.29    4.80
  -8   0   3  178.78   10.10
  -8   0   3  177.78   10.10
   7   0  -3  915.21   42.90
  -7   0   3  930.51   40.50
  -7   0   3  922.41   40.50
  -7   0   3  910.81   40.00
  -7   0   3  955.50   39.80
   6   0  -3  404.36   24.50
   6   0  -3  419.86   23.60
   6   0  -3  402.16   23.40
  -6   0   3  428.46   20.00
  -6   0   3  424.46   28.30
  -6   0   3  440.66   20.70
  -6   0   3  448.16   21.00
   5   0  -3 3265.97  136.69
   5   0  -3 3222.08  134.09
  -5   0   3 3362.46  139.19
  -5   0   3 3228.38  130.09
   4   0  -3   27.60    4.80
  -4   0   3   18.60    4.80
   3   0  -3   48.70    4.60
  -3   0   3   49.80   21.00
  -3   0   3   54.09    6.20
   2   0  -3 3264.47  128.39
  -2   0   3 3334.57  180.58
  -2   0   3 3107.39  129.99
  -2   0   3 3193.68  127.39
  -1   0   3  137.49    8.80
  -1   0   3  129.49    6.40
  -1   0   3  142.99   24.10
   0   0  -3 2959.10  153.38
   0   0  -3 2826.52  116.89
   0   0   3 3009.40  116.59
   0   0   3 2842.42  117.59
   0   0   3 3173.18  148.09
  -1   0  -3 1565.94   65.89
  -1   0  -3 1657.43  112.39
   1   0   3 1698.53   65.79
   1   0   3 1678.93   65.89
  -2   0  -3  673.63   74.59
  -2   0  -3  701.83   30.80
   2   0   3  821.82   30.80
   2   0   3  735.63   30.60
  -3   0  -3  583.94   27.70
  -3   0  -3  663.03   82.89
   3   0   3  624.94   27.60
   3   0   3  680.03   27.70
  -4   0  -3  407.66   20.10
  -4   0  -3  473.25  114.79
   4   0   3  409.36   19.70
  -5   0  -3   74.59    5.10
  -5   0  -3   65.79    6.40
   5   0   3   71.29    6.20
  -6   0  -3 1675.53   66.99
  -6   0  -3 1644.44   67.39
   6   0   3 1544.75   67.99
   6   0   3 1676.93   70.29
   6   0   3 1606.04   68.79
  -7   0  -3   21.60    5.40
  -7   0  -3   19.50    3.60
  -7   0  -3   25.30    4.00
  -7   0  -3   18.80    3.80
   7   0   3   20.10    6.30
   7   0   3   20.80    5.10
   7   0   3   15.70    3.70
  -8   0  -3  925.91   38.70
  -8   0  -3  935.21   38.90
   8   0   3  911.41   39.50
   8   0   3  874.01   40.60
   8  -1  -3  182.18   10.30
  -8   1   3  184.68    9.70
  -8   1   3  189.98    9.80
   7  -1  -3  277.47   16.70
  -7   1   3  274.27   14.70
  -7   1   3  284.77   14.30
  -7   1   3  256.17   13.80
  -7   1   3  301.07   15.00
   6  -1  -3  183.08   14.30
  -6   1   3  189.58   11.40
  -6   1   3  183.78   10.50
  -6   1   3  185.58   11.10
  -6   1   3  174.88   11.20
   5  -1  -3   67.49    7.60
   5  -1  -3   72.89    9.30
  -5   1   3   79.49    6.30
  -5   1   3   71.19    5.50
  -5   1   3   68.49    6.10
  -5   1   3   67.19    6.00
   4  -1  -3 1308.67   55.19
  -4   1   3 1239.08   51.99
   3  -1  -3 2521.95  100.09
  -3   1   3 2502.85  102.79
  -3   1   3 2349.56  162.38
   2  -1  -3 2008.50   82.19
   2  -1  -3 2242.28   82.39
  -2   1   3 2055.89  126.49
  -2   1   3 1717.73   82.19
  -2   1   3 2105.99   83.99
   1  -1  -3   20.20    2.80
   1  -1  -3   24.70    2.90
  -1   1   3   29.10    4.10
  -1   1   3   23.00   11.00
  -1   1   3   19.60    3.20
   0  -1  -3  281.97   25.60
   0  -1  -3  221.18   12.20
   0  -1  -3  221.68   12.30
   0  -1  -3  225.98   11.80
   0   1   3  224.88   11.30
  -1  -1  -3 4558.44  207.18
  -1  -1  -3 4423.36  181.38
  -1  -1  -3 4835.92  213.38
   1   1   3 3998.90  182.18
   1   1   3 5080.69  216.78
   1   1   3 4662.43  181.08
  -2  -1  -3   11.30    4.10
  -2  -1  -3    5.60   10.90
  -2  -1  -3   21.90    4.50
  -2  -1  -3   15.80    2.40
  -3  -1  -3 3656.23  201.88
  -3  -1  -3 3302.87  131.19
  -3  -1  -3 2771.62  132.59
   3   1   3 3234.68  131.49
   3   1   3 3512.55  130.89
  -4  -1  -3   90.99    6.50
  -4  -1  -3   75.69    7.90
  -4  -1  -3  119.89   35.70
   4   1   3   98.89    6.90
   4   1   3   90.89    6.20
  -5  -1  -3    2.70    1.40
  -5  -1  -3    8.20    2.70
   5   1   3    5.90    2.30
  -6  -1  -3 1442.06   59.29
  -6  -1  -3 1326.07   59.89
  -6  -1  -3 1482.95   58.99
   6   1   3 1372.86   61.69
   6   1   3 1520.15   63.39
  -7  -1  -3  115.49    7.60
  -7  -1  -3  107.39    7.80
  -7  -1  -3  108.09    8.00
   7   1   3  119.19   10.30
  -8  -1  -3   42.80    4.80
  -8  -1  -3   43.70    5.00
  -8  -1  -3   43.60    4.70
   8   1   3   45.30    6.10
  -9  -1  -3   37.50    3.80
   9   1   3   38.40    3.90
   9   1   3   38.90    4.80
   7  -2  -3  573.24   25.60
   7  -2  -3  526.85   26.20
  -7   2   3  565.04   25.30
  -7   2   3  593.74   25.50
  -7   2   3  547.35   27.40
   6  -2  -3   15.40    4.50
   6  -2  -3   22.70    5.60
  -6   2   3   18.60    3.40
  -6   2   3   23.80    4.20
  -6   2   3   23.30    3.90
  -6   2   3   19.00    3.70
   5  -2  -3  283.27   17.80
   5  -2  -3  268.27   16.20
   5  -2  -3  249.08   14.90
  -5   2   3  271.77   14.80
  -5   2   3  267.67   14.80
  -5   2   3  277.47   14.00
  -5   2   3  251.57   14.40
   4  -2  -3 3027.80  119.59
   4  -2  -3 2682.93  116.59
   3  -2  -3   73.79    8.00
   3  -2  -3   70.49    6.80
   3  -2  -3   62.99    6.00
  -3   2   3   68.39    8.20
   2  -2  -3  171.18   10.00
   2  -2  -3  171.68   10.50
  -2   2   3  178.48   11.20
  -2   2   3  154.28   29.30
   1  -2  -3  430.26   20.10
   1  -2  -3  411.36   19.40
  -1   2   3  418.76   20.40
  -1   2   3  423.96   37.50
   0  -2  -3 3421.66  154.98
   0  -2  -3 3638.34  154.68
   0  -2  -3 3975.30  163.78
   0   2   3 4170.18  161.58
   0   2   3 4255.07  155.78
  -1  -2  -3   74.99    6.20
  -1  -2  -3   77.89    6.10
   1   2   3   82.59    5.70
  -2  -2  -3  152.98   21.10
  -2  -2  -3  133.89    8.40
  -2  -2  -3  146.19    9.40
  -2  -2  -3  146.79    9.30
   2   2   3  171.68   29.20
   2   2   3  150.78    8.40
  -3  -2  -3  837.72   68.39
  -3  -2  -3  814.42   35.00
  -3  -2  -3  729.53   33.70
  -3  -2  -3  727.53   34.90
   3   2   3  811.72   33.40
   3   2   3  793.72   34.80
  -4  -2  -3  769.22   76.89
  -4  -2  -3  690.83   31.70
  -4  -2  -3  694.83   33.20
   4   2   3  737.23   32.90
   4   2   3  713.33   31.00
  -5  -2  -3 2855.41  114.29
  -5  -2  -3 2623.84  118.09
   5   2   3 3120.79  119.99
  -6  -2  -3  764.72   31.20
  -6  -2  -3  636.54   34.80
   6   2   3  733.83   36.40
  -7  -2  -3   84.69    6.80
  -7  -2  -3   81.89    6.90
  -7  -2  -3   82.49    7.00
   7   2   3   95.19   10.00
  -8  -2  -3   63.29    5.60
  -8  -2  -3   54.59    5.70
  -8  -2  -3   42.60    5.10
   8   2   3   57.39    7.90
  -9  -2  -3 1123.19   49.60
  -9  -2  -3 1229.28   50.39
  -9  -2  -3 1188.78   50.69
   9   2   3 1300.97   50.79
   7  -3  -3  527.45   20.50
  -7   3   3  480.05   21.60
  -7   3   3  489.85   22.10
   6  -3  -3   10.80    3.40
   6  -3  -3   14.10    3.30
  -6   3   3   10.20    2.70
  -6   3   3   11.30    3.10
  -6   3   3   26.30    4.10
   5  -3  -3 1870.51   83.29
   5  -3  -3 1763.92   77.49
   5  -3  -3 1830.92   78.29
   5  -3  -3 1903.01   79.89
  -5   3   3 1976.30   76.89
  -5   3   3 1989.60   78.09
  -5   3   3 1711.13   76.89
   4  -3  -3  116.79   11.90
   4  -3  -3  110.49    8.50
   4  -3  -3  120.59    9.60
   4  -3  -3  119.79    7.30
   4  -3  -3  109.69    9.00
   4  -3  -3  124.29   10.70
   4  -3  -3  120.19    8.90
   4  -3  -3  105.99    7.80
  -4   3   3  114.19    8.60
   3  -3  -3   15.10    3.30
   3  -3  -3   15.40    4.70
   3  -3  -3   14.90    3.30
   3  -3  -3   14.10    3.90
   3  -3  -3   21.00    5.60
  -3   3   3   23.20    5.90
   2  -3  -3 4712.13  180.28
   2  -3  -3 4089.79  177.78
   2  -3  -3 4656.63  181.38
  -2   3   3 4413.16  180.68
   1  -3  -3  859.31   36.60
   1  -3  -3  752.52   34.70
  -1   3   3  828.72   37.00
   0  -3  -3 1650.33   67.29
   0  -3  -3 1574.14   68.69
   0   3   3 1735.13   69.29
  -1  -3  -3 3833.12  161.68
  -1  -3  -3 4096.49  160.28
   1   3   3 4199.48  162.18
  -2  -3  -3 3971.90  160.98
  -2  -3  -3 3592.64  149.19
  -2  -3  -3 3674.23  148.09
   2   3   3 3683.93  149.09
  -3  -3  -3  364.46   18.70
  -3  -3  -3  403.56   38.10
  -3  -3  -3  405.16   18.00
  -3  -3  -3  351.86   18.60
   3   3   3  353.86   17.90
  -4  -3  -3  539.25   25.30
  -4  -3  -3  515.15   26.10
  -4  -3  -3  549.05   28.60
  -4  -3  -3  592.84   58.59
  -4  -3  -3  507.65   25.40
  -4  -3  -3  574.34   25.60
   4   3   3  544.35   24.70
  -5  -3  -3   60.39    5.10
  -5  -3  -3   77.29    8.00
  -5  -3  -3   70.99    6.60
  -6  -3  -3  484.35   22.30
  -6  -3  -3  476.25   24.90
  -7  -3  -3   42.70    5.00
  -7  -3  -3   45.60    5.30
  -7  -3  -3   46.40    6.50
  -7  -3  -3   45.60    5.60
   7   3   3   61.19    8.70
  -8  -3  -3  623.84   28.90
  -8  -3  -3  635.84   28.40
  -8  -3  -3  600.14   28.30
   8   3   3  611.24   30.40
  -9  -3  -3   48.00    4.70
  -9  -3  -3   50.89    5.00
  -9  -3  -3   53.29    5.30
   9   3   3   58.99    5.60
   6  -4  -3  154.38    9.00
  -6   4   3  151.58    8.70
  -6   4   3  152.08    8.70
   5  -4  -3   71.99    8.20
   5  -4  -3   90.29    6.30
   5  -4  -3   87.69    7.80
  -5   4   3   92.79    7.60
  -5   4   3  100.49    7.10
  -5   4   3   88.09    7.70
   4  -4  -3  141.09   10.90
   4  -4  -3  153.48   10.70
   4  -4  -3  146.49    9.10
   4  -4  -3  150.78   10.90
   4  -4  -3  135.29    9.40
   4  -4  -3  137.49   12.30
   4  -4  -3  140.59    8.20
  -4   4   3  126.79    9.60
   3  -4  -3  581.34   26.70
   3  -4  -3  633.54   30.10
   3  -4  -3  619.24   29.20
   3  -4  -3  582.54   26.10
   3  -4  -3  560.84   30.80
   3  -4  -3  625.04   29.00
   3  -4  -3  612.24   28.10
   3  -4  -3  629.44   30.00
   3  -4  -3  574.54   27.20
   3  -4  -3  647.64   32.20
   3  -4  -3  602.04   28.40
   3  -4  -3  625.54   28.50
   3  -4  -3  593.04   29.00
   3  -4  -3  579.84   27.90
   2  -4  -3  822.82   36.20
   2  -4  -3  854.51   39.00
   2  -4  -3  832.32   37.60
   2  -4  -3  876.91   39.80
   2  -4  -3  787.22   34.90
  -2   4   3  789.72   39.80
   1  -4  -3   25.30    4.10
   1  -4  -3   27.30    4.60
   1  -4  -3   26.70    4.00
   1  -4  -3   24.50    4.20
  -1   4   3   28.80    5.60
   0  -4  -3  106.39    8.20
   0   4   3  110.09    9.00
  -1  -4  -3 6238.08  243.98
   1   4   3 6042.60  244.78
  -2  -4  -3    4.50    2.40
   2   4   3    3.50    2.60
  -3  -4  -3 5052.39  202.78
  -3  -4  -3 5323.97  199.98
   3   4   3 4900.61  202.58
  -4  -4  -3  312.07   17.70
  -4  -4  -3  311.77   14.50
  -4  -4  -3  304.77   16.70
  -5  -4  -3  997.60   40.80
  -5  -4  -3  974.70   43.50
  -5  -4  -3  896.21   41.40
  -5  -4  -3  951.50   44.00
  -5  -4  -3  937.81   40.70
  -6  -4  -3 2266.17   90.19
  -6  -4  -3 2238.98   89.99
  -6  -4  -3 2090.19   93.19
  -7  -4  -3  895.11   39.80
  -7  -4  -3  890.91   39.70
  -7  -4  -3  904.31   40.20
  -7  -4  -3  920.41   39.50
  -7  -4  -3  889.01   39.40
   7   4   3  862.41   41.70
  -8  -4  -3  166.98   10.20
  -8  -4  -3  150.18   10.30
  -8  -4  -3  149.09   10.20
  -8  -4  -3  148.19   10.40
   8   4   3  153.58   11.50
  -9  -4  -3    9.10    2.70
  -9  -4  -3   10.00    2.70
  -9  -4  -3    9.80    2.60
  -9  -4  -3    9.90    2.70
   9   4   3    8.10    2.90
   5  -5  -3   62.69    4.50
   5  -5  -3   73.09    5.50
   5  -5  -3   63.69    5.00
  -5   5   3   72.19    5.60
  -5   5   3   71.49    5.70
   4  -5  -3 1487.65   58.49
   4  -5  -3 1430.06   58.99
   4  -5  -3 1467.75   60.99
   4  -5  -3 1340.57   61.29
   4  -5  -3 1526.95   62.19
   4  -5  -3 1472.55   61.69
   4  -5  -3 1404.16   61.99
  -4   5   3 1522.65   60.89
   3  -5  -3   10.60    3.80
   3  -5  -3    8.00    3.40
   3  -5  -3    5.90    3.10
   3  -5  -3    6.70    2.10
   3  -5  -3    3.50    2.30
   3  -5  -3   16.50    4.50
   3  -5  -3    7.00    3.20
   3  -5  -3    9.40    3.60
   3  -5  -3    6.30    2.10
   3  -5  -3    3.80    1.90
   3  -5  -3    5.90    2.70
   3  -5  -3    6.50    3.50
  -3   5   3    4.80    2.80
   2  -5  -3  157.48   12.00
   2  -5  -3  163.88    9.20
   2  -5  -3  163.18   11.30
   2  -5  -3  169.18   11.30
   2  -5  -3  178.98   10.90
   2  -5  -3  179.98   12.00
   2  -5  -3  181.58    9.30
   2  -5  -3  162.18   11.40
   2  -5  -3  170.78    9.60
   2  -5  -3  173.08   11.70
   2  -5  -3  179.08   11.90
   2  -5  -3  171.48   10.50
   2  -5  -3  164.28   10.20
   1  -5  -3   22.10    4.70
   1  -5  -3   16.20    3.50
   1  -5  -3   18.40    2.80
   1  -5  -3   14.00    3.60
   1  -5  -3   16.80    3.90
  -1   5   3   15.50    5.10
   0  -5  -3  925.11   41.00
   0  -5  -3  979.20   42.20
   0  -5  -3  929.01   40.50
   0  -5  -3  928.31   41.10
   0   5   3  941.21   43.90
  -1  -5  -3  601.14   27.30
  -1  -5  -3  593.44   26.00
  -1  -5  -3  583.34   26.30
   1   5   3  545.35   28.30
  -2  -5  -3  110.99    7.50
  -2  -5  -3   98.89    8.10
  -2  -5  -3  102.19    6.60
   2   5   3  116.89    8.70
  -3  -5  -3   20.80    2.90
  -3  -5  -3   21.30    3.30
   3   5   3   18.00    3.90
  -4  -5  -3 1352.06   56.29
  -4  -5  -3 1444.56   57.99
  -4  -5  -3 1325.17   58.99
  -4  -5  -3 1289.27   55.69
  -5  -5  -3  463.55   20.50
  -5  -5  -3  471.35   24.90
  -5  -5  -3  482.45   24.20
  -5  -5  -3  454.95   22.30
  -5  -5  -3  488.75   22.10
  -6  -5  -3 1209.98   49.60
  -6  -5  -3 1272.77   54.59
  -6  -5  -3 1182.88   50.39
  -6  -5  -3 1100.59   49.80
  -6  -5  -3 1131.59   48.80
  -6  -5  -3 1110.89   47.50
  -6  -5  -3 1097.49   51.89
  -6  -5  -3 1196.58   52.79
  -6  -5  -3 1120.09   46.90
  -6  -5  -3 1165.68   50.19
  -7  -5  -3  273.27   12.80
  -7  -5  -3  272.97   14.90
  -7  -5  -3  285.97   15.80
  -7  -5  -3  289.67   15.10
  -7  -5  -3  291.47   15.30
  -7  -5  -3  278.77   15.90
   7   5   3  260.57   20.10
  -8  -5  -3   83.59    7.40
  -8  -5  -3   85.49    7.60
  -8  -5  -3   87.49    6.90
  -8  -5  -3   87.99    6.90
   8   5   3   91.29    8.20
  -9  -5  -3 2421.46  100.29
  -9  -5  -3 2524.85  100.69
  -9  -5  -3 2517.65  100.19
  -9  -5  -3 2564.14  100.99
   9   5   3 2470.95  100.79
   4  -6  -3   58.49    4.20
   4  -6  -3   61.89    4.40
   4  -6  -3   61.69    4.80
   4  -6  -3   65.29    5.10
   4  -6  -3   54.59    6.80
  -4   6   3   56.69    5.40
  -4   6   3   58.99    5.10
   3  -6  -3  165.68    9.90
   3  -6  -3  154.38    8.60
   3  -6  -3  149.49    8.90
   3  -6  -3  155.58   10.20
   3  -6  -3  167.18   10.60
   3  -6  -3  157.98    9.10
   3  -6  -3  150.98   10.10
   3  -6  -3  170.18   10.60
   3  -6  -3  157.48    9.80
   3  -6  -3  155.98    9.10
   3  -6  -3  162.78    8.30
   2  -6  -3  702.83   31.60
   2  -6  -3  754.22   32.10
   2  -6  -3  662.73   30.90
   2  -6  -3  670.03   32.70
   2  -6  -3  676.33   31.00
   2  -6  -3  721.33   30.00
   2  -6  -3  716.83   32.70
   2  -6  -3  698.33   30.30
   2  -6  -3  731.93   33.00
   2  -6  -3  720.83   32.10
   2  -6  -3  713.83   32.70
   1  -6  -3 2249.18  107.29
   1  -6  -3 2622.24  103.19
   1  -6  -3 2667.93  107.59
   1  -6  -3 2775.72  104.79
   1  -6  -3 2734.23  107.99
   1  -6  -3 2627.54  105.19
   1  -6  -3 2619.44  106.89
   1  -6  -3 2636.64  107.89
   1  -6  -3 2676.73  107.59
   1  -6  -3 2693.23  106.29
   1  -6  -3 2538.65  105.79
   1  -6  -3 2566.64  107.89
   1  -6  -3 2763.72  106.79
   0  -6  -3   84.89    5.20
   0  -6  -3   77.39    6.40
   0  -6  -3   84.39    7.10
   0  -6  -3   65.29    6.20
   0  -6  -3   74.29    6.90
   0  -6  -3   76.39    6.40
   0  -6  -3   76.69    7.20
   0  -6  -3   83.39    5.80
   0  -6  -3   71.19    6.10
   0  -6  -3   78.29    6.00
   0  -6  -3   82.19    5.90
   0  -6  -3   79.09    7.10
   0  -6  -3   75.39    4.00
  -1  -6  -3  383.66   15.40
  -1  -6  -3  336.17   16.70
  -1  -6  -3  348.07   16.90
  -1  -6  -3  330.87   17.60
  -1  -6  -3  342.67   16.60
   1   6   3  340.57   20.20
  -2  -6  -3  312.67   14.60
  -2  -6  -3  304.67   13.10
  -2  -6  -3  284.37   14.30
  -2  -6  -3  293.87   15.30
   2   6   3  289.57   17.20
  -3  -6  -3    2.30    2.30
  -3  -6  -3    3.20    1.70
  -3  -6  -3   10.90    2.30
  -3  -6  -3    3.50    1.80
  -3  -6  -3    3.30    1.10
   3   6   3    5.70    2.90
  -4  -6  -3 1506.95   66.49
  -4  -6  -3 1466.35   64.49
  -4  -6  -3 1590.44   63.59
  -4  -6  -3 1543.65   61.69
  -4  -6  -3 1597.04   63.29
  -5  -6  -3   25.50    3.50
  -5  -6  -3   18.10    2.90
  -5  -6  -3   24.20    4.40
  -5  -6  -3   22.00    3.60
  -5  -6  -3   20.50    3.60
  -5  -6  -3   18.50    3.90
  -5  -6  -3   17.20    4.30
  -5  -6  -3   22.70    4.10
  -5  -6  -3   18.50    2.40
  -6  -6  -3  141.09    9.00
  -6  -6  -3  145.49    9.70
  -6  -6  -3  135.19    9.40
  -6  -6  -3  174.18   12.40
  -6  -6  -3  152.08    7.50
  -6  -6  -3  135.39    9.30
  -6  -6  -3  149.99    9.80
  -6  -6  -3  142.69    8.80
  -6  -6  -3  137.09   10.70
  -6  -6  -3  142.19    7.80
  -6  -6  -3  154.58    8.50
  -7  -6  -3  154.08   10.10
  -7  -6  -3  139.39    9.30
  -7  -6  -3  140.49    7.50
  -7  -6  -3  148.39    9.00
  -7  -6  -3  166.08   10.40
  -7  -6  -3  156.48   10.00
  -7  -6  -3  146.59    8.10
  -7  -6  -3  165.08    9.60
  -7  -6  -3  159.18    8.80
   7   6   3  119.59   13.30
  -8  -6  -3  612.14   27.00
  -8  -6  -3  640.04   27.10
  -8  -6  -3  581.84   26.10
  -8  -6  -3  567.94   25.80
  -8  -6  -3  602.14   25.40
   8   6   3  490.65   29.70
  -9  -6  -3    3.70    2.00
  -9  -6  -3    2.20    1.20
  -9  -6  -3    4.90    1.90
  -9  -6  -3    4.80    1.70
   3  -7  -3  367.06   16.80
   3  -7  -3  405.96   17.10
   3  -7  -3  401.16   17.30
   3  -7  -3  416.06   17.90
   3  -7  -3  412.36   17.90
   3  -7  -3  399.06   16.60
   2  -7  -3  127.09    8.30
   2  -7  -3  123.49    7.60
   2  -7  -3  124.69    7.00
   2  -7  -3  131.99    8.10
   2  -7  -3  135.49    8.40
   2  -7  -3  117.69    7.70
   2  -7  -3  124.29    6.70
   2  -7  -3  127.89    7.40
   2  -7  -3  127.99    6.50
   1  -7  -3  148.99    9.10
   1  -7  -3  138.29    9.60
   1  -7  -3  150.28    9.50
   1  -7  -3  153.38    8.80
   1  -7  -3  160.28    7.90
   1  -7  -3  145.19    8.20
   1  -7  -3  159.28    9.20
   1  -7  -3  149.09    9.60
   1  -7  -3  148.89    7.60
   1  -7  -3  145.79    9.10
   0  -7  -3   17.30    3.40
   0  -7  -3   20.80    2.90
   0  -7  -3   18.50    3.20
   0  -7  -3   15.40    2.20
   0  -7  -3   12.30    2.60
   0  -7  -3   21.70    4.00
   0  -7  -3   15.80    2.30
   0  -7  -3   18.50    4.00
   0  -7  -3   11.70    2.90
   0  -7  -3   12.60    3.10
  -1  -7  -3 1194.28   49.00
  -1  -7  -3 1165.78   48.20
  -1  -7  -3 1264.07   49.60
  -1  -7  -3 1124.69   48.90
  -1  -7  -3 1127.69   48.10
  -1  -7  -3 1113.39   49.00
  -1  -7  -3 1141.89   47.20
  -1  -7  -3  988.90   48.30
  -1  -7  -3 1188.48   46.20
  -1  -7  -3 1198.38   46.60
  -2  -7  -3   85.49    4.80
  -2  -7  -3   86.69    5.30
  -2  -7  -3   78.29    6.10
  -2  -7  -3   89.09    6.70
  -2  -7  -3   88.99    6.70
  -2  -7  -3   81.09    6.40
  -2  -7  -3   86.59    6.00
  -2  -7  -3   88.49    5.90
  -2  -7  -3   79.29    6.50
  -3  -7  -3  776.82   30.70
  -3  -7  -3  730.93   32.10
  -3  -7  -3  724.33   31.40
  -3  -7  -3  749.82   32.80
  -3  -7  -3  764.02   33.10
  -3  -7  -3  727.53   32.80
  -3  -7  -3  760.42   32.80
  -3  -7  -3  759.82   31.40
  -3  -7  -3  750.02   32.90
  -3  -7  -3  743.73   32.10
  -4  -7  -3  335.47   15.20
  -4  -7  -3  297.47   13.40
  -4  -7  -3  311.77   15.70
  -4  -7  -3  310.77   14.40
  -4  -7  -3  309.07   16.00
  -4  -7  -3  313.27   15.70
  -4  -7  -3  331.37   18.30
  -4  -7  -3  333.47   16.00
  -4  -7  -3  310.27   15.20
  -4  -7  -3  308.97   13.80
  -4  -7  -3  336.47   16.00
   4   7   3  251.47   19.80
  -5  -7  -3  702.53   30.40
  -5  -7  -3  682.83   29.80
  -5  -7  -3  694.93   28.60
  -5  -7  -3  679.73   29.30
  -5  -7  -3  658.43   31.30
  -5  -7  -3  690.73   30.60
  -5  -7  -3  639.34   28.10
  -5  -7  -3  688.73   30.60
  -5  -7  -3  699.43   30.70
  -5  -7  -3  716.13   33.60
  -6  -7  -3  939.61   38.50
  -6  -7  -3  965.90   39.30
  -6  -7  -3  865.11   39.00
  -6  -7  -3  900.61   39.20
  -6  -7  -3  893.71   39.00
  -6  -7  -3  891.31   35.80
  -6  -7  -3  900.71   38.00
  -6  -7  -3  965.30   42.50
  -6  -7  -3  881.51   37.00
  -6  -7  -3  893.81   36.60
   6   7   3  788.72   45.00
  -7  -7  -3  680.43   26.90
  -7  -7  -3  629.04   28.30
  -7  -7  -3  670.63   28.10
  -7  -7  -3  621.74   26.30
  -7  -7  -3  641.94   25.70
  -7  -7  -3  634.04   28.70
  -7  -7  -3  622.04   27.70
  -7  -7  -3  660.53   28.80
  -7  -7  -3  643.84   28.80
   7   7   3  545.05   33.30
  -8  -7  -3  180.88    9.90
  -8  -7  -3  172.18    7.90
  -8  -7  -3  170.58    9.10
  -8  -7  -3  183.48    9.80
  -8  -7  -3  155.38   10.70
  -8  -7  -3  173.18    9.30
  -8  -7  -3  166.18    9.00
   8   7   3  144.99   12.40
  -9  -7  -3   24.20    2.90
  -9  -7  -3   22.80    2.50
  -9  -7  -3   25.70    2.90
   2  -8  -3  523.85   21.50
   2  -8  -3  532.55   21.70
   2  -8  -3  498.75   21.60
   2  -8  -3  515.15   20.90
   2  -8  -3  512.15   20.80
   2  -8  -3  517.85   21.90
   1  -8  -3  230.68   11.70
   1  -8  -3  227.08   11.30
   1  -8  -3  217.78   10.90
   1  -8  -3  234.28   10.30
   1  -8  -3  224.28   11.00
   1  -8  -3  228.48   10.20
   1  -8  -3  238.08   11.50
   1  -8  -3  244.58   11.00
   1  -8  -3  226.18   10.10
   0  -8  -3  174.78    8.70
   0  -8  -3  157.88    7.60
   0  -8  -3  168.08    8.90
   0  -8  -3  166.98    7.80
   0  -8  -3  161.98    7.90
   0  -8  -3  167.98    9.40
   0  -8  -3  157.38    9.40
   0  -8  -3  157.28    8.80
   0  -8  -3  161.78    9.20
   0  -8  -3  157.28    8.60
  -1  -8  -3  599.24   25.20
  -1  -8  -3  591.24   24.70
  -1  -8  -3  568.84   26.60
  -1  -8  -3  603.74   26.70
  -1  -8  -3  627.34   26.90
  -1  -8  -3  626.64   26.40
  -1  -8  -3  566.94   27.00
  -1  -8  -3  622.94   25.00
  -1  -8  -3  612.14   26.20
  -2  -8  -3  449.16   21.40
  -2  -8  -3  450.45   21.00
  -2  -8  -3  442.76   21.10
  -2  -8  -3  446.46   19.00
  -2  -8  -3  465.25   19.60
  -2  -8  -3  459.85   19.20
  -2  -8  -3  481.75   20.70
  -2  -8  -3  475.85   20.40
  -2  -8  -3  444.46   21.00
  -3  -8  -3   14.40    2.90
  -3  -8  -3   11.10    2.70
  -3  -8  -3    7.00    1.80
  -3  -8  -3   11.10    2.70
  -3  -8  -3    6.40    1.30
  -3  -8  -3   10.50    2.50
  -3  -8  -3    7.80    1.30
  -3  -8  -3    7.20    1.50
  -3  -8  -3    8.20    2.10
  -4  -8  -3  401.96   19.20
  -4  -8  -3  418.76   17.80
  -4  -8  -3  426.56   18.70
  -4  -8  -3  413.26   18.50
  -4  -8  -3  411.96   19.20
  -4  -8  -3  394.16   19.00
  -4  -8  -3  402.46   17.30
  -4  -8  -3  387.16   17.00
  -5  -8  -3   92.79    5.00
  -5  -8  -3   92.49    5.60
  -5  -8  -3  102.89    6.90
  -5  -8  -3   98.99    6.30
  -5  -8  -3   96.49    6.80
  -5  -8  -3   97.99    5.20
  -5  -8  -3   92.59    6.10
   5   8   3   76.19   10.10
  -6  -8  -3  316.77   14.90
  -6  -8  -3  335.07   15.40
  -6  -8  -3  349.67   14.50
  -6  -8  -3  320.87   16.00
  -6  -8  -3  325.57   16.00
  -6  -8  -3  316.47   14.10
  -6  -8  -3  327.67   16.10
  -6  -8  -3  337.17   16.00
  -7  -8  -3  363.26   16.30
  -7  -8  -3  371.26   16.20
  -7  -8  -3  349.87   15.40
  -7  -8  -3  361.76   16.90
  -7  -8  -3  374.06   15.20
  -7  -8  -3  367.46   17.00
  -7  -8  -3  367.76   16.90
  -7  -8  -3  351.46   16.90
   7   8   3  301.07   20.60
  -8  -8  -3  245.38   11.70
  -8  -8  -3  241.08   11.40
  -8  -8  -3  252.07   11.70
  -8  -8  -3  233.28   10.20
  -8  -8  -3  215.28   10.40
  -8  -8  -3  244.58   11.10
  -8  -8  -3  235.08   11.10
  -9  -8  -3  831.32   32.90
  -9  -8  -3  813.12   33.10
  -9  -8  -3  792.72   33.10
   0  -9  -3  130.19    6.70
   0  -9  -3  125.99    6.50
   0  -9  -3  126.19    5.70
   0  -9  -3  129.99    5.70
   0  -9  -3  126.69    6.00
   0  -9  -3  120.79    6.40
  -1  -9  -3  301.47   11.80
  -1  -9  -3  279.67   13.10
  -1  -9  -3  291.47   13.40
  -1  -9  -3  301.87   12.20
  -1  -9  -3  272.47   12.80
  -1  -9  -3  311.27   13.60
  -1  -9  -3  284.47   12.20
  -1  -9  -3  309.87   13.90
  -1  -9  -3  274.27   13.00
  -2  -9  -3  845.52   35.30
  -2  -9  -3  847.62   35.30
  -2  -9  -3  831.42   33.80
  -2  -9  -3  830.62   33.80
  -2  -9  -3  838.02   34.90
  -2  -9  -3  879.41   35.70
  -2  -9  -3  816.12   34.40
  -2  -9  -3  837.52   35.20
  -2  -9  -3  868.71   33.60
  -3  -9  -3   17.80    2.80
  -3  -9  -3   18.50    1.60
  -3  -9  -3   15.60    1.90
  -3  -9  -3   16.70    1.50
  -3  -9  -3   21.00    3.00
  -3  -9  -3   17.90    2.70
  -3  -9  -3   19.40    2.70
  -3  -9  -3   17.60    1.60
  -3  -9  -3   15.70    2.40
  -4  -9  -3 1743.03   70.59
  -4  -9  -3 1718.33   70.59
  -4  -9  -3 1750.82   70.59
  -4  -9  -3 1775.32   70.19
  -4  -9  -3 1695.53   69.79
  -4  -9  -3 1739.23   68.99
  -4  -9  -3 1783.02   70.69
  -4  -9  -3 1746.63   68.89
  -4  -9  -3 1743.63   68.99
  -5  -9  -3  235.68   11.80
  -5  -9  -3  229.98   11.20
  -5  -9  -3  219.48   11.00
  -5  -9  -3  254.27   12.00
  -5  -9  -3  232.78   11.70
  -5  -9  -3  242.88   10.30
  -5  -9  -3  240.78   10.40
  -5  -9  -3  242.18   10.40
  -6  -9  -3    1.10    0.90
  -6  -9  -3    2.30    1.40
  -6  -9  -3    1.30    0.70
  -6  -9  -3    1.80    0.80
  -6  -9  -3    2.80    1.60
  -6  -9  -3    2.50    0.90
  -6  -9  -3    4.50    1.60
  -6  -9  -3    2.70    1.40
  -7  -9  -3   69.49    3.90
  -7  -9  -3   79.09    4.50
  -7  -9  -3   70.59    4.70
  -7  -9  -3   76.69    4.10
  -7  -9  -3   71.19    3.80
  -7  -9  -3   85.19    5.00
  -7  -9  -3   75.49    4.80
  -8  -9  -3  334.57   14.60
  -8  -9  -3  333.37   13.80
  -8  -9  -3  336.27   14.60
  -8  -9  -3  342.37   14.60
  -8  -9  -3  346.97   14.10
  -2 -10  -3   90.29    4.10
  -2 -10  -3   93.29    4.80
  -2 -10  -3   98.39    5.00
  -2 -10  -3   93.79    5.30
  -3 -10  -3  285.17   12.50
  -3 -10  -3  287.37   12.50
  -3 -10  -3  286.57   11.80
  -3 -10  -3  279.27   12.40
  -3 -10  -3  279.87   12.30
  -3 -10  -3  282.37   11.60
  -4 -10  -3  183.08    8.30
  -4 -10  -3  173.28    8.30
  -4 -10  -3  177.48    8.30
  -4 -10  -3  169.58    7.30
  -4 -10  -3  167.78    7.30
  -5 -10  -3  290.37   12.70
  -5 -10  -3  291.87   12.70
  -5 -10  -3  286.77   11.70
  -5 -10  -3  285.47   12.60
  -5 -10  -3  275.47   11.70
  -6 -10  -3  353.96   15.50
  -6 -10  -3  368.96   14.80
  -6 -10  -3  368.06   15.60
  -6 -10  -3  367.16   15.60
  -7 -10  -3  763.52   30.50
  -6  -9   4   86.29    3.90
  -7  -8   4   47.60    2.80
  -7  -8   4   50.49    2.80
  -7  -8   4   48.60    2.80
  -7  -8   4   48.70    3.60
  -6  -8   4    5.00    1.00
  -6  -8   4    6.20    1.10
  -6  -8   4    0.80    1.30
  -6  -8   4    5.60    1.20
  -5  -8   4  220.48   14.00
  -5  -8   4  236.88   12.30
  -5  -8   4  242.58   10.00
   1  -8   4   33.60    1.90
   1  -8   4   31.10    2.40
  -8  -7   4  298.57   13.60
  -8  -7   4  323.57   14.50
  -8  -7   4  325.17   13.30
  -8  -7   4  318.57   13.70
  -7  -7   4  135.29    6.90
  -7  -7   4  126.79   11.30
  -7  -7   4  132.99    6.70
  -7  -7   4  124.79    7.40
  -7  -7   4  133.59    6.50
  -7  -7   4  130.89    8.30
  -7  -7   4  136.19    8.10
  -7  -7   4  132.09    7.80
  -6  -7   4 1372.96   56.29
  -6  -7   4 1363.16   55.69
  -6  -7   4 1373.86   56.99
  -6  -7   4 1318.87   53.99
  -6  -7   4 1368.86   54.49
  -6  -7   4 1290.17   59.79
  -5  -7   4  170.28    8.90
  -5  -7   4  160.48   12.70
  -5  -7   4  164.18    7.80
  -5  -7   4  158.78   10.40
  -5  -7   4  165.08    9.90
  -4  -7   4   16.80    4.80
  -4  -7   4   16.20    1.90
  -4  -7   4   17.10    3.50
   0  -7   4   43.10    4.20
   0  -7   4   48.00    2.70
   1  -7   4   91.49    4.60
   1  -7   4   85.59    5.80
   1  -7   4   94.19    6.10
   1  -7   4   92.79    4.70
   1  -7   4   95.79    6.80
   2  -7   4  322.67   15.30
   2  -7   4  319.67   13.40
   2  -7   4  302.17   14.90
   2  -7   4  320.27   13.40
   2  -7   4  329.87   14.60
   3  -7   4   75.59    3.60
   3  -7   4   73.59    4.10
   3  -7   4   79.79    4.80
  -8  -6   4   49.40    3.40
  -8  -6   4   53.59    4.10
  -8  -6   4   48.60    3.40
  -8  -6   4   49.99    3.70
  -8  -6   4   61.99    4.90
  -7  -6   4   96.19    9.60
  -7  -6   4   97.09    7.30
  -7  -6   4   98.39    7.60
  -7  -6   4   92.99    6.90
  -7  -6   4   99.19    6.50
  -7  -6   4   98.49    7.70
  -7  -6   4  101.99    5.70
  -6  -6   4   11.70    3.00
  -6  -6   4   17.80    4.00
  -6  -6   4   18.80    2.60
  -6  -6   4   13.10    2.70
  -6  -6   4   19.60    3.70
  -6  -6   4   16.20    5.30
  -6  -6   4   14.70    3.70
  -5  -6   4  298.67   16.80
  -5  -6   4  287.07   16.20
  -5  -6   4  306.27   13.70
  -5  -6   4  312.67   14.50
  -5  -6   4  290.37   15.80
  -5  -6   4  332.07   20.50
  -5  -6   4  319.57   15.60
  -5  -6   4  311.77   14.10
  -4  -6   4  311.37   14.60
  -4  -6   4  308.17   17.70
  -4  -6   4  317.27   19.70
  -4  -6   4  311.47   13.80
  -4  -6   4  304.27   13.50
  -4  -6   4  300.87   14.60
  -4  -6   4  300.87   16.50
  -3  -6   4 1649.13   68.39
  -3  -6   4 1648.83   71.79
  -3  -6   4 1589.04   64.69
  -3  -6   4 1668.43   65.49
   0  -6   4 1799.72   66.29
   0  -6   4 1576.24   68.89
   0  -6   4 1735.93   76.49
   0  -6   4 1581.54   66.89
   1  -6   4  316.97   13.20
   1  -6   4  279.17   15.30
   1  -6   4  311.07   16.50
   1  -6   4  294.37   14.10
   1  -6   4  291.07   16.70
   1  -6   4  290.07   13.10
   2  -6   4  629.44   28.40
   2  -6   4  660.53   27.20
   2  -6   4  672.93   27.10
   2  -6   4  661.63   30.30
   2  -6   4  635.04   27.30
   2  -6   4  679.53   30.80
   2  -6   4  630.04   29.10
   3  -6   4   95.99    7.30
   3  -6   4   90.19    4.90
   3  -6   4   93.99    6.20
   3  -6   4   84.99    6.90
   3  -6   4   84.59    5.70
   3  -6   4   90.69    5.00
   3  -6   4   78.59    4.80
   4  -6   4  115.09    5.50
   4  -6   4  115.79    6.20
   4  -6   4  122.29    8.10
   4  -6   4  109.29    6.70
   4  -6   4  123.69    5.40
   9   5  -4  203.28   11.00
  -9  -5   4  208.08   10.10
  -8  -5   4  736.63   31.30
  -8  -5   4  729.93   31.80
  -8  -5   4  682.53   31.20
  -7  -5   4   40.40    5.80
  -7  -5   4   30.00    4.50
  -7  -5   4   33.90    6.60
  -7  -5   4   45.10    5.70
  -7  -5   4   41.00    4.70
  -7  -5   4   43.70    3.10
  -7  -5   4   38.70    5.20
  -7  -5   4   41.50    3.80
  -7  -5   4   46.80    5.70
  -6  -5   4   40.80    3.00
  -6  -5   4   45.00    7.70
  -6  -5   4   45.60    4.70
  -6  -5   4   48.90    6.20
  -6  -5   4   42.70    5.30
  -6  -5   4   33.40    5.00
  -6  -5   4   46.80    6.50
  -6  -5   4   43.30    4.00
  -5  -5   4 1648.94   67.99
  -5  -5   4 1660.83   68.69
  -5  -5   4 1562.24   67.99
  -5  -5   4 1558.24   68.09
  -5  -5   4 1570.84   65.39
  -5  -5   4 1637.94   68.59
  -5  -5   4 1639.94   65.89
  -5  -5   4 1730.33   73.29
  -5  -5   4 1628.84   66.39
  -4  -5   4   13.30    3.50
  -4  -5   4   17.20    2.40
  -4  -5   4   26.80    3.30
  -4  -5   4   17.10    2.80
  -4  -5   4   25.90    6.00
  -3  -5   4  167.18    9.90
  -3  -5   4  172.08    7.80
  -3  -5   4  163.58    8.40
  -3  -5   4  159.68   11.90
  -3  -5   4  152.08    8.20
  -2  -5   4  249.88   14.90
  -2  -5   4  243.78   10.70
  -2  -5   4  232.98   12.50
   0   5  -4   53.29    6.20
   0  -5   4   53.69    6.70
   0  -5   4   55.09    3.70
  -1   5  -4    2.80    2.80
   1  -5   4    8.50    1.90
   1  -5   4    2.90    2.50
   1  -5   4    8.10    3.30
   1  -5   4    5.40    1.20
   1  -5   4   14.80    4.40
   1  -5   4    6.00    1.80
   2  -5   4  212.68   10.00
   2  -5   4  216.38   11.10
   2  -5   4  214.78   12.60
   2  -5   4  226.48   13.30
   2  -5   4  217.48   12.00
   2  -5   4  210.48   10.20
   2  -5   4  202.48   14.10
   3  -5   4 1567.44   62.49
   3  -5   4 1494.45   61.99
   3  -5   4 1474.05   59.89
   3  -5   4 1487.35   64.29
   3  -5   4 1461.25   62.99
   3  -5   4 1462.45   59.59
   3  -5   4 1395.46   60.69
   4  -5   4   28.10    2.80
   4  -5   4   36.70    5.60
   4  -5   4   21.30    3.90
   4  -5   4   39.00    3.30
   4  -5   4   23.70    3.90
   4  -5   4   24.80    3.80
   4  -5   4   34.30    3.50
   5  -5   4  615.54   26.20
   5  -5   4  662.13   26.20
   5  -5   4  632.04   27.30
   5  -5   4  593.94   25.40
   5  -5   4  624.64   27.30
   9   4  -4   10.70    2.80
  -9  -4   4    7.50    1.80
  -9  -4   4    8.30    2.40
  -8  -4   4  628.54   30.10
  -8  -4   4  692.93   30.30
  -8  -4   4  692.53   28.60
  -7  -4   4  679.23   28.60
  -7  -4   4  635.84   30.30
  -7  -4   4  632.54   30.40
  -7  -4   4  697.13   31.50
  -7  -4   4  657.73   28.50
  -7  -4   4  659.63   30.30
  -6  -4   4 1620.94   75.39
  -6  -4   4 1830.22   74.19
  -6  -4   4 1832.82   78.79
  -6  -4   4 1787.02   70.99
  -6  -4   4 1650.73   72.99
  -6  -4   4 1798.82   74.89
  -6  -4   4 1694.73   73.79
  -6  -4   4 1763.82   72.79
  -6  -4   4 1789.92   71.29
  -6  -4   4 1755.52   72.99
  -5  -4   4  541.45   26.10
  -5  -4   4  543.65   29.20
  -5  -4   4  551.24   24.20
  -5  -4   4  540.75   25.80
  -5  -4   4  550.14   26.80
  -5  -4   4  537.15   26.10
  -4  -4   4   35.20    4.20
  -4  -4   4   36.10    3.70
  -4  -4   4   37.20    4.20
  -4  -4   4   36.10    5.80
  -4  -4   4   29.50    3.90
  -3  -4   4 1004.10   42.10
  -3  -4   4 1017.90   45.30
  -2  -4   4 3712.03  142.29
  -2  -4   4 3759.42  145.69
  -2  -4   4 3321.17  204.98
   1   4  -4  457.15   79.79
  -1  -4   4  565.84   24.80
   0   4  -4 1125.99   49.60
   0  -4   4 1173.58   46.20
  -1   4  -4  102.79    8.30
   1  -4   4  100.69    5.90
   1  -4   4   93.99    5.30
  -2   4  -4  343.47   20.00
   2  -4   4  340.87   20.30
   2  -4   4  371.16   18.40
   2  -4   4  348.17   17.10
   2  -4   4  367.86   15.50
   3  -4   4 1108.99   47.00
   3  -4   4 1157.98   49.50
   3  -4   4 1031.20   50.59
   3  -4   4 1133.89   48.10
   3  -4   4 1075.59   45.20
   3  -4   4 1117.89   47.80
   3  -4   4 1127.99   48.60
   3  -4   4 1130.49   45.60
  -4   4  -4   29.30    3.90
   4  -4   4   41.10    6.10
   4  -4   4   35.30    4.90
   4  -4   4   40.80    5.30
   4  -4   4   33.40    5.40
   4  -4   4   41.80    5.20
   4  -4   4   36.40    3.60
   4  -4   4   34.60    6.60
   4  -4   4   44.10    3.60
  -5   4  -4   35.00    3.90
   5  -4   4   35.90    5.60
   5  -4   4   40.30    5.20
   5  -4   4   38.20    3.70
   5  -4   4   40.10    4.50
   5  -4   4   30.40    5.00
   5  -4   4   40.30    4.50
   5  -4   4   38.90    3.40
   6  -4   4  178.08    9.20
   6  -4   4  183.68    9.60
   9   3  -4  153.08    9.00
  -9  -3   4  151.58    8.30
  -9  -3   4  166.38    8.70
  -9  -3   4  160.58    7.70
   8   3  -4   12.20    4.70
  -8  -3   4   10.40    2.90
  -8  -3   4   13.80    2.80
  -7  -3   4  965.00   42.90
  -7  -3   4  899.01   40.70
  -7  -3   4  922.51   40.70
  -7  -3   4  934.51   39.80
  -6  -3   4   69.59    6.60
  -6  -3   4   79.49    6.60
  -6  -3   4   81.29    6.50
  -6  -3   4   78.49    8.40
  -6  -3   4   89.59    6.40
  -5  -3   4    7.90    3.70
  -5  -3   4   11.60    3.70
  -5  -3   4   17.40    4.60
  -5  -3   4   10.70    3.10
  -5  -3   4   13.30    3.20
  -5  -3   4   12.60    3.90
  -4  -3   4   23.40    3.90
  -4  -3   4   26.30    4.50
  -4  -3   4   28.50    4.60
  -3  -3   4 1954.90  148.09
  -3  -3   4 2288.87   90.89
  -3  -3   4 2341.87   94.19
  -2  -3   4   19.70   16.30
   1   3  -4   19.30   20.40
   1   3  -4   21.40    2.60
   0   3  -4 3897.21  146.89
   0  -3   4 3452.25  144.59
  -1   3  -4 2535.75   99.79
   1  -3   4 2413.66   97.29
   1  -3   4 2384.06   99.59
  -2   3  -4 1232.68   52.89
   2  -3   4 1163.48   53.09
   2  -3   4 1248.78   50.29
  -3   3  -4 1118.79   50.49
   3  -3   4 1077.89   51.29
   3  -3   4 1052.69   51.19
   3  -3   4 1208.08   48.20
   3  -3   4 1160.38   45.90
  -4   3  -4  330.27   16.30
   4  -3   4  336.47   17.50
   4  -3   4  339.27   21.50
   4  -3   4  337.97   15.90
   4  -3   4  352.66   17.40
   4  -3   4  332.27   20.70
   4  -3   4  349.96   18.40
   4  -3   4  352.26   17.40
   4  -3   4  366.36   18.50
   4  -3   4  343.27   15.50
  -5   3  -4  301.07   15.00
   5  -3   4  294.77   18.80
   5  -3   4  288.07   15.30
   5  -3   4  305.87   16.10
   5  -3   4  317.87   17.10
   5  -3   4  297.77   14.00
   5  -3   4  304.07   19.70
   5  -3   4  309.57   14.60
   5  -3   4  297.47   17.10
   5  -3   4  315.97   15.20
  -6   3  -4  597.84   28.30
   6  -3   4  680.53   30.10
   6  -3   4  676.43   31.40
   6  -3   4  707.83   30.70
  -9  -2   4   63.69    4.30
   8   2  -4  804.72   36.50
  -8  -2   4  785.12   34.60
  -8  -2   4  792.12   34.70
  -8  -2   4  782.12   34.20
  -8  -2   4  776.02   34.30
  -7  -2   4  113.69    8.40
  -7  -2   4  115.39    8.40
  -7  -2   4  119.79    8.40
  -7  -2   4  117.29    8.70
  -6  -2   4   48.80    5.30
  -6  -2   4   48.30    7.60
  -6  -2   4   55.99    5.70
  -6  -2   4   56.39    5.50
  -6  -2   4   58.19    7.40
  -5  -2   4 2868.11  121.89
  -5  -2   4 3034.10  125.39
  -4  -2   4  759.32   34.80
  -4  -2   4  701.23   34.50
  -4  -2   4  813.62   35.70
  -4  -2   4  765.82   35.50
  -3  -2   4  180.88    9.20
  -3  -2   4  149.69   35.30
  -2  -2   4  683.33   71.79
   1   2  -4 2850.61  117.79
  -1  -2   4 3110.19  179.98
   0   2  -4   63.89    4.60
   0  -2   4   62.19    4.40
  -1   2  -4  463.55   19.90
  -1   2  -4  355.96   72.59
  -2   2  -4  132.29    8.40
  -2   2  -4   88.19   40.80
   2  -2   4  123.89    9.70
  -3   2  -4 1726.13   73.79
   3  -2   4 1720.23   71.99
   3  -2   4 1837.42   76.49
  -4   2  -4   57.19    6.50
  -4   2  -4   59.49    4.60
   4  -2   4   62.19    4.40
   4  -2   4   67.39    6.00
   4  -2   4   62.99    8.10
   4  -2   4   63.09    8.50
  -5   2  -4  837.62   36.10
   5  -2   4  819.12   40.70
   5  -2   4  819.62   38.10
   5  -2   4  824.32   35.60
   5  -2   4  933.21   44.60
   5  -2   4  868.31   38.10
   5  -2   4  856.61   35.10
   5  -2   4  837.72   37.50
   5  -2   4  799.82   38.50
  -6   2  -4  193.08   10.90
   6  -2   4  206.68   12.70
   6  -2   4  204.68   12.50
   6  -2   4  197.08   16.70
   6  -2   4  208.08   12.80
   6  -2   4  227.18   14.90
  -7   2  -4  208.48   11.20
  -7   2  -4  234.48   12.00
   7  -2   4  213.48   12.70
   7  -2   4  219.78   13.00
   7  -2   4  225.98   12.30
   7  -2   4  240.18   10.90
   8   1  -4    8.00    3.20
  -8  -1   4    8.20    2.70
  -8  -1   4    7.00    2.30
  -8  -1   4   19.60    3.20
   7   1  -4  247.38   16.90
   7   1  -4  255.47   17.30
  -7  -1   4  274.27   14.40
  -7  -1   4  273.27   14.70
  -7  -1   4  275.67   14.70
   6   1  -4  684.93   36.70
  -6  -1   4  694.53   38.70
  -6  -1   4  766.02   33.00
  -6  -1   4  781.92   33.10
  -6  -1   4  745.63   32.90
   5   1  -4  630.24   34.70
  -5  -1   4  614.84   33.30
  -4  -1   4  430.86   23.00
  -4  -1   4  404.26   23.10
  -3  -1   4  129.79   33.50
  -3  -1   4  132.69   10.00
  -2  -1   4 7319.97  292.97
  -2  -1   4 7483.05  357.66
   1   1  -4  100.39    5.70
  -1  -1   4  112.59    5.90
  -1  -1   4  107.99   25.60
  -1  -1   4  105.59    5.20
   0   1  -4 1594.04  120.59
   0   1  -4 1341.77   57.99
   0  -1   4 1451.55   56.79
   0  -1   4 1387.76   56.69
   0  -1   4 1460.95   57.79
  -1   1  -4 1962.00  157.48
  -1   1  -4 2130.99   83.89
   1  -1   4 1952.90   82.19
   1  -1   4 2111.99   82.09
   1  -1   4 2267.67   83.59
  -2   1  -4 1085.19   45.30
   2  -1   4 1051.89   44.70
   2  -1   4 1090.79   43.30
  -3   1  -4 3983.50  272.07
  -3   1  -4 4290.17  165.68
   3  -1   4 4116.29  167.88
   3  -1   4 4145.08  163.18
  -4   1  -4   37.70    3.50
  -4   1  -4   39.40    4.90
   4  -1   4   37.90    4.30
   4  -1   4   36.30    3.50
  -5   1  -4  154.18   11.40
  -5   1  -4  156.08    8.90
   5  -1   4  176.28   10.50
   5  -1   4  146.49   12.20
   5  -1   4  151.38    8.60
   5  -1   4  159.28   11.50
   5  -1   4  162.08    8.20
   5  -1   4  164.48   12.30
   5  -1   4  162.08   14.40
  -6   1  -4  108.19    8.00
  -6   1  -4  130.69    8.10
   6  -1   4  156.68   11.80
   6  -1   4  125.09    9.40
   6  -1   4  125.29   10.00
   6  -1   4  128.59   11.00
   6  -1   4  140.79   14.40
  -7   1  -4  528.95   23.80
  -7   1  -4  506.95   23.50
   7  -1   4  555.04   26.20
   7  -1   4  519.85   24.90
   7  -1   4  554.34   25.30
   7  -1   4  484.25   30.20
   8  -1   4   82.29    5.60
   8  -1   4   86.79    5.40
  -8   0   4   65.49    5.30
  -8   0   4   55.99    5.00
  -8   0   4   61.09    4.80
   7   0  -4 1187.28   54.49
  -7   0   4 1212.28   51.89
  -7   0   4 1252.47   52.19
  -7   0   4 1257.97   52.19
   6   0  -4   22.30    6.20
  -6   0   4   34.40    4.90
  -6   0   4   37.00    5.00
  -6   0   4   27.20    4.40
   5   0  -4    3.10    4.50
  -5   0   4    7.60    4.80
  -5   0   4    6.20    2.50
  -4   0   4    9.20    4.10
   3   0  -4 1160.08   51.39
  -3   0   4 1054.69   99.49
  -3   0   4 1043.80   48.90
   2   0  -4   28.80    3.50
  -2   0   4   41.00    2.80
  -2   0   4   32.40   15.90
  -2   0   4   30.00    5.00
  -1   0   4 1747.93  106.09
  -1   0   4 1730.63   66.39
  -1   0   4 1514.35   69.29
   0   0  -4   84.39    5.10
   0   0   4   79.69    4.60
   0   0   4   78.39   18.40
   0   0   4   77.19    5.60
  -1   0  -4 2577.44  109.69
  -1   0  -4 2717.73  166.88
   1   0   4 2909.51  109.59
   1   0   4 2835.22  109.69
  -2   0  -4  890.41   91.79
  -2   0  -4 1029.30   43.30
   2   0   4 1099.19   42.90
   2   0   4 1133.59   43.20
  -3   0  -4 1438.86  130.29
  -3   0  -4 1509.85   61.39
   3   0   4 1522.35   60.59
   3   0   4 1444.46   60.89
  -4   0  -4 1273.47   54.29
   4   0   4 1270.07   53.19
   4   0   4 1280.57   53.89
   4   0   4 1268.27   57.19
  -5   0  -4   89.09    7.80
  -5   0  -4   89.89    5.90
   5   0   4   92.09    7.00
  -6   0  -4 4667.43  185.88
  -6   0  -4 4790.62  185.38
   6   0   4 4479.55  186.78
   6   0   4 4744.63  188.58
   6   0   4 4669.73  187.08
  -7   0  -4   50.69    5.60
  -7   0  -4   55.09    5.10
  -7   0  -4   47.00    4.90
   7   0   4   42.10    7.20
   7   0   4   49.10    6.60
  -8   0  -4  145.19    8.50
  -8   0  -4  132.69    8.20
   8   0   4  143.19    9.10
   8   0   4  151.18   10.50
  -8   1   4  619.34   28.10
   7  -1  -4  453.45   23.70
  -7   1   4  453.25   21.70
  -7   1   4  459.85   21.60
  -7   1   4  489.85   22.10
   6  -1  -4  522.45   28.30
  -6   1   4  530.75   24.00
  -6   1   4  534.25   25.10
  -6   1   4  522.15   24.90
  -6   1   4  510.05   24.70
   5  -1  -4 1284.47   58.29
   5  -1  -4 1365.16   60.29
  -5   1   4 1300.07   54.09
  -5   1   4 1334.17   55.19
  -5   1   4 1221.38   54.79
  -5   1   4 1317.27   55.19
   4  -1  -4 1407.06   60.69
  -4   1   4 1385.16   56.99
   3  -1  -4  227.68   13.00
  -3   1   4  210.88   41.50
  -3   1   4  225.68   15.00
   2  -1  -4   81.29    6.20
  -2   1   4   67.39   20.00
  -2   1   4   90.39    6.50
  -2   1   4   69.79    7.20
   1  -1  -4 1929.51   78.99
   1  -1  -4 1836.72   78.79
  -1   1   4 1991.70   78.69
  -1   1   4 2045.50  110.69
  -1   1   4 1901.61   80.69
   0  -1  -4  881.31   40.20
   0  -1  -4 1008.80   40.80
   0  -1  -4  811.82   39.70
   0   1   4  914.01   41.40
   0   1   4  961.30   39.30
   0   1   4 1071.19   61.89
  -1  -1  -4  980.60   41.50
  -1  -1  -4 1101.29   73.99
  -1  -1  -4  854.21   43.00
   1   1   4  945.11   42.20
   1   1   4 1068.39   41.10
  -2  -1  -4  851.11   75.29
  -2  -1  -4  858.51   37.80
  -2  -1  -4  834.72   40.70
   2   1   4 1012.00   37.80
   2   1   4  892.11   38.30
  -3  -1  -4  568.14   67.99
  -3  -1  -4  514.45   27.00
  -3  -1  -4  536.95   24.90
   3   1   4  571.64   25.20
   3   1   4  590.74   24.80
  -4  -1  -4   16.10   18.00
   4   1   4   28.20    3.80
   4   1   4   19.10    3.40
  -5  -1  -4  653.83   31.30
  -5  -1  -4  682.53   28.70
   5   1   4  669.73   31.20
  -6  -1  -4   57.79    5.00
  -6  -1  -4   52.59    5.40
   6   1   4   53.29    7.90
   6   1   4   55.99    6.00
   6   1   4   51.99    6.30
  -7  -1  -4  156.98   10.60
  -7  -1  -4  153.98   10.00
  -7  -1  -4  178.38   10.10
   7   1   4  184.18   12.60
  -8  -1  -4 1146.29   49.50
  -8  -1  -4 1149.58   49.20
   8   1   4 1237.88   50.99
   9   1   4  757.12   30.80
   9   1   4  693.03   31.10
   7  -2  -4  139.89    9.30
   7  -2  -4  136.89    8.80
  -7   2   4  145.19    8.50
  -7   2   4  136.19    8.30
   6  -2  -4  896.91   39.50
   6  -2  -4  772.82   37.20
  -6   2   4  822.62   36.40
  -6   2   4  810.32   35.50
  -6   2   4  847.72   36.90
  -6   2   4  797.52   36.50
   5  -2  -4  160.78   12.60
   5  -2  -4  121.59    9.70
  -5   2   4  138.69    8.70
  -5   2   4  140.59    9.50
  -5   2   4  139.09    9.60
  -5   2   4  140.99    9.60
   4  -2  -4  136.69    9.90
   4  -2  -4  172.98   11.80
   4  -2  -4  163.88   12.80
   3  -2  -4   11.20    3.20
   2  -2  -4 4229.78  179.48
   2  -2  -4 4678.93  179.18
  -2   2   4 4511.15  180.08
   1  -2  -4  162.38   10.60
   1  -2  -4  174.48   10.30
  -1   2   4  171.78   10.80
  -1   2   4  192.98   24.20
   0  -2  -4 1160.68   51.39
   0  -2  -4 1166.48   51.89
   0  -2  -4 1266.07   64.19
   0   2   4 1282.17   51.69
   0   2   4 1135.39   52.49
   0   2   4 1308.27   61.99
  -1  -2  -4  211.58   12.60
  -1  -2  -4  218.28   12.60
  -1  -2  -4  255.47   19.70
  -1  -2  -4  211.28   19.20
  -1  -2  -4  214.88   12.90
   1   2   4  209.38   12.80
   1   2   4  214.08   11.70
  -2  -2  -4 2047.70   83.59
  -2  -2  -4 2094.79   83.89
  -2  -2  -4 1982.50   81.99
  -2  -2  -4 1993.60  108.29
   2   2   4 2163.58   81.79
   2   2   4 1771.12   82.69
  -3  -2  -4 1943.51   83.49
  -3  -2  -4 2066.79  124.89
  -3  -2  -4 1897.51   81.69
  -3  -2  -4 2055.79   83.29
   3   2   4 2076.99   81.49
   3   2   4 1964.20   82.79
  -4  -2  -4  976.10   89.19
  -4  -2  -4  886.41   42.60
  -4  -2  -4  936.11   41.60
   4   2   4  955.90   41.00
   4   2   4 1032.10   43.00
  -5  -2  -4  129.69   10.80
  -5  -2  -4  149.29   10.10
  -5  -2  -4  156.68    8.40
  -5  -2  -4  138.29   11.10
   5   2   4  163.18   11.20
  -6  -2  -4    6.10    3.20
  -6  -2  -4    5.30    2.10
   6   2   4    5.10    2.80
  -7  -2  -4  372.16   19.00
  -7  -2  -4  409.16   18.90
  -7  -2  -4  383.06   19.90
  -7  -2  -4  341.37   18.50
   7   2   4  380.66   21.20
  -8  -2  -4   20.60    3.90
  -8  -2  -4   20.00    3.90
   8   2   4   14.90    4.10
  -9  -2  -4    9.00    2.40
   9   2   4    9.70    2.60
   6  -3  -4   19.60    3.50
   6  -3  -4   16.10    3.70
  -6   3   4   24.20    3.90
  -6   3   4   18.70    3.40
  -6   3   4   20.10    3.30
  -6   3   4   19.10    3.50
   5  -3  -4  199.68   13.70
   5  -3  -4  198.58   12.30
   5  -3  -4  178.88   12.30
  -5   3   4  199.68   12.30
  -5   3   4  211.38   12.40
  -5   3   4  188.88   11.90
  -5   3   4  193.58   11.20
   4  -3  -4  221.28   13.90
   4  -3  -4  218.38   13.50
   4  -3  -4  235.88   14.50
   4  -3  -4  257.07   16.10
   4  -3  -4  258.77   18.50
   4  -3  -4  229.88   14.00
   4  -3  -4  239.98   13.60
  -4   3   4  239.78   13.80
   3  -3  -4 1486.45   63.49
   3  -3  -4 1546.05   67.59
   3  -3  -4 1579.04   65.59
   3  -3  -4 1358.46   61.49
   2  -3  -4  936.11   42.70
   2  -3  -4  908.51   42.30
   2  -3  -4 1032.20   44.60
   2  -3  -4 1019.20   45.80
  -2   3   4  961.60   44.40
   1  -3  -4   59.89    6.70
   1  -3  -4   63.39    6.50
   1  -3  -4   58.29    5.50
  -1   3   4   56.99    6.30
   0  -3  -4  562.54   26.10
   0  -3  -4  570.24   27.50
   0   3   4  592.64   27.40
  -1  -3  -4 5497.05  212.48
  -1  -3  -4 5161.18  213.68
   1   3   4 5402.86  213.18
  -2  -3  -4  887.41   41.30
  -2  -3  -4 1038.40   41.20
   2   3   4  919.41   40.90
  -3  -3  -4 1082.29   48.70
  -3  -3  -4 1066.69   48.80
  -3  -3  -4 1258.67   48.50
   3   3   4 1111.59   48.10
  -4  -3  -4 2588.34  107.79
  -4  -3  -4 2683.53  109.99
  -4  -3  -4 2838.52  107.99
  -4  -3  -4 2563.34  108.59
   4   3   4 2506.75  106.89
  -5  -3  -4   82.19    6.00
  -5  -3  -4   85.19    7.60
  -5  -3  -4   84.39    7.40
   5   3   4   77.99    9.70
  -6  -3  -4 2826.22  119.69
  -6  -3  -4 2969.50  116.89
  -7  -3  -4   55.79    5.90
  -7  -3  -4   44.90    5.60
  -7  -3  -4   52.59    5.50
   7   3   4   63.39    8.30
  -8  -3  -4   23.90    4.50
  -8  -3  -4   16.40    3.40
  -8  -3  -4   20.10    3.90
   8   3   4   23.80    4.90
  -9  -3  -4  242.88   12.80
  -9  -3  -4  253.07   13.20
   9   3   4  277.27   13.80
   6  -4  -4  270.47   13.10
  -6   4   4  257.87   12.50
  -6   4   4  260.37   12.70
   5  -4  -4  782.72   40.80
   5  -4  -4  925.81   37.00
   5  -4  -4  886.41   39.00
  -5   4   4  828.72   37.70
  -5   4   4  917.41   38.60
  -5   4   4  825.12   37.20
  -5   4   4  936.31   38.80
   4  -4  -4 1955.20   80.69
   4  -4  -4 2042.60   80.29
   4  -4  -4 1971.40   83.49
   4  -4  -4 1929.91   78.09
   4  -4  -4 1921.91   79.99
   4  -4  -4 1762.62   78.09
  -4   4   4 1718.63   78.69
   3  -4  -4  205.08   13.00
   3  -4  -4  204.78   13.10
   3  -4  -4  249.88   16.30
   3  -4  -4  201.08   10.70
   3  -4  -4  210.48   13.90
   3  -4  -4  201.28   12.20
   3  -4  -4  198.48   11.90
   3  -4  -4  206.98   12.80
   3  -4  -4  200.78   12.10
  -3   4   4  193.38   12.40
   2  -4  -4 1280.17   54.79
   2  -4  -4 1376.96   59.69
   2  -4  -4 1308.87   55.79
   2  -4  -4 1378.36   60.29
   2  -4  -4 1367.16   58.09
   2  -4  -4 1335.67   59.19
  -2   4   4 1251.87   59.49
   1  -4  -4 2799.12  117.79
   1  -4  -4 2872.01  116.39
   1  -4  -4 2982.00  119.59
   1  -4  -4 3100.19  121.29
   1  -4  -4 2972.80  121.29
  -1   4   4 2862.41  121.39
   0  -4  -4    5.40    1.50
   0   4   4    7.40    3.10
  -1  -4  -4 1937.51   75.29
  -1  -4  -4 1854.41   78.59
   1   4   4 1857.41   78.89
  -2  -4  -4  636.44   26.00
  -2  -4  -4  612.14   28.50
   2   4   4  590.64   28.50
  -3  -4  -4   17.10    4.10
  -3  -4  -4   12.10    3.00
   3   4   4   14.70    3.20
  -4  -4  -4  113.99    9.30
  -4  -4  -4  115.09    7.20
  -4  -4  -4  111.59    8.70
  -4  -4  -4  113.69    7.10
   4   4   4   96.89    8.00
  -5  -4  -4  830.92   34.10
  -5  -4  -4  831.22   37.40
  -5  -4  -4  759.32   33.50
   5   4   4  633.04   38.20
  -6  -4  -4  138.89    9.30
  -6  -4  -4  131.59    8.80
  -6  -4  -4  154.48   10.20
   6   4   4  113.69   12.60
  -7  -4  -4  547.65   26.60
  -7  -4  -4  532.85   26.20
  -7  -4  -4  579.34   26.10
   7   4   4  536.25   27.50
  -8  -4  -4  329.47   16.40
  -8  -4  -4  291.47   16.60
  -8  -4  -4  295.37   16.50
  -8  -4  -4  315.27   16.60
   8   4   4  309.47   17.30
  -9  -4  -4 1030.00   42.70
  -9  -4  -4  992.70   42.50
  -9  -4  -4 1032.60   43.20
  -9  -4  -4  996.10   42.70
   9   4   4 1029.70   43.20
   5  -5  -4   33.60    3.60
  -5   5   4   33.70    3.80
  -5   5   4   21.70    3.10
   4  -5  -4    6.90    2.80
   4  -5  -4    6.30    1.80
   4  -5  -4   19.70    4.00
   4  -5  -4   13.70    2.90
   4  -5  -4   13.20    3.70
   4  -5  -4    9.10    3.20
  -4   5   4    5.90    2.60
  -4   5   4    9.70    3.00
   3  -5  -4  231.58   15.00
   3  -5  -4  234.38   14.40
   3  -5  -4  213.58   13.20
   3  -5  -4  222.68   11.70
   3  -5  -4  239.38   15.00
   3  -5  -4  237.28   14.10
   3  -5  -4  241.98   11.80
   3  -5  -4  260.57   13.80
   3  -5  -4  246.78   14.50
   3  -5  -4  212.08   13.90
   3  -5  -4  243.78   12.90
   3  -5  -4  217.38   12.20
  -3   5   4  216.98   13.60
   2  -5  -4 1157.98   51.59
   2  -5  -4 1150.98   50.39
   2  -5  -4 1144.49   49.00
   2  -5  -4 1167.68   50.89
   2  -5  -4 1162.48   49.70
   2  -5  -4 1168.98   48.00
   2  -5  -4 1182.28   51.89
   2  -5  -4 1110.39   48.30
   2  -5  -4 1200.58   50.89
   2  -5  -4 1026.40   51.89
   2  -5  -4 1191.48   47.80
   2  -5  -4 1173.48   49.90
   2  -5  -4 1189.48   50.69
   1  -5  -4  261.77   13.00
   1  -5  -4  251.97   14.00
   1  -5  -4  257.67   15.30
   1  -5  -4  280.07   15.90
   1  -5  -4  242.78   15.80
   0  -5  -4  779.12   34.00
   0  -5  -4  790.32   35.10
   0  -5  -4  785.42   36.30
   0  -5  -4  747.03   35.20
   0   5   4  760.82   37.20
  -1  -5  -4 1320.67   57.49
  -1  -5  -4 1456.05   59.99
  -1  -5  -4 1426.16   58.49
   1   5   4 1384.86   60.89
  -2  -5  -4 3554.14  140.09
  -2  -5  -4 3531.65  141.49
   2   5   4 3434.36  142.19
  -3  -5  -4 3211.78  137.99
  -3  -5  -4 3593.14  138.89
  -3  -5  -4 3408.66  140.09
  -3  -5  -4 3536.65  141.69
   3   5   4 3618.64  140.89
  -4  -5  -4 2262.17   89.59
  -4  -5  -4 2190.98   90.59
  -4  -5  -4 2083.49   86.99
  -4  -5  -4 2074.59   87.59
  -5  -5  -4   14.10    3.20
  -5  -5  -4   10.50    3.40
  -5  -5  -4    7.90    2.00
  -5  -5  -4    8.00    3.50
  -5  -5  -4   19.00    3.60
  -6  -5  -4   19.60    3.80
  -6  -5  -4   28.50    4.80
  -6  -5  -4   18.60    3.90
  -6  -5  -4   14.80    3.70
  -6  -5  -4   20.90    2.70
   6   5   4   16.90    6.10
  -7  -5  -4 1147.89   50.79
  -7  -5  -4 1171.18   51.49
  -7  -5  -4 1222.88   52.09
  -7  -5  -4 1294.17   51.49
   7   5   4 1143.19   56.69
  -8  -5  -4    6.50    2.70
  -8  -5  -4   12.00    3.30
  -8  -5  -4    6.60    2.80
  -8  -5  -4    6.80    2.80
   8   5   4    6.70    3.10
  -9  -5  -4   93.89    6.50
  -9  -5  -4  105.39    6.70
  -9  -5  -4   97.09    6.50
  -9  -5  -4  102.09    7.00
   9   5   4  101.79    6.90
   4  -6  -4  122.49    7.10
   4  -6  -4   96.79    6.50
   4  -6  -4  104.99    6.30
   4  -6  -4  112.99    6.20
  -4   6   4  119.39    7.10
  -4   6   4  117.99    7.00
   3  -6  -4  403.56   16.80
   3  -6  -4  432.96   19.30
   3  -6  -4  377.16   17.90
   3  -6  -4  400.56   17.80
   3  -6  -4  375.06   18.30
   3  -6  -4  349.57   19.00
   3  -6  -4  406.36   19.20
   3  -6  -4  358.56   17.10
   3  -6  -4  360.36   18.00
   3  -6  -4  361.36   18.70
  -3   6   4  338.27   18.10
   2  -6  -4  285.97   17.20
   2  -6  -4  320.47   17.70
   2  -6  -4  347.57   17.90
   2  -6  -4  340.67   17.70
   2  -6  -4  327.17   13.90
   2  -6  -4  317.17   16.90
   2  -6  -4  316.07   16.20
   2  -6  -4  312.77   15.90
   2  -6  -4  331.87   15.10
   2  -6  -4  320.67   16.90
   2  -6  -4  330.37   15.60
   2  -6  -4  348.87   17.00
   1  -6  -4   16.10    4.10
   1  -6  -4   10.00    3.20
   1  -6  -4    9.60    3.30
   1  -6  -4   15.60    3.70
   1  -6  -4   13.30    2.10
   1  -6  -4   10.60    3.00
   1  -6  -4   18.20    3.80
   1  -6  -4   18.60    4.10
   1  -6  -4   13.70    3.00
   1  -6  -4   11.40    2.90
   1  -6  -4   12.40    2.40
   0  -6  -4   25.10    4.30
   0  -6  -4   31.60    5.20
   0  -6  -4   27.90    4.60
   0  -6  -4   33.10    4.50
   0  -6  -4   34.50    4.40
   0  -6  -4   34.20    3.00
   0  -6  -4   47.70    4.90
   0  -6  -4   41.30    4.10
   0  -6  -4   36.30    5.30
   0  -6  -4   39.20    4.80
   0  -6  -4   31.50    3.30
   0  -6  -4   38.50    3.60
   0  -6  -4   27.20    4.40
  -1  -6  -4  749.23   29.30
  -1  -6  -4  701.13   31.20
  -1  -6  -4  675.33   30.50
  -1  -6  -4  696.13   31.20
  -1  -6  -4  662.03   32.00
  -2  -6  -4  272.17   13.90
  -2  -6  -4  294.77   12.90
  -2  -6  -4  294.77   15.50
  -2  -6  -4  283.47   14.30
   2   6   4  280.87   16.80
  -3  -6  -4  152.88    8.80
  -3  -6  -4  159.28    7.50
  -3  -6  -4  152.68    8.50
  -3  -6  -4  153.88    9.70
   3   6   4  113.89   11.50
   3   6   4  157.08   10.80
  -4  -6  -4  826.82   36.00
  -4  -6  -4  822.12   35.50
  -4  -6  -4  851.51   38.90
  -4  -6  -4  828.62   34.20
  -4  -6  -4  830.32   37.30
  -5  -6  -4  172.78    8.90
  -5  -6  -4  163.78   10.20
  -5  -6  -4  164.68   10.00
  -5  -6  -4  176.68   12.30
  -5  -6  -4  149.59    9.30
  -5  -6  -4  159.28    8.00
  -5  -6  -4  164.68    8.40
  -5  -6  -4  176.08    9.60
  -5  -6  -4  163.38    9.90
  -5  -6  -4  159.68   11.10
  -5  -6  -4  165.28   10.10
   5   6   4  138.59   14.00
  -6  -6  -4 2224.28   98.19
  -6  -6  -4 2383.86   96.49
  -6  -6  -4 2300.47   95.19
  -6  -6  -4 2431.66   96.59
  -6  -6  -4 2391.86   93.49
  -6  -6  -4 2505.55   95.89
  -6  -6  -4 2474.95   96.49
  -6  -6  -4 2298.37   93.99
  -6  -6  -4 2419.66   94.89
  -6  -6  -4 2343.27   95.69
   6   6   4 2114.09  102.49
  -7  -6  -4  449.16   21.60
  -7  -6  -4  428.06   18.60
  -7  -6  -4  437.16   21.30
  -7  -6  -4  436.46   20.20
  -7  -6  -4  482.55   21.10
  -7  -6  -4  411.36   20.40
   7   6   4  404.36   25.90
  -8  -6  -4   53.49    5.50
  -8  -6  -4   48.80    4.80
  -8  -6  -4   52.99    4.60
  -8  -6  -4   51.49    5.20
   8   6   4   46.40    7.30
  -9  -6  -4  324.47   15.50
  -9  -6  -4  322.47   15.30
  -9  -6  -4  345.07   15.90
  -9  -6  -4  347.67   14.80
   3  -7  -4    4.70    1.30
   3  -7  -4    5.40    1.30
   3  -7  -4    7.30    1.70
   3  -7  -4    7.20    1.20
   3  -7  -4   10.20    2.00
  -3   7   4    4.20    1.60
   2  -7  -4   66.29    4.40
   2  -7  -4   72.09    5.80
   2  -7  -4   74.59    5.90
   2  -7  -4   70.09    4.30
   2  -7  -4   66.29    4.90
   2  -7  -4   68.79    5.50
   2  -7  -4   68.19    5.20
   2  -7  -4   73.59    5.80
   2  -7  -4   69.99    4.80
  -2   7   4   65.89    5.50
   1  -7  -4 1176.78   49.00
   1  -7  -4 1149.78   49.20
   1  -7  -4 1240.98   48.90
   1  -7  -4 1179.98   47.20
   1  -7  -4 1137.29   47.00
   1  -7  -4 1181.38   47.50
   1  -7  -4 1093.69   49.40
   1  -7  -4 1197.28   49.50
   1  -7  -4 1125.79   48.00
   1  -7  -4 1164.78   48.40
   1  -7  -4 1136.29   49.30
   0  -7  -4   33.40    4.10
   0  -7  -4   23.30    3.70
   0  -7  -4   30.90    4.10
   0  -7  -4   33.80    3.10
   0  -7  -4   32.20    2.90
   0  -7  -4   32.40    3.40
   0  -7  -4   31.60    3.20
   0  -7  -4   31.30    4.60
   0  -7  -4   22.90    3.30
   0  -7  -4   22.10    3.60
   0  -7  -4   30.60    4.70
  -1  -7  -4 2634.44  106.89
  -1  -7  -4 2696.53  105.49
  -1  -7  -4 2546.15  106.09
  -1  -7  -4 2663.33  107.79
  -1  -7  -4 2671.73  105.09
  -1  -7  -4 2655.13  106.59
  -1  -7  -4 2774.22  107.79
  -1  -7  -4 2634.64  107.59
  -1  -7  -4 2679.93  106.09
  -1  -7  -4 2724.23  107.39
  -1  -7  -4 2540.65  107.79
  -2  -7  -4  121.79    6.50
  -2  -7  -4  126.99    8.20
  -2  -7  -4  130.29    7.80
  -2  -7  -4  123.79    8.40
  -2  -7  -4  124.39    8.30
  -2  -7  -4  141.09    8.50
  -2  -7  -4  114.99    6.20
  -2  -7  -4  128.19    7.90
  -2  -7  -4  126.89    7.30
  -2  -7  -4  121.99    8.40
  -2  -7  -4  130.69    7.20
  -3  -7  -4    8.10    2.50
  -3  -7  -4    4.80    2.10
  -3  -7  -4    8.70    2.20
  -3  -7  -4    8.50    2.50
  -3  -7  -4    5.70    2.30
  -3  -7  -4    6.60    1.80
  -3  -7  -4    6.90    1.50
  -3  -7  -4    3.50    1.60
  -3  -7  -4    7.00    2.50
  -3  -7  -4    8.50    1.50
  -4  -7  -4   16.10    3.00
  -4  -7  -4   14.70    2.00
  -4  -7  -4   16.80    3.10
  -4  -7  -4   14.80    2.40
  -4  -7  -4   15.80    3.10
  -4  -7  -4   23.80    3.50
  -4  -7  -4   31.40    4.00
  -4  -7  -4   13.60    3.00
  -4  -7  -4   19.80    3.20
   4   7   4   18.40    6.00
  -5  -7  -4  614.14   26.80
  -5  -7  -4  611.54   27.70
  -5  -7  -4  599.24   27.70
  -5  -7  -4  632.44   27.90
  -5  -7  -4  625.74   27.90
  -5  -7  -4  631.24   27.30
  -5  -7  -4  621.44   25.10
  -5  -7  -4  615.24   25.50
  -5  -7  -4  622.74   25.90
  -5  -7  -4  634.84   27.90
   5   7   4  564.94   33.60
  -6  -7  -4    6.00    2.40
  -6  -7  -4    7.70    2.50
  -6  -7  -4    8.10    1.70
  -6  -7  -4    8.00    2.50
  -6  -7  -4    8.00    2.40
  -6  -7  -4   11.10    1.80
  -6  -7  -4   14.30    2.80
  -6  -7  -4    9.40    1.60
  -6  -7  -4   11.80    2.70
   6   7   4    6.90    5.00
  -7  -7  -4  360.76   15.60
  -7  -7  -4  364.56   16.10
  -7  -7  -4  365.66   18.00
  -7  -7  -4  398.26   17.50
  -7  -7  -4  374.26   18.00
  -7  -7  -4  358.96   17.40
  -7  -7  -4  364.36   15.60
  -7  -7  -4  361.96   17.10
  -7  -7  -4  366.16   17.80
   7   7   4  313.97   21.80
  -8  -7  -4   26.00    3.70
  -8  -7  -4   22.00    2.90
  -8  -7  -4   18.40    2.70
  -8  -7  -4   20.00    3.10
  -8  -7  -4   28.20    3.70
  -8  -7  -4   21.30    1.90
   8   7   4   24.00    5.40
  -9  -7  -4  598.04   24.90
  -9  -7  -4  567.14   24.60
   2  -8  -4  420.46   17.10
   2  -8  -4  424.06   17.30
   2  -8  -4  424.16   17.70
   2  -8  -4  418.26   18.00
   2  -8  -4  416.86   17.90
   2  -8  -4  427.16   18.00
   1  -8  -4  107.29    6.40
   1  -8  -4  102.79    5.80
   1  -8  -4  107.69    5.40
   1  -8  -4  102.89    6.00
   1  -8  -4  103.99    6.30
   1  -8  -4  104.09    5.20
   1  -8  -4  108.79    5.50
   1  -8  -4   99.99    5.80
   1  -8  -4  115.29    6.70
   1  -8  -4   95.89    6.40
   0  -8  -4   54.19    4.60
   0  -8  -4   63.29    4.00
   0  -8  -4   59.29    4.60
   0  -8  -4   63.09    3.80
   0  -8  -4   63.59    3.70
   0  -8  -4   58.39    4.40
   0  -8  -4   59.49    5.10
   0  -8  -4   62.69    5.30
   0  -8  -4   57.19    4.70
   0  -8  -4   67.79    5.10
  -1  -8  -4  239.88   12.40
  -1  -8  -4  228.78   12.30
  -1  -8  -4  232.38   12.20
  -1  -8  -4  248.58   12.00
  -1  -8  -4  233.28   10.50
  -1  -8  -4  239.08   11.10
  -1  -8  -4  220.98   12.50
  -1  -8  -4  239.18   11.80
  -1  -8  -4  232.08   11.90
  -1  -8  -4  248.48   10.80
  -2  -8  -4 1644.54   67.69
  -2  -8  -4 1601.24   66.19
  -2  -8  -4 1588.64   67.49
  -2  -8  -4 1691.83   65.79
  -2  -8  -4 1691.23   67.19
  -2  -8  -4 1731.23   67.19
  -2  -8  -4 1619.14   65.49
  -2  -8  -4 1611.44   67.49
  -2  -8  -4 1654.83   67.99
  -3  -8  -4  157.98    7.40
  -3  -8  -4  150.88    9.10
  -3  -8  -4  154.78    9.20
  -3  -8  -4  164.58    8.80
  -3  -8  -4  168.98    8.90
  -3  -8  -4  158.88    9.40
  -3  -8  -4  150.98    8.00
  -3  -8  -4  154.18    9.20
  -3  -8  -4  155.48    7.60
  -4  -8  -4 1117.89   44.90
  -4  -8  -4 1051.59   43.30
  -4  -8  -4 1059.09   44.00
  -4  -8  -4 1141.49   45.10
  -4  -8  -4 1073.19   43.50
  -4  -8  -4 1031.10   45.20
  -4  -8  -4 1072.49   45.50
  -4  -8  -4 1080.29   45.40
  -4  -8  -4 1069.09   45.30
  -5  -8  -4  103.29    5.50
  -5  -8  -4  107.09    6.20
  -5  -8  -4  106.69    7.10
  -5  -8  -4  109.39    7.20
  -5  -8  -4  109.19    6.90
  -5  -8  -4  112.19    5.80
  -5  -8  -4  109.69    6.70
  -5  -8  -4  111.19    7.20
  -5  -8  -4  105.79    7.10
   5   8   4   91.89   10.40
  -6  -8  -4   38.10    3.40
  -6  -8  -4   34.40    4.10
  -6  -8  -4   33.50    2.70
  -6  -8  -4   32.80    3.60
  -6  -8  -4   47.80    3.20
  -6  -8  -4   39.30    4.20
  -6  -8  -4   36.60    3.90
  -6  -8  -4   36.90    4.10
   6   8   4   30.70    6.90
  -7  -8  -4 1491.35   60.59
  -7  -8  -4 1434.46   62.09
  -7  -8  -4 1566.54   61.39
  -7  -8  -4 1503.25   61.39
  -7  -8  -4 1603.14   62.19
  -7  -8  -4 1595.44   62.19
  -7  -8  -4 1554.94   60.29
  -7  -8  -4 1545.45   61.89
   7   8   4 1331.77   65.99
  -8  -8  -4  124.29    6.20
  -8  -8  -4  123.69    6.70
  -8  -8  -4  130.89    7.20
  -8  -8  -4  132.69    7.30
  -8  -8  -4  126.29    5.90
  -8  -8  -4  135.99    6.80
  -8  -8  -4  123.99    6.80
  -9  -8  -4  156.28    7.50
   0  -9  -4    7.30    1.50
   0  -9  -4    7.90    1.30
   0  -9  -4    6.90    1.40
   0  -9  -4    9.50    1.10
   0  -9  -4    8.40    1.60
   0  -9  -4    6.90    0.90
   0  -9  -4    9.00    0.80
   0  -9  -4    8.90    1.30
  -1  -9  -4   86.79    4.10
  -1  -9  -4   75.89    5.60
  -1  -9  -4   88.29    5.30
  -1  -9  -4   86.49    4.20
  -1  -9  -4   85.09    5.20
  -1  -9  -4   88.29    5.50
  -1  -9  -4   82.19    4.90
  -1  -9  -4   83.59    5.00
  -1  -9  -4   80.29    4.20
  -2  -9  -4  218.28    9.40
  -2  -9  -4  218.38   10.60
  -2  -9  -4  219.18    9.30
  -2  -9  -4  215.88   10.90
  -2  -9  -4  207.28   10.40
  -2  -9  -4  201.78   10.10
  -2  -9  -4  220.88   10.70
  -2  -9  -4  203.58   10.00
  -2  -9  -4  210.68    9.30
  -3  -9  -4   40.20    3.70
  -3  -9  -4   34.50    3.30
  -3  -9  -4   42.20    3.90
  -3  -9  -4   41.00    2.70
  -3  -9  -4   43.60    3.90
  -3  -9  -4   36.40    2.50
  -3  -9  -4   42.60    3.80
  -3  -9  -4   37.40    3.10
  -3  -9  -4   39.50    2.50
  -4  -9  -4   62.39    4.80
  -4  -9  -4   61.89    4.30
  -4  -9  -4   66.39    5.00
  -4  -9  -4   68.99    5.00
  -4  -9  -4   66.69    3.80
  -4  -9  -4   70.29    4.90
  -4  -9  -4   62.99    3.50
  -4  -9  -4   63.49    4.50
  -4  -9  -4   62.69    3.60
  -5  -9  -4  276.87   13.40
  -5  -9  -4  306.17   13.80
  -5  -9  -4  288.37   12.20
  -5  -9  -4  282.57   12.30
  -5  -9  -4  264.97   13.10
  -5  -9  -4  295.67   12.50
  -5  -9  -4  270.27   13.10
  -5  -9  -4  290.77   13.70
  -5  -9  -4  297.87   13.70
  -6  -9  -4  712.63   28.00
  -6  -9  -4  632.94   26.50
  -6  -9  -4  669.83   27.80
  -6  -9  -4  642.44   26.80
  -6  -9  -4  648.34   26.40
  -6  -9  -4  612.24   27.40
  -6  -9  -4  671.83   27.80
  -6  -9  -4  623.44   27.20
  -7  -9  -4  225.68   10.50
  -7  -9  -4  247.18   10.40
  -7  -9  -4  243.28   11.50
  -7  -9  -4  260.37   10.90
  -7  -9  -4  252.97   11.60
  -7  -9  -4  254.97   11.50
  -7  -9  -4  232.38   11.10
  -8  -9  -4    5.60    0.80
  -8  -9  -4    4.90    1.20
  -8  -9  -4    5.30    1.20
  -8  -9  -4    5.90    1.00
  -8  -9  -4    6.60    1.30
  -2 -10  -4  243.58   10.60
  -2 -10  -4  247.48   10.60
  -2 -10  -4  230.78    9.90
  -2 -10  -4  247.28   10.70
  -3 -10  -4   92.19    5.00
  -3 -10  -4   93.19    5.00
  -3 -10  -4   92.49    4.90
  -3 -10  -4   91.59    4.20
  -3 -10  -4   92.19    4.20
  -3 -10  -4   96.89    5.00
  -4 -10  -4  103.69    4.80
  -4 -10  -4  102.99    5.60
  -4 -10  -4  107.19    5.60
  -4 -10  -4  109.19    5.70
  -4 -10  -4  106.19    4.80
  -4 -10  -4  109.39    5.70
  -5 -10  -4  399.76   16.80
  -5 -10  -4  431.26   17.80
  -5 -10  -4  417.86   17.70
  -5 -10  -4  410.16   16.80
  -5 -10  -4  418.06   17.70
  -6 -10  -4  105.49    4.70
  -6 -10  -4  102.29    5.40
  -6 -10  -4  103.89    5.40
  -6 -10  -4  108.19    5.40
  -7  -8   5   76.09    3.60
  -7  -8   5   72.49    3.60
  -6  -8   5  291.87   12.10
  -6  -8   5  286.97   12.10
  -5  -8   5   72.99    5.50
  -5  -8   5   71.59    3.50
  -8  -7   5  778.72   30.90
  -8  -7   5  746.13   30.20
  -8  -7   5  731.13   30.00
  -7  -7   5   93.79    5.90
  -7  -7   5   91.89    4.70
  -7  -7   5   87.79    5.60
  -7  -7   5   93.39    4.90
  -7  -7   5   85.79    6.30
  -7  -7   5   88.99    4.90
  -6  -7   5    6.10    2.10
  -6  -7   5    3.30    2.20
  -6  -7   5    4.30    3.20
  -6  -7   5    3.90    1.50
  -6  -7   5    3.60    1.90
  -6  -7   5    4.40    1.30
  -6  -7   5    4.00    1.20
  -5  -7   5   60.69    4.30
  -5  -7   5   56.59    3.30
  -5  -7   5   56.59    3.50
  -5  -7   5   55.79    5.70
  -5  -7   5   51.69    7.10
  -4  -7   5  308.17   19.20
  -4  -7   5  325.87   16.80
  -4  -7   5  319.67   14.00
  -4  -7   5  339.77   13.80
   0  -7   5 1256.37   51.29
   0  -7   5 1237.38   49.30
   1  -7   5    2.80    1.70
   1  -7   5    6.10    3.60
   1  -7   5    3.70    0.80
   1  -7   5    3.40    1.00
   2  -7   5  425.36   18.60
   2  -7   5  408.26   16.90
   2  -7   5  409.76   16.80
   2  -7   5  405.66   18.30
   2  -7   5  411.16   17.90
  -8  -6   5   55.69    3.30
  -8  -6   5   52.09    3.60
  -8  -6   5   51.49    4.30
  -8  -6   5   54.09    3.80
  -8  -6   5   49.99    3.30
  -7  -6   5  306.47   14.40
  -7  -6   5  312.97   15.40
  -7  -6   5  306.97   13.40
  -7  -6   5  298.07   15.60
  -7  -6   5  309.47   15.10
  -7  -6   5  287.57   18.10
  -7  -6   5  274.77   15.20
  -6  -6   5  173.08   11.10
  -6  -6   5  180.98   11.00
  -6  -6   5  185.98    9.90
  -6  -6   5  181.28   14.20
  -6  -6   5  191.68   11.10
  -6  -6   5  188.48    9.20
  -6  -6   5  200.58   12.00
  -5  -6   5 2132.49   88.39
  -5  -6   5 2091.49   84.79
  -5  -6   5 2210.68   92.79
  -5  -6   5 2009.70   87.39
  -5  -6   5 2183.48   85.59
  -5  -6   5 2043.70   87.19
  -5  -6   5 2108.59   85.19
  -5  -6   5 2273.47   87.09
  -4  -6   5    5.10    3.00
  -4  -6   5    5.60    3.90
  -4  -6   5    8.20    1.60
  -4  -6   5    5.30    1.40
  -4  -6   5    4.40    1.60
  -4  -6   5    8.10    3.20
  -3  -6   5  103.69    5.70
  -3  -6   5  100.99    5.00
  -3  -6   5  115.69   10.60
  -3  -6   5  113.69    8.10
  -3  -6   5  109.29    5.30
   0  -6   5  345.27   17.50
   0  -6   5  353.66   15.50
   0  -6   5  360.86   19.00
   0  -6   5  362.96   15.00
   1  -6   5   64.99    5.80
   1  -6   5   64.49    4.60
   1  -6   5   66.19    6.90
   1  -6   5   71.49    3.90
   1  -6   5   75.09    6.70
   1  -6   5   63.49    4.00
   2  -6   5  267.37   13.10
   2  -6   5  266.87   12.10
   2  -6   5  259.37   13.90
   2  -6   5  271.27   12.10
   2  -6   5  278.77   15.30
   2  -6   5  272.57   12.10
   2  -6   5  268.47   14.80
   3  -6   5  166.28    9.80
   3  -6   5  154.08    7.40
   3  -6   5  153.78    7.40
   3  -6   5  154.18    8.60
   3  -6   5  147.79    8.10
   3  -6   5  167.98    7.40
   3  -6   5  146.39    9.20
   4  -6   5  209.08    8.90
   4  -6   5  207.48   10.00
   4  -6   5  206.38    9.50
  -8  -5   5  190.88   10.20
  -8  -5   5  184.18   10.50
  -7  -5   5   38.10    5.10
  -7  -5   5   39.60    7.20
  -7  -5   5   32.40    4.60
  -7  -5   5   33.10    4.20
  -7  -5   5   31.10    4.90
  -7  -5   5   39.70    3.70
  -7  -5   5   42.90    5.60
  -6  -5   5  331.57   15.80
  -6  -5   5  361.86   18.60
  -6  -5   5  333.77   17.90
  -6  -5   5  328.67   16.20
  -6  -5   5  322.07   17.90
  -6  -5   5  336.47   16.80
  -6  -5   5  352.16   22.10
  -6  -5   5  373.86   18.90
  -5  -5   5  182.38    9.60
  -5  -5   5  182.58    9.30
  -5  -5   5  175.58   11.40
  -5  -5   5  173.98   11.50
  -5  -5   5  178.98   11.50
  -5  -5   5  175.18    9.80
  -5  -5   5  201.08   15.10
  -5  -5   5  168.38   11.20
  -5  -5   5  180.98   11.10
  -4  -5   5  225.38   13.80
  -4  -5   5  244.08   13.60
  -4  -5   5  239.28   11.40
  -4  -5   5  237.08   11.50
  -4  -5   5  228.68   12.60
  -4  -5   5  245.08   16.50
  -4  -5   5  246.08   12.60
  -3  -5   5 1158.68   50.49
  -3  -5   5 1084.99   45.40
  -3  -5   5 1078.69   47.00
  -3  -5   5 1092.39   44.40
  -3  -5   5 1104.79   45.60
  -2  -5   5  691.03   30.70
  -2  -5   5  684.93   33.20
  -2  -5   5  708.33   29.00
  -1  -5   5  789.52   36.20
  -1  -5   5  781.32   32.10
   0  -5   5  544.35   27.20
   0  -5   5  555.24   23.30
   0  -5   5  533.05   23.30
   1  -5   5 1100.59   46.80
   1  -5   5 1120.89   43.70
   1  -5   5 1077.69   45.40
   1  -5   5 1019.90   44.40
   1  -5   5 1138.39   47.10
   1  -5   5 1037.00   48.70
   2  -5   5  212.38   11.30
   2  -5   5  228.08   12.40
   2  -5   5  222.38   12.90
   2  -5   5  220.68   13.30
   2  -5   5  224.88   10.60
   2  -5   5  227.98   14.90
   2  -5   5  225.88   10.40
   3  -5   5  888.81   38.90
   3  -5   5  917.11   39.90
   3  -5   5  842.72   38.60
   3  -5   5  842.02   37.50
   3  -5   5  895.31   41.00
   3  -5   5  914.01   36.60
   3  -5   5  916.91   36.90
   4  -5   5   17.40    3.10
   4  -5   5    5.00    2.00
   4  -5   5    8.50    2.00
   4  -5   5    4.40    2.60
   4  -5   5   13.10    2.00
   4  -5   5   17.70    3.60
   4  -5   5   10.40    1.80
   5  -5   5   57.59    4.40
   5  -5   5   58.49    3.40
   5  -5   5   50.59    3.70
   5  -5   5   52.19    3.10
  -9  -4   5  216.38   10.80
  -8  -4   5 1040.70   45.70
  -8  -4   5 1091.79   43.90
  -8  -4   5 1123.59   46.10
  -7  -4   5  279.77   15.00
  -7  -4   5  263.07   13.10
  -7  -4   5  258.87   14.80
  -7  -4   5  271.17   12.80
  -7  -4   5  282.97   16.00
  -7  -4   5  253.87   14.50
  -6  -4   5   89.69    7.40
  -6  -4   5   88.49    8.60
  -6  -4   5  104.39    8.70
  -6  -4   5  103.19   11.20
  -6  -4   5   96.99    7.10
  -6  -4   5   92.19    7.50
  -6  -4   5   96.19    6.80
  -6  -4   5   99.09    6.10
  -6  -4   5  102.69    9.00
  -5  -4   5   19.20    4.00
  -5  -4   5   16.70    3.10
  -5  -4   5   15.30    3.10
  -5  -4   5   19.20    4.20
  -5  -4   5   22.00    2.70
  -5  -4   5   20.00    5.00
  -5  -4   5   18.00    3.90
  -5  -4   5   18.00    3.90
  -5  -4   5   14.60    5.00
  -5  -4   5   18.70    4.30
  -5  -4   5   17.20    3.40
  -4  -4   5  568.34   27.10
  -4  -4   5  586.54   25.30
  -4  -4   5  592.94   29.90
  -4  -4   5  568.94   26.70
  -4  -4   5  598.94   27.00
  -3  -4   5  536.75   24.60
  -3  -4   5  544.35   27.20
  -3  -4   5  548.05   24.50
  -2  -4   5   59.99    6.30
  -2  -4   5   63.79    4.70
  -1  -4   5  244.28   11.60
  -1  -4   5  255.77   14.20
   0   4  -5 1113.59   49.20
   0  -4   5 1144.79   46.20
  -1   4  -5   67.79    7.10
   1  -4   5   58.49    7.40
   1  -4   5   72.29    3.90
   1  -4   5   74.19    5.10
  -2   4  -5  281.77   17.70
   2  -4   5  312.17   14.90
   2  -4   5  293.97   16.00
   2  -4   5  309.57   15.20
   2  -4   5  289.57   18.30
   2  -4   5  312.67   15.90
   2  -4   5  305.17   13.50
   2  -4   5  304.37   15.40
   3  -4   5  426.16   18.80
   3  -4   5  450.15   21.60
   3  -4   5  387.56   23.50
   3  -4   5  427.56   20.30
   3  -4   5  446.06   21.30
   3  -4   5  446.76   21.00
   3  -4   5  400.36   21.30
   3  -4   5  412.56   18.40
   4  -4   5  284.97   13.40
   4  -4   5  272.47   14.70
   4  -4   5  280.27   14.80
   4  -4   5  278.87   15.50
   4  -4   5  276.77   12.90
   4  -4   5  275.87   17.40
   4  -4   5  270.17   14.60
   4  -4   5  279.87   15.70
   5  -4   5 1261.17   51.89
   5  -4   5 1321.17   52.79
   5  -4   5 1161.78   53.99
   5  -4   5 1244.18   54.89
   5  -4   5 1331.67   54.19
   5  -4   5 1275.47   53.09
   5  -4   5 1309.07   51.39
  -6   4  -5  584.74   25.00
   6  -4   5  579.54   24.60
   6  -4   5  589.14   25.20
   8   3  -5  155.58   11.60
  -8  -3   5  168.28    9.90
  -8  -3   5  159.68    8.70
  -8  -3   5  157.78    9.60
  -7  -3   5  881.71   40.00
  -7  -3   5  920.71   40.00
  -7  -3   5  909.41   38.90
  -7  -3   5  944.11   42.20
  -6  -3   5  193.38   12.90
  -6  -3   5  151.88    9.90
  -6  -3   5  150.48    9.70
  -6  -3   5  158.58    9.20
  -6  -3   5  156.08   10.40
  -5  -3   5 4017.50  159.48
  -5  -3   5 3922.51  156.38
  -5  -3   5 3885.71  161.38
  -5  -3   5 3842.62  159.98
  -5  -3   5 3901.11  157.38
  -4  -3   5  319.17   17.10
  -4  -3   5  319.57   18.50
  -4  -3   5  318.07   17.30
  -4  -3   5  304.07   15.80
  -3  -3   5    6.70    2.70
  -3  -3   5    8.80    2.70
  -2  -3   5  421.66   20.30
  -2  -3   5  379.66   57.19
  -1  -3   5  680.23   30.50
   0   3  -5 2359.66   95.99
  -1   3  -5   22.60    3.60
   1  -3   5   25.50    2.70
   1  -3   5   24.00    4.10
  -2   3  -5   74.29    7.00
   2  -3   5   83.89    4.60
   2  -3   5   72.79    5.50
   2  -3   5   70.89    7.70
  -3   3  -5  107.49    9.20
   3  -3   5   94.79    7.60
   3  -3   5   83.49    7.90
   3  -3   5   89.09    9.50
   3  -3   5   96.19    5.50
   3  -3   5   86.79    6.90
   3  -3   5   90.09    9.90
   3  -3   5  107.29   10.70
   3  -3   5   82.49    9.30
   4  -3   5  932.31   39.30
   4  -3   5  958.60   42.10
   4  -3   5  927.41   41.00
   4  -3   5  981.10   42.30
   4  -3   5  960.00   40.90
   4  -3   5  979.80   46.20
   4  -3   5  949.71   40.10
   4  -3   5  882.61   44.60
   4  -3   5  917.01   41.80
   5  -3   5   30.90    6.40
   5  -3   5   34.60    4.30
   5  -3   5   34.40    3.70
   5  -3   5   41.50    5.00
   5  -3   5   42.20    5.70
   5  -3   5   25.60    4.50
   5  -3   5   27.80    3.40
   5  -3   5   33.10    5.00
   5  -3   5   41.70    7.40
   5  -3   5   33.10    3.20
   6  -3   5  374.66   20.20
   6  -3   5  391.16   19.30
   6  -3   5  400.36   19.00
   8   2  -5   21.40    4.50
  -8  -2   5   38.10    4.60
  -8  -2   5   32.30    4.10
  -8  -2   5   26.60    3.70
  -7  -2   5   39.30    4.90
  -7  -2   5   39.90    5.10
  -7  -2   5   41.40    5.00
  -6  -2   5  810.92   36.60
  -6  -2   5  806.32   39.40
  -6  -2   5  847.82   39.80
  -6  -2   5  858.21   36.30
  -6  -2   5  833.02   36.60
   5   2  -5   34.50    8.00
  -5  -2   5   31.60    5.10
  -4  -2   5  677.63   30.30
  -4  -2   5  657.23   32.10
  -4  -2   5  649.83   32.30
  -4  -2   5  701.83   32.80
  -3  -2   5 3261.07  126.29
  -3  -2   5 3142.29  129.89
  -2  -2   5 6262.37  326.57
  -1  -2   5  565.24   24.00
  -1  -2   5  577.44   68.19
   0   2  -5 1346.47  136.59
   0   2  -5 1504.15   59.49
   0  -2   5 1476.95   58.89
  -1   2  -5 4418.06  167.18
   1  -2   5 4149.98  166.28
   1  -2   5 3989.40  169.58
  -2   2  -5   83.19    6.70
   2  -2   5   78.29    8.40
   2  -2   5   72.59    5.20
  -3   2  -5 2945.51  119.89
   3  -2   5 2801.62  117.59
   3  -2   5 3025.70  123.59
  -4   2  -5   15.20    4.20
   4  -2   5   14.00    4.80
   4  -2   5   10.60    5.20
   4  -2   5   16.40    2.40
   4  -2   5   17.60    5.00
   4  -2   5   23.00    6.10
   4  -2   5   13.30    2.30
   4  -2   5   27.70    4.70
   4  -2   5   21.10    3.90
  -5   2  -5   74.79    5.80
   5  -2   5  106.99    8.40
   5  -2   5   76.69    7.80
   5  -2   5   77.49    5.10
   5  -2   5   74.79    8.20
   5  -2   5   68.29    5.40
   5  -2   5   77.09    6.30
   5  -2   5   85.69   11.20
   5  -2   5   87.29    9.50
   5  -2   5   81.69    7.10
   5  -2   5   83.79    7.40
  -6   2  -5  151.38    8.80
   6  -2   5  163.38   10.60
   6  -2   5  148.39   11.80
   6  -2   5  156.98   10.50
   6  -2   5  135.39   13.70
   6  -2   5  166.68   10.10
  -7   2  -5  223.08   11.50
   7  -2   5  208.08   11.00
  -8  -1   5  994.70   40.80
  -8  -1   5  904.11   40.50
  -8  -1   5  981.40   40.60
   7   1  -5  989.30   47.70
   7   1  -5  992.50   47.10
  -7  -1   5 1027.20   45.30
  -7  -1   5 1234.98   49.80
  -7  -1   5 1034.50   45.10
   6   1  -5   42.40    8.10
  -6  -1   5   42.40    5.00
  -6  -1   5   30.50    6.00
  -6  -1   5   40.20    4.90
   5   1  -5  498.05   29.10
  -5  -1   5  535.25   29.70
  -4  -1   5 1983.80   85.89
  -3  -1   5  135.69   10.80
  -3  -1   5  142.89   37.20
  -3  -1   5  160.78   10.50
  -2  -1   5  799.22   34.80
  -2  -1   5  768.62   79.39
   1   1  -5   35.00    3.60
  -1  -1   5   46.50    3.40
  -1  -1   5   38.30   18.20
  -1  -1   5   45.80    3.00
   0   1  -5 1069.89  102.49
   0   1  -5  931.51   40.10
   0  -1   5  965.60   39.60
   0  -1   5  998.90   38.60
   0  -1   5  898.41   38.50
  -1   1  -5  234.88   12.10
  -1   1  -5  222.68   52.39
   1  -1   5  236.38   11.70
   1  -1   5  221.28   10.20
   1  -1   5  270.97   10.20
  -2   1  -5 1345.77   52.39
   2  -1   5 1223.18   49.40
   2  -1   5 1209.48   55.39
   2  -1   5 1165.98   51.19
  -3   1  -5  705.63   30.90
   3  -1   5  667.83   30.10
   3  -1   5  652.93   33.50
   3  -1   5  640.04   27.60
   3  -1   5  661.33   29.20
  -4   1  -5 2238.28   92.39
  -4   1  -5 2114.29   88.49
   4  -1   5 2238.18   88.39
   4  -1   5 2270.07   90.89
   4  -1   5 2204.18   96.09
  -5   1  -5  816.72   35.70
   5  -1   5  833.12   38.80
   5  -1   5  933.01   45.00
   5  -1   5  827.82   34.80
   5  -1   5  809.32   39.50
   5  -1   5  846.32   37.70
  -6   1  -5 1057.89   43.60
   6  -1   5 1030.30   46.00
   6  -1   5 1060.29   47.30
   6  -1   5  979.70   46.70
   6  -1   5 1005.60   45.50
   6  -1   5 1069.69   52.79
  -7   1  -5   24.70    3.40
  -7   1  -5   25.80    3.90
   7  -1   5   34.20    5.30
   7  -1   5   20.30    4.10
   8  -1   5   29.40    2.30
   8  -1   5   29.80    3.90
  -8   0   5   26.70    3.40
  -8   0   5   30.40    3.30
   7   0  -5  385.16   21.40
  -7   0   5  408.66   19.30
  -7   0   5  376.36   19.10
  -7   0   5  395.56   19.20
   6   0  -5  383.86   23.30
  -6   0   5  401.36   19.70
  -6   0   5  405.36   19.80
  -6   0   5  391.16   19.80
   5   0  -5 1486.65   70.39
  -5   0   5 1558.94   64.99
  -5   0   5 1608.64   65.29
  -5   0   5 1599.64   73.59
  -4   0   5  138.69   12.90
  -3   0   5  238.98   45.60
  -3   0   5  262.37   16.90
  -2   0   5 2022.80  133.39
  -2   0   5 1990.80   84.99
  -1   0   5 3094.89  171.98
  -1   0   5 2938.31  127.09
  -1   0   5 3374.36  124.19
   0   0  -5 4293.47  181.18
   0   0   5 4831.82  180.58
   0   0   5 4653.93  181.78
   0   0   5 4541.55  227.18
  -1   0  -5 1961.90  142.19
  -1   0  -5 1949.90   81.39
   1   0   5 2088.39   81.09
   1   0   5 2059.09   80.89
  -2   0  -5 1121.59  111.69
  -2   0  -5 1420.66   55.69
   2   0   5 1336.07   54.99
   2   0   5 1453.25   54.79
  -3   0  -5    9.40    2.70
   3   0   5   17.30    3.00
  -4   0  -5 1021.60   43.40
   4   0   5  954.70   46.20
   4   0   5  951.00   42.40
   4   0   5  948.91   41.30
  -5   0  -5    9.70    3.60
  -5   0  -5    8.50    2.10
   5   0   5   11.40    5.40
  -6   0  -5  276.07   13.80
   6   0   5  268.47   15.30
   6   0   5  268.57   16.30
  -7   0  -5   22.50    4.10
  -7   0  -5   19.40    3.40
   7   0   5   24.30    5.80
   7   0   5   15.30    4.10
  -8   0  -5  797.22   34.10
  -8   0  -5  752.72   34.20
   8   0   5  776.22   34.40
   8   0   5  853.41   35.40
   7  -1  -5  202.78   12.90
  -7   1   5  220.88   11.60
  -7   1   5  215.88   11.60
  -7   1   5  211.88   11.70
   6  -1  -5  200.28   14.50
  -6   1   5  198.18   11.60
  -6   1   5  186.48   11.50
  -6   1   5  176.88   11.30
   5  -1  -5  345.07   21.70
   5  -1  -5  324.67   20.20
  -5   1   5  328.97   17.20
  -5   1   5  339.07   17.20
  -5   1   5  332.27   17.20
  -5   1   5  317.07   24.30
   4  -1  -5  534.35   28.30
   4  -1  -5  608.24   30.80
  -4   1   5  538.65   31.40
   3  -1  -5   32.10    5.00
  -3   1   5   40.30    7.60
   2  -1  -5 2084.79   83.29
  -2   1   5 1871.41  124.99
  -2   1   5 2084.89   82.69
  -2   1   5 1987.90   85.29
   1  -1  -5    3.40    2.00
  -1   1   5    2.90    6.30
  -1   1   5    7.10    1.90
  -1   1   5    8.50    3.50
   0  -1  -5   29.70    4.30
   0  -1  -5   24.60    3.90
   0   1   5   29.80   11.40
   0   1   5   27.30    4.70
   0   1   5   28.70    3.20
  -1  -1  -5 3713.33  150.08
  -1  -1  -5 3246.38  151.88
   1   1   5 4248.98  149.69
   1   1   5 3832.12  150.98
  -2  -1  -5  100.09   26.70
  -2  -1  -5  105.09    9.80
  -2  -1  -5  115.59    7.50
   2   1   5  129.79    7.40
   2   1   5  115.39    7.90
  -3  -1  -5 7137.49  271.57
  -3  -1  -5 6666.13  347.37
   3   1   5 6572.84  270.77
   3   1   5 7047.29  271.47
  -4  -1  -5  661.93   30.60
  -4  -1  -5  637.54   82.99
   4   1   5  673.33   30.30
   4   1   5  663.93   30.00
  -5  -1  -5   61.29    6.50
  -5  -1  -5   59.39    4.70
   5   1   5   65.69    6.60
   5   1   5   57.99    6.10
  -6  -1  -5 1140.59   46.30
  -6  -1  -5 1097.99   47.50
   6   1   5 1112.49   49.40
   6   1   5 1066.69   47.60
   6   1   5 1067.59   48.70
  -7  -1  -5 1945.51   76.29
  -7  -1  -5 1783.32   76.99
  -7  -1  -5 1746.33   76.19
   7   1   5 1959.20   78.99
  -8  -1  -5  448.16   21.10
  -8  -1  -5  461.05   21.60
  -8  -1  -5  439.86   20.90
   8   1   5  457.45   23.60
   8   1   5  492.35   22.50
   9   1   5    4.80    2.20
   9   1   5    8.20    1.90
   7  -2  -5  746.63   31.70
   7  -2  -5  755.52   32.40
  -7   2   5  747.23   31.10
  -7   2   5  751.82   31.50
  -7   2   5  669.93   30.80
   6  -2  -5    0.60    3.00
  -6   2   5    0.90    2.10
  -6   2   5    7.20    2.50
  -6   2   5    7.10    2.80
   5  -2  -5  117.79   11.20
  -5   2   5  105.69    8.30
  -5   2   5  110.29    8.40
  -5   2   5  111.09    8.40
   4  -2  -5 1901.91   90.39
   4  -2  -5 2313.97   94.09
   4  -2  -5 2403.66   95.49
  -4   2   5 2245.38   90.79
   3  -2  -5   14.00    4.00
   2  -2  -5 1431.46   61.49
  -2   2   5 1443.86   61.59
   1  -2  -5  261.17   14.40
   1  -2  -5  230.78   14.30
  -1   2   5  265.67   17.10
  -1   2   5  254.57   14.00
   0  -2  -5  593.54   28.40
   0  -2  -5  551.54   28.30
   0   2   5  642.04   27.90
   0   2   5  586.04   29.50
   0   2   5  664.63   43.70
  -1  -2  -5  319.47   30.00
  -1  -2  -5  305.97   16.50
  -1  -2  -5  283.17   16.60
  -1  -2  -5  291.67   16.70
   1   2   5  305.87   15.40
   1   2   5  310.17   16.80
  -2  -2  -5  144.59    9.20
  -2  -2  -5  133.69   22.90
  -2  -2  -5  138.09   10.30
   2   2   5  137.39   10.00
   2   2   5  151.18    8.80
  -3  -2  -5   15.80    3.40
  -3  -2  -5   13.30    3.70
  -3  -2  -5   12.80   12.10
   3   2   5   18.80    4.20
   3   2   5   11.50    2.80
  -4  -2  -5 2147.69   88.09
  -4  -2  -5 2108.79   89.29
  -4  -2  -5 2250.67  149.19
   4   2   5 2020.40   87.19
   4   2   5 1974.70   89.49
   4   2   5 2256.07   89.19
  -5  -2  -5  428.86   19.20
  -5  -2  -5  418.06   21.90
  -5  -2  -5  404.56   22.90
   5   2   5  394.26   21.20
   5   2   5  448.26   22.80
  -6  -2  -5 1263.07   55.69
  -6  -2  -5 1201.98   58.89
  -6  -2  -5 1421.66   55.09
   6   2   5 1330.17   58.89
   6   2   5 1363.66   57.99
  -7  -2  -5  161.78   10.70
  -7  -2  -5  167.28   10.00
  -7  -2  -5  147.59   10.10
   7   2   5  164.88   12.00
  -8  -2  -5   13.10    3.00
  -8  -2  -5   32.30    5.10
  -8  -2  -5   14.80    3.30
   8   2   5   13.80    3.90
  -9  -2  -5 1098.79   48.30
   9   2   5 1275.97   49.40
   6  -3  -5   85.69    7.20
   6  -3  -5   76.49    6.30
  -6   3   5   90.99    6.50
  -6   3   5   83.39    6.30
  -6   3   5   89.49    6.70
   5  -3  -5 1216.38   55.29
   5  -3  -5 1412.56   57.89
  -5   3   5 1315.77   55.59
  -5   3   5 1320.97   55.39
  -5   3   5 1288.37   55.49
  -5   3   5 1242.18   53.99
   4  -3  -5  199.88   12.10
   4  -3  -5  176.08   12.30
   4  -3  -5  181.68   12.40
   4  -3  -5  212.58   14.60
   4  -3  -5  206.48   13.40
  -4   3   5  215.98   11.50
  -4   3   5  203.38   12.40
   3  -3  -5   20.10    3.70
   3  -3  -5   22.20    5.60
   3  -3  -5   24.90    4.70
   3  -3  -5   18.60    4.30
   2  -3  -5 1825.22   77.49
   2  -3  -5 1598.24   69.49
   2  -3  -5 1386.66   66.49
   2  -3  -5 1709.83   73.19
  -2   3   5 1699.23   71.09
   1  -3  -5 4502.65  178.78
   1  -3  -5 4375.86  181.08
   1  -3  -5 4382.46  180.18
  -1   3   5 4532.75  179.48
   0  -3  -5 2159.28   93.79
   0  -3  -5 2317.07   92.79
   0   3   5 2273.57   92.89
  -1  -3  -5 2998.60  130.39
  -1  -3  -5 3360.26  129.79
   1   3   5 3249.97  129.59
  -2  -3  -5  479.35   24.60
  -2  -3  -5  538.25   24.50
   2   3   5  486.05   23.60
  -3  -3  -5  211.58   13.50
  -3  -3  -5  226.78   13.50
  -3  -3  -5  247.68   13.40
   3   3   5  216.78   12.80
  -4  -3  -5 2719.53  107.49
  -4  -3  -5 2801.72  107.19
   4   3   5 2487.25  106.29
   4   3   5 2398.36  109.39
  -5  -3  -5   37.60    5.40
  -5  -3  -5   38.20    5.10
  -5  -3  -5   36.20    4.10
   5   3   5   29.30    6.60
  -6  -3  -5   42.70    4.80
  -6  -3  -5   45.40    6.00
  -7  -3  -5  170.18   11.40
  -7  -3  -5  189.48   11.00
   7   3   5  163.28   12.10
  -8  -3  -5  233.48   12.90
  -8  -3  -5  210.88   12.30
   8   3   5  214.48   13.40
  -9  -3  -5   25.00    3.50
  -9  -3  -5   19.70    3.10
   9   3   5   24.00    3.50
  -6   4   5  919.51   39.60
  -6   4   5 1011.30   39.80
   5  -4  -5  162.28   10.60
   5  -4  -5  171.98    9.30
  -5   4   5  149.49    9.80
  -5   4   5  171.78   10.40
  -5   4   5  150.98    9.00
  -5   4   5  177.28   10.30
   4  -4  -5   54.19    6.70
   4  -4  -5   51.19    5.70
   4  -4  -5   51.89    5.60
   4  -4  -5   57.69    7.10
   4  -4  -5   51.39    8.00
   4  -4  -5   55.29    6.60
  -4   4   5   55.29    6.30
  -4   4   5   59.09    5.70
   3  -4  -5  126.49    9.20
   3  -4  -5  117.69    9.60
   3  -4  -5  137.19   10.60
   3  -4  -5  115.29    7.40
   3  -4  -5  109.09    8.40
   3  -4  -5  127.79   12.00
   3  -4  -5  136.39    9.80
   3  -4  -5  135.59    9.00
   3  -4  -5  133.49    9.90
  -3   4   5  119.49    9.30
   2  -4  -5  415.76   20.30
   2  -4  -5  459.25   23.20
   2  -4  -5  479.75   25.90
   2  -4  -5  426.36   24.70
   2  -4  -5  429.76   23.30
   2  -4  -5  418.76   20.60
   2  -4  -5  436.06   20.90
  -2   4   5  442.96   24.60
   1  -4  -5 1092.69   48.80
   1  -4  -5 1164.58   51.19
   1  -4  -5 1087.79   46.70
   1  -4  -5 1079.89   46.80
   1  -4  -5 1120.69   50.69
  -1   4   5 1090.19   49.99
   0  -4  -5   97.79    6.80
   0  -4  -5  120.49    9.80
   0  -4  -5   95.89    8.00
   0   4   5  104.89    8.70
  -1  -4  -5 1655.53   71.99
  -1  -4  -5 1748.23   69.39
   1   4   5 1676.53   71.39
  -2  -4  -5 1110.69   48.70
  -2  -4  -5 1205.08   46.70
   2   4   5  949.60   49.50
   2   4   5 1175.38   48.70
  -3  -4  -5 2287.77   88.39
  -3  -4  -5 2259.37   85.99
   3   4   5 2102.19   87.49
   3   4   5 1805.92   89.69
  -4  -4  -5 1275.27   51.89
  -4  -4  -5 1231.48   52.49
  -4  -4  -5 1256.47   50.29
   4   4   5 1027.70   54.19
   4   4   5 1141.49   51.49
  -5  -4  -5  902.11   41.70
  -5  -4  -5  902.01   38.80
  -5  -4  -5  961.10   39.70
   5   4   5  815.32   43.70
  -6  -4  -5  371.06   19.70
  -6  -4  -5  406.66   24.80
  -6  -4  -5  391.96   19.40
  -6  -4  -5  437.66   25.30
  -6  -4  -5  399.46   20.20
   6   4   5  375.96   23.70
  -7  -4  -5 1689.23   67.59
  -7  -4  -5 1610.34   67.99
  -7  -4  -5 1585.14   67.99
  -7  -4  -5 1570.24   67.59
   7   4   5 1592.04   68.29
  -8  -4  -5  145.39   10.20
  -8  -4  -5  172.18   10.30
  -8  -4  -5  149.99   10.00
   8   4   5  169.98   11.00
  -9  -4  -5   53.99    4.70
  -9  -4  -5   51.39    5.10
  -9  -4  -5   55.29    4.90
   9   4   5   62.99    5.30
  -5   5   5    4.30    1.60
  -5   5   5    3.20    1.50
   4  -5  -5 1552.44   69.69
   4  -5  -5 1821.92   69.09
   4  -5  -5 1622.14   67.19
   4  -5  -5 1689.03   66.19
   4  -5  -5 1644.84   68.49
  -4   5   5 1700.93   68.59
  -4   5   5 1572.24   68.09
  -4   5   5 1576.54   67.19
   3  -5  -5  449.46   20.70
   3  -5  -5  408.86   22.80
   3  -5  -5  424.86   21.40
   3  -5  -5  376.36   18.60
   3  -5  -5  415.56   20.00
   3  -5  -5  436.46   21.60
   3  -5  -5  430.06   19.20
   3  -5  -5  414.06   21.50
  -3   5   5  395.06   21.00
   2  -5  -5  637.14   30.50
   2  -5  -5  579.84   30.30
   2  -5  -5  635.54   28.20
   2  -5  -5  654.63   33.90
   2  -5  -5  617.24   29.90
   2  -5  -5  663.83   30.60
   2  -5  -5  663.33   32.20
   2  -5  -5  661.23   32.00
   2  -5  -5  636.44   30.30
   2  -5  -5  661.03   29.60
   2  -5  -5  645.24   28.90
   1  -5  -5  345.37   18.00
   1  -5  -5  370.86   17.30
   1  -5  -5  340.87   20.20
   1  -5  -5  355.46   19.20
   1  -5  -5  444.26   24.50
   1  -5  -5  326.47   20.50
   1  -5  -5  340.37   19.70
   1  -5  -5  363.06   18.20
   1  -5  -5  431.16   21.40
   0  -5  -5  407.76   18.00
   0  -5  -5  384.86   21.60
   0  -5  -5  390.06   20.30
   0  -5  -5  388.36   20.90
   0  -5  -5  392.16   19.00
   0   5   5  380.96   21.70
  -1  -5  -5   32.50    4.30
  -2  -5  -5 1797.42   70.19
  -2  -5  -5 1610.84   68.79
  -2  -5  -5 1877.71   71.99
   2   5   5 1482.05   72.29
   2   5   5 1710.83   71.99
  -3  -5  -5   14.70    2.70
  -3  -5  -5   16.30    3.50
  -3  -5  -5   16.50    3.20
   3   5   5   15.00    4.80
   3   5   5   18.10    3.70
  -4  -5  -5  111.19    5.50
  -4  -5  -5  100.89    7.30
  -4  -5  -5  104.49    8.40
  -4  -5  -5  102.69    6.70
   4   5   5  106.39    8.50
   4   5   5   77.39   10.10
  -5  -5  -5  101.29    7.70
  -5  -5  -5  117.99    9.40
  -5  -5  -5  105.89    6.30
  -5  -5  -5  113.09    6.20
   5   5   5   91.79   10.90
  -6  -5  -5  681.93   31.10
  -6  -5  -5  706.33   30.90
  -6  -5  -5  693.23   30.50
  -6  -5  -5  670.73   31.00
  -6  -5  -5  660.73   30.40
  -6  -5  -5  664.13   28.10
  -6  -5  -5  675.83   28.60
   6   5   5  627.64   35.60
  -7  -5  -5   11.50    3.30
  -7  -5  -5    8.10    3.00
  -7  -5  -5    8.10    3.10
   7   5   5   10.90    4.90
  -8  -5  -5   26.90    4.20
  -8  -5  -5   26.30    4.10
  -8  -5  -5   27.30    4.00
  -8  -5  -5   26.70    4.10
  -9  -5  -5  935.01   40.90
  -9  -5  -5 1015.20   41.70
  -9  -5  -5 1039.00   41.50
  -9  -5  -5 1020.40   41.40
   9   5   5  965.10   41.30
   4  -6  -5  104.79    5.80
   4  -6  -5  105.79    6.20
  -4   6   5  118.69    6.50
  -4   6   5  111.19    6.50
   3  -6  -5    6.60    1.70
   3  -6  -5    2.70    2.00
   3  -6  -5   15.40    3.30
   3  -6  -5    1.80    1.80
   3  -6  -5    3.90    2.40
   3  -6  -5    4.70    1.80
  -3   6   5    4.70    2.30
   2  -6  -5  236.58   13.40
   2  -6  -5  241.28   13.00
   2  -6  -5  220.88   12.60
   2  -6  -5  232.28   12.30
   2  -6  -5  227.68   10.70
   2  -6  -5  227.68   13.50
   2  -6  -5  256.47   13.90
   2  -6  -5  241.58   13.70
   2  -6  -5  229.78   14.10
   2  -6  -5  240.38   11.40
   2  -6  -5  205.58   13.30
   2  -6  -5  230.18   11.90
   1  -6  -5 3015.50  128.49
   1  -6  -5 3267.37  129.79
   1  -6  -5 3265.77  130.09
   1  -6  -5 3148.59  130.49
   1  -6  -5 3082.89  127.49
   1  -6  -5 3458.15  129.99
   1  -6  -5 3199.08  129.79
   1  -6  -5 3372.66  127.09
   1  -6  -5 3141.69  128.69
   1  -6  -5 3177.28  126.59
   1  -6  -5 3003.30  129.69
   1  -6  -5 3227.58  128.29
   0  -6  -5   18.00    4.00
   0  -6  -5   21.00    4.10
   0  -6  -5   22.60    3.90
   0  -6  -5   26.20    4.30
   0  -6  -5   21.10    2.80
   0  -6  -5   15.50    4.00
   0  -6  -5   19.30    4.00
   0  -6  -5   20.90    3.40
   0  -6  -5   24.80    3.00
   0  -6  -5   24.80    4.10
   0  -6  -5   27.40    3.30
   0  -6  -5   13.30    3.80
   0  -6  -5   26.00    4.60
  -1  -6  -5 1184.68   46.20
  -1  -6  -5 1096.99   48.60
  -1  -6  -5 1139.09   47.40
  -1  -6  -5 1147.89   48.20
  -1  -6  -5 1159.78   48.50
  -1  -6  -5 1026.70   49.20
  -2  -6  -5  894.11   38.80
  -2  -6  -5  895.81   38.00
  -2  -6  -5  923.01   36.90
  -2  -6  -5  903.11   40.20
   2   6   5  866.31   41.20
  -3  -6  -5   20.60    2.50
  -3  -6  -5   16.60    3.00
  -3  -6  -5   19.00    3.00
  -3  -6  -5   26.40    4.00
   3   6   5   16.40    3.70
   3   6   5   17.30    5.30
  -4  -6  -5 3734.33  147.29
  -4  -6  -5 3806.32  146.49
  -4  -6  -5 3805.62  145.19
  -4  -6  -5 3648.14  148.79
  -4  -6  -5 3808.42  151.68
   4   6   5 3239.18  152.28
  -5  -6  -5   11.70    2.80
  -5  -6  -5   32.00    4.20
  -5  -6  -5   16.50    2.90
  -5  -6  -5   25.80    4.20
  -5  -6  -5   21.00    2.60
  -5  -6  -5   27.30    3.90
  -5  -6  -5   21.90    2.70
  -5  -6  -5   14.90    3.80
  -5  -6  -5   20.80    3.80
  -5  -6  -5   19.50    3.60
   5   6   5   11.80    5.20
  -6  -6  -5  431.26   20.60
  -6  -6  -5  435.76   20.60
  -6  -6  -5  410.16   20.20
  -6  -6  -5  428.76   18.00
  -6  -6  -5  394.96   19.70
  -6  -6  -5  430.86   19.50
  -6  -6  -5  395.76   22.40
  -6  -6  -5  404.86   19.60
  -6  -6  -5  404.86   18.40
  -6  -6  -5  442.76   20.00
   6   6   5  404.46   25.60
  -7  -6  -5  276.47   13.40
  -7  -6  -5  270.97   14.30
  -7  -6  -5  237.48   12.00
  -7  -6  -5  270.97   13.70
  -7  -6  -5  239.58   13.70
   7   6   5  241.08   17.90
  -8  -6  -5  608.34   27.40
  -8  -6  -5  589.14   26.50
  -8  -6  -5  614.84   27.20
  -8  -6  -5  640.64   27.20
   8   6   5  596.54   27.30
   8   6   5  602.64   30.50
  -9  -6  -5   28.10    3.10
  -9  -6  -5   34.90    3.00
  -9  -6  -5   29.50    3.50
  -9  -6  -5   31.80    3.20
   3  -7  -5  123.79    6.40
   3  -7  -5  127.19    6.80
   3  -7  -5  131.69    6.50
  -3   7   5  137.29    7.10
   2  -7  -5  189.18    8.70
   2  -7  -5  204.18   10.40
   2  -7  -5  180.58    9.40
   2  -7  -5  199.98    9.60
   2  -7  -5  159.18   10.00
   2  -7  -5  169.68    8.90
   2  -7  -5  182.18   10.10
   2  -7  -5  203.38   10.30
   2  -7  -5  176.78    9.60
  -2   7   5  188.08   10.10
   1  -7  -5  347.37   17.70
   1  -7  -5  367.46   17.80
   1  -7  -5  345.27   17.30
   1  -7  -5  354.16   16.80
   1  -7  -5  353.76   16.70
   1  -7  -5  371.16   17.10
   1  -7  -5  371.86   15.80
   1  -7  -5  369.06   16.20
   1  -7  -5  365.36   17.70
   1  -7  -5  339.77   16.40
   1  -7  -5  350.06   17.80
   0  -7  -5    9.80    2.60
   0  -7  -5    8.50    2.60
   0  -7  -5    7.30    2.60
   0  -7  -5    9.20    2.80
   0  -7  -5    8.90    2.20
   0  -7  -5   14.60    3.40
   0  -7  -5    8.40    2.50
   0  -7  -5    9.00    2.70
   0  -7  -5    8.70    1.90
   0  -7  -5    9.00    2.20
   0  -7  -5    6.50    1.70
  -1  -7  -5  242.98   12.70
  -1  -7  -5  247.58   12.40
  -1  -7  -5  245.58   12.50
  -1  -7  -5  256.67   13.50
  -1  -7  -5  235.98   13.30
  -1  -7  -5  246.68   12.80
  -1  -7  -5  240.58   11.50
  -1  -7  -5  243.78   13.30
  -1  -7  -5  243.98   11.20
  -1  -7  -5  248.48   13.30
  -2  -7  -5  269.07   13.80
  -2  -7  -5  254.77   13.50
  -2  -7  -5  257.77   12.60
  -2  -7  -5  239.68   13.60
  -2  -7  -5  260.57   11.50
  -2  -7  -5  248.38   14.20
  -2  -7  -5  274.77   11.90
  -2  -7  -5  242.38   10.70
  -2  -7  -5  271.47   13.40
  -2  -7  -5  243.38   12.90
  -2  -7  -5  257.27   13.50
  -2  -7  -5  261.37   13.60
  -3  -7  -5  563.64   23.00
  -3  -7  -5  570.64   25.60
  -3  -7  -5  559.04   25.70
  -3  -7  -5  555.14   26.60
  -3  -7  -5  564.14   25.60
  -3  -7  -5  569.84   23.50
  -3  -7  -5  559.84   25.60
  -3  -7  -5  582.54   25.10
  -3  -7  -5  560.54   24.70
  -3  -7  -5  570.24   26.00
  -3  -7  -5  575.94   23.90
  -4  -7  -5  276.17   14.20
  -4  -7  -5  287.47   12.70
  -4  -7  -5  282.47   14.20
  -4  -7  -5  292.97   14.40
  -4  -7  -5  254.97   15.00
  -4  -7  -5  282.67   13.50
  -4  -7  -5  272.87   14.20
  -4  -7  -5  279.07   12.10
  -4  -7  -5  280.47   13.70
  -4  -7  -5  283.27   12.30
   4   7   5  251.27   17.90
  -5  -7  -5  366.86   18.40
  -5  -7  -5  369.56   18.40
  -5  -7  -5  401.16   18.10
  -5  -7  -5  370.36   17.70
  -5  -7  -5  403.46   18.90
  -5  -7  -5  373.86   16.50
  -5  -7  -5  381.96   18.40
  -5  -7  -5  400.16   16.60
  -5  -7  -5  399.26   18.90
  -5  -7  -5  385.66   16.90
   5   7   5  356.36   23.50
  -6  -7  -5   88.59    6.20
  -6  -7  -5   89.19    6.80
  -6  -7  -5   85.29    6.50
  -6  -7  -5   91.09    6.40
  -6  -7  -5   92.99    5.50
  -6  -7  -5   96.69    7.10
  -6  -7  -5   82.89    6.60
  -6  -7  -5  102.19    5.50
  -6  -7  -5   95.49    5.20
  -6  -7  -5   95.79    6.90
   6   7   5   82.49   10.60
  -7  -7  -5 2362.26   92.29
  -7  -7  -5 2312.57   91.89
  -7  -7  -5 2271.97   94.49
  -7  -7  -5 2332.47   94.19
  -7  -7  -5 2286.87   93.49
  -7  -7  -5 2330.77   93.99
  -7  -7  -5 2309.57   93.49
  -7  -7  -5 2387.26   92.49
  -7  -7  -5 2517.05   93.79
   7   7   5 2092.39   98.59
  -8  -7  -5   10.10    2.40
  -8  -7  -5    2.30    1.10
  -8  -7  -5    1.90    1.30
  -8  -7  -5    3.60    1.80
   8   7   5    0.00    1.80
   8   7   5    1.30    2.70
  -9  -7  -5  278.97   12.80
  -9  -7  -5  296.27   13.20
   2  -8  -5  267.67   11.10
   2  -8  -5  259.77   11.40
   2  -8  -5  265.57   11.60
   1  -8  -5  180.18    9.10
   1  -8  -5  184.08    8.00
   1  -8  -5  177.48    8.70
   1  -8  -5  175.88    9.10
   1  -8  -5  181.38    8.40
   1  -8  -5  177.28    9.20
   1  -8  -5  177.68    8.70
   1  -8  -5  167.58    8.10
   1  -8  -5  172.18    8.70
  -1   8   5  180.38    9.10
   0  -8  -5  466.25   21.10
   0  -8  -5  457.95   20.10
   0  -8  -5  461.05   20.20
   0  -8  -5  481.95   20.80
   0  -8  -5  473.25   19.20
   0  -8  -5  465.25   19.80
   0  -8  -5  455.05   20.60
   0  -8  -5  455.35   19.40
   0  -8  -5  428.06   20.30
   0  -8  -5  438.96   20.60
  -1  -8  -5  107.19    6.70
  -1  -8  -5  106.49    7.20
  -1  -8  -5  127.09    6.20
  -1  -8  -5  110.89    6.40
  -1  -8  -5  112.89    7.30
  -1  -8  -5  118.19    5.90
  -1  -8  -5  116.89    7.70
  -1  -8  -5  115.09    7.20
  -1  -8  -5  127.49    7.20
  -2  -8  -5 1018.20   41.00
  -2  -8  -5  985.70   42.50
  -2  -8  -5  992.10   42.60
  -2  -8  -5  984.90   42.90
  -2  -8  -5 1001.20   40.70
  -2  -8  -5 1003.00   41.50
  -2  -8  -5  997.90   42.60
  -2  -8  -5 1043.60   42.50
  -2  -8  -5 1057.69   42.20
  -3  -8  -5  130.99    8.20
  -3  -8  -5  135.49    6.80
  -3  -8  -5  130.19    8.40
  -3  -8  -5  134.89    7.30
  -3  -8  -5  120.49    8.00
  -3  -8  -5  140.89    8.10
  -3  -8  -5  146.99    8.00
  -3  -8  -5  134.89    8.30
  -3  -8  -5  131.79    6.50
  -4  -8  -5   81.59    4.80
  -4  -8  -5   89.99    5.90
  -4  -8  -5   83.79    6.20
  -4  -8  -5   92.89    5.50
  -4  -8  -5   76.59    6.00
  -4  -8  -5   79.29    6.10
  -4  -8  -5   93.89    6.10
  -4  -8  -5   81.29    4.60
  -4  -8  -5   91.09    6.50
   4   8   5   76.19    6.80
  -5  -8  -5   64.79    4.00
  -5  -8  -5   53.49    4.20
  -5  -8  -5   62.09    4.80
  -5  -8  -5   55.59    5.10
  -5  -8  -5   58.19    5.10
  -5  -8  -5   54.39    3.60
  -5  -8  -5   68.59    5.30
  -5  -8  -5   61.39    5.10
  -5  -8  -5   63.69    5.00
   5   8   5   58.29    8.20
  -6  -8  -5  396.36   19.20
  -6  -8  -5  467.65   19.20
  -6  -8  -5  422.26   19.50
  -6  -8  -5  412.96   17.70
  -6  -8  -5  422.96   19.30
  -6  -8  -5  402.86   19.50
  -6  -8  -5  440.66   18.10
  -6  -8  -5  410.46   18.70
  -6  -8  -5  434.46   19.50
   6   8   5  399.26   23.60
  -7  -8  -5    4.30    1.90
  -7  -8  -5    3.00    1.30
  -7  -8  -5    5.80    1.20
  -7  -8  -5    3.10    1.60
  -7  -8  -5    3.70    1.70
  -7  -8  -5    4.10    1.70
  -7  -8  -5    9.80    2.00
  -7  -8  -5    3.00    1.10
   7   8   5    8.70    3.90
  -8  -8  -5   59.69    3.90
  -8  -8  -5   52.89    5.10
  -8  -8  -5   59.89    4.10
  -8  -8  -5   59.29    4.30
  -8  -8  -5   54.69    3.90
   8   8   5   47.90    4.60
  -9  -8  -5  469.15   19.60
   0  -9  -5    2.60    0.90
   0  -9  -5    2.50    1.00
   0  -9  -5    2.00    1.10
   0  -9  -5    5.50    1.40
   0  -9  -5    2.70    0.70
   0  -9  -5    5.10    0.70
   0  -9  -5    3.80    1.10
   0   9   5    3.00    1.10
  -1  -9  -5  276.67   12.60
  -1  -9  -5  268.87   11.60
  -1  -9  -5  274.27   12.30
  -1  -9  -5  288.07   12.90
  -1  -9  -5  275.77   11.50
  -1  -9  -5  271.77   12.50
  -1  -9  -5  247.58   12.30
  -1  -9  -5  283.77   11.70
  -2  -9  -5  336.67   15.30
  -2  -9  -5  317.07   14.90
  -2  -9  -5  333.57   14.20
  -2  -9  -5  355.26   15.50
  -2  -9  -5  360.56   15.80
  -2  -9  -5  343.97   15.40
  -2  -9  -5  338.57   14.30
  -2  -9  -5  330.77   14.10
  -2  -9  -5  317.47   15.00
  -3  -9  -5  168.48    8.80
  -3  -9  -5  175.98    8.00
  -3  -9  -5  176.28    8.20
  -3  -9  -5  179.08    9.50
  -3  -9  -5  163.68    8.70
  -3  -9  -5  179.68    9.20
  -3  -9  -5  180.48    9.30
  -3  -9  -5  180.28    9.20
  -3  -9  -5  176.08    7.80
  -4  -9  -5 1187.48   47.30
  -4  -9  -5 1176.28   49.00
  -4  -9  -5 1158.38   48.50
  -4  -9  -5 1202.18   47.70
  -4  -9  -5 1230.68   48.80
  -4  -9  -5 1116.69   48.20
  -4  -9  -5 1216.18   48.80
  -4  -9  -5 1177.38   47.40
  -4  -9  -5 1213.18   48.80
  -5  -9  -5  602.64   26.40
  -5  -9  -5  623.44   26.50
  -5  -9  -5  637.14   25.60
  -5  -9  -5  615.34   25.20
  -5  -9  -5  600.04   26.00
  -5  -9  -5  612.64   25.00
  -5  -9  -5  636.24   26.50
  -5  -9  -5  626.84   26.40
  -5  -9  -5  586.14   26.20
  -6  -9  -5   24.60    2.70
  -6  -9  -5   24.50    2.00
  -6  -9  -5   22.90    2.70
  -6  -9  -5   29.10    3.20
  -6  -9  -5   26.30    2.30
  -6  -9  -5   26.10    2.90
  -6  -9  -5   26.20    3.10
  -6  -9  -5   27.60    2.00
   6   9   5   23.60    3.50
  -7  -9  -5   96.89    5.10
  -7  -9  -5   94.19    4.80
  -7  -9  -5  101.79    5.60
  -7  -9  -5   96.79    4.60
  -7  -9  -5   94.59    5.40
  -7  -9  -5  101.19    5.70
  -7  -9  -5   91.89    5.30
   7   9   5   95.09    6.20
  -8  -9  -5  225.38    9.80
  -8  -9  -5  232.88   10.20
  -8  -9  -5  220.98   10.10
  -2 -10  -5  232.48   10.10
  -2 -10  -5  231.28    9.50
  -2 -10  -5  232.18   10.20
  -3 -10  -5  105.39    5.40
  -3 -10  -5  109.29    4.80
  -3 -10  -5  101.39    5.30
  -3 -10  -5  106.29    5.60
  -3 -10  -5  112.99    5.50
  -4 -10  -5   39.80    2.90
  -4 -10  -5   36.90    2.20
  -4 -10  -5   40.40    2.90
  -4 -10  -5   37.40    2.90
  -4 -10  -5   40.40    2.90
  -4 -10  -5   39.30    2.10
  -5 -10  -5  153.68    6.90
  -5 -10  -5  154.88    6.50
  -5 -10  -5  161.78    6.80
  -5 -10  -5  161.28    7.60
  -5 -10  -5  161.38    7.60
  -5 -10  -5  163.68    7.70
  -5 -10  -5  158.28    7.50
  -6 -10  -5    5.30    0.60
  -6 -10  -5    6.60    1.30
  -6 -10  -5    7.00    0.90
  -6 -10  -5    5.70    1.10
  -6 -10  -5    5.90    1.30
  -6  -8   6    2.50    0.70
  -5  -8   6  278.67   15.60
  -5  -8   6  301.47   12.10
  -5  -8   6  309.07   12.40
  -7  -7   6  303.47   12.80
  -7  -7   6  302.97   12.50
  -7  -7   6  308.07   12.70
  -7  -7   6  271.07   13.20
  -7  -7   6  304.77   13.50
  -6  -7   6  922.71   36.10
  -6  -7   6  858.91   37.20
  -6  -7   6  932.71   36.30
  -6  -7   6  896.61   37.50
  -6  -7   6  881.11   38.50
  -5  -7   6  703.53   35.10
  -5  -7   6  723.83   30.40
  -5  -7   6  732.53   31.30
  -5  -7   6  735.73   29.70
  -5  -7   6  747.23   32.60
  -4  -7   6    1.80    2.80
  -4  -7   6    4.10    1.00
  -4  -7   6    4.70    1.10
  -4  -7   6    4.40    2.30
   1  -7   6   14.90    1.20
   1  -7   6   16.30    2.40
   1  -7   6   14.20    1.50
   1  -7   6   17.60    3.00
   2  -7   6   16.80    1.40
   2  -7   6   15.10    1.90
  -8  -6   6   19.40    2.50
  -8  -6   6   22.80    2.50
  -8  -6   6   21.70    2.10
  -7  -6   6  434.66   17.70
  -7  -6   6  396.66   19.50
  -7  -6   6  425.46   18.40
  -7  -6   6  381.36   19.20
  -7  -6   6  416.46   19.10
  -7  -6   6  415.06   19.20
  -6  -6   6   57.59    5.30
  -6  -6   6   63.19    4.60
  -6  -6   6   62.49    8.10
  -6  -6   6   58.99    5.80
  -6  -6   6   65.49    5.90
  -6  -6   6   63.69    6.20
  -6  -6   6   57.69    4.10
  -5  -6   6    8.40    1.90
  -5  -6   6   10.40    3.20
  -5  -6   6   10.90    3.40
  -5  -6   6   16.90    2.30
  -5  -6   6   11.50    2.70
  -5  -6   6    9.60    4.50
  -5  -6   6   11.40    2.20
  -4  -6   6   43.50    7.20
  -4  -6   6   48.10    5.60
  -4  -6   6   46.10    4.00
  -4  -6   6   47.80    3.30
  -4  -6   6   41.40    5.30
  -4  -6   6   44.90    3.40
  -3  -6   6 1231.78   49.10
  -3  -6   6 1252.67   50.19
  -3  -6   6 1200.68   52.49
  -3  -6   6 1215.48   52.69
  -3  -6   6 1289.97   56.59
  -3  -6   6 1237.18   49.60
  -2  -6   6  175.58    8.50
   0  -6   6  560.64   26.30
   0  -6   6  585.74   24.30
   0  -6   6  576.24   23.90
   0  -6   6  612.74   28.20
   1  -6   6 1077.99   45.50
   1  -6   6 1054.19   40.70
   1  -6   6 1030.60   42.10
   1  -6   6  974.20   41.30
   1  -6   6  983.80   43.50
   2  -6   6  459.65   20.00
   2  -6   6  465.25   21.70
   2  -6   6  468.65   20.80
   2  -6   6  464.45   19.90
   2  -6   6  501.85   19.60
   2  -6   6  474.45   22.30
   2  -6   6  492.35   23.10
   3  -6   6  391.46   18.00
   3  -6   6  422.06   19.10
   3  -6   6  398.26   16.90
   3  -6   6  397.36   16.90
   3  -6   6  411.46   18.60
  -8  -5   6  984.50   40.50
  -8  -5   6  946.91   40.00
  -7  -5   6   60.89    4.40
  -7  -5   6   48.90    5.60
  -7  -5   6   62.19    6.10
  -7  -5   6   53.49    7.70
  -7  -5   6   58.89    5.70
  -7  -5   6   64.69    6.40
  -7  -5   6   63.19    5.30
  -6  -5   6   38.70    5.90
  -6  -5   6   26.30    6.40
  -6  -5   6   42.30    4.00
  -6  -5   6   38.60    5.10
  -6  -5   6   40.70    4.40
  -6  -5   6   40.10    5.70
  -6  -5   6   42.50    5.60
  -6  -5   6   43.60    4.20
  -5  -5   6 1022.90   41.70
  -5  -5   6  913.71   38.90
  -5  -5   6  984.80   46.30
  -5  -5   6  941.91   41.90
  -5  -5   6  894.01   39.30
  -5  -5   6  987.40   41.60
  -5  -5   6  899.31   39.60
  -5  -5   6  893.31   41.30
  -5  -5   6  921.01   41.90
  -4  -5   6  530.65   24.30
  -4  -5   6  518.75   25.60
  -4  -5   6  571.54   29.10
  -4  -5   6  506.25   24.20
  -4  -5   6  516.55   25.00
  -4  -5   6  538.65   22.90
  -4  -5   6  514.75   22.90
  -3  -5   6  720.33   30.30
  -3  -5   6  673.03   28.80
  -3  -5   6  675.73   32.00
  -3  -5   6  678.23   28.90
  -3  -5   6  714.73   31.40
  -3  -5   6  730.93   34.80
  -3  -5   6  679.43   29.70
  -2  -5   6   20.90    2.10
  -2  -5   6   20.00    2.60
  -2  -5   6   23.90    2.40
  -2  -5   6   19.60    4.60
  -2  -5   6   24.60    5.00
  -2  -5   6   19.20    3.60
  -1  -5   6  158.58    7.60
  -1  -5   6  157.08   11.40
  -1  -5   6  160.98    8.30
  -1  -5   6  171.88   10.90
   0  -5   6   28.00    2.30
   0  -5   6   25.20    4.40
   0  -5   6   20.30    2.70
   0  -5   6   35.80    6.60
   0  -5   6   26.90    2.70
   0  -5   6   22.60    5.40
   1  -5   6  308.97   15.30
   1  -5   6  313.17   16.40
   1  -5   6  298.77   14.40
   1  -5   6  331.77   13.90
   1  -5   6  292.97   18.00
   2  -5   6   13.90    2.70
   2  -5   6   17.10    3.80
   2  -5   6   19.60    3.50
   2  -5   6   13.30    2.10
   2  -5   6   15.20    3.90
   2  -5   6   12.60    2.10
   2  -5   6   17.40    5.00
   3  -5   6  767.92   36.80
   3  -5   6  843.82   37.70
   3  -5   6  886.31   35.40
   3  -5   6  846.82   37.10
   3  -5   6  870.31   36.10
   3  -5   6  848.12   35.00
   3  -5   6  898.61   39.50
   4  -5   6    5.60    1.90
   4  -5   6    2.50    1.10
   4  -5   6    1.60    2.10
   4  -5   6    2.20    1.10
   4  -5   6    2.20    2.10
   4  -5   6    2.90    1.30
   8   4  -6   30.90    5.40
  -8  -4   6   42.70    4.40
  -7  -4   6  422.56   19.80
  -7  -4   6  398.86   17.80
  -7  -4   6  421.66   20.80
  -7  -4   6  372.86   16.90
  -7  -4   6  349.87   19.00
  -6  -4   6   82.29    8.30
  -6  -4   6   78.39    8.00
  -6  -4   6   75.89    9.90
  -6  -4   6   87.39    8.00
  -6  -4   6   76.99    6.50
  -6  -4   6   82.29    6.90
  -6  -4   6   73.69    4.90
  -6  -4   6   76.89    6.70
  -6  -4   6   78.59    6.10
  -5  -4   6  945.41   38.30
  -5  -4   6  879.41   38.90
  -5  -4   6  928.81   41.50
  -5  -4   6  897.91   38.70
  -5  -4   6  881.21   40.20
  -5  -4   6  879.01   36.80
  -5  -4   6  943.81   41.20
  -5  -4   6  832.62   39.30
  -5  -4   6  858.21   41.20
  -5  -4   6  990.00   45.10
  -4  -4   6    2.20    2.10
  -4  -4   6    2.90    2.90
  -4  -4   6    2.50    2.10
  -4  -4   6    1.80    1.80
  -4  -4   6   15.60    5.00
  -4  -4   6    1.40    1.80
  -4  -4   6    3.80    1.90
  -3  -4   6   16.10    3.20
  -3  -4   6   19.10    4.50
  -3  -4   6   19.50    3.60
  -3  -4   6   19.30    2.80
  -2  -4   6 2566.94  102.79
  -2  -4   6 2567.04  105.59
  -2  -4   6 2511.45  102.69
  -1  -4   6   35.50    4.90
  -1  -4   6   33.60    3.50
   0  -4   6 1364.26   57.69
   0  -4   6 1344.17   62.09
   0  -4   6 1485.95   55.89
  -1   4  -6  313.37   18.70
   1  -4   6  345.57   14.60
   1  -4   6  346.87   16.50
   1  -4   6  324.77   19.70
   2  -4   6  176.68   10.60
   2  -4   6  164.88    9.80
   2  -4   6  147.59   10.40
   2  -4   6  171.98    8.40
   2  -4   6  169.58    8.10
   2  -4   6  147.89   12.40
   2  -4   6  167.78   10.30
   2  -4   6  169.98   10.70
   3  -4   6 1243.68   51.09
   3  -4   6 1180.98   48.70
   3  -4   6 1189.98   50.59
   3  -4   6 1088.69   53.89
   3  -4   6 1205.98   48.50
   3  -4   6 1147.09   50.99
   3  -4   6 1261.57   51.79
   3  -4   6 1226.58   51.69
   3  -4   6 1190.98   48.90
   4  -4   6  666.63   31.00
   4  -4   6  684.53   32.20
   4  -4   6  688.93   34.00
   4  -4   6  698.33   29.20
   4  -4   6  714.53   31.10
   4  -4   6  710.93   32.20
   4  -4   6  721.83   29.80
   5  -4   6   31.00    4.30
   5  -4   6   24.70    3.50
   5  -4   6   31.00    2.70
   5  -4   6   34.30    3.80
   5  -4   6   25.60    2.90
   5  -4   6   31.20    5.10
   8   3  -6   14.20    4.10
  -8  -3   6   14.50    2.20
  -8  -3   6   16.20    2.90
  -7  -3   6 1020.00   45.10
  -7  -3   6 1017.30   41.80
  -7  -3   6  953.90   43.00
  -6  -3   6   36.00    6.50
  -6  -3   6   36.10    4.00
  -6  -3   6   36.40    4.60
  -6  -3   6   28.40    4.50
  -5  -3   6   20.90    4.30
  -5  -3   6   22.30    5.80
  -5  -3   6   18.40    3.90
  -5  -3   6   17.20    2.90
  -5  -3   6   21.90    4.40
  -5  -3   6   23.60    5.30
  -5  -3   6   12.80    4.10
  -5  -3   6   30.70    4.50
  -5  -3   6   20.10    3.60
  -5  -3   6   20.90    5.30
  -4  -3   6   56.59    7.00
  -4  -3   6   59.39    5.70
  -4  -3   6   65.19    6.90
  -4  -3   6   60.49    5.50
  -3  -3   6  695.63   33.40
  -3  -3   6  696.13   30.90
  -3  -3   6  724.73   32.70
  -2  -3   6   93.29    7.90
  -2  -3   6  106.49    7.70
  -1  -3   6    9.10    2.50
  -1  -3   6   11.00    3.10
   0   3  -6  425.56   20.80
   0  -3   6  408.86   19.40
   0  -3   6  423.36   20.70
  -1   3  -6 2258.27   92.19
   1  -3   6 2140.59   90.89
   1  -3   6 2267.07   89.89
  -2   3  -6  430.16   23.50
   2  -3   6  448.56   24.40
   2  -3   6  418.76   24.70
   2  -3   6  476.25   19.60
   2  -3   6  502.15   21.80
   3  -3   6 1116.79   45.20
   3  -3   6 1122.09   47.40
   3  -3   6 1052.29   51.49
   3  -3   6 1112.39   48.10
   3  -3   6 1162.18   47.50
   3  -3   6 1098.09   45.50
   3  -3   6 1073.09   48.50
   3  -3   6 1097.59   51.99
   3  -3   6 1144.09   45.60
   3  -3   6 1144.99   48.20
   4  -3   6  334.97   15.00
   4  -3   6  338.67   17.80
   4  -3   6  334.77   21.00
   4  -3   6  318.57   15.40
   4  -3   6  327.97   14.90
   4  -3   6  326.27   17.20
   4  -3   6  357.86   18.30
   4  -3   6  329.27   16.80
   4  -3   6  324.77   20.40
   4  -3   6  326.97   17.90
   5  -3   6   12.10    2.00
   5  -3   6   21.50    3.60
   5  -3   6    8.60    3.90
   5  -3   6   13.30    3.10
   5  -3   6    4.70    2.90
   5  -3   6   10.30    3.40
   5  -3   6    5.00    4.00
   5  -3   6    4.70    2.60
   5  -3   6    6.10    1.90
   6  -3   6 1135.39   49.60
   6  -3   6 1182.18   48.80
   6  -3   6 1143.49   48.60
   8   2  -6  618.64   29.30
  -8  -2   6  680.03   28.90
  -8  -2   6  651.83   28.10
  -8  -2   6  680.23   28.90
  -7  -2   6  349.96   18.20
  -7  -2   6  376.26   17.80
  -7  -2   6  371.16   18.50
   6   2  -6   31.10    7.10
  -6  -2   6   43.00    5.10
  -6  -2   6   39.90    6.90
  -6  -2   6   45.00    4.90
  -5  -2   6 1788.62   73.09
  -5  -2   6 1747.93   76.99
  -5  -2   6 1852.91   72.39
  -5  -2   6 1752.72   73.59
  -4  -2   6 1805.62   78.79
  -4  -2   6 1860.81   73.39
  -4  -2   6 1910.41   75.69
  -4  -2   6 1781.12   78.49
  -4  -2   6 1805.02   75.99
  -3  -2   6 2113.49   88.49
  -3  -2   6 2124.39   88.99
  -2  -2   6 2066.69   89.49
  -2  -2   6 2294.47   92.19
  -1  -2   6 1842.42  140.99
  -1  -2   6 1813.22   75.39
   0   2  -6  122.19    7.80
   0   2  -6  114.59   43.40
   0  -2   6  123.39    7.20
   0  -2   6  125.39    8.60
  -1   2  -6 1366.26   54.29
   1  -2   6 1214.98   52.39
   1  -2   6 1266.17   53.09
   1  -2   6 1239.98   56.29
  -2   2  -6  366.86   18.60
   2  -2   6  357.16   16.80
   2  -2   6  310.87   20.70
  -3   2  -6  826.02   38.60
   3  -2   6  833.12   36.40
   3  -2   6  828.92   39.60
   3  -2   6  839.72   34.20
   3  -2   6  803.12   41.80
   4  -2   6  341.27   23.20
   4  -2   6  346.07   17.80
   4  -2   6  332.87   16.70
   4  -2   6  345.27   15.70
   4  -2   6  313.17   18.10
   4  -2   6  356.46   17.50
   4  -2   6  326.27   17.90
   4  -2   6  350.46   15.20
   4  -2   6  343.67   20.50
   4  -2   6  323.17   18.70
   5  -2   6   72.99   10.60
   5  -2   6   73.59    6.10
   5  -2   6   86.59    7.20
   5  -2   6   77.49    8.90
   5  -2   6   73.79    7.50
   5  -2   6   77.69    7.20
   5  -2   6   69.79    4.80
   5  -2   6   70.09    5.30
   5  -2   6   77.69    7.40
   5  -2   6   73.59    7.40
   6  -2   6   32.90    4.90
   6  -2   6   47.30    6.70
   6  -2   6   36.50    7.80
   6  -2   6   33.60    4.10
   6  -2   6   45.10    5.40
   6  -2   6   31.80    4.80
  -7   2  -6  289.27   13.80
   7  -2   6  268.77   13.10
  -8  -1   6  103.59    6.80
  -8  -1   6  122.69    7.20
  -8  -1   6  115.29    7.00
   7   1  -6  195.38   14.10
  -7  -1   6  217.18   12.20
  -7  -1   6  214.18   12.00
  -7  -1   6  208.48   12.20
   6   1  -6  501.75   29.40
  -6  -1   6  503.25   26.90
  -6  -1   6  591.84   25.70
  -6  -1   6  561.64   25.70
   5   1  -6  634.94   36.30
  -5  -1   6  707.63   36.00
  -5  -1   6  757.82   31.20
  -5  -1   6  642.44   32.80
  -4  -1   6   66.69    8.30
  -3  -1   6  372.06   19.20
  -3  -1   6  362.46   20.80
  -3  -1   6  326.87   19.00
  -2  -1   6 5065.49  203.98
  -2  -1   6 5472.15  203.48
  -2  -1   6 4800.12  277.07
  -1  -1   6  693.53   27.50
  -1  -1   6  610.94   27.10
  -1  -1   6  647.44   71.59
   0   1  -6 2014.40   84.09
   0   1  -6 2179.88  167.38
   0  -1   6 2122.29   81.79
   0  -1   6 1993.90   83.09
  -1   1  -6 1836.22   70.49
  -1   1  -6 1637.94  155.58
   1  -1   6 1588.84   73.69
   1  -1   6 1746.73   67.19
   1  -1   6 1697.33   69.39
  -2   1  -6 1753.42   67.39
   2  -1   6 1592.04   63.29
   2  -1   6 1496.85   71.29
   2  -1   6 1552.74   65.99
  -3   1  -6 1245.28   53.09
   3  -1   6 1245.78   57.49
   3  -1   6 1197.08   51.19
   3  -1   6 1192.78   51.99
   3  -1   6 1205.78   48.60
  -4   1  -6 2487.85  105.69
   4  -1   6 2617.74  101.39
   4  -1   6 2527.95  110.79
   4  -1   6 2526.45  105.79
   5  -1   6  128.09    6.80
   5  -1   6  113.89   10.30
   5  -1   6  127.79    9.20
   5  -1   6  114.89   11.10
   5  -1   6  114.19    9.90
   5  -1   6  137.89   14.50
  -6   1  -6   12.70    3.10
   6  -1   6   16.90    4.70
   6  -1   6   12.70    3.90
   6  -1   6   13.90    4.50
   6  -1   6    9.90    3.10
   6  -1   6   16.60    6.40
  -7   1  -6  124.49    8.30
   7  -1   6  115.69    8.30
   7  -1   6  126.79    8.30
   7   0  -6 1294.67   58.79
  -7   0   6 1396.86   56.89
  -7   0   6 1389.96   56.89
   6   0  -6   71.29   10.10
  -6   0   6   62.89    6.20
  -6   0   6   65.39    6.20
   5   0  -6  230.98   18.00
  -5   0   6  235.88   19.50
  -5   0   6  262.07   13.70
  -5   0   6  248.98   13.80
   4   0  -6  101.79   12.10
  -4   0   6  101.49   11.40
  -3   0   6  666.03   34.50
  -2   0   6    4.00    3.40
  -2   0   6   20.00   15.80
  -1   0   6  558.44   23.20
  -1   0   6  521.35   57.59
  -1   0   6  532.05   25.70
   0   0  -6  100.19    7.20
   0   0  -6  121.09   32.00
   0   0   6  114.09    7.40
   0   0   6  109.99    6.50
  -1   0  -6 3082.69  202.38
  -1   0  -6 3090.89  127.19
   1   0   6 3102.89  126.39
   1   0   6 3400.06  126.59
  -2   0  -6  499.85   75.19
  -2   0  -6  658.53   28.00
   2   0   6  592.64   26.80
   2   0   6  652.93   26.50
  -3   0  -6 2188.78   84.09
  -3   0  -6 1697.73  157.88
   3   0   6 2101.49   82.99
   3   0   6 1998.20   87.99
   3   0   6 2071.79   81.69
  -4   0  -6  294.47   16.30
   4   0   6  264.57   19.10
   4   0   6  256.77   13.70
   4   0   6  267.87   15.30
  -5   0  -6    7.80    2.20
   5   0   6    9.30    3.20
   5   0   6    5.90    3.80
   5   0   6   12.80    6.10
   5   0   6    6.20    2.10
  -6   0  -6 3210.68  126.49
   6   0   6 3259.67  128.69
   6   0   6 3251.87  129.69
   6   0   6 2913.61  130.09
  -7   0  -6  195.08   11.70
  -7   0  -6  197.68   10.70
   7   0   6  198.08   12.50
   7   0   6  192.38   13.40
  -8   0  -6  186.58   10.20
   8   0   6  190.48   10.50
   8   0   6  180.98   10.20
   7  -1  -6   88.19    7.60
  -7   1   6   95.29    6.60
  -7   1   6   91.49    6.50
   6  -1  -6  174.18   13.10
  -6   1   6  154.58   12.40
  -6   1   6  161.08   10.40
  -6   1   6  172.88   10.60
   5  -1  -6  468.95   26.50
  -5   1   6  442.86   22.00
  -5   1   6  446.46   22.20
   4  -1  -6 3949.70  153.38
   4  -1  -6 3467.65  150.78
  -4   1   6 3581.04  154.68
   3  -1  -6  121.89   10.10
  -3   1   6  121.09   11.90
   2  -1  -6  783.92   34.30
  -2   1   6  698.83   35.80
  -2   1   6  679.03   69.79
   1  -1  -6 1697.33   70.29
  -1   1   6 1721.43   68.19
  -1   1   6 1585.84  104.79
  -1   1   6 1637.64   71.79
   0  -1  -6   10.80    3.40
   0  -1  -6   14.60   12.30
   0  -1  -6    9.50    3.00
   0   1   6   19.10    2.80
   0   1   6   13.60   10.10
   0   1   6   10.30    3.20
  -1  -1  -6 5178.78  248.88
  -1  -1  -6 4015.70  189.98
  -1  -1  -6 4656.93  188.08
   1   1   6 4867.61  187.18
   1   1   6 4860.61  188.68
  -2  -1  -6   12.70   14.20
  -2  -1  -6   22.60    3.50
   2   1   6   10.80    2.50
   2   1   6   15.90    3.40
  -3  -1  -6   90.49    7.20
  -3  -1  -6   86.89   29.80
   3   1   6   99.69    7.30
   3   1   6   92.29    7.00
  -4  -1  -6  318.37   17.70
   4   1   6  315.97   17.20
   4   1   6  338.57   17.30
  -5  -1  -6  437.86   20.50
  -5  -1  -6  477.65   24.40
   5   1   6  430.36   23.30
   5   1   6  473.95   23.20
  -6  -1  -6  188.48   10.50
  -6  -1  -6  185.78   11.70
   6   1   6  185.38   12.20
   6   1   6  183.38   12.90
  -7  -1  -6  218.68   12.90
  -7  -1  -6  221.68   11.90
   7   1   6  216.38   13.90
  -8  -1  -6  150.38    9.00
  -8  -1  -6  156.08    9.70
   8   1   6  170.38   11.40
   8   1   6  175.38   10.40
   7  -2  -6    6.60    2.30
  -7   2   6    3.00    2.00
  -7   2   6    3.50    1.50
   6  -2  -6   79.79    7.90
  -6   2   6   80.89    6.70
  -6   2   6   75.59    6.40
  -6   2   6   79.09    6.30
   5  -2  -6  124.19   11.00
  -5   2   6  108.59    8.40
  -5   2   6  108.89    8.40
  -5   2   6  109.89    8.60
   4  -2  -6   44.20    7.70
   4  -2  -6   43.10    7.30
  -4   2   6   40.40    5.00
  -4   2   6   41.20    5.20
   3  -2  -6  496.95   26.50
   3  -2  -6  472.25   25.60
   2  -2  -6 1600.24   68.89
   1  -2  -6 1017.20   45.10
  -1   2   6  952.30   43.60
  -1   2   6 1047.00   47.10
   0  -2  -6 1740.03   73.09
   0   2   6 1759.52   73.99
   0   2   6 1668.43   71.19
  -1  -2  -6 2495.85  100.39
  -1  -2  -6 2341.37  100.69
   1   2   6 2289.87   98.39
   1   2   6 2568.94  100.59
  -2  -2  -6 3549.94  138.99
  -2  -2  -6 3406.46  140.69
   2   2   6 3385.66  139.59
   2   2   6 3387.16  137.89
  -3  -2  -6  844.12   36.30
  -3  -2  -6  857.81   38.40
   3   2   6  788.12   35.30
   3   2   6  761.02   36.60
   3   2   6  708.83   36.60
  -4  -2  -6 3672.73  152.18
  -4  -2  -6 3904.61  151.28
   4   2   6 3525.05  151.58
   4   2   6 3684.33  150.18
   4   2   6 3797.92  151.58
  -5  -2  -6  120.89    7.10
  -5  -2  -6  112.69    9.20
  -5  -2  -6   87.59    9.40
   5   2   6   98.99    8.70
   5   2   6   97.49    9.00
  -6  -2  -6    3.30    2.50
   6   2   6    7.40    3.80
   6   2   6    5.50    3.20
  -7  -2  -6  981.10   44.50
  -7  -2  -6 1045.60   43.50
   7   2   6 1007.30   45.10
  -8  -2  -6   55.29    5.30
  -8  -2  -6   55.89    5.80
   8   2   6   71.09    6.80
   9   2   6  439.66   19.10
   9   2   6  401.96   19.40
   6  -3  -6  337.47   16.60
   6  -3  -6  319.27   15.50
  -6   3   6  329.97   15.70
  -6   3   6  314.97   15.10
  -6   3   6  328.37   15.60
   5  -3  -6  493.85   24.40
   5  -3  -6  464.45   23.00
  -5   3   6  436.16   22.60
  -5   3   6  459.75   22.20
  -5   3   6  473.75   22.70
   4  -3  -6  445.96   23.10
   4  -3  -6  338.57   19.80
  -4   3   6  409.06   20.50
   3  -3  -6  982.80   42.30
   3  -3  -6  907.31   41.50
   3  -3  -6  904.11   38.90
   3  -3  -6  799.52   38.90
   3  -3  -6  762.82   39.50
  -3   3   6  947.41   39.50
   2  -3  -6  264.97   16.20
   1  -3  -6  337.17   19.00
  -1   3   6  354.06   18.90
   0  -3  -6  292.77   17.80
   0  -3  -6  313.77   17.20
   0   3   6  295.87   16.40
  -1  -3  -6  714.83   31.50
  -1  -3  -6  604.04   31.60
   1   3   6  656.23   30.40
  -2  -3  -6   65.39    6.60
  -2  -3  -6   64.99    6.80
  -2  -3  -6   60.89    6.80
   2   3   6   66.09    7.70
   2   3   6   56.99    5.70
  -3  -3  -6  202.18   13.10
  -3  -3  -6  223.98   13.30
   3   3   6  202.28   12.50
   3   3   6  204.58   14.20
  -4  -3  -6  888.21   40.90
  -4  -3  -6  939.51   40.60
   4   3   6  812.62   39.70
   4   3   6  914.01   42.60
  -5  -3  -6  700.43   31.10
  -5  -3  -6  699.03   34.30
  -5  -3  -6  698.83   33.70
   5   3   6  745.43   36.10
   5   3   6  710.73   32.10
  -6  -3  -6 2549.65  101.59
  -6  -3  -6 2311.37  102.79
  -6  -3  -6 2527.25  100.29
   6   3   6 2479.25  101.69
  -7  -3  -6  993.10   45.40
  -7  -3  -6  976.60   44.90
  -7  -3  -6 1109.59   44.90
   7   3   6 1052.19   45.80
  -8  -3  -6  174.68   11.20
  -8  -3  -6  170.38   10.80
  -8  -3  -6  187.08   10.80
   8   3   6  207.68   11.90
   9   3   6  404.96   18.60
   5  -4  -6  152.78    9.70
   5  -4  -6  156.18    8.50
  -5   4   6  148.69    9.20
  -5   4   6  148.49    8.90
  -5   4   6  149.09    9.10
   4  -4  -6 2205.98   85.99
   4  -4  -6 1867.71   88.29
   4  -4  -6 1956.60   84.49
   4  -4  -6 2096.79   83.69
   4  -4  -6 1990.10   83.39
  -4   4   6 2138.89   84.99
   3  -4  -6   12.80    3.40
   3  -4  -6   18.40    4.40
   3  -4  -6   10.30    3.10
   3  -4  -6    9.60    4.10
   3  -4  -6   13.00    4.00
   3  -4  -6   10.10    4.60
   3  -4  -6   15.90    4.00
  -3   4   6   14.50    3.60
   2  -4  -6  532.75   29.90
   2  -4  -6  629.34   27.50
   2  -4  -6  515.45   25.00
   2  -4  -6  536.15   25.80
   2  -4  -6  570.64   26.90
   2  -4  -6  526.55   24.50
   2  -4  -6  486.65   28.60
   2  -4  -6  507.15   25.40
   2  -4  -6  464.25   24.00
   1  -4  -6 1928.71   80.59
   1  -4  -6 1847.02   76.59
   1  -4  -6 1800.22   80.49
   1  -4  -6 1744.63   74.99
  -1   4   6 1861.51   78.69
   0  -4  -6  658.43   31.20
   0  -4  -6  675.33   32.30
   0  -4  -6  744.53   35.00
   0   4   6  688.43   32.80
  -1  -4  -6 3616.34  137.19
  -1  -4  -6 3317.27  133.79
   1   4   6 2959.90  134.99
   1   4   6 3399.06  135.39
  -2  -4  -6   22.20    3.50
  -2  -4  -6   18.50    4.00
   2   4   6   21.00    4.90
   2   4   6   25.10    4.30
  -3  -4  -6   52.59    6.00
  -3  -4  -6   52.49    5.00
   3   4   6   50.49    5.70
   3   4   6   47.00    7.10
  -4  -4  -6    9.70    2.70
  -4  -4  -6    7.20    2.50
   4   4   6    3.50    2.20
   4   4   6    4.10    3.70
  -5  -4  -6  681.73   31.10
  -5  -4  -6  653.23   29.90
  -5  -4  -6  665.53   33.30
   5   4   6  681.03   35.10
  -6  -4  -6  173.78   11.70
  -6  -4  -6  165.78   11.40
  -6  -4  -6  181.98   11.60
  -6  -4  -6  176.28   10.80
   6   4   6  191.88   14.80
  -7  -4  -6    2.90    2.20
  -7  -4  -6    2.70    2.80
  -7  -4  -6    6.70    3.20
   7   4   6   -1.00    2.70
  -8  -4  -6    8.60    2.90
  -8  -4  -6    9.80    3.00
  -8  -4  -6    9.50    3.20
   8   4   6   11.60    3.50
  -9  -4  -6  837.22   37.00
  -9  -4  -6  857.41   36.70
   9   4   6  951.90   37.20
  -5   5   6  210.38   11.20
  -5   5   6  196.08    9.80
   4  -5  -6  370.76   17.20
   4  -5  -6  362.06   18.20
   4  -5  -6  394.76   18.40
   4  -5  -6  396.86   16.60
  -4   5   6  350.96   18.10
  -4   5   6  378.16   18.20
  -4   5   6  364.16   19.20
   3  -5  -6   50.39    4.80
   3  -5  -6   44.40    6.60
   3  -5  -6   56.79    5.70
   3  -5  -6   49.80    6.10
   3  -5  -6   38.60    5.50
   3  -5  -6   47.70    4.90
   3  -5  -6   58.99    6.10
  -3   5   6   49.10    5.90
   2  -5  -6  920.31   40.60
   2  -5  -6  959.80   42.20
   2  -5  -6  976.80   43.40
   2  -5  -6 1037.90   43.70
   2  -5  -6  954.30   41.50
   2  -5  -6  942.71   43.20
   2  -5  -6  985.50   42.00
   2  -5  -6 1037.30   46.20
   1  -5  -6 1004.30   47.30
   1  -5  -6 1074.29   44.50
   1  -5  -6 1054.49   47.10
   1  -5  -6 1123.49   49.70
   1  -5  -6 1116.99   47.40
   1  -5  -6 1060.89   46.10
   1  -5  -6 1094.59   45.50
   1  -5  -6 1079.29   48.90
   1  -5  -6 1117.09   45.60
   1  -5  -6  931.41   49.50
   1  -5  -6 1118.09   45.80
   1  -5  -6 1163.28   47.80
   1  -5  -6 1095.79   49.70
   0  -5  -6  144.09    8.40
   0  -5  -6  139.49   11.50
   0  -5  -6  141.09    8.90
   0  -5  -6  133.09   10.80
   0  -5  -6  142.19   10.40
   0   5   6  164.28   11.80
  -1  -5  -6  250.97   14.10
  -1  -5  -6  255.67   15.50
  -1  -5  -6  230.18   12.50
   1   5   6  245.98   15.30
  -2  -5  -6 2901.81  110.89
  -2  -5  -6 2685.23  105.69
  -2  -5  -6 2718.33  108.69
  -2  -5  -6 2606.94  106.99
   2   5   6 2758.62  110.59
   2   5   6 2510.25  110.79
   2   5   6 2539.15  108.39
  -3  -5  -6  230.68   12.20
  -3  -5  -6  246.28   13.50
  -3  -5  -6  258.87   15.00
  -3  -5  -6  246.28   11.50
   3   5   6  254.67   14.90
   3   5   6  248.98   16.70
  -4  -5  -6 3489.65  138.29
  -4  -5  -6 3191.68  134.69
  -4  -5  -6 3476.95  134.29
  -4  -5  -6 3322.87  136.19
   4   5   6 3269.57  140.89
   4   5   6 3524.95  138.09
  -5  -5  -6   71.79    5.10
  -5  -5  -6   70.39    5.70
   5   5   6   73.79    9.70
  -6  -5  -6  588.54   27.60
  -6  -5  -6  584.44   26.90
  -6  -5  -6  554.24   26.80
  -6  -5  -6  564.14   27.10
  -6  -5  -6  579.14   26.50
  -6  -5  -6  579.44   25.40
   6   5   6  585.34   31.70
  -7  -5  -6 1125.79   51.39
  -7  -5  -6 1317.47   51.69
  -7  -5  -6 1135.59   53.39
  -7  -5  -6 1191.78   51.99
  -7  -5  -6 1158.68   51.69
   7   5   6 1327.77   56.69
   7   5   6 1226.48   51.89
  -8  -5  -6   70.09    6.10
  -8  -5  -6   79.29    6.50
  -8  -5  -6   77.79    6.20
  -9  -5  -6  425.16   18.60
  -9  -5  -6  401.16   18.40
  -9  -5  -6  411.16   18.60
   4  -6  -6  294.27   13.30
  -4   6   6  317.07   13.80
  -4   6   6  309.97   13.90
   3  -6  -6 1122.69   45.80
   3  -6  -6 1175.48   46.90
   3  -6  -6 1035.30   46.20
   3  -6  -6 1163.58   46.80
  -3   6   6 1053.69   46.50
   2  -6  -6  387.56   19.60
   2  -6  -6  371.46   19.30
   2  -6  -6  365.36   19.70
   2  -6  -6  411.06   19.60
   2  -6  -6  358.06   20.00
   2  -6  -6  365.06   18.00
   2  -6  -6  390.36   16.90
   2  -6  -6  413.16   18.70
   2  -6  -6  413.86   19.50
   2  -6  -6  390.76   17.20
   2  -6  -6  387.66   19.40
   2  -6  -6  367.56   18.70
   1  -6  -6 1858.41   78.09
   1  -6  -6 2000.30   80.99
   1  -6  -6 1915.01   76.99
   1  -6  -6 1989.20   79.69
   1  -6  -6 2031.70   79.89
   1  -6  -6 2073.39   78.89
   1  -6  -6 1700.33   78.49
   1  -6  -6 1986.60   77.79
   1  -6  -6 1662.13   79.19
   1  -6  -6 1878.11   79.49
   1  -6  -6 1986.50   80.79
   0  -6  -6   65.39    6.60
   0  -6  -6   82.89    7.30
   0  -6  -6   77.79    5.10
   0  -6  -6   81.39    7.00
   0  -6  -6   76.79    6.50
   0  -6  -6   82.29    7.10
   0  -6  -6   78.49    6.30
   0  -6  -6   75.09    6.90
   0  -6  -6   68.89    7.50
   0  -6  -6   76.79    7.30
   0  -6  -6   75.49    5.30
   0  -6  -6   75.49    5.80
   0  -6  -6   86.19    5.70
  -1  -6  -6    6.30    2.50
  -1  -6  -6    6.60    2.40
  -1  -6  -6    7.20    3.00
  -1  -6  -6    4.90    2.00
  -1  -6  -6   12.60    3.40
  -1  -6  -6    7.10    2.70
  -1  -6  -6    6.10    2.50
  -1  -6  -6   10.60    2.20
  -1  -6  -6    8.30    2.80
  -1  -6  -6    5.50    2.20
  -1  -6  -6    9.10    2.00
  -1  -6  -6   11.30    3.20
  -1  -6  -6    5.90    2.00
  -2  -6  -6  191.38   11.10
  -2  -6  -6  183.48   11.00
  -2  -6  -6  174.68   11.90
  -2  -6  -6  193.48    9.40
  -2  -6  -6  181.58   10.00
  -3  -6  -6  678.63   32.10
  -3  -6  -6  682.53   30.70
  -3  -6  -6  652.63   29.40
  -3  -6  -6  728.13   28.90
  -3  -6  -6  667.83   33.70
   3   6   6  696.53   34.40
  -4  -6  -6    8.30    1.80
  -4  -6  -6   15.40    3.20
  -4  -6  -6    4.80    1.90
  -4  -6  -6   13.70    2.60
  -4  -6  -6    7.40    2.70
  -4  -6  -6    6.70    2.90
  -4  -6  -6    5.30    2.20
   4   6   6    3.10    3.70
  -5  -6  -6  795.62   36.60
  -5  -6  -6  831.32   35.30
  -5  -6  -6  853.41   36.90
  -5  -6  -6  812.52   35.60
  -5  -6  -6  834.62   34.50
  -5  -6  -6  856.71   35.70
  -5  -6  -6  817.72   36.10
  -5  -6  -6  862.01   34.00
  -5  -6  -6  823.52   35.80
  -5  -6  -6  795.32   35.80
   5   6   6  818.42   41.60
  -6  -6  -6  557.54   23.60
  -6  -6  -6  581.94   25.50
  -6  -6  -6  557.14   25.90
  -6  -6  -6  570.84   26.40
  -6  -6  -6  552.74   25.10
  -6  -6  -6  529.95   25.50
   6   6   6  588.34   31.40
  -7  -6  -6 1039.90   45.30
  -7  -6  -6 1063.89   45.70
  -7  -6  -6 1125.59   45.50
  -7  -6  -6 1014.10   45.00
  -7  -6  -6 1011.80   45.60
   7   6   6 1176.18   51.39
  -8  -6  -6    0.50    1.80
  -8  -6  -6    0.90    1.70
  -8  -6  -6    2.50    1.80
  -8  -6  -6    2.10    1.80
   8   6   6    4.40    2.20
   8   6   6    5.90    3.40
  -9  -6  -6  142.99    7.70
  -9  -6  -6  147.59    7.30
   3  -7  -6    6.30    1.20
   3  -7  -6   11.10    1.50
   3  -7  -6    8.90    1.50
  -3   7   6   11.40    1.80
  -3   7   6    8.70    1.60
   2  -7  -6   97.49    6.30
   2  -7  -6  102.19    6.50
   2  -7  -6  106.79    6.00
   2  -7  -6   95.89    5.90
   2  -7  -6   97.19    5.90
   2  -7  -6   95.39    5.00
   2  -7  -6   88.49    5.40
   2  -7  -6  103.69    6.40
  -2   7   6   91.49    6.30
   1  -7  -6  575.84   25.30
   1  -7  -6  577.54   24.60
   1  -7  -6  577.14   26.20
   1  -7  -6  571.44   25.90
   1  -7  -6  587.94   25.30
   1  -7  -6  627.14   26.20
   1  -7  -6  589.94   24.20
   1  -7  -6  587.24   26.00
   1  -7  -6  562.74   25.10
   1  -7  -6  535.15   25.30
   1  -7  -6  550.14   26.40
   0  -7  -6  576.64   26.60
   0  -7  -6  618.54   26.10
   0  -7  -6  559.44   26.70
   0  -7  -6  627.24   27.40
   0  -7  -6  617.64   25.20
   0  -7  -6  546.45   26.20
   0  -7  -6  605.84   26.70
   0  -7  -6  570.54   25.70
   0  -7  -6  582.24   24.60
   0  -7  -6  577.84   26.60
   0  -7  -6  553.14   25.70
  -1  -7  -6 2480.25   99.19
  -1  -7  -6 2487.85   98.29
  -1  -7  -6 2444.36   97.19
  -1  -7  -6 2339.17   99.09
  -1  -7  -6 2576.74   99.59
  -1  -7  -6 2419.96   99.09
  -1  -7  -6 2510.75   99.09
  -1  -7  -6 2354.26   97.89
  -1  -7  -6 2497.55   96.79
  -1  -7  -6 2388.36   98.89
  -1  -7  -6 2375.66   96.09
  -1  -7  -6 2376.56   98.09
  -2  -7  -6 1385.26   56.29
  -2  -7  -6 1343.07   55.09
  -2  -7  -6 1329.47   53.59
  -2  -7  -6 1291.97   53.29
  -2  -7  -6 1278.57   55.99
  -2  -7  -6 1320.07   55.69
  -2  -7  -6 1369.46   55.99
  -2  -7  -6 1396.06   56.39
  -2  -7  -6 1335.37   54.09
  -2  -7  -6 1302.77   55.69
  -2  -7  -6 1336.47   54.99
  -3  -7  -6   59.59    5.30
  -3  -7  -6   57.39    5.30
  -3  -7  -6   55.29    4.60
  -3  -7  -6   58.49    3.80
  -3  -7  -6   62.99    5.60
  -3  -7  -6   61.49    4.10
  -3  -7  -6   59.79    3.90
  -3  -7  -6   66.09    5.60
  -3  -7  -6   58.19    5.20
  -3  -7  -6   59.69    4.80
  -3  -7  -6   58.29    6.10
  -4  -7  -6  627.24   26.30
  -4  -7  -6  617.54   27.40
  -4  -7  -6  612.44   28.00
  -4  -7  -6  632.94   28.40
  -4  -7  -6  621.44   28.00
  -4  -7  -6  636.74   28.60
  -4  -7  -6  645.74   26.10
  -4  -7  -6  599.04   27.80
  -4  -7  -6  633.34   26.50
  -4  -7  -6  632.54   27.50
   4   7   6  671.63   32.70
  -5  -7  -6 1492.55   63.19
  -5  -7  -6 1542.25   61.19
  -5  -7  -6 1509.05   62.79
  -5  -7  -6 1445.76   62.49
  -5  -7  -6 1547.45   60.79
  -5  -7  -6 1478.85   62.19
  -5  -7  -6 1515.05   61.19
  -5  -7  -6 1415.86   62.39
  -5  -7  -6 1574.94   63.39
  -5  -7  -6 1566.84   62.39
   5   7   6 1620.04   68.99
  -6  -7  -6   13.50    3.10
  -6  -7  -6    4.10    1.90
  -6  -7  -6    3.50    2.10
  -6  -7  -6    7.60    1.70
  -6  -7  -6    4.50    1.30
  -6  -7  -6    5.70    1.80
  -6  -7  -6    7.10    2.30
  -6  -7  -6    4.20    2.00
  -6  -7  -6    8.20    1.90
  -6  -7  -6    6.90    2.20
   6   7   6    3.90    3.90
  -7  -7  -6    8.60    2.20
  -7  -7  -6    9.30    2.30
  -7  -7  -6    9.10    1.90
  -7  -7  -6   11.30    2.50
  -7  -7  -6   12.60    1.70
  -7  -7  -6   14.70    2.90
   7   7   6    8.40    3.90
  -8  -7  -6    9.60    1.60
  -8  -7  -6    8.50    2.00
  -8  -7  -6    5.10    1.80
  -8  -7  -6   11.00    2.30
   8   7   6    7.70    2.30
  -9  -7  -6  452.45   19.30
   1  -8  -6   79.09    4.30
   1  -8  -6   80.69    4.70
   1  -8  -6   78.79    5.00
   1  -8  -6   77.09    5.00
   1  -8  -6   85.09    4.60
   1  -8  -6   80.69    4.10
   1  -8  -6   81.19    5.10
  -1   8   6   83.99    5.20
   0  -8  -6   97.19    6.20
   0  -8  -6   91.59    5.80
   0  -8  -6  101.39    5.70
   0  -8  -6   95.09    5.30
   0  -8  -6   91.79    6.30
   0  -8  -6   95.89    6.50
   0  -8  -6  109.39    6.40
   0  -8  -6  102.79    5.90
   0  -8  -6  102.69    5.10
   0  -8  -6  110.89    6.50
  -1  -8  -6   80.89    4.50
  -1  -8  -6   75.19    5.60
  -1  -8  -6   80.19    6.10
  -1  -8  -6   79.29    5.10
  -1  -8  -6   82.89    5.90
  -1  -8  -6   75.89    5.70
  -1  -8  -6   76.29    5.70
  -1  -8  -6   81.69    4.70
  -1  -8  -6   84.59    5.30
  -1  -8  -6   79.59    5.40
  -2  -8  -6  738.23   30.10
  -2  -8  -6  755.72   30.50
  -2  -8  -6  727.63   32.30
  -2  -8  -6  756.42   32.10
  -2  -8  -6  702.23   30.10
  -2  -8  -6  734.53   31.10
  -2  -8  -6  731.13   31.90
  -2  -8  -6  757.72   31.90
  -2  -8  -6  710.43   31.90
  -2  -8  -6  773.02   31.50
  -3  -8  -6    7.40    1.50
  -3  -8  -6   10.50    2.50
  -3  -8  -6    6.40    2.20
  -3  -8  -6   13.30    2.30
  -3  -8  -6    8.50    2.30
  -3  -8  -6    7.50    2.30
  -3  -8  -6   10.70    1.60
  -3  -8  -6    8.40    1.80
  -3  -8  -6    7.40    2.20
  -3  -8  -6    5.90    2.00
  -4  -8  -6 2345.97   98.69
  -4  -8  -6 2481.35   97.79
  -4  -8  -6 2547.55   98.09
  -4  -8  -6 2447.35   99.49
  -4  -8  -6 2618.84   99.99
  -4  -8  -6 2408.06   99.49
  -4  -8  -6 2431.46   99.49
  -4  -8  -6 2506.95  100.09
  -4  -8  -6 2522.65   99.09
   4   8   6 2425.86   99.99
  -5  -8  -6  288.77   14.40
  -5  -8  -6  287.17   14.30
  -5  -8  -6  291.07   14.70
  -5  -8  -6  305.77   14.70
  -5  -8  -6  301.07   14.00
  -5  -8  -6  303.07   13.20
  -5  -8  -6  289.37   14.30
  -5  -8  -6  282.27   12.80
  -5  -8  -6  282.87   13.80
   5   8   6  306.47   15.50
   5   8   6  302.17   18.10
  -6  -8  -6   26.50    3.30
  -6  -8  -6   27.10    2.60
  -6  -8  -6   31.50    3.30
  -6  -8  -6   24.80    3.40
  -6  -8  -6   25.80    3.30
  -6  -8  -6   28.80    3.00
  -6  -8  -6   25.30    3.20
  -6  -8  -6   28.70    2.30
  -6  -8  -6   21.10    3.10
   6   8   6   34.30    6.20
   6   8   6   25.50    4.10
  -7  -8  -6 1130.19   48.10
  -7  -8  -6 1226.48   49.00
  -7  -8  -6 1069.69   49.40
  -7  -8  -6 1204.78   48.80
  -7  -8  -6 1312.57   49.40
  -7  -8  -6 1187.98   47.70
  -7  -8  -6 1233.68   49.30
  -7  -8  -6 1224.88   48.90
   7   8   6 1194.78   52.99
   7   8   6 1196.58   50.09
  -8  -8  -6  660.83   26.80
  -8  -8  -6  647.44   26.60
  -8  -8  -6  629.34   27.00
  -8  -8  -6  629.14   26.60
   8   8   6  616.94   27.20
   0  -9  -6   66.19    3.30
   0  -9  -6   69.39    3.40
   0  -9  -6   71.79    4.10
   0  -9  -6   71.39    4.00
   0  -9  -6   69.69    4.00
   0   9   6   76.79    4.10
  -1  -9  -6   47.90    3.70
  -1  -9  -6   49.10    2.70
  -1  -9  -6   50.09    2.90
  -1  -9  -6   46.00    3.50
  -1  -9  -6   48.30    3.50
  -1  -9  -6   47.30    3.40
  -1  -9  -6   49.40    2.80
  -2  -9  -6  294.57   12.30
  -2  -9  -6  298.07   13.40
  -2  -9  -6  288.87   13.10
  -2  -9  -6  292.67   13.40
  -2  -9  -6  299.27   13.80
  -2  -9  -6  283.27   13.30
  -2  -9  -6  281.97   12.40
  -2  -9  -6  275.67   13.30
  -2  -9  -6  300.07   12.70
  -3  -9  -6   75.99    5.00
  -3  -9  -6   66.89    4.60
  -3  -9  -6   77.59    5.10
  -3  -9  -6   74.29    4.10
  -3  -9  -6   74.99    4.30
  -3  -9  -6   72.89    5.20
  -3  -9  -6   71.59    4.80
  -3  -9  -6   74.39    5.00
  -3  -9  -6   78.39    3.90
  -4  -9  -6  163.98    8.80
  -4  -9  -6  165.68    8.50
  -4  -9  -6  175.08    7.70
  -4  -9  -6  179.18    9.00
  -4  -9  -6  167.98    8.90
  -4  -9  -6  168.68    7.90
  -4  -9  -6  167.28    9.10
  -4  -9  -6  178.18    9.00
  -4  -9  -6  176.38    8.20
  -5  -9  -6  264.97   11.70
  -5  -9  -6  262.17   12.40
  -5  -9  -6  253.67   12.40
  -5  -9  -6  272.07   11.10
  -5  -9  -6  243.78   11.20
  -5  -9  -6  244.98   12.20
  -5  -9  -6  263.47   12.30
  -5  -9  -6  257.57   12.00
  -5  -9  -6  259.97   12.30
  -6  -9  -6  152.48    8.50
  -6  -9  -6  156.48    7.60
  -6  -9  -6  180.88    8.70
  -6  -9  -6  175.28    7.40
  -6  -9  -6  158.18    8.30
  -6  -9  -6  165.98    8.30
  -6  -9  -6  177.08    8.60
  -6  -9  -6  170.28    8.00
  -6  -9  -6  165.58    8.40
   6   9   6  161.98    8.90
  -7  -9  -6  257.57   11.30
  -7  -9  -6  254.97   11.50
  -7  -9  -6  258.37   10.70
  -7  -9  -6  239.28   10.90
  -7  -9  -6  249.68   11.40
  -7  -9  -6  263.27   11.70
   7   9   6  266.67   12.90
  -8  -9  -6    5.60    1.00
  -8  -9  -6    7.00    1.30
  -3 -10  -6   33.70    2.40
  -3 -10  -6   37.00    2.60
  -3 -10  -6   34.70    1.90
  -3 -10  -6   35.90    2.60
  -3 -10  -6   39.50    2.60
  -4 -10  -6   38.20    2.70
  -4 -10  -6   35.70    2.80
  -4 -10  -6   38.90    2.10
  -4 -10  -6   39.90    2.70
  -4 -10  -6   36.40    2.70
  -4 -10  -6   39.30    1.90
  -5 -10  -6  607.44   25.00
  -5 -10  -6  627.84   25.80
  -5 -10  -6  628.84   25.80
  -5 -10  -6  636.34   25.10
  -5 -10  -6  630.54   25.80
  -5 -10  -6  639.24   25.80
  -6 -10  -6    4.70    1.00
  -6 -10  -6    4.50    1.10
  -6 -10  -6    4.10    1.10
  -6 -10  -6    4.20    0.60
  -6 -10  -6    3.60    0.70
  -5  -8   7   38.20    2.10
  -7  -7   7  283.07   14.20
  -7  -7   7  342.37   13.10
  -6  -7   7  124.29    7.80
  -6  -7   7  130.79    6.10
  -6  -7   7  131.29    7.10
  -5  -7   7   44.80    3.10
  -5  -7   7   41.80    4.60
  -5  -7   7   46.80    4.20
  -5  -7   7   44.60    2.90
  -4  -7   7  439.56   17.80
  -4  -7   7  416.46   20.30
  -4  -7   7  437.76   19.60
  -4  -7   7  422.26   22.90
   1  -7   7   37.30    2.20
   1  -7   7   38.70    3.70
   1  -7   7   39.50    3.10
  -7  -6   7  264.47   12.60
  -7  -6   7  263.97   12.00
  -7  -6   7  260.67   12.70
  -7  -6   7  274.27   11.60
  -7  -6   7  250.67   13.10
  -6  -6   7   14.50    2.10
  -6  -6   7   12.90    2.20
  -6  -6   7   15.80    3.10
  -6  -6   7   14.80    3.50
  -6  -6   7   11.10    3.80
  -6  -6   7    9.60    2.30
  -5  -6   7 2230.58   89.09
  -5  -6   7 2315.17   92.29
  -5  -6   7 2157.08   91.29
  -5  -6   7 2266.57   89.49
  -5  -6   7 2172.88   95.69
  -5  -6   7 2257.97   90.79
  -5  -6   7 2295.47   89.49
  -4  -6   7   87.59    5.70
  -4  -6   7   76.69    7.00
  -4  -6   7   77.69    4.90
  -4  -6   7   85.79    4.80
  -4  -6   7   86.09    5.70
  -4  -6   7   91.49    9.50
  -4  -6   7   82.89    7.00
  -4  -6   7   85.89    5.90
  -3  -6   7  363.36   18.40
  -3  -6   7  364.06   18.40
  -3  -6   7  371.86   21.50
  -3  -6   7  361.46   15.00
  -3  -6   7  362.16   15.60
  -3  -6   7  364.26   16.20
  -2  -6   7  670.03   27.60
  -2  -6   7  692.93   27.90
  -2  -6   7  676.63   30.60
  -1  -6   7  427.86   21.80
  -1  -6   7  357.16   19.00
  -1  -6   7  353.86   15.40
   0  -6   7  753.62   30.40
   0  -6   7  693.63   32.10
   0  -6   7  739.53   30.00
   0  -6   7  781.22   34.20
   1  -6   7  288.07   14.50
   1  -6   7  290.07   13.10
   1  -6   7  281.47   12.60
   1  -6   7  309.37   16.20
   2  -6   7    7.00    2.10
   2  -6   7    8.60    1.40
   2  -6   7   11.30    1.80
   2  -6   7    9.00    2.90
   2  -6   7    8.70    1.50
   3  -6   7  114.69    6.20
   3  -6   7  110.79    6.40
   3  -6   7  116.79    5.40
   3  -6   7  113.39    5.40
   3  -6   7  120.29    7.10
   8   5  -7   -0.60    2.20
  -8  -5   7    3.00    1.20
  -8  -5   7    0.00    1.20
  -7  -5   7    4.40    2.40
  -7  -5   7    5.00    2.30
  -7  -5   7    5.10    2.10
  -7  -5   7    6.00    2.00
  -7  -5   7    6.70    2.60
  -7  -5   7    3.80    1.40
  -6  -5   7  155.38   13.40
  -6  -5   7  174.38    9.30
  -6  -5   7  172.88   11.20
  -6  -5   7  156.08   10.30
  -6  -5   7  172.58   10.80
  -6  -5   7  161.98   10.90
  -6  -5   7  171.18    8.90
  -6  -5   7  161.78    9.40
  -5  -5   7  147.19    7.80
  -5  -5   7  124.19    7.80
  -5  -5   7  127.09    9.90
  -5  -5   7  139.59    9.40
  -5  -5   7  126.89    7.90
  -5  -5   7  138.49    9.40
  -5  -5   7  131.89   12.40
  -5  -5   7  145.29   10.00
  -4  -5   7   76.69    8.90
  -4  -5   7   72.69    7.40
  -4  -5   7   72.69    5.10
  -4  -5   7   67.19    5.00
  -4  -5   7   75.79    6.20
  -4  -5   7   70.99    5.10
  -4  -5   7   80.69    5.20
  -4  -5   7   72.79    6.70
  -3  -5   7  217.58   12.50
  -3  -5   7  246.18   15.70
  -3  -5   7  230.98   13.70
  -3  -5   7  216.68   10.50
  -3  -5   7  210.58   11.60
  -3  -5   7  209.18   11.20
  -3  -5   7  219.38   10.60
  -2  -5   7 2268.77   92.19
  -2  -5   7 2312.17   93.49
  -2  -5   7 2267.67   95.49
  -2  -5   7 2281.77   94.59
  -2  -5   7 2323.27   97.99
  -2  -5   7 2405.56   96.79
  -2  -5   7 2407.66   92.19
  -1  -5   7  346.67   16.20
  -1  -5   7  348.57   15.00
  -1  -5   7  339.47   15.10
  -1  -5   7  357.46   19.50
  -1  -5   7  354.36   18.20
   0  -5   7 1005.80   45.90
   0  -5   7 1024.40   42.40
   0  -5   7 1029.50   43.80
   0  -5   7  976.70   40.90
   0  -5   7 1002.10   43.80
   0  -5   7 1016.30   41.20
   1  -5   7  968.80   38.80
   1  -5   7  943.21   40.00
   1  -5   7  930.91   38.30
   1  -5   7  923.51   40.80
   1  -5   7  921.61   43.10
   1  -5   7  905.81   40.60
   2  -5   7   14.30    2.20
   2  -5   7   17.90    2.80
   2  -5   7   14.40    2.10
   2  -5   7   11.80    3.80
   2  -5   7   10.40    2.80
   2  -5   7   10.50    4.20
   2  -5   7    9.90    2.90
   3  -5   7 1846.82   75.79
   3  -5   7 1898.21   75.39
   3  -5   7 1884.31   73.29
   3  -5   7 1926.11   74.09
   3  -5   7 1730.43   73.49
   3  -5   7 1674.63   75.09
   3  -5   7 1902.71   77.49
   4  -5   7   54.09    4.80
   4  -5   7   51.59    5.10
   4  -5   7   53.69    3.30
   4  -5   7   49.99    4.20
   4  -5   7   55.79    3.50
   4  -5   7   45.00    3.30
   8   4  -7  543.85   25.90
  -8  -4   7  603.24   25.00
  -8  -4   7  551.94   24.70
  -7  -4   7  644.04   27.90
  -7  -4   7  629.54   29.50
  -7  -4   7  716.53   30.70
  -7  -4   7  649.93   29.50
  -6  -4   7  232.28   13.30
  -6  -4   7  241.88   15.20
  -6  -4   7  265.07   15.00
  -6  -4   7  232.78   13.50
  -6  -4   7  236.58   10.80
  -6  -4   7  242.08   12.40
  -6  -4   7  240.08   17.90
  -6  -4   7  248.98   15.10
  -6  -4   7  251.37   13.20
  -5  -4   7   51.99    5.70
  -5  -4   7   50.39    3.20
  -5  -4   7   50.89    5.00
  -5  -4   7   48.20    5.20
  -5  -4   7   53.09    6.50
  -5  -4   7   69.09    6.50
  -5  -4   7   46.70    5.00
  -5  -4   7   51.69    8.10
  -5  -4   7   50.89    7.20
  -4  -4   7  339.47   17.90
  -4  -4   7  323.97   17.20
  -4  -4   7  332.07   15.60
  -4  -4   7  330.77   16.20
  -4  -4   7  310.17   18.50
  -4  -4   7  309.57   17.60
  -4  -4   7  353.36   16.20
  -4  -4   7  329.37   20.20
  -3  -4   7   61.19    4.90
  -3  -4   7   63.39    5.60
  -3  -4   7   58.19    7.30
  -3  -4   7   66.79    8.00
  -3  -4   7   70.79    5.40
  -3  -4   7   67.49    6.20
  -3  -4   7   75.49    8.20
  -2  -4   7  684.43   27.60
  -2  -4   7  660.23   29.60
  -2  -4   7  652.33   31.80
  -2  -4   7  634.74   31.90
  -2  -4   7  649.14   30.70
  -2  -4   7  636.34   29.00
  -1  -4   7   37.30    4.00
  -1  -4   7   29.70    5.10
  -1  -4   7   28.50    4.70
  -1  -4   7   28.30    2.80
  -1  -4   7   28.30    5.90
  -1  -4   7   31.70    3.80
   0  -4   7  599.44   31.90
   0  -4   7  635.64   29.00
   0  -4   7  701.53   27.20
  -1   4  -7   87.19   12.70
   1  -4   7   86.09    6.40
   1  -4   7   89.89    7.10
   1  -4   7   80.69    7.40
   1  -4   7   93.39    5.30
   1  -4   7  106.69    7.70
   1  -4   7   77.89    8.90
   2  -4   7  275.47   18.40
   2  -4   7  305.37   15.70
   2  -4   7  267.47   14.90
   2  -4   7  272.47   15.90
   2  -4   7  299.27   13.60
   2  -4   7  307.27   16.30
   2  -4   7  320.77   16.30
   2  -4   7  300.27   13.20
   3  -4   7  704.73   32.40
   3  -4   7  728.03   29.70
   3  -4   7  753.12   33.30
   3  -4   7  705.13   32.30
   3  -4   7  655.33   34.80
   3  -4   7  751.92   30.30
   3  -4   7  713.73   32.00
   3  -4   7  665.43   31.60
   4  -4   7  704.43   29.20
   4  -4   7  643.54   31.50
   4  -4   7  726.53   30.50
   4  -4   7  663.33   30.40
   4  -4   7  696.03   30.50
   4  -4   7  721.73   28.70
   4  -4   7  638.14   32.70
   4  -4   7  692.13   31.40
   5  -4   7  398.56   18.50
   5  -4   7  353.96   18.80
   5  -4   7  379.46   16.90
   5  -4   7  395.16   17.50
   5  -4   7  383.26   17.60
   5  -4   7  411.06   16.60
   8   3  -7   56.89    6.00
  -8  -3   7   66.19    3.50
  -8  -3   7   67.49    5.20
  -7  -3   7   30.00    4.30
  -7  -3   7   33.60    3.50
  -7  -3   7   32.50    5.60
  -6  -3   7  490.95   21.70
  -6  -3   7  471.75   24.20
  -6  -3   7  481.45   22.60
  -6  -3   7  514.45   25.80
  -6  -3   7  493.45   23.40
  -5  -3   7 2355.66   96.99
  -5  -3   7 2328.77   97.69
  -5  -3   7 2187.58   96.39
  -5  -3   7 2399.36   99.69
  -5  -3   7 2467.25  100.49
  -5  -3   7 2447.35  102.59
  -5  -3   7 2369.56   97.49
  -5  -3   7 2448.06   96.19
  -5  -3   7 2345.77   94.89
  -4  -3   7 1273.57   52.99
  -4  -3   7 1219.18   54.89
  -4  -3   7 1202.18   51.79
  -4  -3   7 1196.18   52.19
  -4  -3   7 1181.88   49.70
  -4  -3   7 1251.07   54.69
  -4  -3   7 1231.88   51.19
  -4  -3   7 1195.08   55.69
  -4  -3   7 1294.27   56.29
  -3  -3   7  766.92   33.20
  -3  -3   7  774.72   36.70
  -3  -3   7  776.32   35.90
  -3  -3   7  749.33   33.70
  -2  -3   7 1451.55   63.39
  -2  -3   7 1457.35   60.79
  -2  -3   7 1509.55   62.89
  -1  -3   7 1821.12   76.19
  -1  -3   7 1941.31   77.89
  -1  -3   7 1868.91   78.59
   0  -3   7 1503.35   62.59
   0  -3   7 1444.76   61.89
  -1   3  -7 1063.39   49.40
   1  -3   7 1091.09   47.60
   1  -3   7 1155.88   48.20
   1  -3   7 1114.69   51.59
   1  -3   7 1158.78   45.30
  -2   3  -7   74.89    7.90
   2  -3   7   79.19    9.40
   2  -3   7   86.09    5.10
   2  -3   7   77.29    6.80
   2  -3   7   74.79   12.80
   2  -3   7   82.99    6.90
   2  -3   7   80.09    7.90
   2  -3   7   82.19    7.00
   3  -3   7   50.89    3.90
   3  -3   7   55.19    7.40
   3  -3   7   45.80    7.70
   3  -3   7   48.60    4.00
   3  -3   7   52.69    4.10
   3  -3   7   50.79    6.70
   3  -3   7   59.49    5.90
   3  -3   7   66.09    6.40
   3  -3   7   50.09    5.70
   3  -3   7   60.79    5.50
   4  -3   7  335.77   19.60
   4  -3   7  320.87   20.20
   4  -3   7  339.57   15.60
   4  -3   7  339.37   18.40
   4  -3   7  329.97   17.90
   4  -3   7  323.47   16.70
   4  -3   7  334.97   15.00
   4  -3   7  323.57   17.60
   4  -3   7  320.67   17.30
   5  -3   7   20.00    4.10
   5  -3   7   23.30    2.80
   5  -3   7   27.60    4.70
   5  -3   7   20.70    3.40
   5  -3   7   24.10    4.30
   5  -3   7   22.70    3.00
   5  -3   7   17.00    4.60
   5  -3   7   20.20    3.90
   5  -3   7   25.00    4.30
  -6   3  -7   12.80    2.60
   6  -3   7   18.40    2.80
   6  -3   7   22.10    3.70
   6  -3   7   18.20    3.20
   6  -3   7   23.30    3.40
  -8  -2   7  121.19    6.50
  -8  -2   7  126.69    7.40
  -7  -2   7  280.67   13.90
  -7  -2   7  277.17   14.60
   6   2  -7  569.84   31.20
  -6  -2   7  599.64   26.10
  -6  -2   7  602.44   27.00
  -6  -2   7  524.95   28.60
   5   2  -7   54.59   10.60
  -5  -2   7   69.09    9.80
  -5  -2   7   61.39    6.90
  -5  -2   7   70.49    5.70
  -5  -2   7   74.09    6.10
  -5  -2   7   58.39    8.50
  -5  -2   7   67.79    7.10
   4   2  -7   43.60    9.70
  -4  -2   7   50.79    8.10
  -4  -2   7   54.39    9.10
  -4  -2   7   49.80    6.60
  -4  -2   7   46.80    5.20
  -4  -2   7   49.80    6.80
  -3  -2   7   62.99    5.30
  -3  -2   7   59.09    6.80
  -3  -2   7   54.49    7.60
  -2  -2   7 1686.83   71.39
  -2  -2   7 1635.04   70.29
  -1  -2   7  279.97   15.70
  -1  -2   7  274.47   15.20
   0   2  -7   56.19    5.50
   0  -2   7   57.29    5.50
   0  -2   7   65.99    6.00
   0  -2   7   61.29    4.80
  -1   2  -7 1385.66   57.69
   1  -2   7 1345.87   59.29
   1  -2   7 1258.77   56.09
   1  -2   7 1380.16   56.59
  -2   2  -7  562.44   28.20
   2  -2   7  589.34   24.40
   2  -2   7  613.34   27.00
   2  -2   7  548.05   30.70
  -3   2  -7 3334.67  129.99
   3  -2   7 3086.79  124.19
   3  -2   7 2867.61  132.59
   3  -2   7 3158.18  130.09
   3  -2   7 3205.68  127.29
   4  -2   7  380.46   20.50
   4  -2   7  374.26   21.80
   4  -2   7  386.56   20.10
   4  -2   7  370.66   19.10
   4  -2   7  373.36   16.50
   4  -2   7  369.86   17.10
   4  -2   7  354.96   18.70
   4  -2   7  371.76   24.90
   4  -2   7  365.76   19.10
   4  -2   7  379.76   18.30
   5  -2   7   43.70    5.50
   5  -2   7   44.60    3.70
   5  -2   7   40.20    8.50
   5  -2   7   45.90    6.30
   5  -2   7   56.39    6.50
   5  -2   7   46.80    7.70
   5  -2   7   40.30    5.10
   5  -2   7   47.50    4.30
   5  -2   7   50.69    5.90
   5  -2   7   42.30    4.70
   6  -2   7  371.66   15.70
   6  -2   7  341.87   24.60
   6  -2   7  358.76   19.40
   6  -2   7  393.16   18.90
   6  -2   7  372.76   18.80
   6  -2   7  373.76   18.50
  -7   2  -7  619.94   25.50
   7  -2   7  557.94   25.00
  -8  -1   7  215.98   10.40
  -8  -1   7  201.38   10.00
   7   1  -7 1833.42   82.59
  -7  -1   7 2001.20   80.59
  -7  -1   7 2088.19   81.09
   6   1  -7   39.00    7.60
  -6  -1   7   47.90    6.70
  -6  -1   7   55.69    6.00
  -6  -1   7   57.39    5.70
   5   1  -7  442.06   28.80
  -5  -1   7  535.65   24.10
  -5  -1   7  507.55   26.30
  -5  -1   7  491.25   25.80
  -5  -1   7  543.15   24.30
   4   1  -7 1603.84   82.39
  -4  -1   7 1992.70   79.69
  -4  -1   7 1949.10   81.09
  -3  -1   7  157.58   10.60
  -3  -1   7  175.38    9.90
  -3  -1   7  164.08   11.70
  -3  -1   7  162.68   13.50
  -2  -1   7 2184.48   88.89
  -2  -1   7 2034.10   90.79
  -2  -1   7 2191.48   86.69
  -1  -1   7  325.37   17.50
  -1  -1   7  349.77   54.69
  -1  -1   7  358.66   15.20
   0   1  -7   60.59   32.30
   0   1  -7   56.69    5.20
   0  -1   7   57.29    6.80
   0  -1   7   50.69    5.10
   0  -1   7   51.19    4.20
   0  -1   7   62.09    3.00
   1  -1   7   14.60    3.30
   1  -1   7   28.60    6.20
  -2   1  -7   39.40    5.00
   2  -1   7   37.00    4.20
   2  -1   7   35.90    7.90
   2  -1   7   33.70    4.20
  -3   1  -7   15.90    4.30
   3  -1   7   10.90    3.10
   3  -1   7   15.40    6.00
  -4   1  -7  718.33   35.00
   4  -1   7  724.73   29.70
   4  -1   7  662.23   33.40
   4  -1   7  704.73   32.20
   4  -1   7  737.43   40.10
   4  -1   7  717.53   30.30
   4  -1   7  694.53   34.20
   4  -1   7  728.13   34.60
   4  -1   7  719.43   33.20
   5  -1   7  242.28   15.50
   5  -1   7  279.87   21.40
   5  -1   7  267.97   14.80
   5  -1   7  238.88   15.70
   5  -1   7  250.07   16.00
   5  -1   7  254.27   11.90
   5  -1   7  238.28   13.90
   6  -1   7 1214.08   51.89
   6  -1   7 1134.19   58.29
   6  -1   7 1247.08   51.89
   6  -1   7 1198.28   52.19
  -7   1  -7   31.00    4.10
   7  -1   7   29.90    4.20
   7  -1   7   31.00    3.70
   7   0  -7   16.40    4.10
  -7   0   7   20.70    3.40
  -7   0   7   14.80    2.80
   6   0  -7  582.74   29.90
  -6   0   7  542.25   25.90
  -6   0   7  540.85   25.70
   5   0  -7 1875.01   84.79
  -5   0   7 1949.51   79.39
   4   0  -7  456.15   27.80
  -4   0   7  481.05   28.30
  -3   0   7   14.30    4.80
  -2   0   7  685.43   76.39
  -2   0   7  663.93   33.60
  -2   0   7  745.53   32.80
  -1   0   7 4842.92  188.08
  -1   0   7 4639.54  248.48
  -1   0   7 4597.24  187.58
   0   0  -7 2002.50  147.39
   0   0  -7 1670.13   75.99
   0   0   7 1794.92   74.59
   0   0   7 1900.91   75.59
  -1   0  -7 4191.58  165.58
  -1   0  -7 3899.81  250.87
   1   0   7 4379.66  164.18
   1   0   7 4031.50  164.18
  -2   0  -7   18.40   21.00
   2   0   7   10.20    2.90
   2   0   7    9.20    2.30
   2   0   7   17.70    2.60
   2   0   7    9.70    4.90
  -3   0  -7   57.39    6.10
   3   0   7   56.39    5.60
   3   0   7   57.19    9.10
   3   0   7   62.79    4.80
   3   0   7   55.59    5.70
  -4   0  -7 1511.05   64.89
   4   0   7 1499.45   60.89
   4   0   7 1434.26   63.49
   4   0   7 1457.95   69.49
   5   0   7   41.20    9.80
   5   0   7   25.00    3.20
   5   0   7   23.60    4.30
   5   0   7   26.00    6.60
   5   0   7   32.80    5.80
  -6   0  -7  529.45   25.30
   6   0   7  530.95   25.50
   6   0   7  539.15   33.00
   6   0   7  495.95   26.80
   6   0   7  523.95   26.30
  -7   0  -7  166.78   10.60
   7   0   7  162.68   16.60
   7   0   7  185.38   11.50
   7   0   7  182.58   11.90
  -8   0  -7  382.56   17.50
   8   0   7  388.46   16.90
   8   0   7  368.36   17.40
   7  -1  -7  226.68   12.50
  -7   1   7  222.28   11.10
  -7   1   7  226.08   11.50
   6  -1  -7  874.01   39.10
  -6   1   7  792.02   36.00
  -6   1   7  791.32   35.70
   5  -1  -7  280.77   18.60
  -5   1   7  261.77   15.00
  -5   1   7  267.67   14.90
   4  -1  -7  275.87   19.30
  -4   1   7  266.17   20.60
  -4   1   7  285.47   15.20
   3  -1  -7   82.49   10.20
  -3   1   7   92.89   10.80
  -2   1   7  998.30   47.70
  -1   1   7    5.50    3.50
  -1   1   7    3.00    2.10
   0  -1  -7  585.94   29.10
   0   1   7  597.94   29.00
   0   1   7  633.34   27.30
  -1  -1  -7 1098.39   48.20
  -1  -1  -7 1174.68   98.09
   1   1   7 1072.99   48.20
   1   1   7 1095.39   46.90
  -2  -1  -7 2691.43   99.49
  -2  -1  -7 2153.78  157.88
   2   1   7 2216.48   98.69
   2   1   7 2531.55   98.69
   2   1   7 2408.96   97.79
  -3  -1  -7 4974.80  181.48
  -3  -1  -7 4029.70  255.87
   3   1   7 4638.54  179.98
   3   1   7 4508.55  179.88
   3   1   7 4289.27  180.58
  -4  -1  -7 1594.84   67.49
   4   1   7 1487.05   66.19
   4   1   7 1585.54   65.89
  -5  -1  -7   43.20    6.30
   5   1   7   50.39    5.60
  -6  -1  -7  541.15   26.10
   6   1   7  545.05   27.00
  -7  -1  -7 1685.23   68.49
  -7  -1  -7 1619.74   69.59
   7   1   7 1649.54   71.39
   7   1   7 1706.43   70.39
  -8  -1  -7  107.29    7.50
   8   1   7  114.19    7.90
   8   1   7  118.29    8.60
   6  -2  -7    5.00    2.80
  -6   2   7    5.20    2.20
  -6   2   7    3.20    1.90
   5  -2  -7   39.00    6.70
  -5   2   7   42.90    5.40
  -5   2   7   33.30    5.20
   4  -2  -7 1883.91   82.59
   4  -2  -7 2125.19   92.19
  -4   2   7 1793.82   78.59
  -4   2   7 1795.02   78.29
   3  -2  -7  819.52   41.20
   3  -2  -7  892.11   41.70
   2  -2  -7 3429.56  138.79
  -2   2   7 3278.07  140.79
   1  -2  -7 1058.19   47.40
  -1   2   7 1032.80   48.50
  -1   2   7 1009.90   45.00
   0  -2  -7  751.52   36.80
   0   2   7  847.92   37.70
   0   2   7  734.13   34.50
   0   2   7  777.92   36.80
  -1  -2  -7  317.27   17.70
  -1  -2  -7  301.37   18.20
   1   2   7  280.17   17.10
   1   2   7  291.47   15.80
   1   2   7  324.57   17.60
  -2  -2  -7 1975.60   78.19
  -2  -2  -7 1810.72   79.59
   2   2   7 1781.52   76.39
   2   2   7 1939.31   78.29
   2   2   7 1717.53   77.79
  -3  -2  -7   47.10    5.70
  -3  -2  -7   55.99    7.70
   3   2   7   43.20    5.90
   3   2   7   45.20    6.00
   3   2   7   41.90    5.20
  -4  -2  -7  120.99    9.70
   4   2   7  114.29    9.20
   4   2   7  114.09    9.70
   4   2   7  120.99    9.80
  -5  -2  -7   10.80    3.70
   5   2   7   11.70    3.80
   5   2   7   10.40    3.80
  -6  -2  -7 1215.88   51.69
  -6  -2  -7 1209.28   50.29
   6   2   7 1228.08   52.19
   6   2   7 1106.39   53.09
  -7  -2  -7  122.49    9.30
  -7  -2  -7  135.09    8.60
   7   2   7  125.69    9.60
  -8  -2  -7   19.10    3.20
  -8  -2  -7   16.00    3.40
   8   2   7   22.10    4.10
   9   2   7  733.53   32.30
   9   2   7  645.84   28.70
   6  -3  -7   68.59    5.00
   6  -3  -7   64.99    5.40
  -6   3   7   66.69    4.70
  -6   3   7   64.89    4.90
   5  -3  -7  321.07   17.10
   5  -3  -7  263.47   15.50
  -5   3   7  285.47   15.10
  -5   3   7  299.77   15.80
   4  -3  -7  229.88   15.10
  -4   3   7  214.48   13.20
  -4   3   7  210.88   12.80
   3  -3  -7   56.79    7.70
   3  -3  -7   50.89    6.40
   3  -3  -7   78.19    8.50
   3  -3  -7   59.19    6.10
  -3   3   7   63.79    6.70
   2  -3  -7  179.08   13.20
   2  -3  -7  193.88   13.80
   1  -3  -7 3040.60  129.89
  -1   3   7 3259.07  129.09
   0  -3  -7   55.59    6.90
   0   3   7   66.59    7.20
   0   3   7   60.79    6.20
  -1  -3  -7 2932.31  119.39
   1   3   7 2721.33  118.89
   1   3   7 3012.90  118.09
  -2  -3  -7  245.08   15.30
  -2  -3  -7  243.98   15.00
   2   3   7  227.18   15.00
   2   3   7  233.78   13.70
  -3  -3  -7   16.70    4.10
   3   3   7   23.40    5.30
   3   3   7   22.60    4.30
  -4  -3  -7 3046.20  127.19
  -4  -3  -7 3164.08  128.19
   4   3   7 3010.60  124.89
   4   3   7 2977.40  126.69
   4   3   7 3275.47  129.19
  -5  -3  -7  607.04   30.40
  -5  -3  -7  611.94   27.60
  -5  -3  -7  640.94   31.50
   5   3   7  545.95   29.90
   5   3   7  689.53   32.40
   5   3   7  629.34   28.30
   5   3   7  551.14   39.30
  -6  -3  -7  349.27   18.20
  -6  -3  -7  331.27   19.20
  -6  -3  -7  328.27   19.20
  -6  -3  -7  341.87   16.80
   6   3   7  346.77   17.90
   6   3   7  277.07   19.80
  -7  -3  -7    7.50    3.40
  -7  -3  -7    5.20    2.80
   7   3   7    4.40    3.00
  -8  -3  -7  754.62   34.90
  -8  -3  -7  798.72   36.00
   8   3   7  886.21   36.00
   9   3   7    5.50    1.90
   5  -4  -7   64.29    4.70
   5  -4  -7   57.59    5.30
  -5   4   7   60.69    4.60
  -5   4   7   55.09    5.00
  -5   4   7   59.59    4.90
   4  -4  -7  192.38   11.90
   4  -4  -7  220.78   13.20
   4  -4  -7  191.58   11.30
   4  -4  -7  212.48   11.80
  -4   4   7  219.28   12.70
  -4   4   7  201.48   11.90
   3  -4  -7   94.99    8.30
   3  -4  -7  104.89    7.70
   3  -4  -7   96.49    8.40
   3  -4  -7  117.19    9.60
   3  -4  -7  114.19    8.70
  -3   4   7  113.79    8.90
   2  -4  -7  132.49    9.80
   2  -4  -7  139.49   13.80
   2  -4  -7  111.99    9.10
   2  -4  -7  140.69    9.00
   2  -4  -7  125.19    9.50
   2  -4  -7  127.79    9.60
   2  -4  -7  147.89   10.80
   1  -4  -7  147.69   10.50
   1  -4  -7  134.99   12.80
  -1   4   7  143.19   11.10
   0  -4  -7   52.69    6.00
   0   4   7   49.99    6.20
  -1  -4  -7   41.10    6.40
  -1  -4  -7   30.60    4.60
   1   4   7   31.70    5.80
   1   4   7   34.50    5.00
  -2  -4  -7 1384.06   58.39
  -2  -4  -7 1386.46   60.19
   2   4   7 1350.76   60.39
   2   4   7 1335.57   58.79
  -3  -4  -7 1087.29   47.70
   3   4   7 1070.59   47.10
   3   4   7 1132.79   50.89
   3   4   7 1110.09   48.90
  -4  -4  -7 1183.38   53.29
  -4  -4  -7 1320.27   55.59
   4   4   7 1306.57   55.09
   4   4   7 1397.86   59.59
   4   4   7 1271.47   56.59
  -5  -4  -7  302.47   15.60
  -5  -4  -7  284.77   18.80
  -5  -4  -7  332.37   17.30
   5   4   7  347.17   20.50
   5   4   7  312.27   16.50
   5   4   7  287.17   20.10
  -6  -4  -7  129.49    9.80
  -6  -4  -7  112.99    8.40
  -6  -4  -7  122.29    9.20
   6   4   7  122.59   11.40
   6   4   7  126.69    8.80
  -7  -4  -7 2443.76  104.89
  -7  -4  -7 2659.33  103.99
  -8  -4  -7    1.90    2.20
  -8  -4  -7    4.80    2.80
   8   4   7    2.10    2.20
   9   4   7  755.22   31.60
   4  -5  -7  884.11   34.30
   4  -5  -7  820.22   34.70
   4  -5  -7  789.42   35.50
  -4   5   7  827.12   35.10
  -4   5   7  836.22   35.40
  -4   5   7  831.12   35.70
   3  -5  -7 1086.69   47.00
   3  -5  -7 1151.28   47.20
   3  -5  -7 1143.49   45.90
   3  -5  -7 1081.99   46.80
   3  -5  -7 1120.29   45.50
   3  -5  -7  983.90   48.80
  -3   5   7 1049.79   46.90
   2  -5  -7  817.82   35.80
   2  -5  -7  718.93   34.90
   2  -5  -7  803.12   34.20
   2  -5  -7  779.92   35.30
   2  -5  -7  756.42   33.80
   2  -5  -7  791.62   38.30
   1  -5  -7  560.44   26.00
   1  -5  -7  584.74   27.40
   1  -5  -7  588.54   26.00
   1  -5  -7  593.64   30.20
   1  -5  -7  538.55   26.80
   1  -5  -7  565.44   25.80
   1  -5  -7  573.64   27.10
   1  -5  -7  541.85   24.60
   0  -5  -7  248.78   13.30
   0  -5  -7  253.47   11.30
   0  -5  -7  251.57   12.80
   0  -5  -7  247.88   15.30
   0  -5  -7  244.68   14.10
   0  -5  -7  249.68   16.80
   0  -5  -7  247.78   16.20
  -1  -5  -7  273.77   13.60
  -1  -5  -7  275.47   16.80
  -1  -5  -7  279.17   13.20
  -1  -5  -7  255.77   15.20
  -1  -5  -7  258.07   12.60
   1   5   7  249.97   16.00
  -2  -5  -7 1862.81   75.59
  -2  -5  -7 1768.52   73.39
  -2  -5  -7 1718.33   71.19
  -2  -5  -7 1777.02   71.09
   2   5   7 1670.83   75.09
   2   5   7 1808.22   74.89
   2   5   7 1668.33   72.09
  -3  -5  -7  224.28   11.70
  -3  -5  -7  225.08   13.20
  -3  -5  -7  249.28   14.90
  -3  -5  -7  227.88   11.70
   3   5   7  240.98   16.10
   3   5   7  222.28   13.10
   3   5   7  244.48   14.70
  -4  -5  -7    6.50    1.90
  -4  -5  -7    7.90    2.40
   4   5   7    2.20    2.30
   4   5   7    3.70    2.70
   4   5   7    6.10    4.10
  -5  -5  -7   14.80    3.80
  -5  -5  -7   23.50    4.40
  -5  -5  -7   22.90    3.60
   5   5   7   21.80    4.30
   5   5   7   23.90    5.70
  -6  -5  -7  774.52   33.60
  -6  -5  -7  783.82   35.20
  -6  -5  -7  714.23   33.10
  -6  -5  -7  730.53   33.80
  -6  -5  -7  712.13   34.00
   6   5   7  788.82   34.70
   6   5   7  864.91   39.40
  -7  -5  -7   12.50    3.70
  -7  -5  -7   12.60    3.10
  -7  -5  -7    6.50    2.50
  -7  -5  -7   10.60    3.00
   7   5   7   11.60    4.70
   7   5   7   11.00    3.20
  -8  -5  -7   73.19    6.10
  -8  -5  -7   75.79    5.90
  -8  -5  -7   71.99    5.80
  -8  -5  -7   74.69    6.30
  -9  -5  -7  164.38    8.50
   3  -6  -7  121.29    5.60
   3  -6  -7  130.69    7.60
   3  -6  -7  125.59    7.10
  -3   6   7  134.39    7.90
   2  -6  -7   19.30    4.00
   2  -6  -7   22.00    3.90
   2  -6  -7   20.30    3.20
   2  -6  -7   19.60    3.20
   2  -6  -7   19.30    3.60
   2  -6  -7   20.60    2.70
   2  -6  -7   21.30    3.90
  -2   6   7   15.70    3.20
   1  -6  -7 1203.78   49.90
   1  -6  -7 1148.69   51.99
   1  -6  -7 1138.59   51.59
   1  -6  -7 1140.19   51.49
   1  -6  -7 1283.27   51.09
   1  -6  -7 1218.98   53.59
   1  -6  -7 1160.38   50.69
   1  -6  -7 1310.37   52.39
   1  -6  -7 1351.66   51.99
   1  -6  -7 1199.88   51.79
   1  -6  -7 1214.28   49.70
   1  -6  -7 1247.58   53.59
   0  -6  -7   77.59    6.80
   0  -6  -7   77.79    6.70
   0  -6  -7   76.29    6.50
   0  -6  -7   69.89    5.70
   0  -6  -7   59.89    6.20
   0  -6  -7   78.19    5.50
   0  -6  -7   79.79    6.10
   0  -6  -7   74.59    6.40
   0  -6  -7   70.69    7.20
   0  -6  -7   79.79    5.50
   0  -6  -7   76.59    5.00
   0  -6  -7   69.49    7.20
  -1  -6  -7 1884.41   84.19
  -1  -6  -7 2037.70   79.49
  -1  -6  -7 1978.20   80.79
  -1  -6  -7 2165.58   82.39
  -1  -6  -7 2039.50   83.89
  -1  -6  -7 2042.00   81.69
  -1  -6  -7 1981.60   81.69
  -1  -6  -7 1997.60   80.09
  -1  -6  -7 1864.51   80.59
  -1  -6  -7 1903.61   81.79
  -1  -6  -7 1901.31   80.09
  -1  -6  -7 2072.69   82.89
  -2  -6  -7  616.34   25.70
  -2  -6  -7  597.74   27.80
  -2  -6  -7  595.54   27.40
  -2  -6  -7  608.84   26.30
  -2  -6  -7  590.24   26.90
  -2  -6  -7  605.14   27.30
  -2  -6  -7  627.44   25.20
  -2  -6  -7  590.34   27.00
  -2  -6  -7  565.84   25.80
  -2  -6  -7  603.44   26.80
  -2  -6  -7  565.54   29.10
  -3  -6  -7  242.38   11.50
  -3  -6  -7  232.58   12.80
  -3  -6  -7  234.38   12.60
  -3  -6  -7  238.98   12.10
  -3  -6  -7  232.98   13.20
  -3  -6  -7  250.47   13.00
  -3  -6  -7  238.58   12.70
  -3  -6  -7  259.07   11.20
  -3  -6  -7  230.08   12.00
  -3  -6  -7  235.28   13.30
  -3  -6  -7  235.58   14.60
   3   6   7  249.78   16.00
   3   6   7  235.68   13.20
  -4  -6  -7 1783.62   67.39
  -4  -6  -7 1571.64   68.99
  -4  -6  -7 1689.53   70.19
  -4  -6  -7 1577.54   68.39
  -4  -6  -7 1637.74   68.99
  -4  -6  -7 1787.32   70.39
  -4  -6  -7 1739.43   67.89
  -4  -6  -7 1598.64   68.79
  -4  -6  -7 1646.44   70.19
  -4  -6  -7 1642.74   68.59
   4   6   7 1845.12   75.09
   4   6   7 1686.13   70.29
  -5  -6  -7 1502.85   61.99
  -5  -6  -7 1431.26   62.29
  -5  -6  -7 1523.05   60.49
  -5  -6  -7 1507.45   62.09
  -5  -6  -7 1565.84   63.69
  -5  -6  -7 1389.16   62.09
   5   6   7 1676.93   68.89
   5   6   7 1474.55   63.59
  -6  -6  -7  163.48   10.80
  -6  -6  -7  172.68   10.30
  -6  -6  -7  178.88   10.00
  -6  -6  -7  174.98   10.10
   6   6   7  169.18   11.00
   6   6   7  198.38   14.60
  -7  -6  -7   39.30    4.40
  -7  -6  -7   40.30    4.70
  -7  -6  -7   37.40    4.40
  -7  -6  -7   42.20    4.40
   7   6   7   41.10    6.70
   7   6   7   38.40    4.80
  -8  -6  -7  224.38   11.10
  -8  -6  -7  216.48   11.10
  -8  -6  -7  209.48   10.90
  -8  -6  -7  210.68   11.20
   8   6   7  212.18   11.20
  -9  -6  -7    3.50    1.40
  -9  -6  -7    4.10    1.30
   2  -7  -7  138.09    7.10
   2  -7  -7  128.09    7.10
   2  -7  -7  137.89    7.40
   2  -7  -7  133.79    7.40
  -2   7   7  134.09    7.70
   1  -7  -7  627.84   26.60
   1  -7  -7  603.64   25.00
   1  -7  -7  563.64   26.40
   1  -7  -7  587.64   25.80
   1  -7  -7  636.64   26.70
   1  -7  -7  636.44   26.70
   1  -7  -7  616.44   26.10
   1  -7  -7  607.14   25.50
   1  -7  -7  535.85   27.00
   1  -7  -7  604.54   26.70
   1  -7  -7  607.54   26.30
   0  -7  -7  488.25   20.10
   0  -7  -7  442.16   21.40
   0  -7  -7  460.75   21.20
   0  -7  -7  435.16   21.50
   0  -7  -7  448.46   21.20
   0  -7  -7  439.66   18.80
   0  -7  -7  457.75   20.60
   0  -7  -7  447.66   19.40
   0  -7  -7  461.25   22.10
   0  -7  -7  445.76   20.70
   0  -7  -7  470.05   20.60
   0  -7  -7  452.35   21.20
  -1  -7  -7    9.90    2.60
  -1  -7  -7    8.20    2.40
  -1  -7  -7   10.90    2.60
  -1  -7  -7   14.30    3.20
  -1  -7  -7    9.50    2.60
  -1  -7  -7   11.20    1.90
  -1  -7  -7   15.10    2.40
  -1  -7  -7   13.40    1.90
  -1  -7  -7   13.80    3.00
  -1  -7  -7    9.90    2.60
  -1  -7  -7   19.20    3.10
  -1  -7  -7   12.60    3.00
  -2  -7  -7  771.72   35.20
  -2  -7  -7  810.92   35.50
  -2  -7  -7  800.52   33.60
  -2  -7  -7  842.72   33.70
  -2  -7  -7  831.42   34.90
  -2  -7  -7  790.62   35.90
  -2  -7  -7  833.92   35.70
  -2  -7  -7  826.42   36.60
  -2  -7  -7  820.72   34.10
  -2  -7  -7  887.91   36.50
  -2  -7  -7  800.52   35.00
  -3  -7  -7  566.64   25.10
  -3  -7  -7  548.75   25.50
  -3  -7  -7  557.24   24.50
  -3  -7  -7  540.15   24.50
  -3  -7  -7  539.95   24.90
  -3  -7  -7  532.95   24.90
  -3  -7  -7  584.64   25.80
  -3  -7  -7  571.64   23.30
  -3  -7  -7  545.35   23.50
  -3  -7  -7  563.44   23.70
  -4  -7  -7  577.64   26.50
  -4  -7  -7  576.24   26.00
  -4  -7  -7  611.94   25.00
  -4  -7  -7  576.74   26.50
  -4  -7  -7  589.44   25.40
  -4  -7  -7  605.64   25.40
  -4  -7  -7  586.84   26.30
  -4  -7  -7  584.64   26.60
  -4  -7  -7  610.24   27.40
   4   7   7  677.23   31.40
   4   7   7  598.14   27.50
  -5  -7  -7    5.40    1.50
  -5  -7  -7    4.90    1.80
  -5  -7  -7    8.30    1.90
  -5  -7  -7    7.90    2.20
  -5  -7  -7    6.90    2.40
  -5  -7  -7    7.50    2.10
  -5  -7  -7    4.50    1.90
  -5  -7  -7    8.80    1.60
  -5  -7  -7    4.40    1.90
  -5  -7  -7    7.10    2.30
   5   7   7    8.50    4.20
   5   7   7    7.80    3.20
  -6  -7  -7   10.50    2.40
  -6  -7  -7   13.80    1.80
  -6  -7  -7    8.30    2.30
  -6  -7  -7   24.40    3.90
  -6  -7  -7   10.00    2.40
  -6  -7  -7   14.10    2.40
  -6  -7  -7   12.70    2.60
   6   7   7   15.70    3.80
   6   7   7   14.10    4.70
  -7  -7  -7 2165.78   90.79
  -7  -7  -7 2226.28   91.19
  -7  -7  -7 2233.38   90.89
  -7  -7  -7 2278.57   91.59
  -7  -7  -7 2304.97   90.39
   7   7   7 2301.97   92.19
   7   7   7 2344.87   96.09
  -8  -7  -7  116.29    6.70
  -8  -7  -7  123.69    6.20
  -8  -7  -7  123.29    7.00
   8   7   7  119.09    7.10
   1  -8  -7  392.56   16.20
   1  -8  -7  342.67   16.10
   1  -8  -7  362.06   15.50
   1  -8  -7  380.76   16.30
   1  -8  -7  384.16   16.20
   1  -8  -7  389.46   16.40
  -1   8   7  398.96   16.70
   0  -8  -7  257.57   11.80
   0  -8  -7  252.47   13.00
   0  -8  -7  245.28   12.10
   0  -8  -7  269.37   12.40
   0  -8  -7  269.07   11.50
   0  -8  -7  277.97   13.00
   0  -8  -7  281.27   12.80
   0  -8  -7  278.17   12.40
   0  -8  -7  273.97   12.70
   0  -8  -7  272.37   12.70
  -1  -8  -7   51.89    4.40
  -1  -8  -7   49.20    3.50
  -1  -8  -7   49.90    4.50
  -1  -8  -7   54.09    4.40
  -1  -8  -7   51.69    3.90
  -1  -8  -7   59.99    4.70
  -1  -8  -7   56.69    3.30
  -1  -8  -7   52.29    4.80
  -1  -8  -7   52.89    4.00
  -1  -8  -7   48.00    3.30
  -1  -8  -7   52.89    4.20
  -2  -8  -7 1672.43   70.89
  -2  -8  -7 1794.12   70.09
  -2  -8  -7 1784.12   71.69
  -2  -8  -7 1733.63   71.59
  -2  -8  -7 1719.63   71.09
  -2  -8  -7 1787.52   71.19
  -2  -8  -7 1763.42   71.89
  -2  -8  -7 1749.03   72.09
  -2  -8  -7 1866.11   70.59
  -2  -8  -7 1777.12   72.19
  -3  -8  -7   49.60    4.50
  -3  -8  -7   52.79    4.60
  -3  -8  -7   52.09    4.30
  -3  -8  -7   50.19    4.60
  -3  -8  -7   50.99    4.70
  -3  -8  -7   58.49    3.50
  -3  -8  -7   50.79    4.20
  -3  -8  -7   48.80    4.60
  -3  -8  -7   47.80    4.00
  -3  -8  -7   55.69    3.70
  -4  -8  -7  124.09    7.50
  -4  -8  -7  117.39    7.50
  -4  -8  -7  122.99    6.20
  -4  -8  -7  118.09    7.90
  -4  -8  -7  122.19    7.10
  -4  -8  -7  139.99    7.40
  -4  -8  -7  123.89    7.50
  -4  -8  -7  131.99    6.60
  -4  -8  -7  129.89    7.90
   4   8   7  127.39    8.20
  -5  -8  -7  183.08    9.90
  -5  -8  -7  191.38    8.90
  -5  -8  -7  187.18    9.50
  -5  -8  -7  177.48    8.50
  -5  -8  -7  180.08   10.30
  -5  -8  -7  184.08    9.80
  -5  -8  -7  201.68   10.00
  -5  -8  -7  188.08   10.40
  -5  -8  -7  182.28    9.50
   5   8   7  179.08   12.90
   5   8   7  193.58   10.70
  -6  -8  -7  185.98    8.80
  -6  -8  -7  187.28    9.80
  -6  -8  -7  185.58    9.50
  -6  -8  -7  181.28    9.60
  -6  -8  -7  179.78    8.40
  -6  -8  -7  183.58    9.40
  -6  -8  -7  188.58   10.10
  -6  -8  -7  175.38   10.10
  -6  -8  -7  186.38    9.50
   6   8   7  192.48   10.70
   6   8   7  196.98   13.30
  -7  -8  -7   30.10    3.30
  -7  -8  -7   22.40    2.80
  -7  -8  -7   30.20    3.10
  -7  -8  -7   28.90    3.20
  -7  -8  -7   36.20    3.10
   7   8   7   22.80    3.40
   7   8   7   39.00    8.80
  -8  -8  -7   16.50    2.10
  -8  -8  -7   16.10    2.00
  -8  -8  -7   15.20    2.20
  -1  -9  -7  283.17   11.80
  -1  -9  -7  269.57   12.20
  -1  -9  -7  279.47   11.50
  -1  -9  -7  265.47   12.20
  -1  -9  -7  291.17   12.60
  -1  -9  -7  277.17   12.20
  -1  -9  -7  264.67   11.70
  -2  -9  -7  270.07   11.50
  -2  -9  -7  262.27   11.90
  -2  -9  -7  255.87   10.90
  -2  -9  -7  277.87   12.40
  -2  -9  -7  259.97   11.90
  -2  -9  -7  247.38   11.90
  -2  -9  -7  248.38   11.60
  -2  -9  -7  248.78   11.10
  -3  -9  -7  290.77   12.90
  -3  -9  -7  277.97   13.50
  -3  -9  -7  280.47   13.30
  -3  -9  -7  313.07   13.90
  -3  -9  -7  273.27   13.00
  -3  -9  -7  307.87   13.60
  -3  -9  -7  278.97   12.50
  -3  -9  -7  296.17   12.30
  -3  -9  -7  310.17   13.50
  -4  -9  -7  408.76   18.20
  -4  -9  -7  444.36   18.10
  -4  -9  -7  407.76   17.60
  -4  -9  -7  434.26   17.40
  -4  -9  -7  429.06   18.90
  -4  -9  -7  427.16   18.60
  -4  -9  -7  418.76   18.50
  -4  -9  -7  397.56   18.60
  -4  -9  -7  424.96   18.50
  -5  -9  -7 1016.90   42.50
  -5  -9  -7 1075.09   41.70
  -5  -9  -7 1095.09   42.50
  -5  -9  -7 1105.49   43.00
  -5  -9  -7 1051.19   42.80
  -5  -9  -7 1042.70   43.10
  -5  -9  -7 1060.19   42.80
  -5  -9  -7  991.80   43.00
  -5  -9  -7  976.00   41.90
  -6  -9  -7  205.38   10.00
  -6  -9  -7  217.28   10.10
  -6  -9  -7  217.88   10.20
  -6  -9  -7  196.68    9.40
  -6  -9  -7  216.08    9.90
  -6  -9  -7  224.18   10.00
  -6  -9  -7  220.88   10.40
  -6  -9  -7  223.58    9.20
   6   9   7  212.18   10.60
  -7  -9  -7  241.08   11.00
  -7  -9  -7  264.57   12.40
  -7  -9  -7  269.37   11.60
  -7  -9  -7  265.97   11.40
  -7  -9  -7  254.97   11.40
  -3 -10  -7  157.18    7.00
  -3 -10  -7  156.78    7.10
  -3 -10  -7  172.28    7.40
  -3 -10  -7  142.09    7.60
  -4 -10  -7   22.50    1.90
  -4 -10  -7   24.60    1.50
  -4 -10  -7   27.70    1.60
  -4 -10  -7   25.90    2.10
  -4 -10  -7   22.80    2.00
  -4 -10  -7   25.90    2.20
  -5 -10  -7   13.10    1.10
  -5 -10  -7   13.90    1.50
  -5 -10  -7   15.20    1.70
  -5 -10  -7   14.00    1.60
  -5 -10  -7   11.30    1.10
  -6  -7   8   93.39    4.50
  -6  -7   8   95.59    5.30
  -5  -7   8  929.41   37.30
  -5  -7   8  936.91   38.50
  -5  -7   8  930.61   39.30
  -4  -7   8    2.90    1.90
  -4  -7   8    2.90    0.90
  -4  -7   8    2.00    1.70
  -3  -7   8  192.98   10.10
   1  -7   8   21.40    2.80
  -7  -6   8  526.65   21.80
  -7  -6   8  527.35   21.70
  -7  -6   8  540.15   22.70
  -6  -6   8    7.80    1.50
  -6  -6   8    9.00    2.70
  -6  -6   8    7.70    2.00
  -6  -6   8    9.00    1.60
  -6  -6   8   13.00    2.60
  -5  -6   8  139.39    8.30
  -5  -6   8  143.89    9.60
  -5  -6   8  154.38    9.20
  -5  -6   8  152.78    7.50
  -5  -6   8  157.08    7.70
  -5  -6   8  154.38    7.50
  -5  -6   8  142.59   11.80
  -4  -6   8   57.79    4.40
  -4  -6   8   62.59    3.90
  -4  -6   8   60.79    5.90
  -4  -6   8   58.69    6.00
  -4  -6   8   57.79    7.60
  -4  -6   8   57.59    3.90
  -4  -6   8   58.49    3.60
  -3  -6   8  161.18   10.00
  -3  -6   8  163.28   10.00
  -3  -6   8  158.08    8.00
  -3  -6   8  152.98   12.30
  -3  -6   8  149.49    7.50
  -2  -6   8   13.20    1.70
  -2  -6   8   12.80    3.30
  -2  -6   8   13.40    1.70
  -1  -6   8    6.60    1.20
  -1  -6   8    8.50    3.10
  -1  -6   8    2.10    2.40
   0  -6   8  179.08   10.10
   0  -6   8  211.48   13.00
   0  -6   8  185.68    8.50
   0  -6   8  189.88   11.70
   1  -6   8  791.92   33.80
   1  -6   8  816.92   32.20
   1  -6   8  819.12   35.40
   1  -6   8  785.42   32.20
   1  -6   8  774.12   32.20
   2  -6   8  151.18    6.90
   2  -6   8  148.09    7.00
   2  -6   8  153.08    9.00
   2  -6   8  156.68    8.20
   3  -6   8  355.46   15.60
   3  -6   8  375.06   14.90
  -7  -5   8  229.88   11.40
  -7  -5   8  227.38   11.70
  -7  -5   8  248.58   12.20
  -7  -5   8  235.08   10.60
  -6  -5   8    9.70    2.30
  -6  -5   8    9.90    3.20
  -6  -5   8    7.60    1.90
  -6  -5   8   12.80    2.50
  -6  -5   8   10.90    3.20
  -6  -5   8    6.70    2.50
  -6  -5   8    7.60    4.10
  -5  -5   8  557.74   26.40
  -5  -5   8  577.74   26.50
  -5  -5   8  544.75   24.30
  -5  -5   8  557.64   24.80
  -5  -5   8  588.64   24.80
  -5  -5   8  605.14   27.20
  -5  -5   8  550.54   26.80
  -5  -5   8  541.05   30.10
  -4  -5   8  983.00   43.40
  -4  -5   8 1007.00   47.20
  -4  -5   8 1042.60   43.00
  -4  -5   8  990.00   41.20
  -4  -5   8  955.80   43.80
  -4  -5   8 1002.70   40.90
  -4  -5   8  959.30   41.10
  -3  -5   8  355.46   15.80
  -3  -5   8  365.56   17.20
  -3  -5   8  339.57   20.50
  -3  -5   8  340.97   15.60
  -3  -5   8  351.96   18.70
  -3  -5   8  328.97   17.60
  -2  -5   8  329.37   19.20
  -2  -5   8  314.17   16.30
  -2  -5   8  307.67   17.20
  -2  -5   8  334.67   18.30
  -2  -5   8  311.47   14.20
  -2  -5   8  326.47   15.70
  -2  -5   8  314.87   14.30
  -1  -5   8  106.59    5.80
  -1  -5   8  118.59    8.70
  -1  -5   8  100.79    6.70
  -1  -5   8  103.29    5.70
  -1  -5   8  106.29    9.30
   0  -5   8   77.89    4.70
   0  -5   8   80.79    4.90
   0  -5   8   79.99    5.80
   0  -5   8   74.59    8.00
   0  -5   8   76.59    6.60
   0  -5   8   86.09    7.30
   1  -5   8  464.45   19.60
   1  -5   8  433.76   21.60
   1  -5   8  458.95   23.70
   1  -5   8  459.35   19.10
   1  -5   8  411.96   19.20
   1  -5   8  443.56   21.50
   1  -5   8  446.86   20.70
   2  -5   8   18.40    2.50
   2  -5   8   18.80    2.40
   2  -5   8   26.20    5.10
   2  -5   8   22.20    3.80
   2  -5   8   21.90    2.80
   2  -5   8   27.60    4.40
   2  -5   8   17.10    3.20
   3  -5   8    4.60    2.10
   3  -5   8    5.60    2.30
   3  -5   8    4.60    1.80
   3  -5   8    5.10    1.40
   3  -5   8    5.20    1.40
   3  -5   8    7.10    1.60
  -4   5  -8   28.30    3.60
   4  -5   8   37.00    2.50
   4  -5   8   36.10    3.00
   4  -5   8   39.50    2.10
   4  -5   8   34.80    3.40
  -7  -4   8   86.79    7.00
  -7  -4   8   81.59    6.30
  -7  -4   8   91.39    6.50
  -6  -4   8   99.89    8.70
  -6  -4   8   85.99    7.00
  -6  -4   8   83.79    6.60
  -6  -4   8   99.59    7.10
  -6  -4   8   84.29    8.00
  -6  -4   8   87.49    7.90
  -6  -4   8   90.29    6.20
  -6  -4   8   79.99   10.00
  -5  -4   8 1512.15   63.19
  -5  -4   8 1453.05   66.39
  -5  -4   8 1467.95   59.99
  -5  -4   8 1417.96   60.79
  -5  -4   8 1469.65   62.19
  -5  -4   8 1446.26   62.99
  -5  -4   8 1456.75   60.59
  -4  -4   8  117.39   10.50
  -4  -4   8  120.99   11.20
  -4  -4   8  105.79    9.80
  -4  -4   8  115.89    9.00
  -4  -4   8  130.99    7.90
  -4  -4   8  101.89    8.10
  -4  -4   8  115.19    7.20
  -4  -4   8  111.79    7.60
  -3  -4   8   44.70    4.30
  -3  -4   8   38.50    4.80
  -3  -4   8   39.30    6.50
  -3  -4   8   43.00    5.40
  -3  -4   8   41.70    4.30
  -3  -4   8   55.89    8.10
  -3  -4   8   32.20    5.90
  -3  -4   8   40.70    4.30
  -2  -4   8 1965.80   83.39
  -2  -4   8 2084.29   85.69
  -2  -4   8 2068.59   82.59
  -2  -4   8 2008.90   85.39
  -2  -4   8 2027.20   86.79
  -2  -4   8 2018.60   84.29
  -2  -4   8 2060.69   86.79
  -2  -4   8 2083.19   81.99
  -1  -4   8  850.41   39.00
  -1  -4   8  875.81   37.20
  -1  -4   8  837.22   38.60
  -1  -4   8  882.31   35.70
  -1  -4   8  847.62   37.90
  -1  -4   8  873.11   36.60
  -1  -4   8  844.52   39.80
  -1  -4   8  851.71   40.40
   0  -4   8 2705.93  117.19
   0  -4   8 2898.31  112.99
   0  -4   8 2708.63  114.79
   0  -4   8 2778.72  111.89
   0  -4   8 2943.21  114.39
   0  -4   8 2841.72  114.29
   1  -4   8  438.36   18.40
   1  -4   8  398.76   23.10
   1  -4   8  395.06   20.80
   1  -4   8  437.16   20.60
   1  -4   8  389.66   19.20
   1  -4   8  395.46   20.50
   2  -4   8   64.89    6.80
   2  -4   8   61.49    8.40
   2  -4   8   75.69    7.00
   2  -4   8   67.19    6.40
   2  -4   8   74.79    5.00
   2  -4   8   70.09    4.50
   2  -4   8   70.99    6.00
   3  -4   8  789.72   35.20
   3  -4   8  855.81   33.30
   3  -4   8  779.92   32.50
   3  -4   8  784.82   36.00
   3  -4   8  772.72   35.10
   3  -4   8  756.82   37.60
   3  -4   8  742.83   34.30
   3  -4   8  795.32   34.70
   4  -4   8 1046.30   50.39
   4  -4   8 1162.18   49.30
   4  -4   8 1249.47   48.80
   4  -4   8 1048.10   49.60
   4  -4   8 1163.68   48.50
   4  -4   8 1164.78   47.60
   4  -4   8 1234.18   47.10
   4  -4   8 1232.08   48.90
  -5   4  -8   51.29    4.10
   5  -4   8   54.89    3.20
   5  -4   8   54.59    3.90
   5  -4   8   48.70    6.40
   5  -4   8   58.39    3.90
  -8  -3   8   19.30    2.80
  -7  -3   8 1133.29   46.00
  -7  -3   8 1169.88   48.90
  -7  -3   8 1122.89   48.00
  -6  -3   8   36.30    4.50
  -6  -3   8   39.40    5.60
  -6  -3   8   44.20    6.80
  -6  -3   8   41.70    5.00
  -6  -3   8   36.90    3.70
  -5  -3   8  697.73   33.20
  -5  -3   8  691.03   32.60
  -5  -3   8  707.73   30.60
  -5  -3   8  716.83   32.10
  -5  -3   8  722.23   35.20
  -5  -3   8  776.82   36.50
  -5  -3   8  735.43   33.10
  -5  -3   8  761.72   38.20
  -5  -3   8  774.32   34.10
  -4  -3   8  112.49    8.40
  -4  -3   8  110.89    6.30
  -4  -3   8  104.19   10.60
  -4  -3   8  104.99   10.70
  -4  -3   8  126.99    8.10
  -4  -3   8  108.49    8.60
  -4  -3   8  117.79    8.70
  -4  -3   8  134.49   12.00
  -4  -3   8  118.29   10.30
  -3  -3   8  805.82   34.10
  -3  -3   8  782.52   34.50
  -3  -3   8  789.72   35.10
  -3  -3   8  743.43   31.80
  -3  -3   8  790.72   37.80
  -3  -3   8  731.23   37.30
  -3  -3   8  790.52   37.00
  -3  -3   8  759.22   34.80
  -3  -3   8  793.12   36.80
  -3  -3   8  772.52   38.10
  -2  -3   8   11.60    3.70
  -2  -3   8    9.70    4.50
  -2  -3   8   14.90    4.20
  -2  -3   8   30.60    5.30
  -2  -3   8   14.40    2.80
  -2  -3   8   10.90    2.90
  -1  -3   8  236.08   12.60
  -1  -3   8  255.07   12.20
  -1  -3   8  240.68   16.20
  -1  -3   8  239.88   14.80
  -1  -3   8  249.28   14.40
   0  -3   8   63.79    8.10
   0  -3   8   66.69    6.70
   0  -3   8   72.69    5.00
   0  -3   8   69.69    6.70
   1  -3   8  865.71   40.00
   1  -3   8  872.71   42.70
   1  -3   8  904.41   36.70
   2  -3   8    7.00    2.90
   2  -3   8    9.20    1.80
   2  -3   8    6.00    2.80
   2  -3   8    5.00    2.70
   2  -3   8    7.40    4.60
   2  -3   8   11.00    3.20
   2  -3   8    6.40    3.30
   3  -3   8  714.33   36.70
   3  -3   8  719.93   32.50
   3  -3   8  717.33   31.00
   3  -3   8  694.83   30.30
   3  -3   8  747.13   33.50
   3  -3   8  758.42   34.20
   3  -3   8  710.53   33.80
   3  -3   8  767.42   34.70
   3  -3   8  726.93   33.10
   4  -3   8  148.49    8.40
   4  -3   8  147.19    7.80
   4  -3   8  157.68   11.10
   4  -3   8  153.08    9.40
   4  -3   8  143.99   12.00
   4  -3   8  150.08   10.20
   4  -3   8  152.38   10.10
   4  -3   8  144.89   10.00
   4  -3   8  165.88   10.70
   5  -3   8    3.10    2.10
   5  -3   8    2.50    2.30
   5  -3   8    8.10    1.90
   5  -3   8    5.60    2.10
   5  -3   8    2.90    1.30
   5  -3   8    5.00    3.20
   5  -3   8    3.10    2.30
   5  -3   8    1.80    2.20
  -6   3  -8  969.30   40.00
   6  -3   8  958.60   39.90
  -7  -2   8  188.58   10.90
  -7  -2   8  195.48   10.00
   6   2  -8   -0.90    4.50
  -6  -2   8    3.40    3.50
  -6  -2   8    2.80    2.00
  -6  -2   8    1.90    2.00
   5   2  -8   32.30    8.30
  -5  -2   8   53.19    6.50
  -5  -2   8   48.10    5.20
  -5  -2   8   44.00   11.30
  -5  -2   8   47.50    7.30
  -5  -2   8   60.49    5.00
  -5  -2   8   52.79    6.00
   4   2  -8 2194.98  112.09
  -4  -2   8 2615.94  105.99
  -4  -2   8 2583.74  103.89
  -4  -2   8 2774.02  111.39
  -4  -2   8 2568.04  106.99
  -4  -2   8 2628.74  110.09
  -4  -2   8 2610.74  108.79
  -4  -2   8 2567.84  104.89
  -4  -2   8 2678.63  105.49
  -4  -2   8 2658.73  110.29
  -3  -2   8  517.85   25.10
  -3  -2   8  539.75   28.60
  -3  -2   8  531.95   27.70
  -3  -2   8  534.85   27.80
  -3  -2   8  531.65   24.80
  -3  -2   8  530.45   28.80
  -2  -2   8 1031.00   46.50
  -2  -2   8 1049.79   47.60
  -2  -2   8 1035.20   43.70
  -2  -2   8 1000.30   43.60
  -1  -2   8   48.90    4.30
  -1  -2   8   41.20    5.80
   0  -2   8   86.89    7.80
   0  -2   8   75.89    6.90
   0  -2   8   84.89    5.80
  -1   2  -8 1561.44   67.19
   1  -2   8 1624.64   66.59
   1  -2   8 1557.04   65.89
   1  -2   8 1564.84   62.99
   1  -2   8 1473.55   65.09
   1  -2   8 1586.94   68.09
  -2   2  -8  133.79   10.70
   2  -2   8  136.59    7.40
   2  -2   8  140.19   11.60
   2  -2   8  123.89   11.50
   2  -2   8  133.99    9.80
   3  -2   8   14.00    2.20
   3  -2   8   13.40    3.20
   3  -2   8   25.40    3.10
   3  -2   8   14.50    3.70
   3  -2   8   14.70    4.10
   3  -2   8   19.20    4.20
   3  -2   8   11.20    4.70
   4  -2   8  277.67   16.00
   4  -2   8  252.97   14.90
   4  -2   8  238.68   12.60
   4  -2   8  263.67   19.10
   4  -2   8  252.17   13.60
   4  -2   8  251.27   16.80
   4  -2   8  277.17   16.00
   4  -2   8  243.08   14.50
   4  -2   8  251.87   13.30
   4  -2   8  274.37   12.20
   5  -2   8  649.64   28.00
   5  -2   8  653.33   31.50
   5  -2   8  630.84   30.10
   5  -2   8  638.84   33.70
   5  -2   8  693.03   32.00
   5  -2   8  630.54   27.20
   5  -2   8  642.54   28.50
   5  -2   8  654.23   27.50
   5  -2   8  635.64   29.90
   5  -2   8  640.34   30.30
  -6   2  -8  111.29    7.50
   6  -2   8  110.59    7.50
   6  -2   8  103.99    7.70
   6  -2   8   93.29    7.80
   7   1  -8   28.20    4.90
  -7  -1   8   26.40    3.60
  -7  -1   8   33.50    4.20
   6   1  -8   53.49    8.50
  -6  -1   8   78.59    6.60
  -6  -1   8   81.99    6.70
   5   1  -8  167.18   15.40
  -5  -1   8  170.28   13.40
  -5  -1   8  183.98   11.00
  -5  -1   8  195.38   11.40
   4   1  -8    3.70    6.20
  -4  -1   8    1.90    2.90
  -4  -1   8    5.90    2.60
  -4  -1   8    2.70    3.80
  -4  -1   8    6.40    2.60
  -4  -1   8    4.40    2.80
  -4  -1   8   13.80    3.30
  -4  -1   8    3.10    4.00
  -3  -1   8   15.30    5.90
  -3  -1   8   14.40    5.10
  -3  -1   8   13.80    4.20
  -3  -1   8    9.30    3.70
  -3  -1   8   15.60    3.10
  -3  -1   8   28.10    5.30
  -2  -1   8  511.55   24.10
  -2  -1   8  547.75   23.20
  -2  -1   8  532.15   28.60
  -2  -1   8  532.95   26.70
  -1  -1   8 1095.49   49.99
  -1  -1   8 1187.88   51.79
  -1  -1   8 1167.88   45.90
   0  -1   8 1748.13   71.89
   0  -1   8 1670.03   69.09
   0  -1   8 1646.74   70.69
  -1   1  -8 1414.66   56.69
   1  -1   8 1239.78   54.49
   1  -1   8 1315.17   55.99
   1  -1   8 1250.87   55.39
   1  -1   8 1282.17   58.79
  -2   1  -8  928.71   40.70
   2  -1   8  894.71   39.40
   2  -1   8  842.02   43.50
   2  -1   8  829.52   38.60
  -3   1  -8  354.76   19.90
   3  -1   8  332.07   19.10
   3  -1   8  322.07   15.20
   3  -1   8  314.07   22.90
   3  -1   8  326.67   18.10
   4  -1   8 2724.53  110.89
   4  -1   8 2708.03  107.89
   4  -1   8 2536.75  110.39
   4  -1   8 2633.94  111.19
   4  -1   8 2571.04  109.69
   4  -1   8 2722.83  109.79
   4  -1   8 2878.61  119.09
   4  -1   8 2628.84  109.09
   5  -1   8  116.49    7.70
   5  -1   8  116.19    9.70
   5  -1   8  112.59    9.30
   5  -1   8  122.19   10.30
   5  -1   8  119.99    8.90
   5  -1   8  130.39   14.50
   5  -1   8  112.99    6.50
  -6   1  -8  252.07   13.70
   6  -1   8  230.78   18.20
   6  -1   8  249.58   14.30
   6  -1   8  239.28   13.10
  -7   1  -8  232.38   11.90
   7  -1   8  215.58    9.50
   7  -1   8  228.08   11.70
   7   0  -8  803.52   35.40
  -7   0   8  754.12   33.90
  -7   0   8  831.42   34.10
   6   0  -8  833.72   39.70
  -6   0   8  817.72   36.40
   5   0  -8  732.83   39.00
  -5   0   8  784.02   34.40
   4   0  -8  293.27   20.90
  -4   0   8  309.87   15.60
  -4   0   8  271.27   18.90
   3   0  -8  541.45   30.30
  -3   0   8  528.75   24.80
  -3   0   8  499.05   27.70
  -3   0   8  536.85   27.90
  -2   0   8   87.39    8.10
  -2   0   8   87.89    6.50
  -2   0   8   76.29    7.70
  -1   0   8  565.94   27.50
  -1   0   8  575.54   67.79
  -1   0   8  558.24   26.60
   0   0  -8  344.37   19.10
   0   0  -8  389.26   64.19
   0   0   8  368.16   17.80
   0   0   8  365.06   17.40
   0   0   8  342.27   18.70
  -1   0  -8  407.06   70.59
  -1   0  -8  413.46   20.90
   1   0   8  386.06   20.30
   1   0   8  423.36   18.90
   1   0   8  400.36   19.40
   1   0   8  376.46   23.00
  -2   0  -8   89.09    7.80
   2   0   8   82.39    7.30
   2   0   8   86.99    7.30
   2   0   8   79.09    9.90
   2   0   8   87.79    6.90
   2   0   8   85.09    5.70
  -3   0  -8  763.92   36.30
   3   0   8  721.83   34.70
   3   0   8  777.12   41.40
   3   0   8  808.52   32.60
   3   0   8  723.93   34.80
  -4   0  -8  283.17   17.30
   4   0   8  251.77   20.60
   4   0   8  256.37   12.80
   5   0   8   96.29   12.90
   5   0   8   72.29    8.00
   5   0   8   76.39    7.10
   5   0   8   87.19    9.20
  -6   0  -8 1128.59   47.70
   6   0   8 1084.49   48.50
   6   0   8 1102.59   48.50
   6   0   8 1059.29   55.19
  -7   0  -8  883.31   39.40
   7   0   8  908.51   39.40
   7   0   8  946.01   40.00
  -8   0  -8  136.49    7.50
   8   0   8  130.49    7.30
   8   0   8  135.89    6.10
  -7   1   8   61.49    4.50
   6  -1  -8   69.29    7.50
  -6   1   8   60.39    5.70
   5  -1  -8  175.58   14.00
  -5   1   8  168.98   11.10
   4  -1  -8 3211.38  131.59
  -4   1   8 3244.68  126.39
  -4   1   8 2880.11  132.49
   3  -1  -8  209.28   16.30
  -3   1   8  204.48   16.40
  -2   1   8 1871.31   80.29
  -2   1   8 1893.31   82.39
  -1   1   8 2639.44  110.99
  -1   1   8 2687.13  110.09
   0  -1  -8  321.27   18.50
   0   1   8  314.57   17.70
   0   1   8  311.47   16.20
   0   1   8  331.07   17.90
  -1  -1  -8 4229.98  168.38
   1   1   8 4167.18  167.48
   1   1   8 4081.89  167.98
   1   1   8 4154.08  166.48
  -2  -1  -8  878.41   38.50
   2   1   8  802.42   37.90
   2   1   8  797.42   42.90
   2   1   8  818.62   36.70
   2   1   8  819.52   37.00
  -3  -1  -8  363.76   19.60
   3   1   8  326.77   17.90
   3   1   8  328.27   18.70
   3   1   8  337.57   17.70
  -4  -1  -8   53.99    6.90
   4   1   8   60.69    6.70
   4   1   8   60.79    5.90
  -5  -1  -8  658.53   29.90
   5   1   8  644.14   30.50
   5   1   8  612.14   29.50
  -6  -1  -8   18.20    3.80
   6   1   8   15.00    4.90
   6   1   8   22.70    5.10
  -7  -1  -8   16.70    3.70
   7   1   8   22.40    4.30
   7   1   8   22.50    5.20
  -8  -1  -8   75.39    5.80
   8   1   8   81.59    6.10
   8   1   8   72.69    5.80
   6  -2  -8  109.09    8.00
  -6   2   8  101.19    6.40
  -6   2   8  107.79    7.10
   5  -2  -8  334.17   19.10
  -5   2   8  313.67   16.90
  -5   2   8  317.57   16.30
   4  -2  -8  506.45   27.60
  -4   2   8  498.85   24.50
   3  -2  -8   73.99    9.10
   3  -2  -8   79.69    9.80
  -3   2   8   77.79   10.70
  -3   2   8   89.19    7.40
   2  -2  -8   76.09    9.00
   2  -2  -8   68.19    8.90
  -2   2   8   68.59    9.50
   1  -2  -8 1750.92   76.09
  -1   2   8 1678.03   73.99
  -1   2   8 1768.82   76.19
   0  -2  -8 2045.80   88.79
   0   2   8 2170.18   88.09
   0   2   8 2060.89   87.29
   0   2   8 1986.80   85.39
  -1  -2  -8 1482.05   63.79
  -1  -2  -8 1425.76   64.79
   1   2   8 1545.05   63.49
   1   2   8 1369.86   61.29
   1   2   8 1442.66   63.59
  -2  -2  -8 1801.62   76.29
  -2  -2  -8 1837.32   78.49
   2   2   8 1809.22   75.89
   2   2   8 1687.13   75.99
   2   2   8 1764.32   74.59
  -3  -2  -8   80.69    7.90
   3   2   8   67.69    7.40
   3   2   8   76.69    7.10
   3   2   8   82.49    8.10
  -4  -2  -8 6103.29  227.18
   4   2   8 5503.75  226.08
   4   2   8 5637.04  225.28
   4   2   8 5513.05  225.58
   4   2   8 5291.77  222.38
  -5  -2  -8   82.79    7.20
   5   2   8   79.59    8.10
   5   2   8  104.99   12.10
  -6  -2  -8  151.08   10.80
   6   2   8  161.48   10.90
  -7  -2  -8  379.06   20.00
   7   2   8  396.86   19.80
  -8  -2  -8  217.88   12.10
   8   2   8  232.78   12.10
   8   2   8  208.28   12.80
   6  -3  -8  802.62   31.60
  -6   3   8  681.73   30.70
   5  -3  -8  266.97   14.90
   5  -3  -8  291.97   15.70
  -5   3   8  267.77   13.90
  -5   3   8  301.07   15.00
   4  -3  -8  119.49   10.30
  -4   3   8  116.79    9.00
  -4   3   8  120.39    8.40
   3  -3  -8  642.54   31.30
   3  -3  -8  591.74   28.10
  -3   3   8  608.74   29.00
   2  -3  -8  217.28   14.30
   2  -3  -8  162.48   11.60
   2  -3  -8  207.68   15.00
   2  -3  -8  211.48   11.80
  -2   3   8  202.68   12.20
   1  -3  -8 1752.62   76.39
  -1   3   8 1742.83   76.29
   0  -3  -8   66.39    7.90
   0   3   8   64.19    6.70
   0   3   8   62.19    7.40
  -1  -3  -8   72.79    8.00
   1   3   8   60.19    7.10
   1   3   8   53.49    6.00
  -2  -3  -8  108.99    9.70
   2   3   8   94.79    8.10
   2   3   8   95.89    9.20
  -3  -3  -8 1361.96   60.09
  -3  -3  -8 1430.36   60.29
   3   3   8 1305.77   58.09
   3   3   8 1266.37   59.39
   3   3   8 1373.96   60.09
   3   3   8 1315.37   56.39
  -4  -3  -8  239.48   16.20
  -4  -3  -8  243.48   15.80
   4   3   8  242.68   16.40
   4   3   8  251.67   13.60
   4   3   8  260.17   16.60
  -5  -3  -8  328.97   19.80
  -5  -3  -8  363.86   18.80
  -5  -3  -8  347.67   21.00
   5   3   8  312.67   20.70
   5   3   8  372.26   21.20
   5   3   8  353.56   17.70
  -6  -3  -8  473.25   30.10
  -6  -3  -8  480.05   23.10
  -6  -3  -8  372.06   26.60
   6   3   8  445.16   27.40
  -7  -3  -8 2105.09   84.79
  -7  -3  -8 1925.11   85.69
   7   3   8 2041.10   83.49
  -8  -3  -8  145.09    9.50
   8   3   8  148.69    9.10
   9   3   8  375.56   16.50
   5  -4  -8   83.49    5.10
   5  -4  -8   78.59    5.70
  -5   4   8   78.79    5.40
  -5   4   8   76.49    5.00
   4  -4  -8 1216.28   51.49
   4  -4  -8 1239.78   53.19
   4  -4  -8 1317.47   52.29
  -4   4   8 1204.08   51.79
  -4   4   8 1235.08   52.69
   3  -4  -8  486.25   22.40
   3  -4  -8  500.35   24.70
   3  -4  -8  453.65   23.20
   3  -4  -8  464.75   23.20
  -3   4   8  483.55   23.50
   2  -4  -8  167.78   15.00
   2  -4  -8  156.68   11.80
   2  -4  -8  183.18   11.60
   2  -4  -8  192.98   12.70
   2  -4  -8  156.48   11.00
   2  -4  -8  187.48   10.70
  -2   4   8  172.38   11.10
   1  -4  -8  887.01   41.60
   1  -4  -8  986.40   40.70
   1  -4  -8  950.80   43.30
   0  -4  -8 1437.46   62.69
   0   4   8 1447.96   62.69
  -1  -4  -8 2047.50   83.49
   1   4   8 1931.91   83.99
   1   4   8 1889.71   80.89
   1   4   8 2032.40   83.39
  -2  -4  -8 2512.35  103.59
   2   4   8 2403.76  101.49
   2   4   8 2506.15  103.79
   2   4   8 2578.74  105.49
  -3  -4  -8  415.56   21.70
   3   4   8  435.96   23.90
   3   4   8  412.26   20.60
   3   4   8  421.86   22.40
  -4  -4  -8  625.54   29.70
   4   4   8  603.24   28.60
   4   4   8  673.03   32.90
   4   4   8  592.14   30.30
  -5  -4  -8 1347.37   58.99
  -5  -4  -8 1404.56   62.59
  -5  -4  -8 1327.17   58.89
   5   4   8 1427.36   62.29
   5   4   8 1341.17   57.89
  -6  -4  -8  237.18   12.90
  -6  -4  -8  235.18   14.60
   6   4   8  250.47   16.50
   6   4   8  231.38   13.20
  -7  -4  -8  224.18   12.40
  -7  -4  -8  232.68   14.00
  -8  -4  -8    7.30    2.20
  -8  -4  -8    7.30    2.80
  -9  -4  -8  351.66   16.00
   4  -5  -8  445.66   19.70
   4  -5  -8  428.46   20.40
   4  -5  -8  481.05   19.50
  -4   5   8  473.75   20.70
  -4   5   8  467.75   20.20
   3  -5  -8  200.98   10.50
   3  -5  -8  168.88   12.70
   3  -5  -8  180.88   11.40
   3  -5  -8  199.08   10.30
  -3   5   8  205.18   11.50
   2  -5  -8   21.20    4.00
   2  -5  -8   23.70    3.90
   2  -5  -8   25.30    5.50
   2  -5  -8   16.30    3.20
   2  -5  -8   21.90    4.40
  -2   5   8   21.70    4.10
   1  -5  -8  793.42   38.40
   1  -5  -8  734.63   33.40
   1  -5  -8  807.22   35.00
   1  -5  -8  698.33   33.90
   1  -5  -8  773.72   33.40
   0  -5  -8  176.48   10.20
   0  -5  -8  173.68   10.50
   0  -5  -8  187.98   11.50
   0  -5  -8  180.98    9.30
   0  -5  -8  170.48    9.50
   0  -5  -8  173.28   13.50
  -1  -5  -8   49.30    4.70
  -2  -5  -8  392.46   18.70
   2   5   8  386.36   19.10
   2   5   8  396.76   21.90
  -3  -5  -8  382.06   18.70
   3   5   8  381.66   19.40
   3   5   8  417.16   23.00
  -4  -5  -8 1824.32   73.79
  -4  -5  -8 1602.34   72.59
  -4  -5  -8 1792.32   74.89
   4   5   8 1849.42   74.79
   4   5   8 1913.91   79.09
  -5  -5  -8  113.89    8.90
  -5  -5  -8  106.69    7.50
  -5  -5  -8   96.49   10.40
  -5  -5  -8  107.29    7.10
   5   5   8  125.89   11.50
   5   5   8  114.39    8.40
  -6  -5  -8  329.57   17.00
  -6  -5  -8  368.76   23.30
  -6  -5  -8  329.97   18.60
   6   5   8  388.06   22.00
   6   5   8  372.96   18.40
  -7  -5  -8  827.92   38.20
  -7  -5  -8  875.81   37.40
  -7  -5  -8  855.21   38.80
   7   5   8  911.71   41.40
   7   5   8  899.61   38.00
  -8  -5  -8  794.12   33.20
  -8  -5  -8  774.92   33.40
  -8  -5  -8  727.33   32.30
  -9  -5  -8  612.94   25.70
   3  -6  -8  705.23   29.10
   3  -6  -8  706.53   30.80
   3  -6  -8  750.52   30.60
  -3   6   8  782.22   31.00
  -3   6   8  780.12   31.40
  -3   6   8  697.13   31.00
   2  -6  -8    3.20    1.90
   2  -6  -8    5.10    1.70
   2  -6  -8    4.30    1.80
   2  -6  -8    2.30    2.10
   2  -6  -8    1.50    1.90
  -2   6   8    0.10    1.90
   1  -6  -8 2041.40   85.29
   1  -6  -8 2002.60   87.69
   1  -6  -8 2257.07   86.19
   1  -6  -8 2066.39   84.09
   1  -6  -8 2090.69   85.49
   1  -6  -8 2101.29   84.79
   0  -6  -8   65.69    6.50
   0  -6  -8   84.29    8.10
   0  -6  -8   85.79    5.20
   0  -6  -8   75.99    6.60
   0  -6  -8   75.69    5.90
   0  -6  -8   76.49    6.60
   0  -6  -8   94.89    7.20
   0  -6  -8   91.59    6.00
  -1  -6  -8    4.50    2.40
  -1  -6  -8    4.20    2.40
  -1  -6  -8    4.70    2.40
  -1  -6  -8    4.50    1.90
  -1  -6  -8    2.80    1.80
  -1  -6  -8    2.30    2.00
  -1  -6  -8    5.60    2.90
  -1  -6  -8    6.10    2.00
  -1  -6  -8    1.80    1.40
  -1  -6  -8    2.40    2.30
  -2  -6  -8  129.99    7.90
  -2  -6  -8  129.29    8.80
  -2  -6  -8  125.09    7.70
  -2  -6  -8  143.19    7.10
  -2  -6  -8  127.49    7.80
  -2  -6  -8  135.39    9.50
  -2  -6  -8  123.89    7.40
  -2  -6  -8  120.89   10.80
  -2  -6  -8  142.79    9.00
  -3  -6  -8  156.88   10.80
  -3  -6  -8  156.88    9.80
  -3  -6  -8  171.58   10.60
  -3  -6  -8  170.08   10.40
  -3  -6  -8  198.28    9.50
  -3  -6  -8  173.18    9.50
  -3  -6  -8  157.68    8.20
   3   6   8  159.78   10.10
   3   6   8  169.58   12.70
  -4  -6  -8   48.20    5.40
  -4  -6  -8   53.69    4.50
  -4  -6  -8   54.89    3.90
  -4  -6  -8   53.69    4.90
   4   6   8   58.89    8.00
   4   6   8   50.69    5.50
  -5  -6  -8  548.15   25.30
  -5  -6  -8  551.64   25.70
  -5  -6  -8  576.24   27.10
   5   6   8  567.64   26.90
   5   6   8  642.94   31.20
  -6  -6  -8   73.79    5.70
  -6  -6  -8   74.09    6.10
  -6  -6  -8   72.39    6.70
   6   6   8   85.99    6.80
   6   6   8   83.89    9.10
  -7  -6  -8 1063.09   44.10
  -7  -6  -8 1041.20   44.90
  -7  -6  -8 1046.90   43.70
   7   6   8 1036.50   47.80
   7   6   8 1054.19   44.70
  -8  -6  -8   34.10    3.60
  -8  -6  -8   27.90    3.20
  -8  -6  -8   34.30    3.90
   8   6   8   30.10    3.50
  -9  -6  -8  140.29    6.80
   2  -7  -8  140.79    7.40
   2  -7  -8  152.28    7.50
   2  -7  -8  147.89    7.60
  -2   7   8  159.58    8.00
   1  -7  -8  299.17   14.20
   1  -7  -8  305.67   14.30
   1  -7  -8  302.17   14.30
   1  -7  -8  281.97   14.30
   1  -7  -8  307.87   14.00
   0  -7  -8  943.31   38.70
   0  -7  -8  871.41   39.60
   0  -7  -8  955.40   38.80
   0  -7  -8  875.61   39.70
   0  -7  -8  915.51   38.60
   0  -7  -8  912.91   38.00
   0  -7  -8  982.60   39.10
   0  -7  -8  913.71   37.10
   0  -7  -8  899.01   39.00
   0  -7  -8  892.31   36.80
   0  -7  -8  872.31   38.20
  -1  -7  -8  559.84   26.00
  -1  -7  -8  568.44   26.10
  -1  -7  -8  583.44   24.60
  -1  -7  -8  613.34   26.40
  -1  -7  -8  547.65   26.50
  -1  -7  -8  568.64   27.50
  -1  -7  -8  611.44   25.20
  -1  -7  -8  584.84   26.50
  -1  -7  -8  596.84   25.80
  -1  -7  -8  628.54   25.80
  -1  -7  -8  622.74   27.50
  -1  -7  -8  582.54   24.70
  -2  -7  -8 1857.71   78.59
  -2  -7  -8 1926.71   76.29
  -2  -7  -8 1910.91   76.59
  -2  -7  -8 1951.40   76.89
  -2  -7  -8 1859.51   77.89
  -2  -7  -8 1907.81   78.29
  -2  -7  -8 1998.50   79.29
  -2  -7  -8 1852.51   77.79
  -2  -7  -8 1934.11   79.79
  -2  -7  -8 1852.61   77.89
  -2  -7  -8 2025.60   77.59
  -3  -7  -8   37.00    3.30
  -3  -7  -8   32.40    3.70
  -3  -7  -8   33.20    4.00
  -3  -7  -8   32.20    4.10
  -3  -7  -8   35.90    4.10
  -3  -7  -8   33.50    3.20
  -3  -7  -8   33.90    2.90
  -3  -7  -8   28.60    3.60
  -3  -7  -8   35.30    4.30
   3   7   8   36.80    6.10
  -4  -7  -8  123.99    6.90
  -4  -7  -8  140.09    7.30
  -4  -7  -8  138.69    8.70
  -4  -7  -8  127.39    8.50
  -4  -7  -8  123.39    7.80
  -4  -7  -8  114.99    7.60
  -4  -7  -8  117.69    7.70
  -4  -7  -8  122.49    7.70
  -4  -7  -8  123.09    6.40
  -4  -7  -8  128.99    7.40
   4   7   8  136.29   10.90
   4   7   8  130.69    8.50
  -5  -7  -8 1564.64   68.39
  -5  -7  -8 1706.03   67.89
  -5  -7  -8 1682.73   69.59
  -5  -7  -8 1576.44   66.89
  -5  -7  -8 1698.23   68.19
  -5  -7  -8 1543.05   68.39
   5   7   8 1878.41   74.09
   5   7   8 1811.92   69.99
  -6  -7  -8   37.50    3.80
  -6  -7  -8   38.10    4.50
  -6  -7  -8   45.20    4.10
  -6  -7  -8   37.10    3.60
   6   7   8   44.90    4.90
   6   7   8   45.80    6.90
  -7  -7  -8  632.84   24.80
  -7  -7  -8  561.24   24.90
  -7  -7  -8  582.94   25.70
  -7  -7  -8  560.44   25.00
   7   7   8  570.74   25.90
   7   7   8  567.14   28.60
  -8  -7  -8    9.70    2.70
  -8  -7  -8   11.60    2.00
  -8  -7  -8   11.10    2.00
  -8  -7  -8    8.60    1.50
   8   7   8   10.50    2.10
   1  -8  -8   56.69    3.30
   1  -8  -8   53.49    3.30
   1  -8  -8   55.89    3.60
  -1   8   8   58.89    3.70
   0  -8  -8  376.36   16.70
   0  -8  -8  381.06   16.50
   0  -8  -8  376.76   16.50
   0  -8  -8  403.86   16.50
   0  -8  -8  356.46   15.90
   0  -8  -8  377.86   16.80
   0  -8  -8  373.26   16.60
   0  -8  -8  365.36   15.60
  -1  -8  -8   19.90    3.10
  -1  -8  -8   21.20    2.00
  -1  -8  -8   26.20    2.80
  -1  -8  -8   26.90    3.10
  -1  -8  -8   19.50    2.80
  -1  -8  -8   24.30    3.00
  -1  -8  -8   23.50    2.30
  -1  -8  -8   22.60    2.70
  -1  -8  -8   24.40    3.10
  -1  -8  -8   19.70    2.50
  -2  -8  -8   33.20    3.50
  -2  -8  -8   29.20    2.70
  -2  -8  -8   28.50    3.30
  -2  -8  -8   36.70    3.70
  -2  -8  -8   30.60    3.70
  -2  -8  -8   31.40    3.20
  -2  -8  -8   33.20    2.50
  -2  -8  -8   29.50    3.70
  -2  -8  -8   31.80    3.20
  -2  -8  -8   30.40    3.50
  -3  -8  -8  148.89    7.10
  -3  -8  -8  153.68    8.40
  -3  -8  -8  144.89    8.80
  -3  -8  -8  158.88    7.60
  -3  -8  -8  145.99    8.00
  -3  -8  -8  153.98    8.40
  -3  -8  -8  146.99    8.50
  -3  -8  -8  151.28    8.10
  -3  -8  -8  154.38    8.80
  -3  -8  -8  142.59    8.50
  -4  -8  -8 1838.62   74.69
  -4  -8  -8 1881.11   74.39
  -4  -8  -8 1807.82   75.39
  -4  -8  -8 1820.62   73.39
  -4  -8  -8 1854.31   74.59
  -4  -8  -8 1837.02   74.59
  -4  -8  -8 1773.42   75.39
  -4  -8  -8 1876.91   73.79
  -4  -8  -8 1824.22   74.69
   4   8   8 1993.10   76.19
  -5  -8  -8  260.97   12.90
  -5  -8  -8  266.67   11.00
  -5  -8  -8  275.07   12.90
  -5  -8  -8  257.57   11.60
  -5  -8  -8  251.37   13.50
  -5  -8  -8  276.87   12.90
  -5  -8  -8  283.37   12.80
  -5  -8  -8  281.07   12.90
  -5  -8  -8  257.57   12.00
  -5  -8  -8  265.47   13.50
   5   8   8  286.57   13.80
   5   8   8  275.67   16.00
  -6  -8  -8   31.00    3.20
  -6  -8  -8   26.00    3.00
  -6  -8  -8   24.40    3.20
  -6  -8  -8   27.80    2.90
  -6  -8  -8   30.90    2.20
  -6  -8  -8   25.90    2.90
   6   8   8   31.90    5.50
   6   8   8   21.10    3.30
  -7  -8  -8  269.77   12.30
  -7  -8  -8  253.77   12.10
  -7  -8  -8  271.87   12.60
  -7  -8  -8  261.97   12.30
   7   8   8  281.67   13.10
  -8  -8  -8  677.63   27.90
  -1  -9  -8   14.70    1.70
  -1  -9  -8   17.10    1.50
  -1  -9  -8   14.20    1.70
  -1  -9  -8   14.30    1.30
  -1  -9  -8   18.10    1.90
  -1  -9  -8   17.30    1.80
  -2  -9  -8  165.38    8.20
  -2  -9  -8  161.88    8.10
  -2  -9  -8  183.08    8.00
  -2  -9  -8  164.48    7.70
  -2  -9  -8  169.28    7.50
  -2  -9  -8  170.58    8.20
  -2  -9  -8  188.48    8.80
  -3  -9  -8  469.65   18.80
  -3  -9  -8  437.26   18.10
  -3  -9  -8  421.06   18.30
  -3  -9  -8  446.36   19.10
  -3  -9  -8  419.56   18.80
  -3  -9  -8  457.15   19.00
  -3  -9  -8  427.06   18.70
  -3  -9  -8  462.65   19.50
  -4  -9  -8  116.59    6.10
  -4  -9  -8  112.79    6.30
  -4  -9  -8  112.99    5.70
  -4  -9  -8  124.39    6.50
  -4  -9  -8  127.39    6.90
  -4  -9  -8  115.39    6.40
  -4  -9  -8  121.59    5.60
  -4  -9  -8  124.59    6.20
  -5  -9  -8   71.59    4.40
  -5  -9  -8   72.29    3.60
  -5  -9  -8   71.19    4.40
  -5  -9  -8   65.99    3.80
  -5  -9  -8   76.39    4.90
  -5  -9  -8   64.09    4.20
  -5  -9  -8   70.69    4.20
  -5  -9  -8   74.39    4.50
  -6  -9  -8   14.50    1.80
  -6  -9  -8   17.90    2.30
  -6  -9  -8   14.50    1.90
  -6  -9  -8   13.30    1.30
  -6  -9  -8   17.80    2.10
  -6  -9  -8   15.50    1.80
  -6  -9  -8   10.80    1.50
  -7  -9  -8  143.29    6.90
  -7  -9  -8  141.59    6.70
  -7  -9  -8  140.79    6.70
  -5  -7   9   44.10    3.30
  -5  -7   9   42.50    2.50
  -4  -7   9  128.19    6.80
  -4  -7   9  120.79    5.60
  -3  -7   9    7.40    1.90
  -6  -6   9   41.70    3.60
  -6  -6   9   40.40    2.70
  -6  -6   9   36.70    2.40
  -5  -6   9  776.62   31.90
  -5  -6   9  712.33   32.20
  -5  -6   9  740.13   30.30
  -5  -6   9  755.82   30.00
  -5  -6   9  687.93   31.00
  -5  -6   9  758.62   30.20
  -4  -6   9  558.74   22.90
  -4  -6   9  554.34   24.90
  -4  -6   9  567.44   22.40
  -4  -6   9  540.45   23.00
  -4  -6   9  546.85   28.10
  -4  -6   9  538.35   23.60
  -4  -6   9  539.95   25.20
  -3  -6   9  595.74   30.10
  -3  -6   9  604.74   27.20
  -3  -6   9  598.54   24.90
  -3  -6   9  610.54   27.30
  -3  -6   9  625.84   24.90
  -3  -6   9  582.14   25.20
  -2  -6   9  148.89    6.90
  -2  -6   9  136.39    9.20
  -2  -6   9  147.79    6.90
  -2  -6   9  154.48   12.50
  -1  -6   9  163.38    7.50
  -1  -6   9  161.58    9.80
  -1  -6   9  166.78   10.30
   0  -6   9  259.77   12.10
   0  -6   9  284.47   12.00
   0  -6   9  293.07   14.10
   0  -6   9  291.27   15.00
   1  -6   9  670.03   28.00
   1  -6   9  677.73   29.30
   1  -6   9  708.83   30.50
   1  -6   9  716.93   28.00
   2  -6   9   67.29    5.40
   2  -6   9   65.39    4.20
   2  -6   9   70.39    3.50
  -7  -5   9   16.70    2.40
  -7  -5   9   16.60    2.10
  -6  -5   9  215.08   10.00
  -6  -5   9  236.08   12.00
  -6  -5   9  193.78   11.60
  -6  -5   9  206.18   12.50
  -6  -5   9  215.18   10.60
  -5  -5   9   39.40    6.60
  -5  -5   9   42.20    5.20
  -5  -5   9   43.40    3.90
  -5  -5   9   36.50    3.60
  -5  -5   9   35.90    4.30
  -5  -5   9   32.80    4.70
  -5  -5   9   38.20    3.50
  -4  -5   9    5.30    1.60
  -4  -5   9    7.10    2.30
  -4  -5   9    3.90    3.40
  -4  -5   9    7.20    2.80
  -4  -5   9    6.20    3.20
  -4  -5   9    8.30    2.00
  -4  -5   9    7.50    1.90
  -3  -5   9    8.40    1.90
  -3  -5   9    7.20    2.70
  -3  -5   9    7.40    1.80
  -3  -5   9    8.60    2.50
  -3  -5   9    7.90    3.40
  -3  -5   9    8.70    3.70
  -3  -5   9    5.90    1.70
  -3  -5   9    9.00    3.50
  -2  -5   9  777.82   33.50
  -2  -5   9  765.12   32.10
  -2  -5   9  780.22   34.20
  -2  -5   9  774.52   35.20
  -2  -5   9  751.22   31.80
  -2  -5   9  759.62   37.10
  -2  -5   9  794.42   36.00
  -1  -5   9    5.30    3.00
  -1  -5   9    7.60    3.80
  -1  -5   9    5.30    1.40
  -1  -5   9    5.70    1.90
  -1  -5   9    5.60    1.40
   0  -5   9  242.78   12.50
   0  -5   9  242.98   11.30
   0  -5   9  246.58   13.20
   0  -5   9  238.78   14.90
   0  -5   9  242.08   11.20
   0  -5   9  248.58   13.90
   1  -5   9  662.03   28.40
   1  -5   9  685.53   28.30
   1  -5   9  690.43   30.90
   1  -5   9  691.73   28.40
   1  -5   9  690.23   32.60
   1  -5   9  686.43   30.50
   1  -5   9  675.93   29.80
   2  -5   9    9.10    2.20
   2  -5   9   11.40    2.90
   2  -5   9   10.20    1.80
   2  -5   9    9.70    1.80
   2  -5   9    9.90    3.50
   2  -5   9    7.50    1.60
   2  -5   9   20.70    3.50
   3  -5   9 1156.78   48.00
   3  -5   9 1183.78   49.10
   3  -5   9 1202.58   50.49
   3  -5   9 1286.37   47.60
   3  -5   9 1145.49   47.80
  -7  -4   9 1335.27   56.89
  -7  -4   9 1406.86   56.79
  -7  -4   9 1439.76   57.29
  -6  -4   9    2.20    1.80
  -6  -4   9   15.20    3.90
  -6  -4   9    1.40    2.10
  -6  -4   9    0.00    2.60
  -6  -4   9    0.80    1.70
  -6  -4   9    4.30    2.10
  -5  -4   9  526.75   25.00
  -5  -4   9  555.64   27.00
  -5  -4   9  565.44   26.50
  -5  -4   9  575.54   25.10
  -5  -4   9  529.25   29.70
  -5  -4   9  568.14   27.20
  -5  -4   9  548.25   24.30
  -4  -4   9  944.61   43.10
  -4  -4   9  941.81   44.90
  -4  -4   9  933.41   39.10
  -4  -4   9  904.71   39.80
  -4  -4   9  961.60   42.00
  -4  -4   9  917.81   41.00
  -4  -4   9  897.01   39.60
  -4  -4   9  933.71   42.40
  -3  -4   9   51.49    7.30
  -3  -4   9   47.90    7.30
  -3  -4   9   49.90    4.70
  -3  -4   9   69.69    7.70
  -3  -4   9   47.80    4.40
  -3  -4   9   54.99    4.80
  -3  -4   9   49.99    5.40
  -2  -4   9 1553.54   66.19
  -2  -4   9 1624.44   69.79
  -2  -4   9 1571.34   67.29
  -2  -4   9 1593.74   64.19
  -2  -4   9 1564.04   68.09
  -2  -4   9 1643.24   69.59
  -2  -4   9 1595.04   65.39
  -2  -4   9 1593.44   64.79
  -2  -4   9 1582.94   68.19
  -1  -4   9  215.98   13.50
  -1  -4   9  218.48   12.90
  -1  -4   9  223.18   11.60
  -1  -4   9  220.08   12.10
  -1  -4   9  212.18   14.30
  -1  -4   9  224.88   13.90
  -1  -4   9  214.18   14.60
  -1  -4   9  208.28   10.80
   0  -4   9   11.10    4.60
   0  -4   9    7.80    2.60
   0  -4   9    5.60    3.30
   0  -4   9    8.60    3.30
   0  -4   9    7.00    2.90
   0  -4   9   15.90    2.50
   1  -4   9   98.69    6.20
   1  -4   9   98.79    8.30
   1  -4   9  100.49    7.90
   1  -4   9  106.89    5.90
   1  -4   9   93.89    6.80
   1  -4   9  102.49    7.80
   1  -4   9   88.39    9.50
   2  -4   9  359.76   19.10
   2  -4   9  350.16   17.70
   2  -4   9  358.96   21.10
   2  -4   9  371.56   18.50
   2  -4   9  389.46   17.00
   2  -4   9  368.76   19.10
   2  -4   9  374.16   16.30
   3  -4   9   20.00    3.30
   3  -4   9   16.60    3.70
   3  -4   9   19.70    4.00
   3  -4   9   24.50    4.00
   3  -4   9   15.90    2.30
   3  -4   9   32.60    5.80
   3  -4   9   17.10    2.60
  -4   4  -9  368.96   18.40
   4  -4   9  422.46   18.80
   4  -4   9  443.76   18.40
   4  -4   9  393.66   18.80
   4  -4   9  423.36   17.30
   4  -4   9  377.26   19.90
   4  -4   9  420.76   18.50
   4  -4   9  388.06   17.60
  -7  -3   9   23.90    3.30
   6   3  -9  104.29   11.00
  -6  -3   9  127.99    6.40
  -6  -3   9  134.69    9.80
  -6  -3   9  130.09    8.50
  -5  -3   9  476.25   24.70
  -5  -3   9  485.25   23.00
  -5  -3   9  463.65   20.40
  -5  -3   9  472.25   27.40
  -5  -3   9  463.35   23.20
  -5  -3   9  495.15   26.00
  -5  -3   9  471.25   22.00
  -5  -3   9  500.75   24.00
  -4  -3   9  516.75   25.10
  -4  -3   9  562.94   29.10
  -4  -3   9  560.84   28.20
  -4  -3   9  540.45   29.30
  -4  -3   9  498.65   27.30
  -4  -3   9  504.05   22.50
  -4  -3   9  563.34   24.50
  -4  -3   9  534.45   25.70
  -4  -3   9  550.94   25.80
  -3  -3   9  724.93   31.10
  -3  -3   9  678.33   31.50
  -3  -3   9  739.23   35.30
  -3  -3   9  657.03   28.20
  -3  -3   9  704.93   33.90
  -3  -3   9  670.03   31.40
  -3  -3   9  670.93   34.60
  -3  -3   9  700.23   34.00
  -3  -3   9  698.03   30.20
  -3  -3   9  689.13   33.80
  -2  -3   9  839.52   38.90
  -2  -3   9  813.32   38.20
  -2  -3   9  853.91   39.00
  -2  -3   9  772.02   32.80
  -2  -3   9  837.22   36.80
  -2  -3   9  828.62   36.30
  -2  -3   9  833.22   35.60
  -2  -3   9  850.41   40.30
  -2  -3   9  823.52   39.40
  -2  -3   9  815.62   34.80
  -1  -3   9 3340.87  126.39
  -1  -3   9 3142.49  126.49
  -1  -3   9 3237.48  130.19
  -1  -3   9 3098.09  130.39
  -1  -3   9 3233.38  128.19
  -1  -3   9 3045.30  127.29
  -1  -3   9 3086.39  129.59
  -1  -3   9 3195.28  129.49
  -1  -3   9 3150.98  131.69
   0  -3   9  347.57   18.80
   0  -3   9  354.96   21.50
   0  -3   9  355.66   19.70
   0  -3   9  381.26   18.30
   0  -3   9  338.07   19.10
   0  -3   9  359.66   17.40
   0  -3   9  350.06   19.70
   0  -3   9  386.26   17.00
   0  -3   9  359.76   18.10
   0  -3   9  350.56   15.90
   1  -3   9 3348.96  133.99
   1  -3   9 3114.59  134.09
   1  -3   9 3320.17  136.19
   1  -3   9 3385.56  132.49
   1  -3   9 3380.26  137.29
   1  -3   9 3308.47  135.79
   1  -3   9 3178.88  131.39
   1  -3   9 3596.04  139.29
   2  -3   9   24.90    4.10
   2  -3   9   27.20    5.40
   2  -3   9   29.00    5.30
   2  -3   9   22.30    4.50
   2  -3   9   27.00    3.40
   2  -3   9   25.70    3.00
   2  -3   9   23.70    5.80
   3  -3   9   28.30    4.90
   3  -3   9   38.10    5.90
   3  -3   9   47.20    6.30
   3  -3   9   38.90    5.80
   3  -3   9   30.80    6.20
   3  -3   9   42.80    5.30
   3  -3   9   42.50    4.00
   3  -3   9   35.90    3.30
   4  -3   9  258.47   14.20
   4  -3   9  243.58   15.60
   4  -3   9  227.68   14.60
   4  -3   9  251.57   11.50
   4  -3   9  249.97   12.10
   4  -3   9  251.67   13.00
   4  -3   9  232.78   13.70
   4  -3   9  247.38   13.60
  -5   3  -9   84.99    6.10
   5  -3   9   78.99    7.00
   5  -3   9   83.19    4.70
   5  -3   9   85.19    5.60
   5  -3   9   76.99    5.10
   5  -3   9   77.79    6.10
   5  -3   9   88.39    6.30
  -7  -2   9  147.59    8.70
  -7  -2   9  147.19    7.40
   6   2  -9  374.06   22.60
  -6  -2   9  408.76   18.20
  -6  -2   9  379.86   20.00
  -6  -2   9  412.56   19.30
   5   2  -9   92.49   12.50
  -5  -2   9  107.19    8.00
  -5  -2   9  118.39    7.20
  -5  -2   9  110.89    7.90
  -5  -2   9  124.09    9.40
  -5  -2   9  100.19    9.80
   4   2  -9  160.48   16.90
  -4  -2   9  180.48    9.90
  -4  -2   9  173.18   14.60
  -4  -2   9  182.98   11.00
  -4  -2   9  179.18   12.00
  -4  -2   9  197.08   12.00
  -4  -2   9  198.38   15.10
  -4  -2   9  175.98   13.60
  -4  -2   9  193.08   13.00
  -3  -2   9  169.48   10.50
  -3  -2   9  171.98   13.60
  -3  -2   9  165.78   11.00
  -3  -2   9  172.58   10.10
  -3  -2   9  156.88   12.60
  -3  -2   9  164.68   11.90
  -3  -2   9  174.48   13.90
  -3  -2   9  170.28   12.70
  -3  -2   9  170.08   13.00
  -3  -2   9  155.38    8.90
  -2  -2   9  636.94   29.10
  -2  -2   9  624.74   29.10
  -2  -2   9  624.64   32.00
  -2  -2   9  630.94   31.30
  -2  -2   9  732.13   33.90
  -2  -2   9  656.03   32.90
  -1  -2   9   23.40    5.30
  -1  -2   9   22.00    4.90
  -1  -2   9   20.10    3.70
  -1  -2   9   23.40    5.80
  -1  -2   9   23.50    3.60
  -1  -2   9   26.10    5.20
   0  -2   9  609.64   28.10
   0  -2   9  657.33   31.40
   0  -2   9  601.44   35.30
   0  -2   9  686.73   28.00
   0  -2   9  667.73   32.10
   0  -2   9  607.04   30.40
   1  -2   9  634.24   32.00
   1  -2   9  631.74   30.30
   1  -2   9  651.73   31.10
   1  -2   9  586.34   29.20
   1  -2   9  663.53   27.50
  -2   2  -9  502.75   27.40
   2  -2   9  535.95   22.80
   2  -2   9  498.45   27.30
   2  -2   9  489.05   25.80
   2  -2   9  499.55   21.90
   2  -2   9  540.75   24.10
   2  -2   9  534.95   26.50
   2  -2   9  498.05   25.30
   2  -2   9  502.55   22.40
   2  -2   9  533.25   27.50
   3  -2   9 1746.23   69.79
   3  -2   9 1584.54   65.29
   3  -2   9 1618.64   70.39
   3  -2   9 1584.94   64.39
   3  -2   9 1562.34   66.29
   3  -2   9 1540.05   68.39
   3  -2   9 1607.94   70.99
   3  -2   9 1608.74   64.99
   3  -2   9 1617.94   68.09
   3  -2   9 1536.15   66.89
   4  -2   9 2223.08   91.39
   4  -2   9 2140.39   94.09
   4  -2   9 2137.99   91.49
   4  -2   9 2205.58   90.79
   4  -2   9 2370.56   93.19
   4  -2   9 2197.08   87.89
   4  -2   9 2127.49   92.89
   4  -2   9 2249.07   87.99
   4  -2   9 2277.67   88.79
   4  -2   9 2077.09   89.39
  -5   2  -9   44.80    5.20
   5  -2   9   47.80    6.10
   5  -2   9   44.00    3.40
   5  -2   9   39.20    4.40
   5  -2   9   42.00    5.20
   5  -2   9   46.70    6.30
   5  -2   9   56.49    7.30
   5  -2   9   41.10    5.60
   5  -2   9   49.50    4.20
   5  -2   9   41.40    5.90
  -6   2  -9  306.77   14.30
   6  -2   9  278.67   14.40
   6  -2   9  274.77   13.80
  -7  -1   9 1249.97   51.49
  -7  -1   9 1291.07   52.39
   6   1  -9    7.00    4.50
  -6  -1   9    4.70    2.20
  -6  -1   9    2.50    2.10
   5   1  -9   41.40    8.90
  -5  -1   9   33.70    4.80
  -5  -1   9   38.20    5.20
   4   1  -9  807.82   44.40
  -4  -1   9  852.11   38.60
  -4  -1   9  855.51   37.20
  -4  -1   9  840.02   37.30
  -4  -1   9  908.21   43.00
  -3  -1   9 1041.90   45.00
  -3  -1   9 1145.09   49.80
  -3  -1   9 1072.89   49.70
  -3  -1   9  964.90   52.29
  -3  -1   9 1060.59   46.00
  -3  -1   9 1097.79   49.00
  -3  -1   9 1039.40   44.60
  -2  -1   9 2676.13  107.09
  -2  -1   9 2439.06  111.19
  -2  -1   9 2671.03  110.49
  -2  -1   9 2739.73  110.39
  -2  -1   9 2667.73  107.09
  -1  -1   9  447.96   23.90
  -1  -1   9  433.46   21.30
  -1  -1   9  478.35   25.20
  -1  -1   9  500.55   23.50
   0  -1   9   75.09    7.10
   0  -1   9   78.79    5.70
   0  -1   9   75.79    7.90
  -1   1  -9   47.60    6.10
   1  -1   9   34.90    5.90
   1  -1   9   39.10    3.90
   1  -1   9   30.40    4.20
   1  -1   9   31.50    4.80
   1  -1   9   29.90    3.50
   1  -1   9   39.40    7.40
  -2   1  -9  748.23   37.20
   2  -1   9  838.22   37.00
   2  -1   9  798.82   35.80
   2  -1   9  690.83   35.00
   2  -1   9  804.52   32.90
   2  -1   9  800.72   39.50
   2  -1   9  752.02   36.20
  -3   1  -9  188.48   14.00
   3  -1   9  171.18   12.20
   3  -1   9  191.58   16.10
   3  -1   9  185.78   12.30
   3  -1   9  194.08   10.70
   3  -1   9  165.48   11.30
   3  -1   9  191.98    9.20
   3  -1   9  180.48   11.40
   3  -1   9  185.18    9.80
   3  -1   9  186.28   12.80
   3  -1   9  187.38   13.20
   4  -1   9    8.60    3.30
   4  -1   9   15.40    4.30
   4  -1   9   15.30    3.10
   4  -1   9    7.60    2.00
   4  -1   9   14.60    6.00
   4  -1   9   11.90    4.30
   4  -1   9    9.00    3.90
   4  -1   9   22.60    4.50
   4  -1   9   14.60    3.90
  -5   1  -9   12.00    3.30
   5  -1   9   18.10    2.40
   5  -1   9   13.90    5.90
   5  -1   9   10.70    3.40
   5  -1   9    8.80    2.90
   5  -1   9   11.80    3.80
   5  -1   9   18.80    3.90
   5  -1   9   11.80    2.80
  -6   1  -9 1188.88   49.90
   6  -1   9 1222.78   50.29
   6  -1   9 1190.38   48.10
   6  -1   9 1081.39   59.69
  -7   1  -9   66.19    4.80
   7  -1   9   67.49    4.90
  -7   0   9  196.48    9.70
  -7   0   9  186.98    9.50
   6   0  -9   26.50    5.70
  -6   0   9   24.60    3.90
  -6   0   9   18.80    3.80
   5   0  -9  123.69   12.00
  -5   0   9  103.89    7.90
  -5   0   9   96.29    8.70
   4   0  -9 1089.79   53.79
  -4   0   9 1130.89   47.90
   3   0  -9   45.70    9.40
  -3   0   9   24.50    5.90
  -3   0   9   34.20    5.60
  -3   0   9   18.30    4.10
  -2   0   9  126.49    8.50
  -2   0   9  121.99   10.00
  -2   0   9  118.89   10.40
  -2   0   9  116.99    9.10
  -1   0   9 1009.60   49.70
  -1   0   9 1043.60   46.50
  -1   0   9 1003.50   43.40
  -1   0   9 1013.70   44.20
   0   0   9   84.29    6.30
   0   0   9   79.19    7.60
   0   0   9   96.69    8.70
   0   0   9   86.89    6.30
  -1   0  -9 2741.13  109.09
   1   0   9 2747.72  105.19
   1   0   9 2484.55  105.19
   1   0   9 2483.55  110.99
   1   0   9 2649.24  108.39
   1   0   9 2663.23  108.29
   1   0   9 2541.35  106.49
  -2   0  -9   17.50    4.50
   2   0   9   19.30    3.80
   2   0   9   18.60    4.10
   2   0   9   20.70    2.60
   2   0   9   17.70    5.40
   2   0   9   26.20    5.10
  -3   0  -9   21.20    4.90
   3   0   9   28.30    7.30
   3   0   9   28.90    5.40
   3   0   9   33.00    7.80
   3   0   9   27.00    2.80
   3   0   9   28.60    3.40
  -4   0  -9 1182.08   50.79
   4   0   9 1183.48   51.79
   4   0   9 1136.09   49.10
   4   0   9 1292.37   59.69
   4   0   9 1142.69   47.70
   4   0   9 1120.59   50.49
  -5   0  -9  659.53   30.30
   5   0   9  630.34   30.90
   5   0   9  641.54   31.00
   5   0   9  662.03   37.80
  -6   0  -9  354.86   18.30
   6   0   9  341.97   23.60
   6   0   9  343.17   18.80
   6   0   9  375.46   18.70
  -7   0  -9   11.80    2.90
   7   0   9   16.30    3.40
   7   0   9   11.40    2.50
   6  -1  -9 1064.59   46.30
  -6   1   9 1046.30   44.50
   5  -1  -9   10.10    4.60
  -5   1   9    9.00    2.80
   4  -1  -9 1417.26   64.39
  -4   1   9 1397.36   59.79
   3  -1  -9   12.40    5.70
  -3   1   9   10.10    3.00
  -3   1   9   10.20    4.40
   2  -1  -9  275.97   18.20
  -2   1   9  259.97   14.40
  -2   1   9  260.47   17.00
  -2   1   9  258.97   17.20
  -1   1   9  220.18   14.70
  -1   1   9  233.08   12.50
  -1   1   9  216.48   14.40
   0   1   9  348.47   17.80
   0   1   9  383.16   20.80
   0   1   9  351.76   19.50
   0   1   9  385.56   18.80
  -1  -1  -9  284.37   17.10
   1   1   9  272.37   15.50
   1   1   9  268.67   14.30
   1   1   9  281.57   15.30
   1   1   9  279.77   16.70
  -2  -1  -9 1674.13   70.99
   2   1   9 1578.44   67.29
   2   1   9 1630.34   70.59
   2   1   9 1618.64   68.59
   2   1   9 1661.23   69.09
   2   1   9 1634.04   73.29
  -3  -1  -9  264.17   17.10
   3   1   9  269.17   16.50
   3   1   9  296.77   14.40
   3   1   9  261.07   21.50
   3   1   9  276.57   15.00
   3   1   9  261.67   15.60
  -4  -1  -9 1828.02   79.49
  -4  -1  -9 1947.51   82.79
   4   1   9 1691.93   75.09
  -5  -1  -9   11.00    3.50
   5   1   9   19.10    5.80
   5   1   9   16.90    4.30
   5   1   9   13.30    3.00
  -6  -1  -9   79.89    7.30
   6   1   9   75.69    8.70
   6   1   9   70.39    7.40
  -7  -1  -9  986.60   43.40
   7   1   9  994.10   43.30
   7   1   9 1024.10   43.30
  -8  -1  -9    4.30    1.90
   8   1   9    3.40    1.80
   8   1   9    5.50    1.90
   6  -2  -9   43.50    4.40
  -6   2   9   38.90    3.60
   5  -2  -9  177.98   12.30
  -5   2   9  178.18   10.80
   4  -2  -9 1876.71   82.39
  -4   2   9 1943.41   79.79
   3  -2  -9 1180.48   52.59
   3  -2  -9 1080.99   53.99
   3  -2  -9 1082.79   51.19
  -3   2   9 1075.39   54.09
  -3   2   9 1166.08   48.80
   2  -2  -9 1117.89   55.59
   2  -2  -9 1216.78   54.49
  -2   2   9 1207.38   55.69
   1  -2  -9 1308.47   62.69
  -1   2   9 1375.36   56.59
  -1   2   9 1341.27   59.79
  -1   2   9 1321.27   60.29
   0   2   9  142.49   11.30
   0   2   9  145.29    9.30
   0   2   9  137.79    9.90
   1   2   9   25.00    4.40
   1   2   9   30.90    5.10
   1   2   9   25.10    4.30
  -2  -2  -9 1692.03   71.59
   2   2   9 1608.74   67.59
   2   2   9 1612.94   70.99
   2   2   9 1601.64   69.09
   2   2   9 1623.54   70.09
   3   2   9    9.20    4.00
   3   2   9   11.10    3.20
   3   2   9   16.70    4.10
   3   2   9    5.70    2.80
  -4  -2  -9   13.40    4.70
   4   2   9   13.70    4.00
   4   2   9   13.50    3.40
  -5  -2  -9   45.50    6.60
   5   2   9   38.50    5.70
   5   2   9   44.20    6.10
  -6  -2  -9  821.62   37.30
   6   2   9  801.32   36.50
  -7  -2  -9    5.50    2.80
   7   2   9    1.10    2.30
  -8  -2  -9   13.30    3.00
   8   2   9    9.90    2.60
   8   2   9    9.90    2.80
   5  -3  -9   40.10    4.90
   5  -3  -9   34.80    4.60
  -5   3   9   36.20    4.10
   4  -3  -9  475.95   24.00
  -4   3   9  436.46   22.10
   3  -3  -9  334.37   17.80
   3  -3  -9  385.86   21.10
  -3   3   9  364.66   18.90
   2  -3  -9   43.80    7.40
   2  -3  -9   32.30    6.20
   2  -3  -9   35.50    4.80
  -2   3   9   38.20    5.50
   1  -3  -9 1563.64   70.09
   0  -3  -9  444.46   25.70
   0   3   9  456.15   24.90
   0   3   9  473.65   23.80
   0   3   9  460.05   22.10
  -1  -3  -9 4171.88  172.68
   1   3   9 4324.77  172.18
   1   3   9 4112.39  171.88
   1   3   9 4288.17  170.38
   1   3   9 4147.69  168.48
  -2  -3  -9  349.87   21.10
   2   3   9  361.16   20.90
   2   3   9  351.56   18.00
   2   3   9  355.26   20.30
   2   3   9  353.26   19.40
  -3  -3  -9   52.19    7.30
  -3  -3  -9   56.09    7.60
   3   3   9   49.00    6.60
   3   3   9   46.30    6.00
   3   3   9   48.90    6.80
   3   3   9   48.70    5.40
  -4  -3  -9 1432.96   65.39
  -4  -3  -9 1484.05   64.59
   4   3   9 1546.25   65.29
   4   3   9 1333.47   63.89
   4   3   9 1456.65   60.99
  -5  -3  -9 1088.49   46.50
  -5  -3  -9 1048.60   48.30
   5   3   9 1085.19   48.80
   5   3   9  908.61   47.70
   5   3   9 1074.29   45.00
  -6  -3  -9  886.01   40.30
  -7  -3  -9  322.47   17.50
   7   3   9  310.17   16.10
  -8  -3  -9  127.49    8.60
   8   3   9  139.89    8.00
   5  -4  -9   10.80    1.70
  -5   4   9    7.90    1.60
   4  -4  -9  941.81   39.60
   4  -4  -9  901.41   40.30
  -4   4   9  956.10   40.00
   3  -4  -9  115.59    8.30
   3  -4  -9   89.19    8.20
   3  -4  -9   90.79    6.70
  -3   4   9   81.29    7.30
   2  -4  -9  321.37   16.40
   2  -4  -9  320.17   18.90
  -2   4   9  329.97   17.20
   1  -4  -9  134.39   10.20
   1  -4  -9  159.08    9.60
   1  -4  -9  154.68   11.80
   0  -4  -9  300.77   18.20
   0  -4  -9  305.27   15.60
  -1  -4  -9   38.60    5.90
   1   4   9   27.00    5.60
   1   4   9   31.70    4.70
  -2  -4  -9  237.38   14.90
   2   4   9  219.38   14.40
   2   4   9  225.98   13.10
   2   4   9  236.68   15.70
  -3  -4  -9  247.08   15.60
   3   4   9  277.57   17.50
   3   4   9  270.27   14.50
  -4  -4  -9  987.80   45.30
  -4  -4  -9  944.41   44.50
   4   4   9 1011.40   43.90
   4   4   9 1096.49   48.30
  -5  -4  -9  272.87   16.40
  -5  -4  -9  292.97   16.80
   5   4   9  289.87   15.50
   5   4   9  298.87   18.80
  -6  -4  -9   99.59    8.80
   6   4   9   95.89    7.30
   6   4   9   99.39    9.70
  -7  -4  -9 1713.13   72.19
  -8  -4  -9  283.97   14.60
   4  -5  -9   79.69    4.30
  -4   5   9   82.09    5.10
   3  -5  -9 1021.80   42.40
   3  -5  -9 1030.30   42.40
  -3   5   9 1054.39   43.30
  -3   5   9  976.20   42.40
   2  -5  -9  310.97   15.90
   2  -5  -9  318.17   15.50
   2  -5  -9  310.87   22.20
   2  -5  -9  306.37   15.20
  -2   5   9  286.57   15.80
   1  -5  -9 1134.29   46.10
   1  -5  -9 1051.39   47.10
   1  -5  -9 1127.49   51.49
   1  -5  -9 1029.90   46.10
   0  -5  -9   34.10    5.00
   0  -5  -9   14.30    3.20
   0  -5  -9   15.50    3.10
   0  -5  -9   34.70    5.00
   0  -5  -9   15.30    4.80
  -1  -5  -9   42.20    4.80
  -1  -5  -9   35.10    4.90
  -1  -5  -9   43.80    4.70
  -1  -5  -9   53.59    6.40
  -2  -5  -9 2392.86   99.09
  -2  -5  -9 2333.47   98.49
  -2  -5  -9 2547.15   99.69
  -2  -5  -9 2460.65   99.69
   2   5   9 2509.45  102.99
   2   5   9 2406.66   99.39
  -3  -5  -9  110.49    8.40
  -3  -5  -9  111.49    8.00
   3   5   9  117.69    8.40
   3   5   9  135.29   11.30
  -4  -5  -9  194.98   11.60
  -4  -5  -9  203.48   12.50
   4   5   9  208.88   12.20
   4   5   9  211.38   15.10
  -5  -5  -9   10.50    3.50
   5   5   9   14.40    3.40
   5   5   9   10.70    4.00
  -6  -5  -9  598.34   28.60
   6   5   9  613.44   31.00
   6   5   9  595.64   27.60
  -7  -5  -9    8.00    2.90
   7   5   9   10.30    2.70
   7   5   9    5.90    3.10
  -8  -5  -9   44.50    4.50
  -8  -5  -9   49.90    4.70
   3  -6  -9  170.18    8.30
  -3   6   9  187.48    9.00
   2  -6  -9   27.10    2.90
   2  -6  -9   29.40    3.20
   2  -6  -9   29.10    3.50
  -2   6   9   28.90    3.70
   1  -6  -9  231.08   14.90
   1  -6  -9  253.47   12.30
   1  -6  -9  252.47   12.70
   1  -6  -9  254.87   13.10
   1  -6  -9  264.57   13.60
   0  -6  -9  368.36   19.80
   0  -6  -9  380.86   18.20
   0  -6  -9  350.26   17.10
   0  -6  -9  348.77   16.90
   0  -6  -9  353.86   20.10
  -1  -6  -9 1534.45   64.49
  -1  -6  -9 1602.74   65.39
  -1  -6  -9 1478.75   63.09
  -1  -6  -9 1662.73   68.59
  -1  -6  -9 1623.74   64.49
  -1  -6  -9 1528.25   65.29
  -2  -6  -9  371.16   18.50
  -2  -6  -9  371.56   18.40
  -2  -6  -9  380.96   16.50
  -2  -6  -9  367.06   17.60
  -2  -6  -9  383.06   17.80
  -3  -6  -9   93.69    5.70
  -3  -6  -9   95.19    6.90
  -3  -6  -9   93.89    7.40
   3   6   9  120.49   10.10
   3   6   9  111.29    7.70
  -4  -6  -9  745.53   34.90
  -4  -6  -9  765.82   34.00
   4   6   9  877.01   39.10
   4   6   9  761.22   34.80
  -5  -6  -9 2816.52  120.49
  -5  -6  -9 2730.83  119.19
   5   6   9 3259.27  124.89
   5   6   9 3100.29  120.49
  -6  -6  -9   91.49    7.20
  -6  -6  -9   76.29    6.20
  -6  -6  -9   76.29    5.60
   6   6   9   80.09    8.60
   6   6   9   78.39    6.50
  -7  -6  -9  476.45   21.70
  -7  -6  -9  426.46   20.00
  -7  -6  -9  482.55   21.00
   7   6   9  454.65   23.70
   7   6   9  448.96   21.00
  -8  -6  -9  331.37   15.10
  -8  -6  -9  328.57   15.50
  -9  -6  -9   54.29    3.50
   2  -7  -9   61.29    3.70
  -2   7   9   61.99    3.90
   1  -7  -9  325.37   14.80
   1  -7  -9  331.57   15.40
   1  -7  -9  315.57   14.80
  -1   7   9  344.37   15.40
   0  -7  -9  795.92   36.70
   0  -7  -9  849.72   34.20
   0  -7  -9  846.32   35.40
   0  -7  -9  859.01   35.80
   0  -7  -9  842.92   35.90
   0  -7  -9  851.91   35.30
  -1  -7  -9   88.49    4.90
  -1  -7  -9   85.19    5.20
  -1  -7  -9   87.79    6.20
  -1  -7  -9   94.79    6.70
  -1  -7  -9   85.19    6.10
  -1  -7  -9   88.39    7.30
  -1  -7  -9   88.89    6.30
  -1  -7  -9   83.79    5.80
  -2  -7  -9    1.90    1.10
  -2  -7  -9    2.40    1.80
  -2  -7  -9    1.40    1.60
  -2  -7  -9    1.70    1.80
  -2  -7  -9    3.70    1.60
  -2  -7  -9    2.20    1.70
  -2  -7  -9    6.80    2.70
  -3  -7  -9  142.39    7.60
  -3  -7  -9  132.29    6.90
  -3  -7  -9  138.09    8.80
  -3  -7  -9  135.29    8.30
   3   7   9  147.29    9.10
  -4  -7  -9  435.46   18.90
  -4  -7  -9  397.46   18.60
  -4  -7  -9  397.96   17.80
  -4  -7  -9  413.36   20.10
   4   7   9  438.66   22.80
   4   7   9  454.05   20.20
  -5  -7  -9   13.00    2.40
  -5  -7  -9    7.90    2.10
   5   7   9    7.20    2.80
   5   7   9    9.60    3.70
  -6  -7  -9   42.60    3.90
  -6  -7  -9   48.30    4.80
  -6  -7  -9   49.80    4.00
   6   7   9   51.39    5.00
   6   7   9   50.79    6.60
  -7  -7  -9  745.73   32.50
  -7  -7  -9  849.52   32.80
  -7  -7  -9  822.72   33.80
   7   7   9  760.42   33.60
   7   7   9  762.32   36.50
  -8  -7  -9  317.77   13.50
  -8  -7  -9  314.47   14.20
   0  -8  -9  224.08   10.10
   0  -8  -9  228.78   10.40
   0  -8  -9  218.58   10.20
   0  -8  -9  210.58   10.10
   0   8   9  239.08   10.70
  -1  -8  -9   24.20    2.60
  -1  -8  -9   22.50    2.90
  -1  -8  -9   24.20    2.70
  -1  -8  -9   21.80    2.70
  -1  -8  -9   25.20    2.60
  -1  -8  -9   20.40    1.90
  -1  -8  -9   25.30    2.60
  -2  -8  -9 1136.39   45.30
  -2  -8  -9 1118.49   45.00
  -2  -8  -9 1116.29   45.10
  -2  -8  -9 1033.10   45.90
  -2  -8  -9 1097.19   44.00
  -2  -8  -9 1071.69   45.40
  -2  -8  -9 1176.58   45.80
  -2  -8  -9 1120.29   45.00
  -2  -8  -9 1031.40   45.60
  -3  -8  -9  239.08   10.50
  -3  -8  -9  252.77   12.20
  -3  -8  -9  215.38   12.10
  -3  -8  -9  223.28   11.10
  -3  -8  -9  244.68   12.30
  -3  -8  -9  243.48   11.50
  -3  -8  -9  239.08   11.50
  -3  -8  -9  250.87   11.80
  -3  -8  -9  226.48   10.90
  -3  -8  -9  252.47   11.60
  -4  -8  -9  285.57   11.60
  -4  -8  -9  279.17   12.00
  -4  -8  -9  271.27   14.60
  -4  -8  -9  298.47   14.00
  -4  -8  -9  284.27   13.20
  -4  -8  -9  272.87   13.10
  -4  -8  -9  268.37   12.80
  -5  -8  -9   77.59    5.50
  -5  -8  -9   61.89    4.40
  -5  -8  -9   66.19    4.50
  -5  -8  -9   71.29    3.50
  -5  -8  -9   69.79    4.70
  -5  -8  -9   70.49    5.10
   5   8   9   66.49    6.90
   5   8   9   78.39    5.50
  -6  -8  -9  317.57   14.60
  -6  -8  -9  293.47   14.10
  -6  -8  -9  341.77   15.30
  -6  -8  -9  319.27   13.10
   6   8   9  340.67   15.40
  -7  -8  -9   83.59    5.10
   7   8   9   76.09    5.20
   1   9   9  352.36   15.50
  -2  -9  -9   29.00    2.40
  -2  -9  -9   31.30    2.30
  -2  -9  -9   26.90    2.30
  -2  -9  -9   32.00    2.70
  -2  -9  -9   25.60    2.20
  -2  -9  -9   30.00    2.40
  -3  -9  -9   91.09    5.20
  -3  -9  -9  102.89    5.20
  -3  -9  -9   94.69    4.50
  -3  -9  -9   95.59    5.10
  -3  -9  -9  107.99    5.70
  -3  -9  -9  102.59    5.30
  -3  -9  -9   95.69    5.10
  -4  -9  -9  115.79    5.90
  -4  -9  -9  125.99    6.60
  -4  -9  -9  111.49    5.30
  -4  -9  -9  121.69    6.00
  -4  -9  -9  113.39    5.60
  -4  -9  -9  109.79    5.90
  -4  -9  -9  119.69    6.10
  -5  -9  -9 1435.76   56.69
  -5  -9  -9 1372.76   56.49
  -5  -9  -9 1363.56   56.49
  -5  -9  -9 1498.05   57.19
  -6  -9  -9   18.00    2.10
  -6  -9  -9   14.30    1.70
  -3  -7  10   47.40    4.00
  -3  -7  10   50.29    3.20
  -6  -6  10    5.60    1.90
  -5  -6  10  473.35   19.20
  -5  -6  10  451.55   19.30
  -5  -6  10  467.25   20.30
  -4  -6  10    6.00    1.30
  -4  -6  10    5.00    1.20
  -4  -6  10    6.10    2.10
  -4  -6  10    4.90    2.10
  -3  -6  10   16.10    3.10
  -3  -6  10   21.00    1.90
  -3  -6  10   21.80    2.00
  -3  -6  10   13.90    3.00
  -3  -6  10   17.80    2.40
  -2  -6  10    1.20    2.00
  -2  -6  10    1.50    2.00
  -2  -6  10    7.20    1.30
  -2  -6  10    1.30    0.80
  -1  -6  10  118.99    7.90
  -1  -6  10  107.89    5.40
  -1  -6  10  117.19    7.50
  -1  -6  10  115.49    5.50
   0  -6  10   22.50    1.70
   0  -6  10   22.90    1.90
   0  -6  10   23.20    3.50
   0  -6  10   20.20    3.00
   1  -6  10  302.97   12.40
   1  -6  10  311.27   14.30
   1  -6  10  278.77   13.10
  -6  -5  10    4.20    1.20
  -6  -5  10    2.00    1.00
  -6  -5  10    4.40    1.80
  -5  -5  10   15.60    2.30
  -5  -5  10   19.70    2.50
  -5  -5  10   13.00    2.20
  -5  -5  10   16.80    3.20
  -5  -5  10   16.70    3.30
  -5  -5  10   14.60    2.90
  -4  -5  10  987.90   43.60
  -4  -5  10  961.10   47.10
  -4  -5  10 1087.99   42.20
  -4  -5  10 1023.60   42.20
  -4  -5  10 1083.89   42.50
  -4  -5  10 1000.60   44.20
  -4  -5  10 1067.09   44.50
  -3  -5  10   72.29    4.60
  -3  -5  10   72.49    7.10
  -3  -5  10   64.29    7.70
  -3  -5  10   65.19    6.70
  -3  -5  10   65.99    4.40
  -3  -5  10   70.99    4.70
  -3  -5  10   59.59    5.20
  -3  -5  10   61.09    5.80
  -2  -5  10 1265.07   51.99
  -2  -5  10 1267.77   57.29
  -2  -5  10 1262.77   53.59
  -2  -5  10 1281.57   55.19
  -2  -5  10 1270.97   54.19
  -2  -5  10 1334.07   55.89
  -2  -5  10 1340.37   52.49
  -2  -5  10 1312.27   52.09
  -1  -5  10    5.50    3.10
  -1  -5  10   16.60    1.90
  -1  -5  10   10.30    1.80
  -1  -5  10   12.90    2.60
  -1  -5  10    9.80    3.20
  -1  -5  10   12.70    2.00
   0  -5  10   77.89    5.50
   0  -5  10   74.79    5.90
   0  -5  10   79.09    4.40
   0  -5  10   77.29    4.60
   0  -5  10   82.69    6.90
   0  -5  10   80.69    7.60
   0  -5  10   69.39    4.50
   1  -5  10  540.75   26.30
   1  -5  10  521.65   24.40
   1  -5  10  581.14   25.30
   1  -5  10  537.45   24.00
   1  -5  10  532.85   22.90
   1  -5  10  539.75   23.00
   1  -5  10  580.24   22.60
   2  -5  10  212.28   10.80
   2  -5  10  207.98    9.50
   2  -5  10  223.18   11.10
   2  -5  10  210.98   12.00
   2  -5  10  196.78    9.50
   3  -5  10    6.60    1.40
   3  -5  10    5.60    1.00
  -6  -4  10   14.90    2.70
  -6  -4  10   13.70    2.20
  -6  -4  10   15.80    3.20
  -6  -4  10   16.70    3.30
  -5  -4  10  775.62   33.90
  -5  -4  10  789.32   35.40
  -5  -4  10  751.72   38.60
  -5  -4  10  863.81   35.80
  -5  -4  10  760.42   35.80
  -5  -4  10  851.71   33.50
  -5  -4  10  750.92   35.80
  -5  -4  10  802.72   34.20
  -4  -4  10   -1.80    2.90
  -4  -4  10   -1.30    2.60
  -4  -4  10    3.00    1.90
  -4  -4  10    1.40    1.80
  -4  -4  10   11.60    4.40
  -4  -4  10    1.20    2.20
  -4  -4  10    1.80    1.70
  -4  -4  10    5.10    2.60
  -3  -4  10  175.48   10.00
  -3  -4  10  179.78   11.00
  -3  -4  10  185.58   11.80
  -3  -4  10  183.88    9.60
  -3  -4  10  180.58   13.00
  -3  -4  10  182.78   12.50
  -3  -4  10  170.98   13.40
  -3  -4  10  180.08   10.00
  -2  -4  10  694.23   29.10
  -2  -4  10  709.03   31.60
  -2  -4  10  659.53   32.80
  -2  -4  10  647.94   29.30
  -2  -4  10  669.13   28.50
  -2  -4  10  644.94   33.30
  -2  -4  10  673.43   30.40
  -2  -4  10  664.63   32.00
  -1  -4  10  644.64   28.90
  -1  -4  10  626.94   27.10
  -1  -4  10  617.74   29.50
  -1  -4  10  588.04   30.30
  -1  -4  10  589.04   30.30
  -1  -4  10  609.84   29.30
  -1  -4  10  593.34   26.20
  -1  -4  10  588.44   25.80
  -1  -4  10  610.94   27.60
   0  -4  10  305.77   19.00
   0  -4  10  330.67   16.20
   0  -4  10  328.17   17.90
   0  -4  10  342.17   17.60
   0  -4  10  345.87   15.10
   0  -4  10  320.47   18.20
   0  -4  10  331.77   15.40
   0  -4  10  336.97   17.30
   1  -4  10  631.54   32.50
   1  -4  10  637.84   28.90
   1  -4  10  678.03   27.80
   1  -4  10  703.03   31.20
   1  -4  10  653.63   30.30
   1  -4  10  640.84   28.30
   1  -4  10  685.73   30.20
   2  -4  10   27.00    4.20
   2  -4  10   24.30    3.50
   2  -4  10   19.30    4.80
   2  -4  10   20.10    4.00
   2  -4  10   25.70    2.90
   2  -4  10   18.80    3.70
   2  -4  10   23.20    3.00
   3  -4  10   84.99    6.00
   3  -4  10   86.29    6.50
   3  -4  10   75.09    5.20
   3  -4  10   73.89    5.00
   3  -4  10   65.79    6.00
   3  -4  10   82.29    4.60
   3  -4  10   74.59    7.30
   4  -4  10  441.86   21.50
   4  -4  10  507.95   20.70
   4  -4  10  482.45   19.90
   4  -4  10  446.76   20.30
   4  -4  10  465.85   20.30
   4  -4  10  472.65   19.50
   6   3 -10  535.85   29.80
  -6  -3  10  689.03   29.00
  -6  -3  10  701.83   29.10
   5   3 -10  665.23   39.70
  -5  -3  10  831.72   35.90
  -5  -3  10  834.02   32.80
  -5  -3  10  854.71   37.40
  -5  -3  10  823.02   34.70
  -5  -3  10  800.72   38.60
  -5  -3  10  792.82   40.20
  -5  -3  10  882.31   37.10
  -5  -3  10  874.81   36.60
  -5  -3  10  809.22   38.60
   4   3 -10  458.25   31.00
  -4  -3  10  587.84   26.40
  -4  -3  10  511.95   25.60
  -4  -3  10  558.94   28.20
  -4  -3  10  533.65   22.20
  -4  -3  10  531.85   24.30
  -4  -3  10  565.54   28.60
  -4  -3  10  578.24   30.30
  -4  -3  10  559.14   25.40
  -4  -3  10  526.45   27.00
  -3  -3  10  143.09   12.00
  -3  -3  10  133.69    8.30
  -3  -3  10  129.79    6.00
  -3  -3  10  142.39    9.60
  -3  -3  10  140.89    9.20
  -3  -3  10  141.79    9.50
  -3  -3  10  134.79   11.80
  -3  -3  10  122.69   10.90
  -3  -3  10  150.18   11.50
  -2  -3  10   91.59    9.80
  -2  -3  10   89.19    6.30
  -2  -3  10   86.79    9.00
  -2  -3  10   91.79    9.20
  -2  -3  10   86.19    7.00
  -2  -3  10   93.79    9.00
  -2  -3  10   98.99    7.70
  -2  -3  10   88.69    8.50
  -2  -3  10   85.99    6.60
  -1  -3  10  267.17   16.40
  -1  -3  10  266.87   13.40
  -1  -3  10  255.97   14.10
  -1  -3  10  257.47   15.70
  -1  -3  10  266.87   16.70
  -1  -3  10  262.97   12.80
  -1  -3  10  272.37   14.80
  -1  -3  10  267.27   17.40
  -1  -3  10  267.07   16.10
   0  -3  10   32.40    5.80
   0  -3  10   24.30    4.50
   0  -3  10   28.20    3.40
   0  -3  10   24.30    4.90
   0  -3  10   37.80    7.00
   0  -3  10   28.60    5.70
   0  -3  10   26.20    4.30
   0  -3  10   31.70    4.10
   0  -3  10   19.00    4.00
   0  -3  10   31.20    4.60
   1  -3  10  299.67   13.60
   1  -3  10  288.47   15.60
   1  -3  10  282.37   18.70
   1  -3  10  301.97   17.40
   1  -3  10  268.37   15.40
   1  -3  10  311.57   16.60
   1  -3  10  272.07   16.90
   1  -3  10  318.27   14.70
   2  -3  10   35.00    6.00
   2  -3  10   34.70    6.00
   2  -3  10   40.70    5.40
   2  -3  10   34.90    3.40
   2  -3  10   40.60    7.40
   2  -3  10   30.60    4.90
   2  -3  10   30.30    3.80
   3  -3  10  899.91   39.90
   3  -3  10  817.62   36.20
   3  -3  10  814.72   34.40
   3  -3  10  821.52   38.60
   3  -3  10  895.81   35.40
   3  -3  10  739.33   36.50
   3  -3  10  842.92   37.70
  -4   3 -10   15.40    2.90
   4  -3  10   18.90    4.10
   4  -3  10   14.60    2.10
   4  -3  10   11.30    3.70
   4  -3  10   17.90    3.50
   4  -3  10   15.10    2.40
   4  -3  10   11.70    2.60
   4  -3  10   17.10    3.30
  -5   3 -10   24.40    3.00
   5  -3  10   22.00    2.90
   5  -3  10   24.30    3.10
   5  -3  10   22.60    2.10
   5  -3  10   21.90    2.70
   6   2 -10    4.30    3.90
  -6  -2  10    7.90    3.10
  -6  -2  10    6.60    2.30
  -6  -2  10    7.00    1.80
   5   2 -10   33.70    7.80
  -5  -2  10   45.40    6.30
  -5  -2  10   40.80    4.00
  -5  -2  10   38.60    5.70
   4   2 -10 1507.65   78.09
  -4  -2  10 1696.93   71.79
  -4  -2  10 1804.92   72.59
  -4  -2  10 1693.43   70.39
  -4  -2  10 1829.22   76.49
  -4  -2  10 1781.52   76.99
  -4  -2  10 1628.44   73.09
  -4  -2  10 1787.72   69.79
  -4  -2  10 1715.43   73.09
  -3  -2  10   24.70    6.20
  -3  -2  10   41.70    6.90
  -3  -2  10   16.60    4.10
  -3  -2  10   21.40    5.70
  -3  -2  10   20.70    3.00
  -3  -2  10   15.10    3.50
  -3  -2  10   16.60    4.60
  -3  -2  10   17.30    4.90
  -3  -2  10   23.90    6.40
  -3  -2  10   23.10    4.00
  -2  -2  10 1476.55   58.29
  -2  -2  10 1454.05   63.39
  -2  -2  10 1453.75   61.29
  -2  -2  10 1391.16   63.39
  -2  -2  10 1451.45   62.39
  -2  -2  10 1325.77   61.39
  -2  -2  10 1442.16   63.39
  -2  -2  10 1364.86   59.09
  -2  -2  10 1392.66   57.29
  -2  -2  10 1393.26   59.59
  -1  -2  10  477.75   21.40
  -1  -2  10  435.46   24.20
  -1  -2  10  451.75   24.50
  -1  -2  10  440.06   23.80
  -1  -2  10  454.75   19.60
  -1  -2  10  485.15   20.40
  -1  -2  10  448.76   24.70
  -1  -2  10  452.45   23.50
  -1  -2  10  433.16   22.80
  -1  -2  10  444.06   21.60
   0  -2  10  359.86   19.60
   0  -2  10  368.86   20.00
   0  -2  10  362.86   18.70
   0  -2  10  395.76   21.50
   0  -2  10  406.76   18.30
   0  -2  10  397.36   21.80
   0  -2  10  379.16   16.60
   0  -2  10  364.06   18.30
   0  -2  10  373.86   20.60
   0  -2  10  384.36   17.10
   0  -2  10  368.86   20.90
   1  -2  10 1927.11   81.59
   1  -2  10 1979.20   78.19
   1  -2  10 1993.20   82.89
   1  -2  10 1813.12   80.79
   1  -2  10 1851.61   76.69
   1  -2  10 1969.70   82.49
   1  -2  10 1903.71   80.29
   1  -2  10 1859.81   80.39
   1  -2  10 1970.40   77.09
   1  -2  10 1954.80   79.19
   2  -2  10  424.46   23.60
   2  -2  10  487.25   21.40
   2  -2  10  458.95   23.20
   2  -2  10  479.65   20.30
   2  -2  10  453.15   22.20
   2  -2  10  470.45   23.80
   2  -2  10  454.35   20.00
   2  -2  10  492.45   25.30
   2  -2  10  477.15   25.50
   3  -2  10  262.47   11.80
   3  -2  10  267.97   16.80
   3  -2  10  260.47   12.30
   3  -2  10  265.07   14.00
   3  -2  10  292.47   16.90
   3  -2  10  277.77   16.80
   3  -2  10  230.18   15.20
   3  -2  10  249.78   15.30
   3  -2  10  256.67   13.10
  -4   2 -10   36.60    4.90
   4  -2  10   30.50    2.90
   4  -2  10   28.00    5.10
   4  -2  10   20.70    4.60
   4  -2  10   29.50    5.30
   4  -2  10   24.70    3.60
   4  -2  10   24.70    4.50
   4  -2  10   27.60    5.30
   4  -2  10   24.20    3.20
  -5   2 -10  309.97   15.80
   5  -2  10  281.47   17.00
   5  -2  10  336.27   16.30
   5  -2  10  306.87   16.50
   5  -2  10  340.27   16.60
   5  -2  10  300.07   14.60
   5  -2  10  325.17   14.00
   5  -2  10  337.67   15.20
  -6   2 -10   69.49    4.90
   6  -2  10   65.89    4.90
   6  -2  10   69.59    4.80
  -7  -1  10  185.28    8.60
   6   1 -10   13.70    4.40
  -6  -1  10   10.10    2.50
  -6  -1  10   12.80    2.70
   5   1 -10  172.08   14.70
  -5  -1  10  157.98    9.70
  -5  -1  10  167.48   10.20
   4   1 -10    7.20    5.70
  -4  -1  10   14.30    4.20
  -4  -1  10   12.10    3.20
  -3  -1  10   31.90    6.60
  -3  -1  10   21.40    5.90
  -3  -1  10   16.70    3.30
  -3  -1  10   16.80    5.00
  -3  -1  10   30.90    4.80
  -3  -1  10   23.80    4.00
  -2  -1  10   14.20    5.60
  -2  -1  10    8.40    4.20
  -2  -1  10    9.60    4.70
  -2  -1  10   14.30    4.90
  -2  -1  10    5.60    2.80
  -2  -1  10   11.30    2.90
  -2  -1  10   10.10    3.00
  -2  -1  10   28.00    6.10
  -2  -1  10   11.80    4.30
  -2  -1  10   13.80    3.30
  -1  -1  10 1199.78   53.39
  -1  -1  10 1263.47   50.49
  -1  -1  10 1183.68   50.69
  -1  -1  10 1201.88   52.99
  -1  -1  10 1166.78   54.19
  -1  -1  10 1158.88   53.79
   0  -1  10  601.34   30.70
   0  -1  10  647.04   31.40
   0  -1  10  628.74   30.10
   0  -1  10  595.34   27.90
   0  -1  10  642.04   27.70
   0  -1  10  631.34   30.70
   1  -1  10 1539.25   66.29
   1  -1  10 1631.44   69.99
   1  -1  10 1616.04   65.89
   1  -1  10 1588.54   69.29
   1  -1  10 1673.43   69.49
  -2   1 -10   15.50    5.00
   2  -1  10   13.40    4.10
   2  -1  10   26.70    4.30
   2  -1  10   12.10    4.10
   2  -1  10   11.90    3.90
   2  -1  10   29.30    6.50
   2  -1  10   16.90    3.10
   2  -1  10   19.70    3.80
   2  -1  10   10.30    4.10
   2  -1  10   19.70    2.80
   2  -1  10   13.20    3.70
   3  -1  10   33.90    7.30
   3  -1  10   39.60    6.70
   3  -1  10   31.70    3.20
   3  -1  10   25.40    5.00
   3  -1  10   38.60    5.00
   3  -1  10   24.80    4.80
   3  -1  10   30.90    4.60
   3  -1  10   33.80    6.30
   3  -1  10   26.50    3.50
  -4   1 -10 2456.45  104.09
   4  -1  10 2530.65  102.49
   4  -1  10 2605.44  105.49
   4  -1  10 2541.45  105.69
   4  -1  10 2478.95  103.09
   4  -1  10 2566.54  103.29
   4  -1  10 2708.23  107.19
   4  -1  10 2442.16  105.19
   4  -1  10 2509.75  101.49
   4  -1  10 2680.43  110.09
  -5   1 -10  113.49    8.20
   5  -1  10  101.69   10.40
   5  -1  10  106.89    6.90
   5  -1  10  107.79    7.10
   5  -1  10  107.89    6.00
   5  -1  10  108.19    8.80
   5  -1  10   94.59    8.30
  -6   1 -10  614.84   28.20
   6  -1  10  672.83   31.60
   6  -1  10  627.24   28.30
   6   0 -10  886.61   39.60
  -6   0  10  875.91   37.50
  -6   0  10  894.21   37.90
   5   0 -10  396.46   22.80
  -5   0  10  370.06   18.80
  -5   0  10  376.36   19.10
   4   0 -10  176.18   15.60
  -4   0  10  181.28   11.10
  -4   0  10  183.28   11.70
   3   0 -10  585.14   32.20
  -3   0  10  566.64   26.80
  -3   0  10  529.55   26.40
  -3   0  10  580.44   30.90
  -3   0  10  555.54   27.00
  -2   0  10    3.40    4.10
  -2   0  10   15.20    5.10
  -2   0  10    5.20    3.30
  -2   0  10    0.90    1.90
  -2   0  10    9.20    2.90
  -2   0  10    3.40    3.00
  -2   0  10    1.60    3.40
  -1   0  10 1883.71   81.49
  -1   0  10 1971.00   83.19
  -1   0  10 1948.71   80.09
  -1   0  10 1950.90   79.59
  -1   0  10 1944.01   83.69
   0   0  10   25.10    4.30
   0   0  10   28.00    5.70
   0   0  10   32.80    3.50
   0   0  10   30.10    5.50
   0   0  10   31.10    4.20
   1   0  10   18.60    3.60
   1   0  10   12.20    2.10
   1   0  10    1.90    3.00
   1   0  10    4.10    2.20
   1   0  10   13.00    3.80
   1   0  10    9.30    2.60
  -2   0 -10    4.70    3.10
   2   0  10    2.60    2.00
   2   0  10   -0.20    3.10
   2   0  10    5.30    3.00
   2   0  10    8.70    3.80
   2   0  10   10.30    2.60
   2   0  10    7.20    3.40
  -3   0 -10  731.93   44.40
   3   0  10  839.62   40.80
   3   0  10  765.92   31.70
   3   0  10  665.43   35.30
   3   0  10  765.72   35.10
   3   0  10  780.62   36.20
   3   0  10  690.13   37.20
   3   0  10  797.32   33.50
   3   0  10  771.72   34.70
  -4   0 -10   38.60    5.80
   4   0  10   24.30    7.10
   4   0  10   26.90    5.40
   4   0  10   26.80    4.20
   4   0  10   22.60    5.30
  -5   0 -10   63.39    6.70
   5   0  10   67.49    7.20
   5   0  10   77.89   10.80
   5   0  10   65.09    5.60
   5   0  10   78.99    7.20
  -6   0 -10  440.36   21.50
   6   0  10  462.25   20.80
   6   0  10  465.35   21.80
   6   0  10  401.46   25.00
  -7   0 -10  854.91   36.80
   7   0  10  870.41   35.10
   7   0  10  878.21   36.60
   6  -1 -10  120.69    8.00
  -6   1  10  104.89    6.50
  -6   1  10  100.09    6.80
   5  -1 -10    5.70    3.40
  -5   1  10    8.00    2.70
   4  -1 -10  954.40   45.20
  -4   1  10  913.31   41.00
   3  -1 -10  369.16   23.80
  -3   1  10  421.06   20.10
   2  -1 -10 2302.67   95.69
   2  -1 -10 2147.29   90.99
  -2   1  10 2077.49   90.69
  -2   1  10 2174.58   93.29
  -2   1  10 2325.87   95.59
  -1   1  10  522.05   27.90
  -1   1  10  521.35   25.60
  -1   1  10  495.25   26.20
  -1   1  10  546.25   25.00
   0   1  10  691.63   33.70
   0   1  10  650.93   31.30
   0   1  10  650.53   30.20
  -1  -1 -10  678.13   35.10
   1   1  10  707.53   32.80
   1   1  10  719.23   35.00
   1   1  10  709.13   31.60
   1   1  10  696.83   32.40
  -2  -1 -10 1892.71   82.99
   2   1  10 1951.90   79.09
   2   1  10 1830.22   80.59
   2   1  10 1958.70   79.79
   2   1  10 1841.32   84.59
   2   1  10 2043.00   83.09
  -3  -1 -10  209.38   14.90
   3   1  10  188.98   15.80
   3   1  10  191.68   11.10
   3   1  10  179.38   11.20
   3   1  10  196.98   13.80
  -4  -1 -10   75.69    7.40
   4   1  10   71.89    6.00
   4   1  10   80.59    8.50
   4   1  10   72.19   11.70
   4   1  10   69.79    7.40
   4   1  10   70.79   12.10
   4   1  10   71.69    5.90
  -5  -1 -10  409.46   20.80
   5   1  10  377.06   20.80
  -6  -1 -10   15.30    3.70
   6   1  10   21.50    4.40
   6   1  10   24.40    4.70
  -7  -1 -10  291.97   15.20
   7   1  10  298.77   14.90
   7   1  10  297.67   14.70
  -8  -1 -10   14.40    3.00
   8   1  10   20.10    2.50
   5  -2 -10  397.46   19.50
  -5   2  10  350.66   17.70
   4  -2 -10  622.44   31.30
  -4   2  10  630.24   29.10
   3  -2 -10  509.35   27.90
   3  -2 -10  488.55   27.20
  -3   2  10  540.75   25.10
   2  -2 -10   68.79    9.90
   2  -2 -10   72.19    6.90
  -2   2  10   69.19    6.60
  -2   2  10   65.29    8.70
   1  -2 -10  402.46   23.20
   1  -2 -10  426.46   21.90
  -1   2  10  408.96   20.70
  -1   2  10  410.76   23.30
  -1   2  10  421.16   24.00
   0   2  10   90.49    8.90
   0   2  10   93.39    7.50
   0   2  10   93.09    9.70
   1   2  10  207.88   13.50
   1   2  10  214.88   14.20
   1   2  10  232.78   12.90
   1   2  10  227.68   15.70
  -2  -2 -10  281.17   18.10
   2   2  10  258.37   15.80
   2   2  10  253.47   14.20
   2   2  10  252.37   15.50
   2   2  10  261.67   17.10
  -3  -2 -10  379.36   22.40
   3   2  10  356.06   19.90
   3   2  10  361.46   21.40
   3   2  10  356.06   18.30
  -4  -2 -10 2097.29   83.79
   4   2  10 2061.29   86.09
   4   2  10 1776.62   82.49
   4   2  10 2014.60   84.39
   4   2  10 2021.50   82.19
  -5  -2 -10  861.11   39.20
   5   2  10  851.51   39.50
  -6  -2 -10  414.96   21.30
   6   2  10  401.86   20.20
  -7  -2 -10  384.76   19.80
   7   2  10  406.36   19.10
   7   2  10  403.96   19.70
  -8  -2 -10  585.34   26.00
   8   2  10  592.04   25.50
   8   2  10  615.14   25.40
   5  -3 -10    6.40    2.20
   5  -3 -10    7.40    2.20
  -5   3  10    6.80    1.80
   4  -3 -10  314.47   17.10
  -4   3  10  306.37   15.80
   3  -3 -10  550.44   27.10
   3  -3 -10  509.15   24.10
  -3   3  10  511.95   24.90
   2  -3 -10    7.00    2.70
   2  -3 -10   13.00    4.60
  -2   3  10    8.00    2.80
   1  -3 -10 1874.01   75.39
   1  -3 -10 1762.02   80.49
   0  -3 -10  532.05   24.20
   0  -3 -10  461.15   27.20
   0   3  10  471.95   26.10
   0   3  10  487.05   26.30
   0   3  10  453.85   23.00
  -1  -3 -10  179.08   14.10
   1   3  10  170.68   15.20
   1   3  10  167.68   13.10
   1   3  10  174.08   12.90
   1   3  10  169.78   10.80
  -2  -3 -10  332.57   21.20
   2   3  10  333.27   19.80
   2   3  10  361.16   20.90
   2   3  10  341.17   17.70
  -3  -3 -10 1318.47   60.49
  -3  -3 -10 1363.76   60.29
   3   3  10 1243.78   58.09
   3   3  10 1279.47   55.49
   3   3  10 1329.97   59.49
  -4  -3 -10   72.49    7.60
  -4  -3 -10   75.39   10.90
   4   3  10   63.89    7.60
   4   3  10   63.79    6.10
   4   3  10   72.19    8.30
  -5  -3 -10   13.60    4.20
   5   3  10   12.80    4.40
   5   3  10   10.30    3.10
  -6  -3 -10   53.69    6.60
  -7  -3 -10  708.53   32.50
  -8  -3 -10   10.20    2.50
   8   3  10   15.10    2.90
   4  -4 -10  390.46   18.40
   4  -4 -10  391.06   17.80
  -4   4  10  395.36   18.00
   3  -4 -10  273.37   14.70
   3  -4 -10  259.87   15.10
   3  -4 -10  268.97   13.70
  -3   4  10  294.47   14.60
   2  -4 -10  699.43   31.50
  -2   4  10  731.93   32.40
   1  -4 -10   39.70    5.70
   1  -4 -10   44.00    4.90
  -1   4  10   39.80    5.10
   0  -4 -10  853.61   37.20
   0  -4 -10  849.41   40.60
  -1  -4 -10  911.21   42.30
  -1  -4 -10  887.81   38.80
   1   4  10  841.32   38.90
   1   4  10  923.11   42.60
  -2  -4 -10 2923.41  129.99
  -2  -4 -10 3339.07  133.99
   2   4  10 3265.27  130.99
   2   4  10 3419.76  135.19
  -3  -4 -10   93.39    8.90
  -3  -4 -10   93.09    7.90
  -3  -4 -10   92.59    7.40
   3   4  10  101.19   10.10
   3   4  10   95.69    7.60
  -4  -4 -10  597.54   29.00
  -4  -4 -10  583.54   29.70
   4   4  10  624.64   28.40
   4   4  10  631.24   32.00
  -5  -4 -10 1752.22   75.49
   5   4  10 1855.81   78.19
   5   4  10 1746.93   73.99
  -6  -4 -10  150.48   11.10
   6   4  10  163.28    9.80
   6   4  10  165.08   12.20
  -7  -4 -10  738.93   33.70
  -8  -4 -10    8.40    2.30
   3  -5 -10  615.24   26.10
   3  -5 -10  608.74   26.00
  -3   5  10  615.14   26.70
   2  -5 -10   20.70    3.30
   2  -5 -10   22.20    3.70
  -2   5  10   17.30    3.40
   1  -5 -10    4.80    2.60
   1  -5 -10    5.20    2.50
   1  -5 -10    9.00    2.60
  -1   5  10    4.60    2.30
   0  -5 -10  549.15   24.70
   0  -5 -10  546.95   25.30
   0  -5 -10  530.65   25.50
  -1  -5 -10  384.06   18.40
  -1  -5 -10  381.06   19.10
  -2  -5 -10    6.20    2.70
  -2  -5 -10    3.50    2.20
  -2  -5 -10    5.20    2.40
   2   5  10    4.30    3.30
   2   5  10   11.40    3.10
  -3  -5 -10  159.08   10.40
  -3  -5 -10  162.98   10.50
   3   5  10  182.68   13.40
   3   5  10  161.08   10.40
  -4  -5 -10 1506.75   67.79
   4   5  10 1572.84   67.59
   4   5  10 1786.82   72.19
  -5  -5 -10 1114.69   49.90
   5   5  10 1112.19   49.10
   5   5  10 1233.58   53.39
  -6  -5 -10  151.38   10.30
   6   5  10  152.78    9.50
   6   5  10  158.68   11.90
  -7  -5 -10  220.58   12.20
   7   5  10  205.98   11.10
   7   5  10  210.78   13.20
  -8  -5 -10 1159.88   50.19
  -8  -5 -10 1296.87   50.79
   2  -6 -10  287.97   12.90
   2  -6 -10  272.07   12.30
  -2   6  10  278.27   13.30
   1  -6 -10 1446.66   57.09
   1  -6 -10 1470.15   56.79
   1  -6 -10 1255.77   60.69
  -1   6  10 1398.46   57.59
   0  -6 -10  834.02   35.70
   0  -6 -10  836.82   35.00
   0  -6 -10  830.82   35.20
   0  -6 -10  793.12   38.30
  -1  -6 -10   16.20    3.10
  -1  -6 -10    2.40    2.70
  -1  -6 -10    3.60    2.00
  -1  -6 -10    9.30    2.40
  -2  -6 -10  121.09    7.60
  -2  -6 -10  110.49    7.90
  -2  -6 -10  115.79    7.40
  -2  -6 -10  112.59    7.80
  -3  -6 -10 1190.48   51.89
  -3  -6 -10 1189.28   51.09
   3   6  10 1297.67   55.29
   3   6  10 1241.88   51.89
  -4  -6 -10  163.68   10.50
  -4  -6 -10  165.68    9.90
   4   6  10  178.28   10.60
   4   6  10  183.68   13.10
  -5  -6 -10  246.68   13.50
  -5  -6 -10  255.57   14.30
   5   6  10  277.77   17.00
   5   6  10  283.67   14.30
  -6  -6 -10   37.90    4.40
  -6  -6 -10   38.10    4.70
   6   6  10   42.20    4.50
   6   6  10   36.00    5.80
  -7  -6 -10  417.06   19.30
  -7  -6 -10  414.76   18.60
   7   6  10  400.76   21.00
   7   6  10  396.36   18.70
  -8  -6 -10    4.10    1.60
  -8  -6 -10    6.60    1.60
   1  -7 -10   11.70    1.90
  -1   7  10    8.40    1.80
   0  -7 -10  488.75   21.00
   0  -7 -10  487.45   20.00
   0  -7 -10  465.25   21.10
  -1  -7 -10   12.90    2.30
  -1  -7 -10   19.90    2.80
  -1  -7 -10   19.10    3.10
  -1  -7 -10   19.40    2.40
  -1  -7 -10   16.30    3.40
  -2  -7 -10 1627.24   69.69
  -2  -7 -10 1698.23   66.69
  -2  -7 -10 1660.33   67.89
  -2  -7 -10 1632.94   67.39
  -2  -7 -10 1665.33   67.09
  -3  -7 -10   50.69    4.00
  -3  -7 -10   45.50    4.60
  -3  -7 -10   47.20    4.40
   3   7  10   52.79    6.60
  -4  -7 -10   32.90    4.10
  -4  -7 -10   33.60    3.50
   4   7  10   34.10    5.60
   4   7  10   30.80    4.10
  -5  -7 -10  859.01   36.40
  -5  -7 -10  880.01   37.70
   5   7  10  905.91   37.70
   5   7  10  855.11   40.10
  -6  -7 -10  465.45   21.20
  -6  -7 -10  464.05   20.10
   6   7  10  455.35   21.00
   6   7  10  454.95   23.40
  -7  -7 -10  759.02   31.70
  -7  -7 -10  757.42   30.70
   7   7  10  715.63   31.40
  -8  -7 -10  109.49    5.90
  -8  -7 -10  110.59    5.20
   0  -8 -10  156.78    7.40
   0   8  10  165.38    7.80
  -1  -8 -10  192.08    9.40
  -1  -8 -10  207.28    9.30
  -1  -8 -10  195.68    9.50
  -1  -8 -10  202.08    9.50
  -2  -8 -10   54.19    3.90
  -2  -8 -10   47.70    3.60
  -2  -8 -10   55.19    4.20
  -3  -8 -10  139.29    7.60
  -3  -8 -10  131.59    7.20
  -3  -8 -10  121.59    6.90
  -4  -8 -10  104.29    6.20
  -4  -8 -10  109.79    6.70
  -4  -8 -10  109.19    5.00
  -5  -8 -10  233.38   11.80
  -5  -8 -10  235.78   10.10
   5   8  10  249.58   12.00
  -6  -8 -10   64.39    3.00
  -6  -8 -10   68.39    4.70
   6   8  10   60.89    4.70
  -7  -8 -10  128.49    6.70
  -2  -9 -10  139.09    7.20
  -3  -9 -10  784.32   30.50
  -3  -9 -10  749.23   30.10
  -3  -9 -10  691.53   29.90
  -4  -9 -10   24.00    2.40
  -4  -9 -10   20.70    2.00
  -4  -9 -10   22.20    1.90
  -5  -9 -10  170.78    8.00
  -5  -9 -10  176.58    8.40
  -6  -9 -10    8.50    1.30
  -5  -6  11   72.69    5.50
  -5  -6  11   71.09    3.80
  -4  -6  11  490.75   20.10
  -4  -6  11  492.45   21.20
  -3  -6  11   70.79    4.90
  -3  -6  11   63.99    3.60
  -3  -6  11   66.49    3.50
  -2  -6  11  299.27   16.80
  -2  -6  11  293.57   12.30
  -2  -6  11  293.27   13.80
  -2  -6  11  280.17   12.10
  -1  -6  11  427.96   17.00
  -1  -6  11  400.96   17.20
  -1  -6  11  418.06   18.50
  -1  -6  11  406.96   18.80
   0  -6  11   48.60    3.80
   0  -6  11   49.40    2.70
  -5  -5  11   11.70    1.80
  -5  -5  11   10.80    1.60
  -5  -5  11   12.30    2.50
  -5  -5  11   11.00    1.60
  -4  -5  11  142.29    6.90
  -4  -5  11  130.69    7.80
  -4  -5  11  145.29    8.80
  -4  -5  11  138.59    6.80
  -4  -5  11  130.69    8.40
  -4  -5  11  125.89    7.80
  -4  -5  11  139.49    7.20
  -3  -5  11   10.10    1.90
  -3  -5  11   10.60    4.20
  -3  -5  11   12.70    3.40
  -3  -5  11    9.00    2.20
  -3  -5  11   13.50    3.00
  -3  -5  11   11.10    3.20
  -3  -5  11   12.40    1.80
  -3  -5  11    9.00    1.80
  -2  -5  11   88.19   10.70
  -2  -5  11   97.19    5.20
  -2  -5  11   97.59    7.60
  -2  -5  11   87.49    5.90
  -2  -5  11   94.69    7.40
  -2  -5  11   91.39    6.60
  -2  -5  11   87.39    4.80
  -2  -5  11   89.69    5.30
  -1  -5  11    7.30    1.60
  -1  -5  11   11.40    1.40
  -1  -5  11   12.00    3.40
  -1  -5  11    9.10    2.10
  -1  -5  11   10.30    1.80
  -1  -5  11    6.70    2.80
   0  -5  11  164.08    7.10
   0  -5  11  163.98    8.00
   0  -5  11  157.48   10.40
   0  -5  11  166.08    8.70
   0  -5  11  178.08   10.20
   0  -5  11  168.08    7.90
   1  -5  11   10.40    3.00
   1  -5  11    6.60    1.40
   1  -5  11    8.50    2.10
   1  -5  11    7.80    1.50
   1  -5  11    7.80    2.40
   2  -5  11   78.89    4.10
   2  -5  11   76.49    4.20
   2  -5  11   75.09    5.70
   2  -5  11   87.49    5.30
   2  -5  11   73.49    4.80
  -6  -4  11   19.80    2.70
  -6  -4  11   21.80    2.50
  -5  -4  11  482.25   21.90
  -5  -4  11  526.05   21.50
  -5  -4  11  474.05   23.20
  -5  -4  11  502.35   22.20
  -5  -4  11  522.05   23.20
  -4  -4  11  377.26   19.70
  -4  -4  11  411.36   17.70
  -4  -4  11  393.76   18.10
  -4  -4  11  404.26   19.80
  -4  -4  11  385.26   18.10
  -4  -4  11  383.96   19.30
  -4  -4  11  399.06   18.20
  -4  -4  11  387.06   22.30
  -3  -4  11  792.32   33.30
  -3  -4  11  774.92   35.20
  -3  -4  11  785.22   34.40
  -3  -4  11  739.93   35.20
  -3  -4  11  774.72   32.50
  -3  -4  11  745.63   37.40
  -3  -4  11  808.92   33.20
  -3  -4  11  767.22   36.00
  -2  -4  11  914.41   38.80
  -2  -4  11 1005.70   39.70
  -2  -4  11  944.61   42.30
  -2  -4  11  956.80   44.30
  -2  -4  11  941.91   40.80
  -2  -4  11  924.21   42.80
  -2  -4  11  920.61   41.60
  -2  -4  11  919.11   39.70
  -1  -4  11  246.88   12.80
  -1  -4  11  253.87   15.00
  -1  -4  11  247.48   15.70
  -1  -4  11  247.58   15.90
  -1  -4  11  267.67   14.60
  -1  -4  11  251.57   15.10
  -1  -4  11  249.78   12.00
  -1  -4  11  256.17   12.40
  -1  -4  11  260.67   13.60
   0  -4  11   87.29    8.00
   0  -4  11   90.39    7.00
   0  -4  11   87.29    8.60
   0  -4  11   89.09    5.60
   0  -4  11   84.89    5.60
   0  -4  11   86.19    6.10
   0  -4  11   97.79    7.90
   0  -4  11   93.59    7.30
   1  -4  11  103.29    6.20
   1  -4  11  113.39    6.80
   1  -4  11  101.39    8.40
   1  -4  11   96.29    7.40
   1  -4  11  103.69    6.00
   1  -4  11   94.29    8.90
   1  -4  11  103.39    7.50
   2  -4  11  111.19    9.00
   2  -4  11  105.89    5.90
   2  -4  11  112.89    8.00
   2  -4  11   93.69    6.00
   2  -4  11  108.69    7.20
   2  -4  11  101.79    7.30
   2  -4  11  111.69    6.50
   3  -4  11   14.30    3.20
   3  -4  11   23.10    3.40
   3  -4  11   19.60    2.10
   3  -4  11   27.50    3.30
   3  -4  11   20.10    2.30
   3  -4  11   18.10    2.30
  -6  -3  11    0.80    1.60
  -6  -3  11    1.90    2.00
   5   3 -11    9.70    5.30
  -5  -3  11   12.80    4.10
  -5  -3  11    8.60    3.20
  -5  -3  11   10.70    3.60
  -5  -3  11   14.50    3.50
  -5  -3  11    8.70    2.70
  -5  -3  11   10.20    2.30
  -5  -3  11   12.40    3.40
   4   3 -11  517.35   32.20
  -4  -3  11  598.44   28.20
  -4  -3  11  637.14   27.00
  -4  -3  11  572.04   27.10
  -4  -3  11  573.94   25.70
  -4  -3  11  594.64   31.30
  -4  -3  11  618.34   27.90
  -4  -3  11  608.04   29.50
  -3  -3  11   37.60    4.30
  -3  -3  11   45.70    5.40
  -3  -3  11   36.20    6.50
  -3  -3  11   53.79    5.30
  -3  -3  11   51.59    6.80
  -3  -3  11   42.00    7.00
  -3  -3  11   40.20    5.00
  -3  -3  11   32.60    5.30
  -2  -3  11  201.18   13.30
  -2  -3  11  180.68    9.80
  -2  -3  11  168.78   12.40
  -2  -3  11  177.68   13.40
  -2  -3  11  182.58   13.60
  -2  -3  11  165.58   10.10
  -2  -3  11  176.78   12.60
  -2  -3  11  183.58   11.20
  -2  -3  11  180.58   11.10
  -1  -3  11  403.76   21.00
  -1  -3  11  369.06   21.50
  -1  -3  11  402.66   17.60
  -1  -3  11  371.36   21.80
  -1  -3  11  349.96   20.30
  -1  -3  11  382.16   18.90
  -1  -3  11  377.06   19.20
  -1  -3  11  379.76   20.70
  -1  -3  11  364.86   17.80
   0  -3  11  106.09    7.60
   0  -3  11  107.39    9.50
   0  -3  11  101.59    7.90
   0  -3  11  103.29    9.00
   0  -3  11  104.09    7.00
   0  -3  11  120.89    6.80
   0  -3  11  106.59    8.10
   0  -3  11  111.09    9.40
   0  -3  11  101.39    8.80
   0  -3  11  116.29   10.80
   1  -3  11 1792.82   71.69
   1  -3  11 1691.53   74.89
   1  -3  11 1861.51   72.79
   1  -3  11 1874.31   77.49
   1  -3  11 1812.12   75.09
   1  -3  11 1774.72   73.69
   1  -3  11 1628.84   73.29
   1  -3  11 1803.62   75.59
   2  -3  11  804.02   31.90
   2  -3  11  788.02   35.90
   2  -3  11  695.73   33.70
   2  -3  11  728.63   34.50
   2  -3  11  711.33   32.60
   2  -3  11  730.73   30.80
   2  -3  11  693.23   32.50
   3  -3  11   86.69    7.50
   3  -3  11   97.59    8.60
   3  -3  11   90.79    5.30
   3  -3  11   85.99    5.80
   3  -3  11   93.19    6.70
   3  -3  11   78.59    7.40
   3  -3  11   86.79    6.50
   4  -3  11  250.47   12.00
   4  -3  11  224.18   11.30
   4  -3  11  236.18   12.00
   4  -3  11  254.17   13.40
   4  -3  11  241.38   10.90
   4  -3  11  246.38   12.60
   5  -3  11  308.17   14.70
   6   2 -11  369.26   18.90
   5   2 -11   28.30    7.00
  -5  -2  11   25.70    4.30
  -5  -2  11   26.40    2.80
   4   2 -11 1091.59   57.59
  -4  -2  11 1211.28   50.49
  -4  -2  11 1248.48   49.80
  -4  -2  11 1282.87   52.79
  -4  -2  11 1245.88   52.89
  -4  -2  11 1218.98   56.59
  -3  -2  11   31.50    6.40
  -3  -2  11   31.50    5.50
  -3  -2  11   35.70    4.90
  -3  -2  11   32.20    5.10
  -3  -2  11   33.50    6.10
  -3  -2  11   30.80    3.20
  -3  -2  11   37.10    4.50
  -3  -2  11   50.59    8.00
  -3  -2  11   44.10    7.80
  -2  -2  11   19.10    5.20
  -2  -2  11    9.10    2.00
  -2  -2  11    1.10    3.10
  -2  -2  11    6.90    3.50
  -2  -2  11   19.10    4.60
  -2  -2  11   11.80    3.00
  -2  -2  11    4.20    3.70
  -2  -2  11    6.60    2.40
  -2  -2  11   17.10    3.80
  -2  -2  11    4.50    3.70
  -1  -2  11   75.29    6.10
  -1  -2  11   63.49    7.00
  -1  -2  11   70.49    8.10
  -1  -2  11   60.49    5.10
  -1  -2  11   61.69    5.90
  -1  -2  11   70.99    7.10
  -1  -2  11   68.39    7.40
  -1  -2  11   75.99    8.10
  -1  -2  11   62.89    8.30
  -1  -2  11   51.89    4.10
   0  -2  11  996.20   41.60
   0  -2  11  888.11   43.50
   0  -2  11  961.10   42.20
   0  -2  11 1001.90   45.70
   0  -2  11  955.20   43.10
   0  -2  11 1020.80   40.70
   0  -2  11  972.80   39.60
   0  -2  11  980.90   45.00
   0  -2  11  982.60   44.30
   0  -2  11  967.00   42.40
   0  -2  11  991.90   45.50
   1  -2  11   11.30    3.10
   1  -2  11   11.10    3.70
   1  -2  11    5.40    4.00
   1  -2  11    7.40    2.40
   1  -2  11   17.30    4.70
   1  -2  11   12.50    4.00
   1  -2  11    6.50    3.10
   1  -2  11   12.70    2.40
   1  -2  11   12.80    3.30
   1  -2  11   10.10    1.70
   1  -2  11   11.10    3.50
   2  -2  11  356.46   20.40
   2  -2  11  393.46   21.00
   2  -2  11  312.67   18.80
   2  -2  11  363.96   19.20
   2  -2  11  358.26   18.90
   2  -2  11  368.46   16.20
   2  -2  11  361.56   17.10
   2  -2  11  342.37   17.70
   2  -2  11  347.77   14.70
   3  -2  11  378.66   18.70
   3  -2  11  384.16   20.00
   3  -2  11  394.06   18.10
   3  -2  11  387.26   21.50
   3  -2  11  382.06   17.10
   3  -2  11  375.96   20.10
   3  -2  11  399.56   21.30
   4  -2  11  735.33   36.90
   4  -2  11  818.72   36.00
   4  -2  11  834.02   34.70
   4  -2  11  842.62   36.10
   4  -2  11  799.32   36.50
   4  -2  11  798.12   34.10
   4  -2  11  816.62   33.30
  -5   2 -11   11.40    2.50
   5  -2  11    8.70    2.50
   5  -2  11   13.00    2.20
   5  -2  11   12.00    1.70
   5  -2  11    7.20    2.30
   6   1 -11  146.09   10.20
  -6  -1  11  165.78    7.90
  -6  -1  11  159.38    8.60
   5   1 -11  244.58   16.90
  -5  -1  11  253.47   12.50
   4   1 -11  368.86   24.30
  -4  -1  11  390.96   18.40
  -4  -1  11  392.26   20.20
   3   1 -11 1011.10   49.99
  -3  -1  11  982.50   46.10
  -3  -1  11 1004.50   42.30
  -3  -1  11  915.71   41.40
  -3  -1  11  998.50   44.00
  -3  -1  11 1046.80   48.50
  -2  -1  11  809.32   34.80
  -2  -1  11  797.82   35.20
  -2  -1  11  855.01   39.30
  -2  -1  11  803.02   36.80
  -2  -1  11  798.02   36.00
  -2  -1  11  797.42   39.10
  -2  -1  11  810.22   37.50
  -2  -1  11  868.21   41.20
  -2  -1  11  815.02   40.20
  -1  -1  11 1304.07   57.99
  -1  -1  11 1287.27   56.59
  -1  -1  11 1297.77   55.59
  -1  -1  11 1299.17   54.69
  -1  -1  11 1347.27   59.09
  -1  -1  11 1331.47   57.99
  -1  -1  11 1247.08   56.69
  -1  -1  11 1283.97   54.09
  -1  -1  11 1306.07   54.19
  -1  -1  11 1302.97   53.59
  -1  -1  11 1345.57   59.49
   0  -1  11   11.30    3.40
   0  -1  11   10.30    4.10
   0  -1  11   10.40    3.60
   0  -1  11   15.30    4.80
   0  -1  11   11.00    2.90
   0  -1  11   14.30    4.50
   0  -1  11   11.00    3.80
   0  -1  11   14.60    3.30
   0  -1  11   12.00    4.00
   0  -1  11   12.50    2.50
   0  -1  11   17.00    3.40
   1  -1  11  416.96   19.60
   1  -1  11  424.66   19.70
   1  -1  11  415.76   20.20
   1  -1  11  415.06   20.20
   1  -1  11  404.26   21.50
   1  -1  11  411.76   21.60
   1  -1  11  406.06   22.80
   1  -1  11  438.16   23.40
   1  -1  11  400.06   21.80
   1  -1  11  418.66   22.30
   1  -1  11  422.06   18.60
   2  -1  11 1732.33   72.99
   2  -1  11 1713.33   71.59
   2  -1  11 1639.84   69.19
   2  -1  11 1631.34   71.29
   2  -1  11 1673.43   69.79
   2  -1  11 1698.73   72.29
   2  -1  11 1687.83   67.99
   2  -1  11 1734.73   73.59
   2  -1  11 1668.03   69.09
   3  -1  11   15.80    3.30
   3  -1  11   16.10    3.50
   3  -1  11   15.20    2.40
   3  -1  11   17.10    4.10
   3  -1  11   14.70    4.00
   3  -1  11   23.10    5.40
   3  -1  11   29.30    5.50
   3  -1  11   17.20    3.20
   3  -1  11   16.10    5.30
  -4   1 -11  198.48   11.90
   4  -1  11  194.58   14.40
   4  -1  11  189.98   10.20
   4  -1  11  200.08   12.60
   4  -1  11  203.68   10.60
   4  -1  11  199.38   12.60
   4  -1  11  183.78    9.60
   4  -1  11  205.58   13.80
   4  -1  11  198.88   12.50
   4  -1  11  197.08   11.00
  -5   1 -11    9.00    2.70
   5  -1  11    5.60    2.10
   5  -1  11    2.90    2.80
   5  -1  11    5.60    2.70
   5  -1  11    1.20    2.30
   5  -1  11    7.00    1.60
  -6   1 -11  438.96   19.70
   6  -1  11  467.55   19.80
   6  -1  11  398.26   19.70
   6   0 -11  105.29    8.00
  -6   0  11  119.19    6.60
  -6   0  11  109.99    6.30
   5   0 -11   30.20    5.70
  -5   0  11   33.70    4.20
  -5   0  11   36.00    4.60
   4   0 -11  163.08   14.10
  -4   0  11  163.28   10.40
   3   0 -11  262.37   19.50
  -3   0  11  275.67   15.60
  -3   0  11  300.77   16.40
  -3   0  11  293.27   19.40
  -2   0  11  210.08   11.00
  -2   0  11  224.98   13.40
  -2   0  11  235.78   15.00
  -2   0  11  235.38   15.90
  -2   0  11  226.28   13.60
  -2   0  11  244.68   17.00
   1   0 -11  431.26   23.10
  -1   0  11  454.45   20.50
  -1   0  11  450.05   19.90
  -1   0  11  476.45   22.80
  -1   0  11  436.96   23.60
  -1   0  11  474.85   26.20
  -1   0  11  469.55   24.70
  -1   0  11  473.95   22.50
   0   0  11  496.95   24.30
   0   0  11  500.05   25.40
   0   0  11  490.95   22.10
   0   0  11  534.05   26.50
   0   0  11  511.65   24.20
   0   0  11  486.65   23.60
   0   0  11  526.05   27.70
   1   0  11 2868.21  117.79
   1   0  11 2922.61  120.29
   1   0  11 3023.60  122.89
   1   0  11 2939.51  121.89
   1   0  11 2889.21  116.79
   1   0  11 3011.00  118.69
   1   0  11 2815.32  118.99
   1   0  11 3032.70  119.09
   2   0  11  769.72   37.80
   2   0  11  745.13   34.40
   2   0  11  725.33   34.90
   2   0  11  784.12   34.60
   2   0  11  832.62   38.50
   2   0  11  768.12   36.10
   2   0  11  813.62   35.90
   2   0  11  798.82   34.80
   2   0  11  834.12   40.70
   2   0  11  797.12   32.90
   3   0  11   79.29    7.60
   3   0  11   94.29    7.40
   3   0  11   72.09    6.20
   3   0  11   77.19    9.90
   3   0  11   67.79    5.00
   3   0  11   77.29    7.90
  -4   0 -11  271.87   15.80
   4   0  11  279.17   16.00
   4   0  11  324.67   20.60
   4   0  11  267.17   14.40
   4   0  11  300.27   15.40
   4   0  11  270.37   13.10
  -5   0 -11 1636.24   69.79
   5   0  11 1712.23   68.79
   5   0  11 1711.63   69.99
   5   0  11 1596.34   68.09
   5   0  11 1696.03   74.29
  -6   0 -11  279.87   14.60
   6   0  11  280.07   14.40
   6   0  11  278.87   13.10
  -7   0 -11  333.17   15.40
   7   0  11  334.77   15.00
   5  -1 -11   25.00    4.60
  -5   1  11   29.40    3.80
  -5   1  11   34.80    4.50
   4  -1 -11 1081.79   48.30
  -4   1  11  997.90   44.30
   3  -1 -11   83.89   10.40
   2  -1 -11   25.20    7.10
   2  -1 -11   21.80    4.80
  -2   1  11   28.50    6.60
  -2   1  11   33.20    5.50
   1  -1 -11  174.68   11.90
  -1   1  11  173.88   11.60
  -1   1  11  177.78   13.90
  -1   1  11  178.48   11.30
  -1   1  11  155.58   11.40
   0  -1 -11  604.34   29.10
   0   1  11  679.43   33.30
   0   1  11  640.04   29.10
   0   1  11  574.74   28.80
   0   1  11  603.74   29.20
   1   1  11   77.29    8.80
   1   1  11   73.99    6.40
   1   1  11   71.89    6.50
   1   1  11   80.19    6.80
  -2  -1 -11  191.78   15.10
   2   1  11  214.58   16.40
   2   1  11  199.68   12.70
   2   1  11  205.98   11.50
   2   1  11  197.18   11.50
   2   1  11  201.58   12.00
   2   1  11  200.18   14.50
   3   1  11  116.59    8.50
   3   1  11  120.59   10.70
   3   1  11  141.69   13.30
   3   1  11  121.19    7.90
   3   1  11  127.29    8.40
   3   1  11  129.89    9.80
  -4  -1 -11 1346.27   61.69
   4   1  11 1467.15   61.69
   4   1  11 1574.44   67.99
   4   1  11 1441.06   61.09
   4   1  11 1409.46   59.99
  -5  -1 -11   79.09    7.50
   5   1  11   71.49    6.90
   5   1  11   66.09    7.10
   5   1  11   83.69   10.60
  -6  -1 -11   81.99    7.30
   6   1  11   83.39   13.80
   6   1  11   93.39    7.00
   6   1  11   81.49    6.80
  -7  -1 -11  780.32   34.40
   7   1  11  803.22   33.20
   7   1  11  817.72   33.80
   5  -2 -11   22.40    3.60
  -5   2  11   27.50    3.10
   4  -2 -11   18.90    4.50
  -4   2  11   12.30    2.80
   3  -2 -11 1528.85   66.49
  -3   2  11 1487.25   63.09
   2  -2 -11   64.49    8.60
   2  -2 -11   43.70    5.50
   1  -2 -11 2308.27   96.69
  -1   2  11 2208.18   93.49
  -1   2  11 2255.77   95.89
  -1   2  11 2298.47   97.69
   0  -2 -11    9.30    3.40
   0   2  11   17.30    5.40
   0   2  11    7.30    3.20
   0   2  11   12.30    3.70
  -1  -2 -11    9.50    3.40
   1   2  11   13.10    3.80
   1   2  11   19.00    4.20
   1   2  11    9.00    3.90
  -2  -2 -11 1879.11   81.49
  -2  -2 -11 1877.21   76.29
   2   2  11 1786.82   77.69
   2   2  11 1821.82   76.29
   2   2  11 1808.22   80.19
   2   2  11 1846.02   75.39
   3   2  11  378.66   20.90
   3   2  11  395.66   20.10
   3   2  11  428.86   23.70
   3   2  11  414.56   19.40
  -4  -2 -11  416.56   22.20
   4   2  11  424.56   23.90
   4   2  11  443.06   21.00
   4   2  11  428.26   20.20
  -5  -2 -11   10.90    3.80
  -6  -2 -11  284.67   16.10
   6   2  11  290.97   14.90
   6   2  11  285.97   15.60
  -7  -2 -11    4.10    2.30
   7   2  11    0.40    2.00
   7   2  11    3.30    1.90
  -8  -2 -11  140.79    7.60
   8   2  11  149.79    7.50
   4  -3 -11  366.16   18.30
  -4   3  11  369.16   17.20
   3  -3 -11  325.97   15.50
   3  -3 -11  302.87   17.60
  -3   3  11  297.27   15.80
   2  -3 -11   69.99    6.00
   2  -3 -11   60.69    7.70
  -2   3  11   70.59    6.50
   1  -3 -11  108.09    8.00
   0  -3 -11  481.95   27.90
   0  -3 -11  525.85   23.70
   0   3  11  459.85   23.30
   0   3  11  487.55   26.60
   0   3  11  459.35   25.70
  -1  -3 -11  743.43   39.50
  -1  -3 -11  779.72   35.40
   1   3  11  772.82   37.70
   1   3  11  833.42   39.40
   1   3  11  785.52   35.40
  -2  -3 -11  379.26   28.80
  -2  -3 -11  418.46   21.20
   2   3  11  442.46   21.40
   2   3  11  421.26   23.30
   2   3  11  463.75   25.00
  -3  -3 -11   46.80    5.90
   3   3  11   35.90    5.90
   3   3  11   42.10    7.10
   3   3  11   43.10    5.20
  -4  -3 -11  209.88   13.40
   4   3  11  206.68   12.10
   4   3  11  211.18   15.00
   4   3  11  183.68   16.90
  -5  -3 -11 1585.04   66.69
   5   3  11 1550.94   64.69
   5   3  11 1526.75   68.09
  -6  -3 -11  237.18   14.30
  -7  -3 -11  712.13   32.10
  -8  -3 -11   50.19    4.00
   8   3  11   43.50    3.60
   4  -4 -11 1142.49   46.30
  -4   4  11 1134.49   46.30
   3  -4 -11 1207.68   49.50
   3  -4 -11 1229.48   48.60
   3  -4 -11 1090.49   50.09
  -3   4  11 1189.38   49.20
   2  -4 -11    4.30    2.00
  -2   4  11    4.20    2.20
   1  -4 -11  245.58   13.10
  -1   4  11  240.48   13.40
   0  -4 -11 1169.78   49.70
  -1  -4 -11  100.69   10.00
  -1  -4 -11  102.79    7.80
   1   4  11  109.59   10.20
   1   4  11  110.49    8.00
  -2  -4 -11    0.70    2.40
  -2  -4 -11    1.10    2.80
   2   4  11    4.40    3.70
   2   4  11    1.60    2.10
  -3  -4 -11   94.49    7.60
  -3  -4 -11  104.99    8.20
  -3  -4 -11   95.99    9.30
   3   4  11  100.99    7.90
   3   4  11  123.49   10.90
  -4  -4 -11  338.27   18.50
   4   4  11  382.16   21.60
   4   4  11  334.17   17.90
  -5  -4 -11    5.20    3.00
   5   4  11   -0.20    2.30
   5   4  11    1.80    2.10
  -6  -4 -11    8.10    3.00
   6   4  11    4.40    2.90
   6   4  11   11.00    2.90
  -7  -4 -11  521.85   24.40
  -8  -4 -11  332.87   15.30
   3  -5 -11  660.13   27.30
   3  -5 -11  656.73   27.40
  -3   5  11  663.93   27.80
   2  -5 -11   61.49    5.00
   2  -5 -11   63.59    4.70
  -2   5  11   53.49    4.90
   1  -5 -11 1624.64   65.79
   1  -5 -11 1590.14   65.29
  -1   5  11 1564.64   65.59
   0  -5 -11  334.57   17.40
   0  -5 -11  351.36   17.00
   0  -5 -11  362.16   17.70
  -1  -5 -11  114.59    7.60
  -2  -5 -11 2225.88   97.09
   2   5  11 2447.35   98.09
   2   5  11 2542.55  101.69
  -3  -5 -11  975.00   45.10
  -3  -5 -11 1003.10   45.90
   3   5  11 1138.49   46.60
   3   5  11 1188.88   50.39
  -4  -5 -11  424.06   22.20
   4   5  11  472.05   22.30
   4   5  11  489.75   25.60
  -5  -5 -11  256.57   14.40
   5   5  11  266.67   13.90
   5   5  11  244.68   16.20
  -6  -5 -11  357.06   17.50
   6   5  11  315.07   18.60
   6   5  11  330.97   16.40
  -7  -5 -11   31.30    4.30
   7   5  11   24.00    3.20
  -8  -5 -11  432.86   18.60
  -8  -5 -11  403.56   18.10
   2  -6 -11  115.49    6.00
   2  -6 -11  114.69    5.60
  -2   6  11  114.99    6.30
   1  -6 -11   19.70    2.60
   1  -6 -11   13.30    2.30
  -1   6  11   13.30    2.40
   0  -6 -11  118.69    7.20
   0  -6 -11  118.79    7.20
   0  -6 -11  126.29    7.50
   0  -6 -11  109.69    9.40
   0   6  11  119.29    7.40
  -1  -6 -11  511.75   23.20
  -1  -6 -11  524.55   23.20
  -1  -6 -11  518.55   23.10
  -2  -6 -11  578.34   25.50
  -2  -6 -11  583.74   26.00
  -2  -6 -11  569.74   25.60
  -3  -6 -11    9.70    2.70
  -3  -6 -11    9.60    2.70
   3   6  11   11.10    3.90
   3   6  11   20.50    3.60
  -4  -6 -11  149.39    9.50
  -4  -6 -11  156.08    9.30
   4   6  11  161.58   11.90
   4   6  11  163.18    9.80
  -5  -6 -11 2316.77   98.99
  -5  -6 -11 2423.96   99.89
   5   6  11 2559.84  103.19
   5   6  11 2544.85   99.79
  -6  -6 -11    6.40    2.20
  -6  -6 -11    4.60    2.20
   6   6  11    8.00    3.20
   6   6  11    6.20    2.20
  -7  -6 -11  666.33   28.70
  -7  -6 -11  667.43   28.10
   7   6  11  645.04   28.10
  -8  -6 -11  155.58    7.80
  -8  -6 -11  153.98    7.40
   1  -7 -11   12.20    1.60
  -1   7  11    7.70    1.40
   0  -7 -11 1378.26   53.89
   0  -7 -11 1342.77   54.69
   0   7  11 1349.36   54.99
  -1  -7 -11   37.20    3.30
  -1  -7 -11   32.30    3.20
  -1  -7 -11   34.80    3.00
  -2  -7 -11  240.48   12.00
  -2  -7 -11  256.87   12.50
  -2  -7 -11  266.97   11.90
  -2  -7 -11  242.08   14.10
  -2  -7 -11  255.47   12.10
  -3  -7 -11  125.99    7.70
  -3  -7 -11  127.29    7.00
  -4  -7 -11  302.77   13.50
  -4  -7 -11  274.57   14.10
   4   7  11  286.87   14.10
   4   7  11  280.97   16.10
  -5  -7 -11  200.08    9.80
  -5  -7 -11  196.18   10.70
   5   7  11  203.38   10.70
   5   7  11  187.78   12.30
  -6  -7 -11   18.10    2.40
  -6  -7 -11   17.30    2.70
   6   7  11   12.90    2.50
  -7  -7 -11   40.10    3.00
  -7  -7 -11   43.00    3.60
  -1  -8 -11  191.18    9.50
  -1  -8 -11  183.48    8.30
   1   8  11  173.38    8.40
  -2  -8 -11  398.06   17.40
  -2  -8 -11  424.46   17.80
  -3  -8 -11  700.03   29.40
  -4  -8 -11  234.38   11.20
  -4  -8 -11  223.88    9.50
  -5  -8 -11  185.88    8.00
  -5  -8 -11  196.18    9.60
   5   8  11  187.98    9.40
  -6  -8 -11  295.77   13.40
  -7  -8 -11   28.70    2.40
  -4  -9 -11   34.20    2.50
  -5  -9 -11  602.74   25.00
  -3  -6  12    9.50    2.50
  -2  -6  12    3.30    0.80
  -2  -6  12    3.90    1.60
  -4  -5  12  420.26   17.30
  -4  -5  12  423.66   18.60
  -4  -5  12  411.36   16.90
  -4  -5  12  399.56   17.50
  -3  -5  12   27.80    2.40
  -3  -5  12   21.80    2.30
  -3  -5  12   24.20    3.70
  -3  -5  12   22.50    1.70
  -3  -5  12   23.80    4.30
  -3  -5  12   21.60    3.40
  -2  -5  12 1067.99   43.80
  -2  -5  12 1091.79   45.90
  -2  -5  12 1100.79   43.70
  -2  -5  12 1078.89   45.50
  -1  -5  12  288.37   12.50
  -1  -5  12  304.47   14.50
  -1  -5  12  293.07   12.60
  -1  -5  12  264.87   14.50
   0  -5  12    0.50    0.80
   0  -5  12    1.80    0.90
   0  -5  12    0.70    1.70
   0  -5  12    2.80    1.80
   1  -5  12  381.26   16.10
   1  -5  12  327.67   16.30
   1  -5  12  352.56   14.60
   1  -5  12  340.07   15.20
  -5  -4  12    9.40    1.80
  -5  -4  12   10.10    1.60
  -5  -4  12   11.40    2.30
   4   4 -12    9.60    4.70
  -4  -4  12   12.50    2.90
  -4  -4  12   16.90    3.20
  -4  -4  12   16.70    2.40
  -4  -4  12   19.60    2.50
  -4  -4  12   16.90    2.70
  -3  -4  12   74.09    6.70
  -3  -4  12   73.99    6.90
  -3  -4  12   65.79    5.80
  -3  -4  12   73.19    5.10
  -3  -4  12   72.49    7.90
  -3  -4  12   68.29    4.60
  -3  -4  12   78.39    5.30
  -3  -4  12   69.59    6.10
  -2  -4  12    9.50    2.20
  -2  -4  12   10.00    3.30
  -2  -4  12    6.70    3.10
  -2  -4  12    8.10    2.40
  -2  -4  12   10.50    2.90
  -2  -4  12    8.30    1.80
  -2  -4  12    8.90    2.10
  -2  -4  12   11.00    3.70
  -1  -4  12  465.95   22.80
  -1  -4  12  485.65   21.10
  -1  -4  12  501.75   23.50
  -1  -4  12  498.25   21.30
  -1  -4  12  482.15   20.70
  -1  -4  12  439.46   24.80
  -1  -4  12  491.45   24.10
  -1  -4  12  488.75   22.20
   0  -4  12   95.79    8.50
   0  -4  12  102.29    7.40
   0  -4  12  103.19    6.00
   0  -4  12  108.29    6.30
   0  -4  12  114.19    8.30
   0  -4  12   96.89    5.80
   0  -4  12   97.39    6.90
   1  -4  12  987.30   40.50
   1  -4  12  969.50   38.10
   1  -4  12  985.50   38.50
   1  -4  12  865.61   41.00
   1  -4  12  901.21   38.10
   1  -4  12  832.52   39.40
   1  -4  12  977.10   39.50
   2  -4  12  103.29    5.30
   2  -4  12   97.49    6.10
   2  -4  12   84.89    7.00
   2  -4  12   96.29    6.70
   2  -4  12   93.39    5.10
   2  -4  12   91.69    5.20
   3  -4  12    1.90    0.80
   3  -4  12    3.80    1.70
   3  -4  12    3.50    1.40
   3  -4  12    5.90    1.20
   5   3 -12  173.38   12.80
  -5  -3  12  214.68   11.00
  -5  -3  12  237.18   11.20
  -4  -3  12  496.85   23.70
  -4  -3  12  514.35   23.10
  -4  -3  12  468.55   24.70
  -4  -3  12  496.75   22.50
  -4  -3  12  522.25   23.70
  -4  -3  12  501.65   21.70
  -4  -3  12  516.05   28.70
  -4  -3  12  512.85   23.10
  -3  -3  12   87.49    7.80
  -3  -3  12   82.79    5.60
  -3  -3  12   77.69    6.10
  -3  -3  12   87.79    7.10
  -3  -3  12   83.69    8.20
  -3  -3  12   87.29    6.60
  -3  -3  12   81.89    8.00
  -3  -3  12   80.59    8.90
  -2  -3  12    1.60    3.10
  -2  -3  12    1.10    2.50
  -2  -3  12    1.90    2.00
  -2  -3  12    2.10    2.60
  -2  -3  12    7.80    2.40
  -2  -3  12   -0.70    2.70
  -2  -3  12    2.00    1.70
  -2  -3  12    3.20    2.30
  -2  -3  12    0.40    2.60
  -1  -3  12 1088.39   50.19
  -1  -3  12 1139.59   50.99
  -1  -3  12 1162.98   48.10
  -1  -3  12 1156.08   51.39
  -1  -3  12 1151.98   49.40
  -1  -3  12 1216.98   52.39
  -1  -3  12 1178.08   47.70
  -1  -3  12 1157.18   52.59
  -1  -3  12 1161.98   49.30
   0  -3  12   39.20    6.70
   0  -3  12   39.40    4.70
   0  -3  12   42.70    4.10
   0  -3  12   46.10    3.90
   0  -3  12   38.10    5.30
   0  -3  12   38.10    5.50
   0  -3  12   38.60    4.60
   0  -3  12   38.00    5.50
   0  -3  12   38.70    6.00
   0  -3  12   34.50    4.80
   1  -3  12   23.90    4.70
   1  -3  12   14.10    2.50
   1  -3  12   19.20    3.60
   1  -3  12   24.00    4.50
   1  -3  12   16.90    3.70
   1  -3  12   23.10    3.30
   1  -3  12   20.90    5.00
   1  -3  12   22.30    3.70
   2  -3  12   11.10    2.30
   2  -3  12    6.70    2.20
   2  -3  12    9.20    3.50
   2  -3  12   11.40    3.50
   2  -3  12    6.20    2.60
   2  -3  12    5.10    2.30
   2  -3  12    9.80    1.90
   3  -3  12  370.46   18.80
   3  -3  12  400.96   18.40
   3  -3  12  426.86   18.00
   3  -3  12  389.86   16.50
   3  -3  12  306.97   20.60
   3  -3  12  359.46   16.90
   3  -3  12  401.66   17.60
   4  -3  12   32.40    3.40
   4  -3  12   29.30    2.90
   4  -3  12   32.60    2.80
   4  -3  12   29.50    2.30
   5   2 -12    5.60    4.00
   4   2 -12  368.36   24.30
  -4  -2  12  412.06   20.50
  -4  -2  12  428.26   20.70
  -4  -2  12  431.36   17.40
  -4  -2  12  419.86   20.10
  -4  -2  12  408.76   23.70
  -4  -2  12  409.86   19.00
  -4  -2  12  423.26   20.60
  -3  -2  12  381.86   22.00
  -3  -2  12  378.46   16.80
  -3  -2  12  415.16   20.30
  -3  -2  12  381.16   20.10
  -3  -2  12  381.86   23.20
  -3  -2  12  392.86   18.00
  -3  -2  12  419.76   22.20
  -3  -2  12  400.16   20.30
  -2  -2  12 1103.79   50.89
  -2  -2  12 1105.39   46.40
  -2  -2  12 1109.79   52.09
  -2  -2  12 1151.98   50.89
  -2  -2  12 1172.18   51.19
  -2  -2  12 1112.69   45.00
  -2  -2  12 1078.69   48.80
  -2  -2  12 1022.20   48.60
  -2  -2  12 1126.99   47.30
  -2  -2  12 1194.78   48.80
  -1  -2  12  461.15   24.20
  -1  -2  12  513.55   22.20
  -1  -2  12  471.65   24.40
  -1  -2  12  494.05   26.00
  -1  -2  12  487.85   23.80
  -1  -2  12  509.65   26.40
  -1  -2  12  493.55   20.60
  -1  -2  12  521.35   23.10
  -1  -2  12  522.05   26.30
  -1  -2  12  503.05   27.20
   0  -2  12    9.60    4.10
   0  -2  12   16.30    4.30
   0  -2  12    9.70    3.00
   0  -2  12    9.60    3.60
   0  -2  12    7.90    2.50
   0  -2  12    9.50    3.10
   0  -2  12    9.60    3.80
   0  -2  12   10.00    1.30
   0  -2  12   19.40    4.00
   0  -2  12    9.60    2.30
   1  -2  12  103.39    6.30
   1  -2  12  106.89    7.20
   1  -2  12  108.59    9.60
   1  -2  12  103.79    9.20
   1  -2  12  103.09    7.80
   1  -2  12   84.89    8.30
   1  -2  12  104.19    7.80
   1  -2  12  109.59    9.00
   1  -2  12   83.59    7.60
   1  -2  12  111.39    9.80
   2  -2  12 1332.07   56.59
   2  -2  12 1331.07   54.89
   2  -2  12 1435.36   55.99
   2  -2  12 1371.36   58.29
   2  -2  12 1288.97   57.09
   2  -2  12 1428.96   59.29
   2  -2  12 1361.36   59.39
   2  -2  12 1256.17   57.39
   3  -2  12  259.67   14.40
   3  -2  12  229.28   15.00
   3  -2  12  265.27   15.10
   3  -2  12  261.17   12.00
   3  -2  12  258.27   13.40
   3  -2  12  262.27   12.80
   3  -2  12  263.57   14.10
   4  -2  12  276.77   15.00
   4  -2  12  307.07   15.10
   4  -2  12  264.47   13.50
   4  -2  12  313.67   14.30
   4  -2  12  308.57   14.90
   4  -2  12  293.37   13.00
   5  -2  12   94.59    5.30
   5  -2  12   95.89    5.70
   5  -2  12   96.49    5.80
   5   1 -12  209.28   13.80
  -5  -1  12  208.68   10.00
   4   1 -12   73.29   10.40
  -4  -1  12   53.69    6.20
  -4  -1  12   57.79    4.90
   3   1 -12  585.74   32.60
  -3  -1  12  602.64   27.80
  -3  -1  12  558.04   31.00
  -3  -1  12  563.84   25.40
  -2  -1  12  158.58   13.30
  -2  -1  12  130.69   10.60
  -2  -1  12  147.29   11.60
  -2  -1  12  155.78   12.20
  -2  -1  12  144.89    8.80
  -2  -1  12  139.99    8.40
  -2  -1  12  164.18   10.70
   1   1 -12  248.88   16.40
  -1  -1  12  299.57   17.60
  -1  -1  12  269.97   16.50
  -1  -1  12  276.07   16.30
  -1  -1  12  304.87   18.30
  -1  -1  12  304.17   19.30
  -1  -1  12  300.27   16.10
  -1  -1  12  300.37   15.20
  -1  -1  12  296.57   14.50
  -1  -1  12  317.57   18.60
   0  -1  12   20.10    3.90
   0  -1  12   21.50    3.30
   0  -1  12   15.10    4.10
   0  -1  12   25.50    5.90
   0  -1  12   29.60    4.70
   0  -1  12    9.90    3.40
   0  -1  12   29.70    6.30
   0  -1  12   19.40    4.50
   0  -1  12   25.90    5.60
   0  -1  12   19.30    3.60
   0  -1  12   21.40    3.40
   1  -1  12  648.94   28.80
   1  -1  12  621.64   27.30
   1  -1  12  683.63   31.90
   1  -1  12  612.54   29.60
   1  -1  12  593.44   29.40
   1  -1  12  631.94   32.00
   1  -1  12  615.74   27.80
   1  -1  12  625.74   26.80
   1  -1  12  636.14   30.80
   1  -1  12  609.84   28.50
   1  -1  12  597.84   30.30
   2  -1  12   61.39    6.90
   2  -1  12   60.29    7.20
   2  -1  12   65.99    6.10
   2  -1  12   62.39    6.90
   2  -1  12   75.99    5.60
   2  -1  12   79.39    6.00
   2  -1  12   75.69    7.60
   2  -1  12   75.29    8.00
   2  -1  12   68.89    8.00
   2  -1  12   70.89    5.00
   3  -1  12   18.80    4.00
   3  -1  12   16.00    4.20
   3  -1  12   25.90    5.10
   3  -1  12   24.70    3.20
   3  -1  12   15.80    2.50
   3  -1  12   16.40    2.90
   3  -1  12   22.00    4.60
   3  -1  12   20.20    3.70
   3  -1  12   31.30    6.00
   4  -1  12 1343.37   56.39
   4  -1  12 1409.36   58.99
   4  -1  12 1474.75   58.09
   4  -1  12 1430.96   59.29
   4  -1  12 1355.76   55.89
  -5   1 -12  387.26   18.90
   5  -1  12  440.56   19.50
   5  -1  12  410.46   18.30
   5  -1  12  406.16   19.40
   6  -1  12  226.08   10.60
   5   0 -12   21.50    4.30
  -5   0  12   20.60    2.90
   4   0 -12 1165.88   54.59
  -4   0  12 1242.38   50.59
   3   0 -12  444.86   26.30
  -3   0  12  460.75   21.80
  -3   0  12  470.35   22.90
  -3   0  12  431.36   26.20
   2   0 -12   10.70    5.20
  -2   0  12    9.00    3.80
  -2   0  12    8.60    4.60
  -2   0  12   10.10    3.40
  -2   0  12    2.20    3.50
  -2   0  12    5.20    3.20
   1   0 -12 1870.01   87.99
  -1   0  12 2249.68   92.99
  -1   0  12 2216.88   87.39
  -1   0  12 2155.48   87.29
  -1   0  12 1918.21   84.99
  -1   0  12 2110.09   88.89
  -1   0  12 2166.28   90.59
  -1   0  12 2288.77   88.49
   0   0 -12  817.92   37.80
   0   0  12  826.82   36.70
   0   0  12  772.22   37.90
   0   0  12  863.11   40.00
   0   0  12  798.52   34.90
   0   0  12  840.72   37.50
   0   0  12  867.21   37.10
   0   0  12  887.31   41.70
   1   0  12   50.89    6.50
   1   0  12   53.49    5.60
   1   0  12   56.39    6.10
   1   0  12   51.99    4.50
   1   0  12   57.79    5.70
   1   0  12   63.59    7.80
   2   0  12  203.88   11.70
   2   0  12  194.68   12.60
   2   0  12  209.48   14.60
   2   0  12  194.08   12.30
   2   0  12  208.28   11.90
   2   0  12  195.28   11.70
   2   0  12  198.18   10.10
   3   0  12  398.86   23.20
   3   0  12  359.16   18.10
   3   0  12  338.57   16.40
   3   0  12  388.26   18.30
   3   0  12  374.66   19.10
   3   0  12  361.46   21.70
   4   0  12    5.70    2.40
   4   0  12    6.50    3.10
   4   0  12    1.30    1.90
   4   0  12    0.10    3.20
  -5   0 -12   32.00    4.70
   5   0  12   25.70    5.50
   5   0  12   27.80    3.50
   5   0  12   25.30    3.90
   5   0  12   23.70    3.20
  -6   0 -12   25.50    3.50
   6   0  12   30.10    3.50
   6   0  12   24.80    1.90
   5  -1 -12   39.80    4.60
  -5   1  12   33.10    3.30
  -5   1  12   35.60    3.80
   4  -1 -12   64.99    7.70
  -4   1  12   48.70    5.90
   3  -1 -12  506.25   27.30
  -3   1  12  506.45   24.70
   2  -1 -12  449.46   26.10
   2  -1 -12  427.16   22.30
  -2   1  12  500.25   27.30
  -2   1  12  477.15   23.30
  -2   1  12  447.16   23.10
   1  -1 -12  330.17   18.10
   1  -1 -12  362.26   21.20
  -1   1  12  379.26   22.20
  -1   1  12  323.07   17.80
  -1   1  12  332.77   18.00
  -1   1  12  298.67   17.70
  -1   1  12  352.26   18.30
  -1   1  12  277.17   19.40
   0  -1 -12  520.85   25.40
   0   1  12  526.65   26.90
   0   1  12  541.45   25.50
   0   1  12  476.75   23.80
   0   1  12  491.75   24.90
   0   1  12  594.24   30.00
   0   1  12  471.15   24.80
  -1  -1 -12   47.00    6.30
   1   1  12   52.09    7.70
   1   1  12   46.30    5.60
   1   1  12   50.69    5.40
   1   1  12   50.39    4.80
   1   1  12   43.70    6.40
   2   1  12 3493.35  144.09
   2   1  12 3726.33  144.49
   2   1  12 3201.88  141.89
   2   1  12 3829.02  148.99
   2   1  12 3644.84  143.49
   3   1  12   49.20    5.90
   3   1  12   54.09    5.30
   3   1  12   45.00    6.80
   3   1  12   49.40    5.30
   3   1  12   36.00    7.20
  -4  -1 -12  370.76   25.10
   4   1  12  367.56   22.60
   4   1  12  341.07   17.70
   4   1  12  347.77   17.90
   4   1  12  335.97   17.00
  -5  -1 -12  639.34   29.50
   5   1  12  645.34   28.30
   5   1  12  604.54   32.50
   5   1  12  657.13   28.40
   5   1  12  603.94   27.40
  -6  -1 -12  280.37   15.10
   6   1  12  306.57   14.50
   6   1  12  295.37   14.00
  -7  -1 -12  664.93   27.70
   7   1  12  645.04   26.10
   7   1  12  637.14   27.20
   4  -2 -12   91.09    7.50
  -4   2  12   88.69    6.00
   3  -2 -12  661.43   32.10
   2  -2 -12   14.30    5.10
   2  -2 -12    3.40    2.60
   1  -2 -12   28.80    6.60
   1  -2 -12   28.60    4.70
  -1   2  12   36.00    5.50
  -1   2  12   29.10    6.40
   0  -2 -12   85.59    7.80
   0   2  12   87.19    7.70
   0   2  12   99.69   10.30
  -1  -2 -12  331.57   17.70
   1   2  12  305.37   17.90
   1   2  12  333.07   17.60
   1   2  12  359.96   21.40
  -2  -2 -12    6.60    3.20
   2   2  12   11.40    3.20
   2   2  12   15.00    3.80
   2   2  12    7.40    3.70
   3   2  12  143.89    9.80
   3   2  12  156.98   12.60
   3   2  12  147.29    9.30
  -4  -2 -12  261.17   15.40
   4   2  12  245.18   13.30
   4   2  12  319.47   20.90
   4   2  12  246.68   16.50
   4   2  12  255.37   14.00
  -5  -2 -12  590.54   27.90
   5   2  12  557.14   26.60
  -6  -2 -12  328.37   17.00
   6   2  12  317.47   15.90
  -7  -2 -12  544.65   23.90
   7   2  12  522.85   22.80
  -4   3  12  383.96   16.90
   3  -3 -12  273.87   15.30
   3  -3 -12  290.97   13.80
  -3   3  12  280.17   14.00
   2  -3 -12  894.61   37.20
   2  -3 -12  831.12   39.40
   1  -3 -12 1225.48   51.79
   0  -3 -12  722.03   31.70
   0   3  12  692.03   31.60
   0   3  12  665.83   34.60
  -1  -3 -12  307.17   16.90
   1   3  12  340.37   20.30
   1   3  12  301.47   16.80
  -2  -3 -12   77.09    6.90
   2   3  12   75.39    8.70
   2   3  12   76.79    6.80
  -3  -3 -12  483.25   24.50
   3   3  12  519.85   24.80
   3   3  12  551.64   28.50
  -4  -3 -12  152.68   10.70
  -4  -3 -12  154.98   10.10
   4   3  12  159.98   12.50
   4   3  12  156.08   10.00
  -5  -3 -12  651.13   30.80
   5   3  12  646.44   32.00
   5   3  12  652.33   29.00
  -6  -3 -12    6.60    3.00
  -7  -3 -12  336.57   15.80
   7   3  12  302.27   15.00
   3  -4 -12   86.19    5.30
   3  -4 -12   84.59    6.10
  -3   4  12   85.19    5.50
   2  -4 -12  357.06   16.60
  -2   4  12  346.67   16.80
   1  -4 -12   28.20    3.80
   0  -4 -12   50.49    5.20
  -1  -4 -12    9.20    2.80
   1   4  12    9.80    2.90
   1   4  12   16.00    4.70
  -2  -4 -12 2138.79   92.69
   2   4  12 2435.16   97.49
   2   4  12 2242.58   93.19
  -3  -4 -12  266.87   15.50
   3   4  12  314.47   16.30
   3   4  12  337.17   19.60
  -4  -4 -12   92.89    7.80
   4   4  12  101.79    7.60
   4   4  12  100.19    9.70
  -5  -4 -12  745.63   34.00
   5   4  12  745.43   36.10
   5   4  12  767.22   33.20
  -6  -4 -12  952.60   38.60
   6   4  12  865.01   36.90
   6   4  12  804.12   39.10
  -7  -4 -12  854.71   36.50
  -8  -4 -12  301.27   14.20
   2  -5 -12   56.79    4.10
   2  -5 -12   52.49    4.30
  -2   5  12   52.49    4.20
   1  -5 -12  102.29    7.20
   1  -5 -12  116.39    6.90
  -1   5  12  104.39    6.90
   0  -5 -12  249.88   12.90
   0  -5 -12  257.47   13.60
  -1  -5 -12  678.43   29.80
  -2  -5 -12  304.67   15.50
   2   5  12  331.07   16.20
   2   5  12  312.27   18.50
  -3  -5 -12    7.30    2.50
  -3  -5 -12    9.40    2.80
   3   5  12    4.80    2.40
   3   5  12    7.70    3.80
  -4  -5 -12  278.37   15.40
   4   5  12  315.87   15.70
   4   5  12  309.17   18.30
  -5  -5 -12  833.42   37.50
   5   5  12  871.11   40.20
   5   5  12  869.71   37.10
  -6  -5 -12   43.50    4.70
   6   5  12   46.10    5.70
   6   5  12   46.60    4.40
  -7  -5 -12  136.39    8.00
   1  -6 -12  888.01   35.80
   1  -6 -12  863.11   35.50
  -1   6  12  861.41   35.80
   0  -6 -12  844.62   35.40
   0  -6 -12  863.91   35.30
   0   6  12  830.12   35.30
  -1  -6 -12   20.20    2.90
  -1  -6 -12   24.50    3.40
  -2  -6 -12  483.55   22.10
  -2  -6 -12  503.85   22.00
  -3  -6 -12 1511.05   64.29
  -3  -6 -12 1565.04   64.59
  -3  -6 -12 1649.63   64.89
   3   6  12 1544.75   67.29
   3   6  12 1626.34   64.99
  -4  -6 -12    6.40    2.20
  -4  -6 -12    8.20    2.40
   4   6  12    7.70    2.50
   4   6  12    6.50    3.20
  -5  -6 -12  743.63   32.20
  -5  -6 -12  763.42   32.90
   5   6  12  760.82   32.60
   5   6  12  749.53   35.00
  -6  -6 -12   11.50    2.30
  -6  -6 -12   20.40    3.20
   6   6  12   15.30    2.50
  -7  -6 -12  110.89    6.50
  -7  -6 -12  106.09    6.00
   0  -7 -12    7.30    1.40
   0  -7 -12   10.50    1.30
   0   7  12    7.80    1.40
  -1  -7 -12  127.49    6.20
  -1  -7 -12  120.09    6.60
   1   7  12  126.69    7.60
  -2  -7 -12 1000.70   39.60
  -2  -7 -12  939.51   39.70
  -3  -7 -12  150.08    7.80
  -3  -7 -12  152.68    8.30
  -4  -7 -12  170.38    9.10
  -4  -7 -12  177.68    8.60
   4   7  12  157.48    8.90
  -5  -7 -12  560.04   23.40
  -5  -7 -12  556.54   24.10
   5   7  12  542.85   24.00
  -6  -7 -12  718.03   29.70
  -6  -7 -12  718.43   28.90
   6   7  12  667.13   29.40
  -7  -7 -12  840.32   32.90
  -7  -7 -12  795.42   33.50
  -3  -8 -12   57.69    3.70
  -4  -8 -12   50.09    3.50
  -5  -8 -12  165.18    8.10
  -6  -8 -12  116.99    6.00
  -3  -5  13   71.39    4.70
  -3  -5  13   69.99    3.70
  -2  -5  13    8.10    1.30
  -2  -5  13    7.70    2.10
  -1  -5  13    4.80    1.60
  -1  -5  13    5.00    1.00
   0  -5  13  130.89    6.80
   0  -5  13  122.39    5.70
  -4  -4  13  156.78    7.60
  -4  -4  13  168.28    8.60
  -4  -4  13  176.18    8.00
  -3  -4  13  504.65   22.40
  -3  -4  13  501.05   21.40
  -3  -4  13  498.35   21.20
  -3  -4  13  497.55   21.00
  -3  -4  13  500.65   22.60
  -3  -4  13  506.65   21.30
  -2  -4  13   17.70    2.30
  -2  -4  13   23.30    3.60
  -2  -4  13   18.50    3.60
  -2  -4  13   23.10    3.60
  -2  -4  13   16.40    2.30
  -2  -4  13   19.70    2.30
  -1  -4  13  904.91   35.50
  -1  -4  13  865.81   37.30
  -1  -4  13  870.11   38.00
  -1  -4  13  833.12   35.60
  -1  -4  13  916.61   35.70
  -1  -4  13  810.72   39.90
   0  -4  13    4.60    2.30
   0  -4  13    3.30    1.20
   0  -4  13    5.20    1.40
   0  -4  13    6.90    1.50
   0  -4  13   10.10    2.80
   1  -4  13   45.40    3.90
   1  -4  13   43.30    3.10
   1  -4  13   46.00    4.80
   1  -4  13   48.10    3.00
   1  -4  13   48.00    4.30
   1  -4  13   43.40    3.20
   2  -4  13  311.87   12.80
   2  -4  13  296.87   13.40
   2  -4  13  297.37   13.70
  -5  -3  13   21.50    3.40
   4   3 -13  103.09   10.00
  -4  -3  13  121.89    6.20
  -4  -3  13  117.19    7.20
  -4  -3  13  128.59    7.30
  -4  -3  13  134.59    8.10
  -4  -3  13  122.59    7.20
   3   3 -13    0.30    4.40
  -3  -3  13    3.80    1.80
  -3  -3  13    1.70    2.50
  -3  -3  13    4.50    2.20
  -3  -3  13    3.60    1.60
  -3  -3  13    4.20    2.30
  -3  -3  13    7.20    2.20
  -3  -3  13    2.90    2.30
  -2  -3  13  172.78    9.30
  -2  -3  13  171.68    8.80
  -2  -3  13  161.28   11.40
  -2  -3  13  166.38   11.10
  -2  -3  13  174.68   10.30
  -2  -3  13  178.68   10.60
  -2  -3  13  165.38   12.50
  -2  -3  13  187.08   10.00
  -1  -3  13   91.19    8.20
  -1  -3  13   84.19    7.50
  -1  -3  13   95.29    5.80
  -1  -3  13   95.69    8.50
  -1  -3  13   89.59    6.80
  -1  -3  13   88.39    5.90
  -1  -3  13   84.29    7.50
  -1  -3  13   99.09    6.80
  -1  -3  13   98.09    9.00
   0  -3  13  306.37   14.50
   0  -3  13  329.87   14.30
   0  -3  13  312.67   15.30
   0  -3  13  306.07   15.20
   0  -3  13  331.97   17.70
   0  -3  13  330.27   17.20
   0  -3  13  270.27   16.00
   0  -3  13  295.87   16.10
   1  -3  13  743.83   32.60
   1  -3  13  689.43   30.30
   1  -3  13  703.93   30.90
   1  -3  13  651.73   31.90
   1  -3  13  750.82   33.50
   1  -3  13  694.93   31.80
   1  -3  13  767.12   30.10
   1  -3  13  757.32   31.40
   2  -3  13  391.36   17.50
   2  -3  13  362.36   16.60
   2  -3  13  368.26   18.50
   2  -3  13  364.46   16.90
   2  -3  13  363.46   17.90
   2  -3  13  392.86   16.30
   3  -3  13   95.69    5.10
   3  -3  13  102.89    5.60
   3  -3  13  105.69    5.90
   3  -3  13   99.69    7.40
   3  -3  13  100.69    6.30
   4   2 -13  528.95   29.00
  -4  -2  13  609.54   26.10
  -4  -2  13  598.84   26.50
   3   2 -13   49.80    8.70
  -3  -2  13   58.39    6.90
  -3  -2  13   70.69    6.20
  -3  -2  13   76.99    6.40
  -3  -2  13   70.99    4.80
  -3  -2  13   62.79    6.20
  -3  -2  13   70.09    8.50
  -2  -2  13    8.80    3.20
  -2  -2  13   10.60    3.70
  -2  -2  13    7.90    3.80
  -2  -2  13   13.40    4.40
  -2  -2  13   13.80    3.30
  -2  -2  13   10.60    2.30
  -2  -2  13   16.60    3.30
  -2  -2  13    8.30    2.80
  -2  -2  13    9.90    3.70
   1   2 -13  133.09   11.20
  -1  -2  13  166.48   10.80
  -1  -2  13  167.18   10.50
  -1  -2  13  171.08    9.50
  -1  -2  13  190.88   12.60
  -1  -2  13  187.78   12.40
  -1  -2  13  156.68    8.80
  -1  -2  13  159.28   12.70
  -1  -2  13  156.58   10.30
  -1  -2  13  158.08   11.50
   0  -2  13  275.17   17.40
   0  -2  13  301.87   14.20
   0  -2  13  298.97   17.00
   0  -2  13  287.97   15.00
   0  -2  13  256.97   15.20
   0  -2  13  284.07   13.30
   0  -2  13  255.57   16.00
   0  -2  13  290.07   14.80
   0  -2  13  295.27   16.90
   0  -2  13  260.77   14.70
   1  -2  13  120.29    8.40
   1  -2  13  112.29    8.80
   1  -2  13  126.89    7.10
   1  -2  13  128.59    8.50
   1  -2  13  115.69   14.50
   1  -2  13  128.29    9.80
   1  -2  13  132.29    7.70
   1  -2  13  118.79    9.40
   1  -2  13  125.19    9.90
   2  -2  13    4.00    1.90
   2  -2  13    0.80    2.40
   2  -2  13    3.80    2.50
   2  -2  13    2.80    2.40
   2  -2  13    4.10    2.20
   2  -2  13    1.90    2.00
   2  -2  13    7.70    1.80
   2  -2  13    5.50    3.00
   3  -2  13   12.20    2.80
   3  -2  13   10.30    2.60
   3  -2  13    7.50    2.90
   3  -2  13    7.40    1.90
   3  -2  13    8.60    2.80
   3  -2  13   12.90    3.00
   3  -2  13    6.70    1.60
   4  -2  13  509.25   21.30
   4  -2  13  489.05   21.50
   4  -2  13  513.95   21.60
   4  -2  13  456.75   20.20
   4   1 -13  195.08   13.80
  -4  -1  13  203.78    9.50
   3   1 -13  707.63   36.00
  -3  -1  13  650.63   34.90
  -3  -1  13  728.03   32.30
  -3  -1  13  717.73   29.60
  -2  -1  13   25.40    4.40
  -2  -1  13   27.80    6.30
  -2  -1  13   32.30    6.20
  -2  -1  13   35.90    5.60
  -2  -1  13   30.90    3.70
  -2  -1  13   34.50    6.00
  -2  -1  13   32.00    3.60
   1   1 -13 2082.39   98.39
  -1  -1  13 2245.08   98.29
  -1  -1  13 2478.15  101.29
  -1  -1  13 2256.47   98.29
  -1  -1  13 2513.55   99.99
  -1  -1  13 2436.66   95.99
  -1  -1  13 2436.06  100.59
  -1  -1  13 2616.34   98.89
  -1  -1  13 2418.06   97.29
  -1  -1  13 2478.45  102.79
   0  -1  13    3.30    2.20
   0  -1  13    3.70    2.40
   0  -1  13   12.80    3.60
   0  -1  13    6.80    3.30
   0  -1  13   10.40    3.00
   0  -1  13    8.30    2.10
   0  -1  13    2.60    2.80
   0  -1  13    4.20    3.10
   0  -1  13    6.40    3.70
   0  -1  13   12.90    3.00
   0  -1  13    7.80    2.20
   1  -1  13   73.79    7.10
   1  -1  13   71.09    5.00
   1  -1  13   75.59    5.90
   1  -1  13   66.79    6.60
   1  -1  13   71.19    8.30
   1  -1  13   80.09    6.70
   1  -1  13   69.09    6.20
   1  -1  13   76.59    7.80
   1  -1  13   77.09    7.90
   1  -1  13   66.99    7.30
   1  -1  13   71.19    5.10
   2  -1  13  435.36   23.40
   2  -1  13  468.65   22.90
   2  -1  13  435.36   19.60
   2  -1  13  450.55   23.20
   2  -1  13  459.55   22.10
   2  -1  13  440.96   19.30
   2  -1  13  452.45   21.40
   2  -1  13  451.95   20.60
   2  -1  13  457.95   22.00
   3  -1  13  430.26   20.30
   3  -1  13  457.05   21.80
   3  -1  13  461.55   21.00
   3  -1  13  457.65   22.00
   3  -1  13  446.56   18.40
   3  -1  13  463.85   22.50
   3  -1  13  487.85   21.90
   3  -1  13  411.16   22.80
   3  -1  13  446.96   19.40
   4  -1  13  714.23   31.00
   4  -1  13  752.72   31.90
   4  -1  13  717.43   31.90
   5  -1  13    7.00    1.90
   5  -1  13    9.60    2.10
   5  -1  13    6.60    1.50
  -5   0  13    5.70    1.20
   4   0 -13   15.20    4.50
  -4   0  13   14.90    2.80
   3   0 -13  368.96   21.60
  -3   0  13  379.36   17.40
  -3   0  13  327.97   17.90
   2   0 -13  322.67   20.80
  -2   0  13  305.77   20.50
  -2   0  13  312.37   18.60
  -2   0  13  369.86   18.30
  -2   0  13  319.37   16.40
   1   0 -13    4.30    3.50
  -1   0  13    6.90    3.10
  -1   0  13    7.80    4.40
  -1   0  13    5.90    3.60
  -1   0  13    7.50    3.20
  -1   0  13   12.40    3.40
   0   0 -13  735.63   34.10
   0   0  13  801.32   34.10
   0   0  13  723.93   35.50
   0   0  13  665.73   31.00
   0   0  13  752.72   32.60
   0   0  13  683.73   33.70
   0   0  13  784.62   38.00
   1   0  13  479.45   22.30
   1   0  13  442.36   20.40
   1   0  13  461.05   24.60
   1   0  13  494.35   23.10
   1   0  13  444.26   23.10
   1   0  13  463.55   21.80
   1   0  13  488.85   26.50
   2   0  13  995.00   45.00
   2   0  13  978.60   41.20
   2   0  13 1014.90   41.40
   2   0  13  887.91   38.80
   2   0  13  869.81   40.00
   2   0  13  915.21   41.60
   2   0  13  953.00   40.80
   3   0  13   17.00    3.70
   3   0  13   16.80    3.30
   3   0  13   23.50    3.50
   4   0  13  238.28   13.80
   4   0  13  261.37   13.30
   4   0  13  239.38   11.90
   4   0  13  247.08   12.60
   5   0  13  826.72   36.10
   5   0  13  945.01   37.10
   5   0  13  851.71   35.10
   6   0  13    8.10    1.90
   4  -1 -13  889.11   39.30
  -4   1  13  890.31   37.30
   3  -1 -13  746.53   35.90
  -3   1  13  767.32   33.30
   2  -1 -13    8.40    4.50
   2  -1 -13   10.40    3.10
  -2   1  13   18.70    4.10
  -2   1  13   12.00    3.60
  -2   1  13   11.90    4.40
   1  -1 -13  194.68   12.10
   1  -1 -13  191.58   14.70
  -1   1  13  184.98   17.80
  -1   1  13  201.18   12.40
  -1   1  13  186.08   14.80
  -1   1  13  183.78   11.80
   0  -1 -13  852.91   39.80
   0   1  13  987.80   40.40
   0   1  13  832.72   40.90
   0   1  13  937.81   44.20
   0   1  13  876.11   39.20
   0   1  13  849.22   39.50
  -1  -1 -13   16.00    3.90
   1   1  13   18.20    4.20
   1   1  13   19.90    5.20
   1   1  13   25.90    4.70
   2   1  13  237.98   13.30
   2   1  13  230.98   16.00
   2   1  13  223.48   12.50
   2   1  13  216.78   12.80
   3   1  13    9.20    2.80
   3   1  13   15.70    3.70
   3   1  13    6.30    2.40
   3   1  13    9.70    3.90
   4   1  13  551.94   24.50
   4   1  13  516.25   23.90
  -5  -1 -13    8.60    3.00
   5   1  13   10.00    2.50
   5   1  13    7.00    2.30
   5   1  13    7.30    2.00
  -6  -1 -13   81.19    5.90
   6   1  13   88.89    4.80
   6   1  13   82.79    5.20
  -4   2  13   13.40    2.30
   3  -2 -13  431.06   21.70
   2  -2 -13  135.79   10.90
   2  -2 -13  139.69    8.70
   1  -2 -13 1839.32   76.99
   1  -2 -13 1818.92   74.09
  -1   2  13 1629.54   77.19
  -1   2  13 1866.51   74.59
   0  -2 -13  168.58   11.10
   0   2  13  179.18   13.90
   0   2  13  166.48   11.10
  -1  -2 -13  144.39   10.30
   1   2  13  141.79   12.30
   1   2  13  154.08   10.10
  -2  -2 -13 2551.04  106.19
   2   2  13 2470.75  105.69
   2   2  13 2587.44  109.99
   2   2  13 2786.02  111.49
  -3  -2 -13  976.20   42.40
   3   2  13  945.01   42.00
   3   2  13  965.90   45.60
   3   2  13  983.30   42.20
  -4  -2 -13 1602.74   65.89
   4   2  13 1545.75   65.39
   4   2  13 1662.73   65.99
   4   2  13 1524.25   68.49
  -5  -2 -13  329.37   17.50
   5   2  13  344.67   16.60
  -6  -2 -13  135.39    8.50
   6   2  13  140.19    7.80
   7   2  13    3.20    1.10
   3  -3 -13  121.09    7.90
   2  -3 -13   87.89    6.20
   1  -3 -13  297.37   15.00
   0  -3 -13   65.29    6.00
   0   3  13   64.39    6.30
   0   3  13   71.49    8.30
  -1  -3 -13   53.89    6.10
   1   3  13   62.39    6.00
   1   3  13   61.79    8.00
  -2  -3 -13  333.97   18.10
   2   3  13  334.37   20.70
   2   3  13  382.36   18.40
  -3  -3 -13   32.90    4.90
   3   3  13   36.00    6.10
   3   3  13   30.10    4.70
  -4  -3 -13  156.68   10.00
   4   3  13  155.38   11.90
   4   3  13  164.48    9.90
  -5  -3 -13 1711.83   65.89
   5   3  13 1507.45   64.29
   5   3  13 1493.65   66.89
  -6  -3 -13  235.48   12.30
   6   3  13  222.88   11.70
  -7  -3 -13 1118.29   46.00
   7   3  13 1128.79   45.60
   2  -4 -13   46.90    4.00
   1  -4 -13   97.99    6.50
   0  -4 -13 2106.59   85.49
  -1  -4 -13    9.30    2.80
   1   4  13    9.10    3.70
   1   4  13   15.70    3.30
  -2  -4 -13  400.16   20.80
   2   4  13  482.45   21.60
  -3  -4 -13   16.50    3.50
   3   4  13   11.60    2.90
   3   4  13   12.50    4.30
  -4  -4 -13  353.16   18.00
  -4  -4 -13  363.46   21.10
   4   4  13  380.56   20.80
   4   4  13  369.96   18.00
  -5  -4 -13    1.90    2.20
   5   4  13    3.70    2.00
   5   4  13    3.70    2.60
  -6  -4 -13   30.30    4.00
   6   4  13   24.10    3.20
  -7  -4 -13   45.20    3.80
   2  -5 -13   53.99    3.70
   2  -5 -13   52.49    3.40
   1  -5 -13 1056.09   42.90
   1  -5 -13 1031.30   43.20
   0  -5 -13  604.24   26.20
   0  -5 -13  602.34   26.90
  -1  -5 -13   69.19    5.50
  -2  -5 -13  464.15   22.00
   2   5  13  515.55   22.50
   2   5  13  483.35   24.90
  -3  -5 -13 1769.42   75.99
   3   5  13 1855.91   79.59
   3   5  13 2004.90   76.99
  -4  -5 -13  325.27   16.10
   4   5  13  340.87   16.30
   4   5  13  319.37   18.40
  -5  -5 -13  617.04   26.50
   5   5  13  566.94   28.30
   5   5  13  595.04   26.10
  -6  -5 -13  220.88   11.10
   6   5  13  202.88   10.40
  -7  -5 -13    6.40    1.60
   1  -6 -13  304.57   13.10
   1  -6 -13  303.67   12.90
   0  -6 -13   11.30    1.90
   0  -6 -13   10.50    1.80
  -1  -6 -13  116.39    6.70
  -1  -6 -13  113.39    6.70
  -2  -6 -13  325.97   15.00
  -2  -6 -13  324.87   15.20
  -3  -6 -13   23.20    2.90
  -3  -6 -13   30.00    3.40
   3   6  13   30.20    3.50
   3   6  13   16.50    4.80
  -4  -6 -13   27.80    3.40
  -4  -6 -13   29.20    3.50
   4   6  13   28.80    3.40
   4   6  13   22.30    4.30
  -5  -6 -13  715.43   30.30
  -5  -6 -13  711.63   30.10
   5   6  13  698.43   30.20
  -6  -6 -13  358.96   15.80
  -6  -6 -13  359.86   16.10
   6   6  13  339.57   15.80
  -7  -6 -13  513.65   22.20
  -7  -6 -13  479.75   20.90
  -1  -7 -13  123.09    5.80
  -1  -7 -13  126.99    6.20
  -2  -7 -13  457.35   18.90
  -2  -7 -13  441.56   19.00
  -3  -7 -13  205.78    9.60
  -4  -7 -13   83.59    4.70
  -4  -7 -13   78.19    5.00
   4   7  13   80.79    6.00
  -5  -7 -13  308.57   13.30
  -5  -7 -13  297.27   13.70
  -6  -7 -13  302.47   13.50
  -6  -7 -13  309.27   13.00
  -2  -4  14   29.50    3.30
  -2  -4  14   22.80    2.00
  -2  -4  14   28.40    1.90
  -1  -4  14   24.20    3.30
  -1  -4  14   26.50    3.00
  -1  -4  14   28.40    1.90
  -1  -4  14   25.30    2.10
   0  -4  14   21.00    2.90
   0  -4  14   19.30    1.80
  -4  -3  14  700.03   29.50
   3   3 -14   36.40    6.00
  -3  -3  14   46.10    3.20
  -3  -3  14   49.70    4.20
  -3  -3  14   55.39    3.90
  -3  -3  14   52.79    3.90
  -2  -3  14   35.60    3.50
  -2  -3  14   33.70    3.90
  -2  -3  14   32.80    3.10
  -2  -3  14   35.20    2.90
  -2  -3  14   35.00    4.60
  -2  -3  14   29.80    3.90
  -1  -3  14  981.00   41.40
  -1  -3  14  988.80   42.60
  -1  -3  14  934.81   40.30
  -1  -3  14 1016.10   41.00
  -1  -3  14 1044.00   40.20
  -1  -3  14  947.71   41.30
   0   3 -14  280.27   16.20
   0  -3  14  362.66   14.90
   0  -3  14  324.77   15.00
   0  -3  14  348.07   15.50
   0  -3  14  342.17   16.10
   0  -3  14  364.46   17.40
   1  -3  14  442.16   20.40
   1  -3  14  432.86   18.20
   1  -3  14  411.06   18.40
   1  -3  14  427.46   19.40
   1  -3  14  443.96   19.10
   1  -3  14  415.36   18.60
   2  -3  14   65.79    4.00
   2  -3  14   70.09    4.80
   2  -3  14   63.79    4.40
   2  -3  14   68.29    3.80
  -4  -2  14   11.10    2.00
   3   2 -14  408.56   22.80
  -3  -2  14  419.76   19.40
  -3  -2  14  439.26   20.00
  -2  -2  14  106.39    7.20
  -2  -2  14  113.19    8.40
  -2  -2  14  106.99    6.00
  -2  -2  14  108.39    7.30
  -2  -2  14  109.29    6.60
  -2  -2  14  102.39    7.50
  -1  -2  14  302.77   15.60
  -1  -2  14  324.97   17.50
  -1  -2  14  313.67   13.90
  -1  -2  14  301.77   15.20
  -1  -2  14  289.67   18.00
  -1  -2  14  311.87   14.50
  -1  -2  14  324.17   16.80
  -1  -2  14  270.77   16.10
  -1  -2  14  314.37   15.50
   0   2 -14   17.00    4.10
   0  -2  14   22.00    4.10
   0  -2  14   11.80    2.90
   0  -2  14   13.40    2.40
   0  -2  14   21.50    3.70
   0  -2  14   16.30    4.10
   0  -2  14   11.50    3.30
   0  -2  14   18.10    2.50
   0  -2  14   16.00    4.30
   0  -2  14   14.00    2.90
   1  -2  14  103.09    5.80
   1  -2  14   98.49    7.90
   1  -2  14  101.39    6.80
   1  -2  14  111.49    7.50
   1  -2  14   92.09    7.60
   1  -2  14  100.29    6.30
   1  -2  14  100.79    6.80
   1  -2  14  101.49    8.10
   2  -2  14 1334.47   59.59
   2  -2  14 1492.55   60.29
   2  -2  14 1462.15   57.79
   2  -2  14 1447.86   58.99
   2  -2  14 1373.36   58.19
   2  -2  14 1499.35   59.39
   2  -2  14 1483.65   59.09
   3  -2  14    3.40    1.70
   3  -2  14    2.90    2.30
   3  -2  14    1.50    1.00
   3  -2  14    2.00    1.40
   3  -2  14    9.20    1.90
   4   1 -14  120.69    9.00
   3   1 -14  773.22   37.10
  -3  -1  14  803.52   31.30
  -3  -1  14  774.72   34.20
   2   1 -14    6.70    4.70
  -2  -1  14    4.50    2.20
  -2  -1  14   12.30    3.30
  -2  -1  14    7.40    1.60
  -2  -1  14    9.40    4.10
   1   1 -14    6.20    3.40
  -1  -1  14    6.00    3.50
  -1  -1  14    6.60    1.60
  -1  -1  14    8.40    2.80
  -1  -1  14    7.60    2.90
  -1  -1  14    5.20    1.70
  -1  -1  14    8.60    3.20
  -1  -1  14    9.10    3.70
   0   1 -14   11.30    4.00
   0  -1  14    4.70    2.80
   0  -1  14    3.10    2.30
   0  -1  14    2.70    2.50
   0  -1  14    6.90    1.50
   0  -1  14    4.40    3.20
   0  -1  14    4.10    1.70
   0  -1  14   10.30    2.90
   0  -1  14   10.30    2.90
   1  -1  14  159.18    9.60
   1  -1  14  153.98    6.70
   1  -1  14  148.79    8.50
   1  -1  14  142.69    9.00
   1  -1  14  140.29    7.70
   1  -1  14  162.48    9.60
   1  -1  14  146.59   11.50
   1  -1  14  152.88   10.80
   1  -1  14  135.69   10.30
   1  -1  14  147.99    9.40
   1  -1  14  152.98   10.20
   2  -1  14   55.69    5.00
   2  -1  14   49.10    5.50
   2  -1  14   57.99    5.40
   2  -1  14   60.09    6.30
   2  -1  14   52.79    3.80
   2  -1  14   48.90    5.80
   2  -1  14   51.89    5.30
   3  -1  14   55.59    5.00
   3  -1  14   52.99    5.10
   3  -1  14   64.99    4.80
   3  -1  14   56.89    5.60
   4  -1  14  161.68    8.60
   4  -1  14  158.48    8.50
   4  -1  14  160.88    8.20
   4   0 -14  593.54   27.90
  -4   0  14  616.84   24.70
   3   0 -14  269.07   15.90
  -3   0  14  285.87   12.60
  -3   0  14  239.78   13.50
   2   0 -14  132.59   11.60
  -2   0  14  130.39   11.10
  -2   0  14  132.49    9.00
  -2   0  14  136.89    8.00
   1   0 -14  935.01   41.70
   1   0 -14  831.22   37.80
  -1   0  14  851.21   39.10
  -1   0  14  812.22   37.90
  -1   0  14  866.81   38.10
  -1   0  14  811.72   41.10
  -1   0  14  875.51   36.40
   0   0 -14 1136.99   49.20
   0   0  14 1113.99   47.10
   0   0  14 1129.89   48.90
   0   0  14 1105.99   52.29
   0   0  14 1175.08   48.90
   0   0  14 1120.09   50.19
  -1   0 -14  576.44   26.70
   1   0  14  576.04   26.10
   1   0  14  561.34   27.60
   1   0  14  551.44   26.10
   1   0  14  535.75   28.90
   1   0  14  533.15   24.40
   2   0  14   47.20    4.20
   2   0  14   53.19    5.30
   2   0  14   50.49    6.10
   2   0  14   48.50    6.80
   2   0  14   54.19    5.10
   3   0  14  574.24   25.10
   3   0  14  575.84   25.00
   3   0  14  543.65   23.70
   3   0  14  552.04   26.60
   4   0  14   32.40    2.30
   4   0  14   27.10    4.00
   4   0  14   29.70    3.60
   4   0  14   23.20    3.00
  -5   0 -14  256.17   11.50
   5   0  14  235.78   11.20
  -4   1  14   29.70    2.50
   3  -1 -14  199.78   12.20
  -3   1  14  191.98   10.00
   2  -1 -14  341.97   15.90
   2  -1 -14  324.97   18.50
  -2   1  14  294.37   16.00
  -2   1  14  336.57   16.00
   1  -1 -14  250.47   13.70
   1  -1 -14  238.48   16.00
  -1   1  14  232.58   16.20
  -1   1  14  255.07   14.00
  -1   1  14  256.87   13.30
   0  -1 -14   17.80    4.20
   0  -1 -14   24.40    6.00
   0   1  14   19.50    3.50
   0   1  14   16.90    3.60
   0   1  14   26.70    5.20
   0   1  14   26.20    6.00
   0   1  14   18.50    3.60
   0   1  14   21.20    4.20
  -1  -1 -14   22.70    4.30
   1   1  14   15.10    3.50
   1   1  14   11.50    3.60
   1   1  14   16.50    5.00
   1   1  14   16.80    3.50
  -2  -1 -14 1872.61   75.39
   2   1  14 1838.02   73.99
   2   1  14 1730.73   74.59
   2   1  14 1723.93   77.89
   2   1  14 1873.41   76.59
  -3  -1 -14  290.77   15.10
   3   1  14  291.87   14.00
   3   1  14  258.67   14.00
   3   1  14  268.77   16.60
  -4  -1 -14  531.45   24.50
   4   1  14  544.05   23.50
  -5  -1 -14  350.36   16.00
   5   1  14  334.77   16.60
   5   1  14  363.66   15.30
   3  -2 -14 1362.66   56.79
  -3   2  14 1384.26   55.79
   2  -2 -14   43.30    5.90
   2  -2 -14   44.70    4.40
  -2   2  14   45.90    5.00
   1  -2 -14  311.87   14.80
  -1   2  14  303.97   15.10
  -1   2  14  263.37   18.00
  -1   2  14  266.57   14.70
   0  -2 -14   16.30    3.40
   0   2  14   18.40    3.70
   0   2  14   22.00    3.80
   0   2  14   17.10    3.50
   0   2  14   19.70    4.90
  -1  -2 -14  277.27   15.00
   1   2  14  259.47   14.30
   1   2  14  262.37   14.50
   1   2  14  280.27   15.60
   1   2  14  258.87   17.20
  -2  -2 -14  133.39    9.60
   2   2  14  130.99   11.20
   2   2  14  140.39    9.10
   2   2  14  132.39    8.90
  -3  -2 -14  115.29    8.60
   3   2  14  111.69    7.80
   3   2  14  112.69    7.80
   3   2  14  110.19    9.90
  -4  -2 -14   15.90    3.50
   4   2  14    7.60    3.10
   4   2  14   11.00    2.60
   4   2  14   12.60    3.10
   5   2  14  621.84   26.70
  -6  -2 -14   78.39    6.30
   6   2  14   79.49    4.50
   2  -3 -14  170.88    8.90
   1  -3 -14  431.56   19.70
   0  -3 -14 1780.62   68.69
   0   3  14 1592.94   71.19
   0   3  14 1627.24   68.59
  -1  -3 -14   11.80    3.10
   1   3  14   12.90    3.90
   1   3  14    7.40    2.60
  -2  -3 -14  134.99    9.40
   2   3  14  129.69   11.00
   2   3  14  143.69    9.10
  -3  -3 -14  883.21   38.80
   3   3  14  902.81   38.60
   3   3  14  884.81   41.60
  -4  -3 -14    2.30    2.30
   4   3  14    6.90    2.30
   4   3  14    2.80    2.50
   5   3  14  807.02   32.10
   5   3  14  690.83   31.50
  -6  -3 -14   35.70    3.50
   6   3  14   42.30    3.50
   2  -4 -14   98.19    5.40
   1  -4 -14  408.76   18.20
   0  -4 -14   23.00    3.20
  -1  -4 -14   64.69    5.30
   1   4  14   49.30    6.30
   1   4  14   59.79    5.20
  -2  -4 -14 1148.39   49.50
   2   4  14 1222.88   49.99
   2   4  14 1182.48   52.69
  -3  -4 -14  527.85   24.60
   3   4  14  571.84   25.10
   3   4  14  545.85   27.50
  -4  -4 -14  448.26   19.90
   4   4  14  420.86   22.40
   4   4  14  445.56   20.30
  -5  -4 -14  332.87   15.30
   5   4  14  306.07   14.90
  -6  -4 -14  454.25   19.90
   1  -5 -14   56.59    4.00
   1  -5 -14   56.39    3.70
   0  -5 -14  268.07   13.10
   0  -5 -14  279.17   12.80
  -1  -5 -14  550.84   23.90
  -2  -5 -14  277.97   13.30
   2   5  14  275.17   13.50
  -3  -5 -14   97.39    6.30
   3   5  14  107.49    6.80
   3   5  14  101.99    8.60
   4   5  14   17.10    3.00
  -5  -5 -14  380.16   17.00
   5   5  14  368.86   17.00
  -6  -5 -14   10.20    1.90
   0  -6 -14 1037.20   42.60
   0  -6 -14 1080.79   42.50
  -1  -6 -14    5.10    1.40
  -1  -6 -14    4.10    1.30
  -2  -6 -14  181.18    9.10
  -2  -6 -14  179.08    8.80
  -3  -6 -14  538.55   22.90
  -3  -6 -14  570.34   23.50
   3   6  14  524.55   23.30
  -4  -6 -14  121.49    7.00
   4   6  14  129.79    7.10
  -5  -6 -14  795.72   32.80
  -5  -6 -14  789.32   32.70
  -6  -6 -14  116.09    6.20
  -6  -6 -14  115.59    6.10
  -2  -7 -14  241.98   10.20
  -3  -7 -14  240.58   10.50
  -4  -7 -14   70.69    3.90
  -5  -7 -14  103.39    5.00
  -2  -3  15  166.28    7.60
  -2  -3  15  160.78    7.60
  -1  -3  15    7.50    1.90
  -1  -3  15    6.70    1.20
  -1  -3  15    8.80    1.40
   0  -3  15   61.49    3.50
   0  -3  15   60.79    3.60
   0  -3  15   64.59    4.30
   1  -3  15  152.98    7.90
   2   2 -15   57.89    7.10
  -2  -2  15   51.59    4.00
  -1  -2  15   59.09    5.30
  -1  -2  15   52.79    3.50
  -1  -2  15   57.29    4.60
  -1  -2  15   55.19    5.80
  -1  -2  15   71.69    6.20
  -1  -2  15   56.79    4.30
   0   2 -15  424.86   21.00
   0  -2  15  460.85   21.70
   0  -2  15  481.05   20.50
   0  -2  15  463.75   19.80
   0  -2  15  459.45   21.20
   0  -2  15  465.35   20.30
   0  -2  15  462.45   19.30
  -1   2 -15    1.50    2.20
   1  -2  15    3.10    1.80
   1  -2  15    3.80    1.20
   1  -2  15    5.70    2.40
   1  -2  15    5.40    1.70
   1  -2  15    1.70    1.60
  -2   2 -15  256.87   12.00
   2  -2  15  257.67   11.60
   2  -2  15  220.18   11.30
   2  -2  15  246.98   11.30
   2   1 -15   90.89    8.80
  -2  -1  15   88.99    6.00
  -2  -1  15   93.99    6.40
   1   1 -15 1396.26   56.49
  -1  -1  15 1237.18   53.09
  -1  -1  15 1272.17   52.39
  -1  -1  15 1226.18   53.89
  -1  -1  15 1220.38   52.79
   0   1 -15  298.17   15.00
   0  -1  15  290.07   13.90
   0  -1  15  259.57   14.20
   0  -1  15  273.07   14.00
   0  -1  15  263.37   15.00
  -1   1 -15   76.99    6.80
   1  -1  15   80.29    5.80
   1  -1  15   74.79    6.30
   1  -1  15   68.29    5.90
   1  -1  15   70.39    5.60
   1  -1  15   69.39    6.40
  -2   1 -15  421.16   18.70
   2  -1  15  356.06   18.90
   2  -1  15  414.86   18.00
   2  -1  15  387.56   17.60
   2  -1  15  379.56   18.90
  -3   1 -15  433.76   18.40
   3  -1  15  403.56   17.60
   3  -1  15  385.86   18.80
   3  -1  15  403.66   17.90
   2   0 -15  117.89    9.30
  -2   0  15  121.69    7.60
  -2   0  15  125.89    6.20
   1   0 -15    4.10    2.40
   1   0 -15    5.20    3.70
  -1   0  15    6.90    1.70
  -1   0  15    5.90    2.50
  -1   0  15    4.90    2.30
   0   0 -15   90.19    7.20
   0   0  15   78.89    7.10
   0   0  15   81.09    4.90
   0   0  15   76.69    6.30
   0   0  15   71.89    6.20
   0   0  15   69.59    7.80
  -1   0 -15   25.40    4.30
   1   0  15   19.50    3.50
   1   0  15   21.20    3.50
   1   0  15   18.90    2.40
   1   0  15   25.20    4.60
   1   0  15   16.20    4.20
  -2   0 -15  684.33   28.70
   2   0  15  632.94   29.10
   2   0  15  590.94   27.30
   2   0  15  615.94   25.70
  -3   0 -15   26.60    3.80
   3   0  15   21.60    3.60
  -4   0 -15   78.79    5.20
  -3   1  15 1234.88   49.30
   2  -1 -15   15.70    3.80
  -2   1  15   17.70    2.50
   1  -1 -15  107.19    6.90
   1  -1 -15   97.19    8.60
  -1   1  15   96.39    6.90
  -1   1  15   99.29    6.40
   0  -1 -15 1500.65   59.39
   0   1  15 1334.17   61.69
   0   1  15 1439.76   59.99
   0   1  15 1445.36   58.09
   0   1  15 1373.66   59.09
  -1  -1 -15   14.70    3.60
   1   1  15   23.20    3.50
   1   1  15   17.90    3.00
   1   1  15   20.20    4.90
   1   1  15   14.30    3.60
   1   1  15   14.20    2.70
  -2  -1 -15  519.55   23.30
   2   1  15  519.95   23.90
   2   1  15  454.55   22.10
   2   1  15  515.35   21.60
   2   1  15  431.06   24.40
  -3  -1 -15  109.59    7.40
   3   1  15  105.19    5.90
   3   1  15   84.49    6.10
   3   1  15   96.39    7.40
  -4  -1 -15   43.50    4.20
   4   1  15   39.70    4.30
   4   1  15   45.30    3.10
  -2   2  15  148.79    7.90
   1  -2 -15  677.23   28.10
  -1   2  15  679.93   28.20
  -1   2  15  600.94   28.10
   0  -2 -15  234.78   12.20
   0   2  15  229.58   11.90
   0   2  15  221.38   19.40
   0   2  15  225.88   12.20
  -1  -2 -15   14.30    3.30
   1   2  15   10.80    2.80
   1   2  15   10.70    3.60
   1   2  15   14.80    3.10
   1   2  15   12.30    3.20
  -2  -2 -15  364.66   17.70
   2   2  15  335.37   17.10
   2   2  15  313.57   19.10
   2   2  15  368.46   16.80
   2   2  15  379.36   18.40
  -3  -2 -15  996.80   40.90
   3   2  15 1009.70   39.90
   3   2  15  847.92   39.90
  -4  -2 -15  273.17   13.20
   4   2  15  236.48   12.60
   4   2  15  285.57   12.60
   5   2  15 1193.78   49.70
   5   2  15 1215.58   48.40
   1  -3 -15  364.56   15.80
  -1   3  15  336.47   16.10
   0  -3 -15  192.38    9.70
   0   3  15  165.58    9.50
  -1  -3 -15    9.50    2.60
   1   3  15    8.00    3.80
   1   3  15   11.80    2.90
   1   3  15   16.20    5.10
  -2  -3 -15  759.22   31.60
   2   3  15  740.03   31.60
   2   3  15  733.53   31.20
   2   3  15  667.33   33.70
   2   3  15  710.33   31.80
  -3  -3 -15   37.60    4.40
   3   3  15   35.20    4.00
   3   3  15   33.10    4.20
   3   3  15   30.10    7.20
  -4  -3 -15   49.99    4.50
   4   3  15   49.70    4.20
   4   3  15   47.80    4.40
   5   3  15  523.55   22.30
   1  -4 -15   10.60    1.60
   0  -4 -15 1175.78   47.90
  -1  -4 -15  240.88   11.50
   1   4  15  220.98   11.40
  -2  -4 -15 1031.10   42.50
   2   4  15 1012.60   42.70
  -3  -4 -15  557.14   24.10
   3   4  15  548.55   24.30
  -4  -4 -15  114.79    6.50
   4   4  15  118.49    6.90
   5   4  15  124.19    6.90
   0  -5 -15  192.08    8.90
  -1  -5 -15   16.40    2.20
  -2  -5 -15  131.89    7.10
  -3  -5 -15 1457.35   59.29
   3   5  15 1494.95   59.79
   4   5  15    8.10    2.00
  -2  -6 -15   61.49    3.60
  -2  -6 -15   62.89    3.90
  -3  -6 -15  151.58    7.50
  -4  -6 -15   10.10    1.70
   0  -2  16   10.30    2.40
  -1  -1  16   99.79    5.70
   0   1 -16    8.40    2.20
   0  -1  16    8.10    2.30
   0  -1  16    6.30    1.70
  -1   1 -16  261.67   12.40
   1  -1  16  254.07   11.80
   1  -1  16  243.28   12.60
  -2   1 -16    7.50    1.90
   2  -1  16    2.70    1.60
   0   0 -16 1312.17   52.19
   0   0 -16 1250.97   56.99
   0   0  16 1199.68   52.49
   0   0  16 1317.27   54.39
  -1   0 -16   70.79    5.40
   1   0  16   62.99    5.50
  -2   0 -16  495.55   21.70
   2   0  16  476.55   22.10
  -3   0 -16  197.08    9.70
   1  -1 -16  126.69    6.80
  -1   1  16  123.79    6.10
   0  -1 -16  100.29    6.40
   0   1  16   99.09    5.30
   0   1  16   90.39    6.40
   0   1  16   96.69    6.30
  -1  -1 -16   32.00    3.90
   1   1  16   26.80    3.50
   1   1  16   26.80    3.90
   1   1  16   28.40    2.70
  -2  -1 -16  238.38   12.10
   2   1  16  232.28   10.40
   2   1  16  235.18   13.30
   2   1  16  232.28   12.40
  -3  -1 -16  241.98   11.70
   3   1  16  233.58    9.80
   3   1  16  239.88   12.10
   1  -2 -16  362.36   15.90
  -1   2  16  372.46   15.90
   0  -2 -16   41.50    3.90
   0   2  16   39.90    3.50
  -1  -2 -16  152.28    8.30
   1   2  16  149.29    7.70
   1   2  16  131.49    8.20
   1   2  16  144.99    8.20
  -2  -2 -16  166.08    9.00
   2   2  16  159.58    9.10
   2   2  16  166.28    8.20
   2   2  16  162.88    8.20
   2   2  16  142.69    8.50
  -3  -2 -16   74.59    5.40
   3   2  16   75.89    4.60
   3   2  16   79.49    5.70
  -4  -2 -16   31.10    3.00
   4   2  16   33.80    2.50
   4   2  16   38.70    3.60
   0  -3 -16 1451.65   56.59
   0   3  16 1359.46   56.49
  -1  -3 -16   12.30    2.20
   1   3  16   15.60    2.40
  -2  -3 -16  485.25   20.40
   2   3  16  454.15   20.00
   2   3  16  446.96   20.30
   2   3  16  469.85   20.00
   2   3  16  442.36   20.40
  -3  -3 -16  417.56   18.70
   3   3  16  416.76   19.10
   3   3  16  457.25   21.40
   3   3  16  408.66   18.30
  -4  -3 -16  247.38   11.80
   4   3  16  252.57   11.40
   4   3  16  260.87   12.30
   0  -4 -16  105.89    5.40
  -1  -4 -16    8.20    1.60
  -2  -4 -16  274.87   12.50
  -3  -4 -16  514.25   21.50
   3   4  16  499.25   21.60
   4   4  16  402.76   19.10
  -2  -5 -16   25.00    2.20
  -1  -1 -17  215.28   10.40
  -2  -1 -17  603.74   26.70
  -1  -2 -17    7.20    1.50
   1   2  17    5.70    1.00
  -2  -2 -17   15.90    2.10
   2   2  17   16.70    1.50
;
_shelx_hkl_checksum              98560
#END Tags that were not found in dictionaries
loop_
_space_group_symop_operation_xyz
'x, y, z'
'-x, -y, -z'
loop_
_atom_site_label
_atom_site_type_symbol
_atom_site_fract_x
_atom_site_fract_y
_atom_site_fract_z
_atom_site_U_iso_or_equiv
_atom_site_adp_type
_atom_site_occupancy
_atom_site_site_symmetry_order
_atom_site_calc_flag
_atom_site_refinement_flags_posn
_atom_site_refinement_flags_adp
Cd1 Cd 0.34476(3) 0.33256(3) 0.24535(2) 0.01196(10) Uani 1 1 d . .
Se1 Se 0.72122(5) 0.29094(5) 0.19065(3) 0.01526(11) Uani 1 1 d . .
Se2 Se 0.88494(5) -0.01135(5) 0.18881(3) 0.01598(11) Uani 1 1 d . .
O1 O 0.3857(3) 0.1559(3) 0.40705(18) 0.0180(5) Uani 1 1 d . .
O2 O 0.1048(4) 0.3316(4) 0.3720(2) 0.0267(6) Uani 1 1 d . .
O3 O 0.1588(4) 0.1707(4) 0.5151(2) 0.0337(7) Uani 1 1 d . .
O4 O 0.3052(4) 0.4922(4) 0.0755(2) 0.0227(6) Uani 1 1 d . .
O5 O 0.0688(4) 0.5453(4) 0.18113(19) 0.0251(6) Uani 1 1 d . .
O6 O 0.0312(4) 0.6826(4) 0.0326(2) 0.0363(8) Uani 1 1 d . .
N1 N 0.3920(4) 0.5152(4) 0.3317(2) 0.0132(6) Uani 1 1 d . .
N2 N 0.4015(4) 0.0846(4) 0.1794(2) 0.0124(6) Uani 1 1 d . .
N3 N 0.2143(4) 0.2191(4) 0.4333(2) 0.0182(6) Uani 1 1 d . .
N4 N 0.1343(4) 0.5765(4) 0.0933(2) 0.0199(7) Uani 1 1 d . .
C1 C 0.2495(5) 0.6647(5) 0.3555(3) 0.0174(7) Uani 1 1 d . .
H1 H 0.1288 0.6886 0.3399 0.021 Uiso 1 1 calc R U
C2 C 0.2690(5) 0.7871(5) 0.4018(3) 0.0198(7) Uani 1 1 d . .
H2 H 0.1642 0.8919 0.4181 0.024 Uiso 1 1 calc R U
C3 C 0.4459(5) 0.7519(5) 0.4237(3) 0.0184(7) Uani 1 1 d . .
H3 H 0.4650 0.8335 0.4543 0.022 Uiso 1 1 calc R U
C4 C 0.5936(5) 0.5965(5) 0.4003(3) 0.0175(7) Uani 1 1 d . .
H4 H 0.7155 0.5699 0.4153 0.021 Uiso 1 1 calc R U
C5 C 0.5638(5) 0.4796(5) 0.3550(2) 0.0150(7) Uani 1 1 d . .
C6 C 0.7190(5) 0.3068(5) 0.3317(3) 0.0172(7) Uani 1 1 d . .
H6A H 0.7000 0.2077 0.3723 0.021 Uiso 1 1 calc R U
H6B H 0.8391 0.3000 0.3460 0.021 Uiso 1 1 calc R U
C7 C 0.6983(5) -0.0929(5) 0.2536(3) 0.0149(7) Uani 1 1 d . .
H7A H 0.7630 -0.2194 0.2795 0.018 Uiso 1 1 calc R U
H7B H 0.6342 -0.0262 0.3101 0.018 Uiso 1 1 calc R U
C8 C 0.5563(5) -0.0715(4) 0.1880(2) 0.0134(7) Uani 1 1 d . .
C9 C 0.5832(5) -0.2092(5) 0.1375(3) 0.0162(7) Uani 1 1 d . .
H9 H 0.6928 -0.3171 0.1440 0.019 Uiso 1 1 calc R U
C10 C 0.4493(5) -0.1888(5) 0.0774(3) 0.0185(7) Uani 1 1 d . .
H10 H 0.4654 -0.2824 0.0429 0.022 Uiso 1 1 calc R U
C11 C 0.2920(5) -0.0296(5) 0.0688(3) 0.0177(7) Uani 1 1 d . .
H11 H 0.1981 -0.0119 0.0282 0.021 Uiso 1 1 calc R U
C12 C 0.2739(5) 0.1030(5) 0.1202(3) 0.0153(7) Uani 1 1 d . .
H12 H 0.1661 0.2124 0.1135 0.018 Uiso 1 1 calc R U
loop_
_atom_site_aniso_label
_atom_site_aniso_U_11
_atom_site_aniso_U_22
_atom_site_aniso_U_33
_atom_site_aniso_U_23
_atom_site_aniso_U_13
_atom_site_aniso_U_12
Cd1 0.01016(14) 0.01226(14) 0.01285(15) -0.00491(9) -0.00252(9) -0.00267(10)
Se1 0.01440(19) 0.0170(2) 0.01418(19) -0.00326(14) -0.00015(14) -0.00642(14)
Se2 0.01067(19) 0.0183(2) 0.0179(2) -0.00664(15) 0.00130(14) -0.00456(15)
O1 0.0171(12) 0.0190(12) 0.0166(12) -0.0036(10) -0.0010(10) -0.0061(10)
O2 0.0145(13) 0.0322(15) 0.0307(15) -0.0017(12) -0.0051(11) -0.0075(11)
O3 0.0362(17) 0.0427(18) 0.0221(15) -0.0021(13) 0.0081(13) -0.0207(14)
O4 0.0160(13) 0.0227(13) 0.0228(13) -0.0041(11) -0.0007(10) -0.0021(10)
O5 0.0166(13) 0.0315(15) 0.0153(13) -0.0017(11) -0.0037(10) 0.0006(11)
O6 0.0310(16) 0.0325(16) 0.0226(15) -0.0008(13) -0.0115(13) 0.0085(13)
N1 0.0154(14) 0.0139(14) 0.0122(13) -0.0012(11) -0.0028(11) -0.0077(11)
N2 0.0111(13) 0.0128(14) 0.0130(13) -0.0052(11) 0.0015(11) -0.0044(11)
N3 0.0181(15) 0.0212(15) 0.0176(15) -0.0062(13) -0.0002(12) -0.0095(12)
N4 0.0209(16) 0.0161(15) 0.0181(15) -0.0057(12) -0.0041(13) -0.0019(12)
C1 0.0169(17) 0.0149(17) 0.0185(17) -0.0040(14) -0.0034(14) -0.0040(13)
C2 0.0247(19) 0.0152(17) 0.0175(17) -0.0029(14) -0.0028(15) -0.0061(14)
C3 0.029(2) 0.0179(17) 0.0132(16) -0.0018(14) -0.0040(14) -0.0142(15)
C4 0.0217(18) 0.0228(18) 0.0124(16) 0.0015(14) -0.0044(14) -0.0140(15)
C5 0.0154(16) 0.0178(17) 0.0119(16) -0.0003(13) -0.0012(13) -0.0077(14)
C6 0.0155(17) 0.0217(18) 0.0149(16) -0.0042(14) -0.0033(13) -0.0073(14)
C7 0.0112(16) 0.0162(16) 0.0149(16) -0.0022(13) 0.0006(13) -0.0040(13)
C8 0.0147(16) 0.0134(16) 0.0110(15) -0.0003(13) 0.0025(13) -0.0064(13)
C9 0.0190(17) 0.0141(16) 0.0153(17) -0.0030(13) 0.0038(14) -0.0080(13)
C10 0.0248(19) 0.0209(18) 0.0150(17) -0.0065(14) 0.0062(14) -0.0153(15)
C11 0.0205(18) 0.0254(19) 0.0133(16) -0.0026(14) -0.0013(14) -0.0154(15)
C12 0.0129(16) 0.0167(17) 0.0165(17) -0.0036(13) 0.0002(13) -0.0064(13)
loop_
_atom_type_symbol
_atom_type_description
_atom_type_scat_dispersion_real
_atom_type_scat_dispersion_imag
_atom_type_scat_source
C C 0.0181 0.0091 'International Tables Vol C Tables 4.2.6.8 and 6.1.1.4'
H H 0.0000 0.0000 'International Tables Vol C Tables 4.2.6.8 and 6.1.1.4'
N N 0.0311 0.0180 'International Tables Vol C Tables 4.2.6.8 and 6.1.1.4'
O O 0.0492 0.0322 'International Tables Vol C Tables 4.2.6.8 and 6.1.1.4'
Se Se -0.7943 1.1372 'International Tables Vol C Tables 4.2.6.8 and 6.1.1.4'
Cd Cd 0.1185 4.6533 'International Tables Vol C Tables 4.2.6.8 and 6.1.1.4'
loop_
_geom_angle_atom_site_label_1
_geom_angle_atom_site_label_2
_geom_angle_atom_site_label_3
_geom_angle
N2 Cd1 N1 159.10(10)
N2 Cd1 O5 104.07(10)
N1 Cd1 O5 96.71(10)
N2 Cd1 O2 99.62(10)
N1 Cd1 O2 87.53(10)
O5 Cd1 O2 75.57(10)
N2 Cd1 O1 88.11(9)
N1 Cd1 O1 80.71(9)
O5 Cd1 O1 127.98(9)
O2 Cd1 O1 52.45(9)
N2 Cd1 O4 87.53(10)
N1 Cd1 O4 103.59(9)
O5 Cd1 O4 52.95(9)
O2 Cd1 O4 128.01(9)
O1 Cd1 O4 175.61(8)
N2 Cd1 Se1 91.87(7)
N1 Cd1 Se1 73.04(7)
O5 Cd1 Se1 128.89(7)
O2 Cd1 Se1 149.49(7)
O1 Cd1 Se1 100.29(6)
O4 Cd1 Se1 80.31(6)
C6 Se1 Se2 100.30(11)
C6 Se1 Cd1 83.06(10)
Se2 Se1 Cd1 102.279(15)
C7 Se2 Se1 101.10(10)
N3 O1 Cd1 94.62(19)
N3 O2 Cd1 95.9(2)
N4 O4 Cd1 92.1(2)
N4 O5 Cd1 98.6(2)
C1 N1 C5 118.5(3)
C1 N1 Cd1 119.8(2)
C5 N1 Cd1 121.6(2)
C12 N2 C8 118.3(3)
C12 N2 Cd1 115.2(2)
C8 N2 Cd1 126.3(2)
O3 N3 O1 120.6(3)
O3 N3 O2 122.4(3)
O1 N3 O2 117.0(3)
O6 N4 O4 123.3(3)
O6 N4 O5 120.3(3)
O4 N4 O5 116.3(3)
N1 C1 C2 123.2(3)
N1 C1 H1 118.4
C2 C1 H1 118.4
C3 C2 C1 118.1(3)
C3 C2 H2 121.0
C1 C2 H2 121.0
C4 C3 C2 119.0(3)
C4 C3 H3 120.5
C2 C3 H3 120.5
C3 C4 C5 119.8(3)
C3 C4 H4 120.1
C5 C4 H4 120.1
N1 C5 C4 121.4(3)
N1 C5 C6 117.1(3)
C4 C5 C6 121.5(3)
C5 C6 Se1 108.1(2)
C5 C6 H6A 110.1
Se1 C6 H6A 110.1
C5 C6 H6B 110.1
Se1 C6 H6B 110.1
H6A C6 H6B 108.4
C8 C7 Se2 114.0(2)
C8 C7 H7A 108.8
Se2 C7 H7A 108.8
C8 C7 H7B 108.8
Se2 C7 H7B 108.8
H7A C7 H7B 107.6
N2 C8 C9 121.3(3)
N2 C8 C7 118.6(3)
C9 C8 C7 120.2(3)
C8 C9 C10 119.8(3)
C8 C9 H9 120.1
C10 C9 H9 120.1
C11 C10 C9 118.7(3)
C11 C10 H10 120.6
C9 C10 H10 120.6
C12 C11 C10 118.8(3)
C12 C11 H11 120.6
C10 C11 H11 120.6
N2 C12 C11 123.1(3)
N2 C12 H12 118.4
C11 C12 H12 118.4
loop_
_geom_bond_atom_site_label_1
_geom_bond_atom_site_label_2
_geom_bond_distance
Cd1 N2 2.278(3)
Cd1 N1 2.301(3)
Cd1 O5 2.332(3)
Cd1 O2 2.424(3)
Cd1 O1 2.452(3)
Cd1 O4 2.495(3)
Cd1 Se1 2.8979(4)
Se1 C6 1.981(4)
Se1 Se2 2.3127(5)
Se2 C7 1.973(3)
O1 N3 1.262(4)
O2 N3 1.265(4)
O3 N3 1.231(4)
O4 N4 1.248(4)
O5 N4 1.291(4)
O6 N4 1.217(4)
N1 C1 1.335(5)
N1 C5 1.354(5)
N2 C12 1.345(5)
N2 C8 1.358(5)
C1 C2 1.389(5)
C1 H1 0.9500
C2 C3 1.388(6)
C2 H2 0.9500
C3 C4 1.380(5)
C3 H3 0.9500
C4 C5 1.384(5)
C4 H4 0.9500
C5 C6 1.497(5)
C6 H6A 0.9900
C6 H6B 0.9900
C7 C8 1.491(5)
C7 H7A 0.9900
C7 H7B 0.9900
C8 C9 1.388(5)
C9 C10 1.389(5)
C9 H9 0.9500
C10 C11 1.383(5)
C10 H10 0.9500
C11 C12 1.380(5)
C11 H11 0.9500
C12 H12 0.9500
loop_
_geom_torsion_atom_site_label_1
_geom_torsion_atom_site_label_2
_geom_torsion_atom_site_label_3
_geom_torsion_atom_site_label_4
_geom_torsion
Cd1 O1 N3 O3 -179.4(3)
Cd1 O1 N3 O2 1.2(3)
Cd1 O2 N3 O3 179.4(3)
Cd1 O2 N3 O1 -1.3(3)
Cd1 O4 N4 O6 -179.0(3)
Cd1 O4 N4 O5 0.7(3)
Cd1 O5 N4 O6 179.0(3)
Cd1 O5 N4 O4 -0.8(3)
C5 N1 C1 C2 0.9(5)
Cd1 N1 C1 C2 -175.7(3)
N1 C1 C2 C3 0.4(6)
C1 C2 C3 C4 -1.2(5)
C2 C3 C4 C5 0.6(5)
C1 N1 C5 C4 -1.6(5)
Cd1 N1 C5 C4 175.0(2)
C1 N1 C5 C6 177.1(3)
Cd1 N1 C5 C6 -6.3(4)
C3 C4 C5 N1 0.8(5)
C3 C4 C5 C6 -177.8(3)
N1 C5 C6 Se1 54.4(3)
C4 C5 C6 Se1 -126.9(3)
C12 N2 C8 C9 -0.1(5)
Cd1 N2 C8 C9 -174.3(2)
C12 N2 C8 C7 -179.9(3)
Cd1 N2 C8 C7 5.9(4)
Se2 C7 C8 N2 -87.5(3)
Se2 C7 C8 C9 92.7(3)
N2 C8 C9 C10 -0.5(5)
C7 C8 C9 C10 179.3(3)
C8 C9 C10 C11 0.6(5)
C9 C10 C11 C12 0.0(5)
C8 N2 C12 C11 0.7(5)
Cd1 N2 C12 C11 175.5(3)
C10 C11 C12 N2 -0.6(5)
