#------------------------------------------------------------------------------
#$Date: 2016-03-24 14:36:54 +0200 (Thu, 24 Mar 2016) $
#$Revision: 179669 $
#$URL: svn://www.crystallography.net/cod/cif/4/51/22/4512204.cif $
#------------------------------------------------------------------------------
#
# This file is available in the Crystallography Open Database (COD),
# http://www.crystallography.net/
#
# All data on this site have been placed in the public domain by the
# contributors.
#
data_4512204
loop_
_publ_author_name
'Gajda, Katarzyna'
'Daszkiewicz, Zdzis\/law'
'Kozubek, Ewelina'
'Ejsmont, Krzysztof'
'Zarychta, Bartosz'
_publ_section_title
;
 Theoretical Multipolar Atom Model Transfer in Nitro-Derivatives
 ofN-Methylaniline
;
_journal_issue                   11
_journal_name_full               'Crystal Growth &amp; Design'
_journal_page_first              5737
_journal_paper_doi               10.1021/cg500984p
_journal_volume                  14
_journal_year                    2014
_chemical_formula_moiety         'C7 H8 N2 O2'
_chemical_formula_sum            'C7 H8 N2 O2'
_chemical_formula_weight         152.15
_chemical_name_common            N-methyl-N-3-nitrophenylaniline
_chemical_name_systematic
;
 ?
;
_space_group_crystal_system      monoclinic
_space_group_IT_number           14
_space_group_name_Hall           '-P 2ybc'
_space_group_name_H-M_alt        'P 1 21/c 1'
_symmetry_space_group_name_Hall  '-P 2ybc'
_symmetry_space_group_name_H-M   'P 1 21/c 1'
_atom_sites_solution_hydrogens   mixed
_audit_creation_method           SHELXL-2013
_cell_angle_alpha                90
_cell_angle_beta                 104.760(10)
_cell_angle_gamma                90
_cell_formula_units_Z            4
_cell_length_a                   6.9742(7)
_cell_length_b                   12.7802(13)
_cell_length_c                   8.2930(8)
_cell_measurement_temperature    150.0(1)
_cell_measurement_theta_max      25.992
_cell_measurement_theta_min      2.999
_cell_volume                     714.78(13)
_computing_cell_refinement       'CrysAlis RED (Oxford Diffraction, 2007)'
_computing_data_collection       'CrysAlis CCD (Oxford Diffraction, 2007)'
_computing_data_reduction        'CrysAlis RED (Oxford Diffraction, 2007)'
_computing_molecular_graphics    'SHELXTL (Sheldrick, 2008)'
_computing_structure_refinement  'SHELXL-2013 (Sheldrick, 2013)'
_computing_structure_solution    'SHELXS-2013 (Sheldrick, 2013)'
_diffrn_ambient_temperature      150.0(1)
_diffrn_detector_area_resol_mean 10.4508
_diffrn_measured_fraction_theta_full 1.000
_diffrn_measured_fraction_theta_max 1.000
_diffrn_measurement_device       '4-circle kappa geometry goniometer'
_diffrn_measurement_device_type  'Oxford Diffraction Xcalibur System'
_diffrn_measurement_method       \w--scan
_diffrn_radiation_monochromator  graphite
_diffrn_radiation_source         'Enhance (Mo) X-ray Source'
_diffrn_radiation_type           MoK\a
_diffrn_radiation_wavelength     0.71073
_diffrn_reflns_av_R_equivalents  0.0282
_diffrn_reflns_av_unetI/netI     0.0394
_diffrn_reflns_Laue_measured_fraction_full 1.000
_diffrn_reflns_Laue_measured_fraction_max 1.000
_diffrn_reflns_limit_h_max       8
_diffrn_reflns_limit_h_min       -6
_diffrn_reflns_limit_k_max       15
_diffrn_reflns_limit_k_min       -15
_diffrn_reflns_limit_l_max       9
_diffrn_reflns_limit_l_min       -10
_diffrn_reflns_number            4757
_diffrn_reflns_point_group_measured_fraction_full 1.000
_diffrn_reflns_point_group_measured_fraction_max 1.000
_diffrn_reflns_theta_full        25.242
_diffrn_reflns_theta_max         25.992
_diffrn_reflns_theta_min         2.999
_diffrn_standards_decay_%        0
_diffrn_standards_interval_count 0
_diffrn_standards_interval_time  0
_diffrn_standards_number         0
_exptl_absorpt_coefficient_mu    0.106
_exptl_absorpt_correction_type   none
_exptl_crystal_colour            orange
_exptl_crystal_density_diffrn    1.414
_exptl_crystal_density_method    'not measured'
_exptl_crystal_description       plate
_exptl_crystal_F_000             320
_exptl_crystal_size_max          0.45
_exptl_crystal_size_mid          0.4
_exptl_crystal_size_min          0.02
_refine_diff_density_max         0.160
_refine_diff_density_min         -0.353
_refine_diff_density_rms         0.068
_refine_ls_extinction_method     none
_refine_ls_goodness_of_fit_ref   0.856
_refine_ls_hydrogen_treatment    mixed
_refine_ls_matrix_type           full
_refine_ls_number_parameters     104
_refine_ls_number_reflns         1406
_refine_ls_number_restraints     0
_refine_ls_restrained_S_all      0.856
_refine_ls_R_factor_all          0.0781
_refine_ls_R_factor_gt           0.0390
_refine_ls_shift/su_max          0.000
_refine_ls_shift/su_mean         0.000
_refine_ls_structure_factor_coef Fsqd
_refine_ls_weighting_details
'w=1/[\s^2^(Fo^2^)+(0.0506P)^2^] where P=(Fo^2^+2Fc^2^)/3'
_refine_ls_weighting_scheme      calc
_refine_ls_wR_factor_gt          0.0859
_refine_ls_wR_factor_ref         0.0943
_reflns_Friedel_coverage         0.000
_reflns_number_gt                779
_reflns_number_total             1406
_reflns_threshold_expression     'I > 2\s(I)'
_cod_data_source_file            cg500984p_si_002.cif
_cod_data_source_block           II
_cod_depositor_comments
'Adding full bibliography for 4512203--4512205.cif.'
_cod_database_code               4512204
#BEGIN Tags that were not found in dictionaries:
_shelx_space_group_comment
;
The symmetry employed for this shelxl refinement is uniquely defined
by the following loop, which should always be used as a source of
symmetry information in preference to the above space-group names.
They are only intended as comments.
;
_cell_diffrn__number             4757
_shelxl_version_number           2013-4
_shelx_res_file
;
TITL 2 in P2(1)/c
CELL 0.71073   6.9742  12.7802   8.2930  90.000 104.760  90.000
ZERR    4.00   0.0007   0.0013   0.0008   0.000   0.010   0.000
LATT  1
SYMM -X, 0.5+Y, 0.5-Z
SFAC C H N O
UNIT 28 32 8 8

OMIT -3 52
L.S. 10
BOND $h
ACTA
CONF
HTAB
EQIV $2 x, y, z+1

HTAB N1 O2_$2

FMAP 2
PLAN 20

WGHT    0.050600
FVAR       0.29938
O1    4    0.635160    0.130754   -0.142813    11.00000    0.03670    0.03609 =
         0.03021    0.00004    0.02002    0.00039
O2    4    0.331242    0.122800   -0.290015    11.00000    0.04978    0.04498 =
         0.01581   -0.00021    0.00553    0.00295
N1    3    0.595586    0.123018    0.449161    11.00000    0.02534    0.04641 =
         0.01653   -0.00094    0.00810   -0.00319
REM AFIX  43
H1A   2    0.542890    0.120526    0.529384    11.00000   -1.20000
REM AFIX   0
N2    3    0.456545    0.126674   -0.154850    11.00000    0.03855    0.02288 =
         0.01925    0.00034    0.01145    0.00174
C1    1    0.464178    0.122301    0.296328    11.00000    0.02363    0.02126 =
         0.01641   -0.00094    0.00707   -0.00125
C2    1    0.527101    0.126916    0.149423    11.00000    0.01923    0.02370 =
         0.02093    0.00056    0.00805   -0.00009
AFIX  43
H2A   2    0.661304    0.131132    0.153219    11.00000   -1.20000
AFIX   0
C3    1    0.385404    0.125083   -0.002237    11.00000    0.02808    0.02122 =
         0.01628   -0.00025    0.00999    0.00138
C4    1    0.185244    0.119922   -0.017361    11.00000    0.02601    0.03907 =
         0.01882    0.00143    0.00128    0.00186
AFIX  43
H4A   2    0.094205    0.119205   -0.121090    11.00000   -1.20000
AFIX   0
C5    1    0.125239    0.115830    0.129333    11.00000    0.01808    0.04560 =
         0.03390    0.00146    0.00959    0.00103
AFIX  43
H5A   2   -0.009466    0.112472    0.123903    11.00000   -1.20000
AFIX   0
C6    1    0.258841    0.116596    0.281961    11.00000    0.02693    0.03142 =
         0.02445    0.00135    0.01435    0.00021
AFIX  43
H6A   2    0.213332    0.113292    0.377948    11.00000   -1.20000
AFIX   0
C7    1    0.806708    0.128301    0.473437    11.00000    0.02753    0.04543 =
         0.02540    0.00103    0.00017   -0.00263
AFIX 137
H7D   2    0.870181    0.127564    0.590645    11.00000   -1.50000
H7A   2    0.840502    0.191677    0.424944    11.00000   -1.50000
H7B   2    0.850584    0.069193    0.420951    11.00000   -1.50000

AFIX   0
HKLF 4

REM  2 in P2(1)/c
REM R1 =  0.0390 for     779 Fo > 4sig(Fo)  and  0.0781 for all    1406 data
REM    104 parameters refined using      0 restraints

END

WGHT      0.0506      0.0000

REM Instructions for potential hydrogen bonds
HTAB N1 O1_$2
HTAB N1 O2_$2

REM Highest difference peak  0.160,  deepest hole -0.353,  1-sigma level  0.068
Q1    1   0.8769  0.1520  0.5855  11.00000  0.05    0.16
Q2    1  -0.0304  0.0554  0.1045  11.00000  0.05    0.14
Q3    1   0.8845  0.0189  0.7306  11.00000  0.05    0.14
Q4    1   0.0332  0.2010  0.2187  11.00000  0.05    0.14
Q5    1  -0.0726  0.2417  0.1223  11.00000  0.05    0.14
Q6    1  -0.0850  0.0019  0.1702  11.00000  0.05    0.14
Q7    1   0.8713  0.0540  0.4993  11.00000  0.05    0.13
Q8    1   0.9322  0.2496  0.5269  11.00000  0.05    0.13
Q9    1   0.9558  0.2620  0.5034  11.00000  0.05    0.13
Q10   1   0.9128  0.0020  0.5545  11.00000  0.05    0.13
Q11   1   0.8235  0.0037  0.4143  11.00000  0.05    0.13
Q12   1   0.0522  0.1020 -0.2478  11.00000  0.05    0.13
Q13   1   0.0227  0.2358 -0.1704  11.00000  0.05    0.13
Q14   1   0.0615  0.1615 -0.2025  11.00000  0.05    0.13
Q15   1   0.0822  0.2307  0.1266  11.00000  0.05    0.13
Q16   1   0.8226  0.2463  0.4651  11.00000  0.05    0.13
Q17   1   0.1543  0.1148  0.0546  11.00000  0.05    0.13
Q18   1   0.8774  0.2267  0.2563  11.00000  0.05    0.13
Q19   1   0.1397 -0.0056  0.1309  11.00000  0.05    0.12
Q20   1   0.1861 -0.0086  0.0019  11.00000  0.05    0.12
;
_shelx_res_checksum              66859
_shelx_hkl_file
;
   0   0  -2    0.18    0.31
   0   0  -2    0.51    0.34
   0   0  -3    0.33    0.34
   0   0  -3    0.43    0.32
   0   0  -4    1.92    0.43
   0   0  -4    2.12    0.48
   0   0  -5    0.86    0.47
   0   0  -5    0.80    0.48
   0   0  -6   76.22    1.88
   0   0  -7    3.47    0.83
   0   0  -8    4.71    0.89
   0   0   9    0.51    0.92
   0   0  -9   -0.14    0.86
   0   0 -10    1.19    0.83
   0   0  10    1.23    1.07
   0  -1  -1   45.75    0.59
   0  -1  -1   47.96    0.54
   0   1  -1   48.14    0.57
   0   1  -2   71.24    1.01
   0  -1  -2   68.38    1.01
   0  -1  -2   72.48    1.00
   0   1  -3   27.37    0.80
   0  -1  -3   27.43    0.79
   0  -1  -3   27.12    0.78
   0  -1  -4   10.65    0.64
   0   1  -4    9.63    0.67
   0  -1  -4    9.94    0.66
   0   1  -4   10.00    0.41
   0  -1  -5   24.38    1.02
   0   1  -5   23.83    1.05
   0   1  -5   24.09    0.56
   0  -1  -5   23.56    1.03
   0  -1  -6   13.16    0.95
   0   1  -6   11.02    0.89
   0  -1  -6   13.96    0.96
   0   1  -7  123.03    2.57
   0  -1  -7  134.63    2.60
   0  -1  -7  128.47    2.63
   0   1  -8    9.16    1.05
   0  -1  -8    9.17    1.02
   0  -1   8    8.84    1.11
   0  -1   9    1.52    0.93
   0  -1  -9    1.46    0.80
   0   1  -9    0.90    0.83
   0   1  10    1.91    1.15
   0  -1 -10    0.93    0.83
   0   1 -10    1.29    0.94
   0  -1  10    0.92    0.94
   0   1  11    0.45    1.16
   0  -2   0    3.58    0.21
   0  -2   0    2.99    0.21
   0  -2  -1   13.18    0.33
   0  -2  -1   13.14    0.42
   0  -2   1   12.60    0.37
   0   2  -1   13.43    0.36
   0  -2  -2    0.12    0.29
   0   2  -2    0.23    0.30
   0  -2   2    0.18    0.33
   0  -2  -2    0.47    0.28
   0   2  -3   16.07    0.64
   0  -2  -3   15.50    0.66
   0  -2   3   14.89    0.61
   0  -2  -3   14.89    0.61
   0  -2  -4    0.09    0.40
   0   2  -4    0.36    0.39
   0  -2   4    0.33    0.49
   0  -2  -4    0.11    0.37
   0  -2   5   30.46    1.14
   0   2  -5   33.15    0.79
   0  -2  -5   32.66    1.13
   0   2  -5   33.61    1.18
   0  -2  -5   32.07    1.13
   0   2  -6   -0.11    0.67
   0  -2   6    0.29    0.73
   0  -2  -6    0.11    0.54
   0  -2  -6    0.14    0.63
   0  -2   7    0.74    0.79
   0   2  -7    1.45    0.78
   0  -2  -7    0.43    0.72
   0  -2  -7    0.49    0.68
   0  -2  -8    0.10    0.74
   0   2  -8   -0.10    0.70
   0  -2   8    0.17    0.84
   0  -2  -8   -0.10    0.58
   0  -2   9    0.01    0.94
   0  -2  -9   -0.04    0.77
   0   2  -9    0.68    0.79
   0   2 -10   -0.37    0.81
   0  -2 -10    0.42    0.91
   0  -3   0   -0.04    0.33
   0  -3   0    0.20    0.28
   0  -3  -1   39.41    0.79
   0  -3  -1   37.94    0.79
   0   3  -1   37.96    0.57
   0  -3  -1   37.66    0.50
   0  -3   1   38.12    0.68
   0  -3  -2   34.33    0.84
   0   3  -2   35.37    0.74
   0  -3   2   34.40    0.73
   0  -3  -2   35.63    0.69
   0  -3   3   31.67    0.84
   0  -3  -3   32.29    0.84
   0   3  -3   32.58    0.88
   0  -3  -3   32.21    0.93
   0  -3  -4    5.45    0.56
   0  -3   4    5.94    0.59
   0   3  -4    6.33    0.58
   0  -3  -4    6.14    0.55
   0   3  -5   16.51    0.93
   0  -3   5   16.92    0.90
   0  -3  -5   16.41    0.88
   0  -3  -5   15.57    0.89
   0  -3   6   15.64    1.03
   0   3  -6   16.50    1.07
   0  -3  -6   15.66    1.02
   0  -3  -6   15.30    0.99
   0  -3  -7  102.81    2.35
   0  -3  -7  105.06    2.40
   0  -3   7  102.43    2.26
   0   3  -7  101.26    2.37
   0  -3   8    5.51    0.96
   0  -3  -8    6.35    0.93
   0   3  -8    6.19    0.98
   0  -3  -8    7.97    0.96
   0  -3  -9    0.50    0.79
   0   3  -9    2.13    0.90
   0  -3  -9    0.87    0.69
   0   3 -10    0.79    0.87
   0  -3 -10    1.68    0.86
   0  -4   0 3583.37   28.26
   0  -4   0 3588.92   30.58
   0  -4  -1    5.61    0.45
   0  -4  -1    5.60    0.23
   0  -4   1    5.73    0.48
   0   4  -1    6.11    0.27
   0  -4   1    5.51    0.38
   0  -4  -1    5.92    0.46
   0  -4   2    0.64    0.31
   0  -4  -2    0.83    0.25
   0   4  -2    0.66    0.27
   0  -4  -2    0.87    0.33
   0  -4   3    0.31    0.37
   0  -4  -3    0.32    0.31
   0  -4  -3    0.07    0.36
   0   4  -3    0.08    0.32
   0  -4   4    2.29    0.45
   0  -4  -4    1.83    0.50
   0   4  -4    1.92    0.47
   0  -4  -4    1.84    0.45
   0   4   4    1.78    0.23
   0  -4  -5    0.73    0.52
   0   4  -5    0.48    0.55
   0  -4   5    0.32    0.58
   0  -4  -5    0.51    0.50
   0  -4   6   63.89    1.68
   0   4  -6   62.91    1.79
   0  -4  -6   65.75    1.76
   0  -4  -6   64.47    1.79
   0  -4  -7    0.31    0.65
   0   4  -7    0.56    0.73
   0  -4   7    0.18    0.66
   0  -4  -7    1.09    0.67
   0  -4  -8    4.21    0.82
   0  -4  -8    2.35    0.77
   0   4  -8    2.30    0.80
   0  -4   8    3.64    0.92
   0  -4  -9   -0.40    0.82
   0  -4  -9    0.11    0.80
   0   4  -9    0.72    0.78
   0  -4 -10    0.66    0.89
   0  -4 -10    0.51    0.89
   0   4 -10   -0.14    0.87
   0  -5   0    0.12    0.36
   0  -5   0    0.17    0.31
   0  -5   1   26.61    0.84
   0   5  -1   28.09    0.48
   0  -5  -1   25.70    0.39
   0  -5   1   27.08    0.72
   0  -5  -1   28.55    0.84
   0  -5  -1   26.64    0.84
   0   5  -2   31.73    0.71
   0  -5   2   32.15    0.81
   0  -5  -2   31.94    0.95
   0  -5  -2   31.93    0.65
   0  -5  -3    5.24    0.42
   0  -5   3    4.49    0.45
   0   5  -3    4.58    0.45
   0  -5  -3    4.29    0.53
   0  -5   4    1.90    0.45
   0   5   4    2.21    0.37
   0  -5  -4    1.86    0.47
   0   5  -4    1.99    0.49
   0  -5  -4    2.32    0.45
   0   5  -5   17.64    0.98
   0  -5   5   19.06    0.92
   0  -5  -5   18.95    1.01
   0  -5  -5   17.23    0.91
   0   5  -6    5.99    0.77
   0  -5  -6    4.91    0.76
   0  -5  -6    4.27    0.74
   0   5  -6    4.61    0.77
   0  -5   6    5.92    0.76
   0  -5  -7   89.51    2.33
   0  -5   7   94.86    2.12
   0  -5  -7   93.91    2.25
   0   5  -7   91.47    2.30
   0  -5  -8    7.02    0.95
   0   5  -8    7.81    0.99
   0  -5  -8    6.23    0.91
   0  -5  -9    0.88    0.79
   0  -5  -9    0.50    0.83
   0   5  -9    0.18    0.83
   0  -5 -10    0.76    0.84
   0   5 -10    0.43    0.97
   0  -5 -10    1.08    0.94
   0  -6   0    4.63    0.46
   0  -6   0    4.91    0.54
   0   6  -1    0.18    0.13
   0  -6  -1   -0.01    0.38
   0  -6   1    0.00    0.32
   0  -6   1    0.14    0.42
   0  -6  -1    0.16    0.42
   0  -6  -2    0.23    0.41
   0   6  -2    0.16    0.23
   0  -6   2   -0.04    0.31
   0  -6  -2    0.17    0.22
   0  -6  -3    1.19    0.36
   0  -6  -3    0.93    0.44
   0  -6   3    1.46    0.40
   0   6  -3    1.42    0.35
   0   6  -4    0.91    0.49
   0  -6  -4    1.05    0.43
   0  -6   4    0.61    0.45
   0  -6  -4    0.85    0.53
   0  -6  -5   13.93    0.96
   0  -6  -5   13.65    0.86
   0  -6   5   14.44    0.85
   0   6  -5   13.49    0.89
   0  -6   6    0.03    0.62
   0  -6  -6    0.67    0.61
   0   6  -6    0.31    0.56
   0  -6  -6    0.55    0.64
   0  -6  -7    0.41    0.70
   0   6  -7    0.20    0.65
   0  -6  -7    0.02    0.66
   0  -6  -8   -1.46    0.76
   0   6  -8   -0.22    0.66
   0  -6  -8   -0.44    0.69
   0   6  -9    0.87    0.84
   0  -6  -9    0.04    0.78
   0  -6  -9   -0.04    0.85
   0   6 -10    1.14    0.94
   0  -6 -10    1.70    0.90
   0  -6 -10    0.43    0.95
   0  -7   0    0.19    0.44
   0  -7   0    0.14    0.40
   0  -7   1   16.81    0.73
   0  -7  -1   16.98    0.83
   0  -7  -1   16.60    0.83
   0   7  -1   16.19    0.36
   0  -7   1   18.70    0.87
   0   7  -2    7.87    0.40
   0  -7   2    6.85    0.67
   0  -7   2    7.50    0.53
   0  -7  -2    8.16    0.70
   0  -7  -2    7.62    0.36
   0   7  -3   14.84    0.66
   0  -7   3   15.69    0.73
   0  -7  -3   14.56    0.60
   0  -7  -3   13.19    0.87
   0   7  -4    1.26    0.43
   0  -7  -4    1.27    0.60
   0  -7  -4    1.08    0.43
   0  -7   4    1.42    0.50
   0  -7  -5    6.08    0.69
   0   7  -5    6.59    0.72
   0  -7  -5    5.39    0.78
   0  -7   5    5.98    0.72
   0   7  -6   13.25    0.95
   0  -7  -6   14.00    0.91
   0  -7  -6   13.70    1.07
   0  -7  -7   52.64    1.72
   0  -7  -7   54.22    1.96
   0   7  -7   52.18    1.78
   0  -7  -8    1.95    0.75
   0   7  -8    3.36    0.85
   0  -7  -8    2.39    0.81
   0  -7  -9    1.48    0.92
   0  -7  -9    1.51    0.73
   0   7  -9    0.67    0.82
   0   7 -10    0.36    0.83
   0  -8   0  796.27    5.19
   0  -8   0  814.02    4.78
   0  -8   1    9.66    0.86
   0  -8   1   10.26    0.78
   0  -8  -1    6.16    0.70
   0  -8   2    1.14    0.60
   0  -8   2    0.58    0.43
   0  -8  -2    1.12    0.57
   0  -8   3    0.06    0.42
   0  -8   3    0.34    0.60
   0  -8  -3    0.14    0.56
   0   8  -3    0.12    0.36
   0   8  -4    1.34    0.43
   0  -8   4    1.53    0.53
   0  -8  -4    0.94    0.64
   0  -8  -5    0.76    0.64
   0   8  -5    0.73    0.52
   0   8  -6   36.77    1.38
   0  -8  -6   36.31    1.56
   0  -8  -7    0.43    0.75
   0   8  -7    0.52    0.65
   0  -8  -8    2.07    0.83
   0   8  -8    2.13    0.73
   0  -8  -9   -0.08    0.91
   0   8  -9    1.08    0.72
   0  -9   0   -0.09    0.55
   0  -9   0   -0.13    0.56
   0  -9  -1    8.27    0.81
   0  -9   1    7.19    0.79
   0  -9   1    7.49    0.69
   0  -9  -1    7.63    0.79
   0  -9   2    9.99    0.92
   0  -9   2   10.09    0.73
   0  -9  -2   10.77    0.88
   0  -9   3    0.19    0.44
   0  -9   3    0.29    0.63
   0  -9  -3   -0.11    0.61
   0  -9   4    0.08    0.52
   0  -9  -4    0.00    0.65
   0  -9  -5    6.78    0.90
   0  -9  -6    1.42    0.78
   0  -9  -7   51.02    2.04
   0  -9  -8    3.93    0.99
   0  -9  -9    0.19    0.94
   0 -10   0    1.92    0.68
   0 -10   0    2.54    0.69
   0 -10   1    0.07    0.56
   0 -10  -1    0.22    0.60
   0 -10  -1    0.38    0.63
   0 -10   1   -0.23    0.65
   0 -10   2    0.70    0.57
   0 -10   2    0.32    0.70
   0 -10  -2   -0.04    0.60
   0 -10  -3    0.47    0.62
   0 -10   3    0.30    0.51
   0 -10   3    0.19    0.73
   0 -10  -4    1.21    0.65
   0 -10   4    1.63    0.75
   0 -10  -5    4.86    0.89
   0 -10  -6    0.49    0.69
   0 -10  -7    0.23    0.81
   0 -10  -8   -0.82    0.89
   0 -11   0    0.40    0.63
   0 -11   0    0.22    0.65
   0 -11  -1    4.36    0.80
   0 -11  -1    4.12    0.77
   0 -11   1    5.16    0.83
   0 -11   1    4.50    0.71
   0 -11  -2    2.13    0.73
   0 -11   2    1.83    0.60
   0 -11   2    1.82    0.76
   0 -11  -3    5.08    0.78
   0 -11   3    4.69    0.83
   0 -11   4    1.08    0.80
   0 -11  -4    0.06    0.69
   0 -11  -5    1.29    0.77
   0 -11   5    1.81    0.85
   0 -11   6    8.10    0.99
   0 -11  -6    8.44    1.15
   0 -11  -7   22.83    1.59
   0 -11  -8   -0.52    0.94
   0 -12   0  189.45    3.26
   0 -12   0  179.18    2.94
   0 -12   1    2.64    0.77
   0 -12   1    3.77    0.90
   0 -12  -1    2.17    0.80
   0 -12   2    0.28    0.74
   0 -12  -2    0.24    0.67
   0 -12   3    0.16    0.73
   0 -12  -3    0.61    0.67
   0 -12  -4    0.67    0.70
   0 -12   4    1.31    0.85
   0 -12  -5    0.51    0.70
   0 -12   5    0.48    0.77
   0  12  -6   15.85    1.46
   0 -12  -6   15.93    1.42
   0 -12   6   14.58    1.33
   0 -12   7    0.63    1.01
   0 -12  -7   -0.32    0.85
   0 -13   0   -0.28    0.73
   0 -13   0    0.41    0.67
   0 -13  -1    1.64    0.81
   0 -13   1    2.42    0.68
   0 -13   1    2.37    0.83
   0 -13  -2    4.06    0.92
   0 -13   2    2.90    0.91
   0 -13   3    0.18    0.73
   0 -13  -3    0.44    0.80
   0 -13  -4   -0.38    0.72
   0 -13   4   -0.15    0.79
   0 -13  -5    2.02    0.87
   0 -13   5    2.93    0.96
   0 -13  -6    0.65    0.97
   0 -13   6    0.11    0.98
   0  13  -6    1.28    1.16
   0 -14   0    1.01    0.76
   0 -14   0    0.35    0.67
   0 -14   1    0.60    0.76
   0 -14  -1    0.05    0.81
   0 -14   2    0.41    0.74
   0 -14  -2    0.06    0.73
   0 -14  -3   -0.03    0.74
   0 -14   3    0.00    0.81
   0 -14  -4    0.49    0.75
   0 -14   4    1.46    0.97
   0 -14  -5    1.27    0.86
   0 -14   5    1.92    0.98
   0  14  -5    2.09    1.21
   0 -14   6    0.03    1.02
   0  14  -6    0.62    1.32
   0 -15   0    0.07    0.77
   0 -15  -1    1.89    0.87
   0 -15   1    1.65    0.86
   0 -15  -2    0.72    0.89
   0 -15   2    0.50    0.81
   0 -15  -3    1.75    0.92
   0 -15   3    2.78    0.96
   0 -15   4    0.38    0.86
   0 -15  -4    0.60    0.92
   0  15  -5    0.24    1.38
   0 -15   5   -0.58    1.02
   0 -16   0   45.58    2.15
   0 -16  -1    0.80    0.90
   0 -16   1    0.67    1.02
   0 -16  -2    0.03    0.77
   0  16   2    1.75    1.14
   0 -16   2    1.12    0.86
   0 -16  -3    0.80    0.99
   0 -16   3   -0.23    0.84
   0 -16   4    0.24    0.89
   0 -17   0   -0.43    0.95
   0  17   1    0.36    1.21
   0 -17   1    0.74    0.95
   0  17   2    0.78    1.23
   1   0 -10    4.60    1.06
   1   0  -9    1.00    0.82
   1   0  -8    6.02    0.87
   1   0  -7    5.73    0.86
   1   0  -6   27.26    1.19
   1   0  -5    0.71    0.48
   1   0  -5    0.45    0.22
   1   0  -5    0.26    0.45
   1   0  -4    6.40    0.34
   1   0  -4    7.10    0.59
   1   0  -4    7.69    0.59
   1   0  -3    0.08    0.32
   1   0  -3    0.01    0.22
   1   0  -3   -0.13    0.33
   1   0  -2  311.56    1.61
   1   0  -2  313.40    2.14
   1   0  -2  315.13    2.08
   1   0  -1    0.03    0.12
   1   0  -1    0.05    0.13
   1   0  -1    0.04    0.10
   1   0  -1    0.02    0.15
   1   0   0  499.14    1.94
   1   0   0  498.58    1.78
   1   0   1    0.07    0.23
   1   0   1    0.15    0.35
   1   0   2    0.07    0.21
  -1   0  -2   -0.03    0.21
  -1   0  -2    0.08    0.35
  -1   0  -3    0.68    0.41
  -1   0  -3    0.46    0.29
  -1   0  -4    1.53    0.40
  -1   0  -4    1.65    0.55
  -1   0  -5    0.84    0.54
  -1   0  -5    1.84    0.63
  -1   0  -6   23.93    1.23
  -1   0  -7    0.77    0.65
   1   0   7    0.43    0.81
  -1   0  -8    0.44    0.70
   1   0   8    1.52    0.94
   1   0   9    1.09    1.04
  -1   0  -9   -0.40    0.83
   1   0  10    1.00    1.17
  -1   0 -10    0.98    0.98
   1  -1 -10   10.59    1.23
   1   1 -10    9.00    1.17
   1  -1  -9    0.90    0.79
   1   1  -9    1.76    0.81
   1  -1  -8    0.13    0.63
   1   1  -8   -0.17    0.68
   1  -1  -7   95.75    2.23
   1   1  -7   93.00    2.23
   1  -1  -7   96.44    2.26
   1   1  -6    2.11    0.61
   1  -1  -6    2.91    0.69
   1  -1  -6    1.79    0.67
   1  -1  -5   13.36    0.80
   1  -1  -5   13.08    0.79
   1   1  -5   12.86    0.79
   1   1  -5   13.41    0.53
   1  -1  -5   12.00    0.32
   1  -1  -4   48.50    1.22
   1   1  -4   50.62    1.22
   1  -1  -4   50.55    1.21
   1   1  -4   49.72    0.83
   1  -1  -4   48.30    0.64
   1   1  -3    2.03    0.31
   1  -1  -3    1.71    0.39
   1  -1  -3    2.17    0.38
   1  -1  -3    1.68    0.23
   1   1  -3    1.85    0.39
   1   1  -2  271.70    1.96
   1  -1  -2  273.99    2.03
   1  -1  -2  273.73    1.50
   1  -1  -2  271.72    1.89
   1   1  -2  274.73    1.67
   1  -1  -1    0.04    0.16
   1  -1  -1    0.03    0.16
   1   1  -1    0.29    0.26
   1   1  -1    0.06    0.19
   1  -1  -1    0.17    0.17
   1  -1  -1    0.05    0.20
   1   1   0   55.17    0.70
   1  -1   0   52.75    0.70
   1  -1   0   51.60    0.68
  -1  -1  -1   10.23    0.32
   1  -1   1    9.97    0.42
   1  -1   1    9.26    0.53
   1   1   1   10.49    0.36
   1  -1   2    0.16    0.40
  -1   1  -2   -0.03    0.31
  -1  -1  -2    0.02    0.34
   1   1   2    0.09    0.18
  -1  -1  -2   -0.01    0.24
  -1  -1  -3   16.88    0.62
   1   1   3   16.52    0.35
  -1  -1  -3   17.85    0.72
  -1   1  -3   18.20    0.74
   1  -1   3   16.34    0.78
  -1   1  -4   14.98    0.80
   1  -1   4   15.37    0.87
  -1  -1  -4   15.96    0.73
  -1  -1  -4   16.62    0.83
  -1  -1  -5   35.59    1.17
  -1  -1  -5   34.69    1.26
   1  -1   5   33.21    1.30
  -1   1  -5   33.45    1.23
  -1   1  -6    0.45    0.70
  -1  -1  -6    0.30    0.58
  -1  -1  -6    0.13    0.66
   1  -1   6    0.23    0.81
   1  -1   7    4.17    0.95
  -1  -1  -7    4.48    0.75
  -1   1  -7    4.26    0.79
  -1  -1  -7    3.98    0.78
  -1  -1  -8    1.50    0.76
  -1   1  -8    0.96    0.76
   1  -1   8    1.73    0.94
  -1   1  -9    3.96    0.98
   1   1   9    3.45    1.14
   1  -1   9    3.32    1.02
  -1  -1  -9    2.49    0.87
   1  -1  10    5.49    1.24
  -1  -1 -10    6.21    1.17
   1   1  10    8.74    1.42
  -1   1 -10    5.61    1.12
   1  -2 -10    0.45    0.85
   1   2 -10    0.01    0.76
   1   2  -9    8.90    1.07
   1  -2  -9    9.25    1.04
   1   2  -8    0.02    0.65
  -1  -2   8    0.36    0.68
   1  -2  -8    0.66    0.65
   1  -2  -8    0.18    0.70
   1   2  -7   45.97    1.64
   1  -2  -7   46.17    1.65
   1  -2  -7   46.98    1.62
  -1  -2   7   44.47    1.49
   1   2  -6    0.20    0.58
   1  -2  -6    0.01    0.61
   1  -2  -6    0.08    0.64
   1   2  -5   22.83    0.98
   1   2  -5   24.78    0.73
   1  -2  -5   23.40    0.98
   1  -2  -5   22.42    1.03
   1  -2  -4    0.51    0.17
   1  -2  -4    0.50    0.39
   1   2  -4    0.61    0.42
   1   2  -4    0.78    0.40
   1  -2  -4    0.58    0.39
   1  -2  -3  371.38    2.90
   1   2  -3  376.58    2.33
   1  -2  -3  377.98    1.76
   1   2  -3  370.45    2.77
   1  -2  -3  375.11    2.66
   1   2  -2    0.21    0.41
  -1  -2   2    0.15    0.19
   1  -2  -2    0.31    0.33
   1  -2  -2    0.13    0.30
   1  -2  -2    0.24    0.27
   1   2  -2    0.21    0.28
   1  -2  -2    0.26    0.26
   1  -2  -1   99.83    1.04
   1  -2  -1   98.86    1.12
   1   2  -1   96.59    1.03
   1  -2  -1  102.36    1.06
   1  -2  -1  100.93    0.91
   1   2  -1   97.61    1.14
  -1  -2   0    1.17    0.28
   1  -2   0    0.91    0.20
   1   2   0    0.84    0.39
   1  -2   0    0.92    0.29
   1  -2   1  310.65    2.10
   1   2   1  303.70    1.73
  -1  -2  -1  309.02    1.82
  -1   2  -2    0.02    0.31
   1   2   2    0.05    0.23
   1  -2   2    0.19    0.38
  -1  -2  -2    0.07    0.22
  -1  -2  -2   -0.07    0.33
  -1   2  -3  329.02    2.76
  -1  -2  -3  332.81    2.58
  -1  -2  -3  334.96    2.76
   1  -2   3  331.14    2.83
   1   2   3  329.94    1.47
  -1  -2  -4    0.42    0.48
  -1   2  -4    0.09    0.50
   1  -2   4    0.30    0.53
  -1  -2  -4    0.53    0.38
  -1  -2  -5   37.36    1.20
   1  -2   5   39.38    1.39
  -1   2  -5   37.87    1.30
  -1  -2  -5   38.96    1.30
   1  -2   6    0.68    0.83
  -1  -2  -6    0.16    0.51
  -1  -2  -6    0.27    0.68
  -1   2  -6    0.41    0.68
  -1   2  -7   10.78    0.99
   1  -2   7   11.24    1.08
  -1  -2  -7   10.42    0.95
  -1  -2  -7   10.01    0.85
  -1   2  -8   -0.09    0.73
  -1  -2  -8    0.43    0.61
   1  -2   8    0.37    0.89
  -1  -2  -8   -0.08    0.72
   1  -2   9    0.48    0.98
  -1  -2  -9   -0.03    0.79
  -1   2  -9    0.29    0.85
  -1   2 -10   -0.07    0.97
   1  -2  10    0.31    1.00
  -1  -2 -10    0.75    1.09
   1   2  10    1.46    1.20
   1   3 -10    7.81    1.12
   1  -3 -10    8.84    1.22
   1   3  -9    0.72    0.85
   1  -3  -9    0.10    0.74
   1  -3  -9    0.41    0.78
   1  -3  -8    0.39    0.64
   1   3  -8    0.42    0.74
   1  -3  -8   -0.51    0.69
   1   3  -7   86.63    2.17
   1  -3  -7   86.11    2.22
   1  -3  -7   84.26    2.09
  -1  -3   7   87.83    1.95
   1  -3  -6    1.62    0.65
   1  -3  -6    2.32    0.64
   1   3  -6    1.73    0.55
   1   3  -6    1.66    0.62
  -1  -3   6    2.44    0.66
   1  -3  -5   11.16    0.76
   1   3  -5   11.10    0.69
  -1  -3   5   12.20    0.71
   1  -3  -5    9.99    0.82
   1   3  -5   11.87    0.77
   1  -3  -4   35.33    1.00
   1   3  -4   35.42    1.06
   1  -3  -4   33.39    1.11
   1   3  -4   34.93    0.93
  -1  -3   4   34.47    0.85
  -1  -3   3    7.84    0.38
   1   3  -3    8.60    0.57
   1  -3  -3    7.54    0.54
   1  -3  -3    8.27    0.48
   1   3  -3    8.25    0.51
   1  -3  -2  209.06    1.60
   1   3  -2  207.69    1.77
   1  -3  -2  207.20    1.97
   1  -3  -2  209.00    1.96
   1   3  -2  206.04    1.87
  -1  -3   2  208.27    1.13
   1  -3  -1    5.51    0.26
   1   3  -1    5.56    0.58
  -1  -3   1    5.30    0.24
   1   3  -1    5.25    0.33
   1  -3  -1    5.80    0.38
   1  -3  -1    5.72    0.45
  -1  -3   0   95.00    1.19
   1  -3   0   91.09    1.19
   1  -3   0   92.17    1.02
   1   3   0   94.27    1.21
   1  -3   1   13.63    0.45
  -1  -3  -1   13.23    0.52
   1  -3   1   13.44    0.59
   1   3   1   13.10    0.55
  -1   3  -1   13.33    0.46
   1   3   2    0.37    0.28
  -1  -3  -2    0.37    0.32
  -1  -3  -2    0.26    0.30
  -1   3  -2    0.30    0.31
   1  -3   2    0.33    0.34
  -1  -3  -3   17.41    0.73
   1  -3   3   15.81    0.80
  -1   3  -3   16.55    0.73
  -1  -3  -3   16.41    0.69
   1   3   3   15.35    0.43
  -1   3  -4   13.37    0.77
  -1  -3  -4   12.68    0.69
   1  -3   4   12.71    0.82
  -1  -3  -4   11.72    0.74
   1  -3   5   26.39    1.19
  -1  -3  -5   27.89    1.09
  -1  -3  -5   26.42    1.11
  -1   3  -5   26.77    1.13
  -1  -3  -6    0.22    0.68
  -1  -3  -6    0.06    0.52
  -1   3  -6    0.07    0.67
   1  -3   6   -0.08    0.80
  -1   3  -7    6.04    0.90
  -1  -3  -7    5.78    0.73
  -1  -3  -7    6.49    0.87
   1  -3   7    6.04    0.92
  -1   3  -8    1.88    0.83
  -1  -3  -8    1.82    0.73
   1  -3   8    1.73    0.84
  -1  -3  -8    1.72    0.79
  -1  -3  -9    3.04    0.91
   1  -3   9    2.10    0.94
  -1   3  -9    3.10    1.00
  -1  -3 -10    6.05    1.12
  -1   3 -10    5.23    1.14
   1  -4 -10    4.30    1.00
   1   4 -10    3.89    1.08
   1  -4 -10    2.97    1.00
   1  -4  -9   -0.23    0.73
   1   4  -9    0.76    0.76
   1  -4  -9    0.37    0.83
   1  -4  -8    6.22    0.92
   1   4  -8    4.87    0.92
   1  -4  -8    6.00    0.86
   1  -4  -7    1.97    0.66
   1  -4  -7    1.36    0.70
   1   4  -7    1.36    0.69
   1   4  -6   23.66    1.15
   1   4  -6   23.73    1.01
   1  -4  -6   24.46    1.11
  -1  -4   6   23.41    0.99
   1  -4  -6   22.53    1.19
  -1  -4   5    0.21    0.46
   1   4  -5    0.30    0.51
   1  -4  -5    0.70    0.47
   1  -4  -5    0.24    0.50
   1   4  -5    0.06    0.56
   1   4  -4    3.18    0.56
  -1  -4   4    3.05    0.37
   1   4  -4    2.99    0.47
   1  -4  -4    3.03    0.46
   1  -4  -4    2.78    0.52
   1  -4  -3    0.28    0.29
   1  -4  -3   -0.04    0.37
   1   4  -3    0.21    0.35
   1   4  -3   -0.03    0.48
  -1  -4   3    0.13    0.24
   1   4  -2  132.62    1.44
   1  -4  -2  131.60    1.70
   1  -4  -2  126.66    1.72
   1   4  -2  129.94    1.65
   1  -4  -2  131.37    1.25
  -1  -4   2  132.88    1.06
   1   4  -1    1.17    0.47
   1  -4  -1    0.96    0.37
   1   4  -1    0.81    0.22
  -1  -4   1    0.97    0.23
   1  -4  -1    0.83    0.34
   1  -4  -1    0.83    0.15
   1  -4   0  506.97    3.01
  -1  -4   0  504.85    3.02
   1   4   0  507.14    2.95
   1  -4   0  509.63    2.73
   1  -4   1    0.44    0.31
   1  -4   1    0.29    0.33
   1   4   1    1.09    0.44
  -1   4  -1    0.34    0.24
  -1  -4  -1    0.27    0.32
   1   4   2    0.09    0.37
  -1  -4  -2    0.14    0.29
   1  -4   2    0.08    0.38
  -1   4  -2   -0.06    0.27
  -1  -4  -2    0.13    0.32
   1  -4   3    0.25    0.43
   1   4   3    0.15    0.30
  -1  -4  -3   -0.02    0.37
  -1   4  -3    0.06    0.39
  -1  -4  -3    0.04    0.35
   1  -4   4   -0.10    0.52
  -1  -4  -4    0.09    0.41
  -1  -4  -4    0.08    0.48
  -1   4  -4    0.17    0.46
  -1  -4  -5    0.55    0.56
  -1   4  -5    1.02    0.61
  -1  -4  -5    0.55    0.59
   1  -4   5    0.21    0.71
  -1   4  -6   16.47    1.07
  -1  -4  -6   16.61    1.06
  -1  -4  -6   17.48    1.03
   1  -4   6   17.02    1.15
  -1  -4  -7    0.45    0.69
  -1   4  -7   -0.12    0.69
  -1  -4  -7    0.20    0.62
   1  -4   7    0.04    0.80
   1  -4   8    0.12    0.85
  -1   4  -8   -0.04    0.72
  -1  -4  -8   -0.30    0.73
  -1  -4  -8   -0.34    0.68
   1  -4   9   -0.24    0.89
  -1   4  -9   -0.47    0.81
  -1  -4  -9    0.10    0.87
  -1  -4 -10   -0.46    0.99
   1  -5 -10    7.54    1.18
   1  -5 -10    6.95    1.05
   1   5 -10    8.16    1.15
   1  -5  -9    0.00    0.76
   1   5  -9    0.17    0.74
   1  -5  -9    0.25    0.71
   1  -5  -8    0.05    0.68
   1   5  -8    0.50    0.71
   1  -5  -8    0.32    0.73
   1   5  -7   68.46    1.97
   1  -5  -7   65.87    2.03
   1  -5  -7   66.00    1.87
   1  -5  -6    0.63    0.59
   1   5  -6    0.31    0.72
   1   5  -6    0.92    0.62
   1  -5  -6    0.23    0.68
   1  -5  -5    6.33    0.66
   1   5  -5    6.04    0.79
  -1  -5   5    6.50    0.55
   1  -5  -5    6.18    0.75
   1   5  -5    5.80    0.66
   1   5  -4   22.64    0.90
   1  -5  -4   23.19    0.99
  -1  -5   4   23.07    0.73
   1   5  -4   23.59    0.98
   1  -5  -4   24.47    0.85
   1   5  -3    0.74    0.59
  -1  -5   3    0.54    0.25
   1  -5  -3    0.48    0.29
   1   5  -3    0.56    0.34
   1  -5  -3    0.61    0.45
   1  -5  -2   91.35    1.01
  -1  -5   2   91.63    1.03
   1   5  -2   91.64    1.57
   1  -5  -2   92.50    1.54
   1  -5  -2   88.83    1.56
   1   5  -2   91.96    1.24
   1  -5  -1    2.26    0.14
   1  -5  -1    2.54    0.44
   1   5  -1    2.65    0.55
   1  -5  -1    2.63    0.39
  -1  -5   1    2.50    0.45
  -1  -5   1    2.71    0.29
   1   5  -1    2.31    0.25
   1  -5   0    8.62    0.56
  -1  -5   0    8.63    0.58
   1   5   0   10.39    0.64
   1  -5   0    9.50    0.53
   1   5   1    1.84    0.52
   1  -5   1    1.42    0.36
  -1   5  -1    1.50    0.24
   1  -5   1    1.54    0.39
  -1  -5  -1    1.31    0.39
   1   5   2    2.38    0.48
  -1  -5  -2    1.84    0.41
  -1   5  -2    1.99    0.35
  -1  -5  -2    2.27    0.37
   1  -5   2    1.86    0.45
  -1  -5  -3    4.22    0.55
   1  -5   3    4.88    0.58
   1   5   3    4.33    0.47
  -1   5  -3    4.84    0.48
  -1  -5  -3    4.75    0.49
  -1   5  -4    8.03    0.67
   1  -5   4    9.63    0.77
  -1  -5  -4    7.64    0.68
  -1  -5  -4    8.00    0.72
  -1  -5  -5   17.63    0.99
  -1  -5  -5   17.42    0.98
   1  -5   5   16.45    1.02
  -1   5  -5   19.11    1.03
  -1   5  -6    0.20    0.67
  -1  -5  -6    0.26    0.63
  -1  -5  -6    0.42    0.60
   1  -5   6    0.27    0.68
   1  -5   7    3.81    0.79
  -1  -5  -7    2.20    0.68
  -1   5  -7    2.55    0.77
  -1  -5  -7    2.47    0.75
  -1   5  -8    1.16    0.79
  -1  -5  -8    0.77    0.65
   1  -5   8    0.29    0.71
  -1  -5  -8    0.95    0.75
  -1  -5  -9    2.08    0.96
  -1   5  -9    2.85    1.01
  -1  -5  -9    3.39    0.81
  -1  -5 -10    2.94    0.97
   1  -6 -10    0.05    0.79
   1  -6 -10    1.27    0.95
   1   6 -10    0.40    0.84
   1   6  -9    4.81    0.97
   1  -6  -9    5.24    0.95
   1  -6  -9    6.76    1.03
   1  -6  -8    0.01    0.62
   1   6  -8    0.17    0.66
   1  -6  -8    0.70    0.84
   1  -6  -7   31.43    1.36
   1   6  -7   30.30    1.41
   1  -6  -7   29.69    1.49
   1  -6  -6    0.37    0.52
   1   6  -6    0.04    0.59
   1   6  -6    0.10    0.78
   1  -6  -6   -0.06    0.64
   1   6  -5   15.98    1.03
   1  -6  -5   14.40    0.80
   1  -6  -5   14.88    1.00
   1   6  -5   15.05    0.90
   1   6  -4    1.56    0.79
   1  -6  -4    1.49    0.42
   1   6  -4    1.53    0.47
  -1  -6   4    1.58    0.36
   1  -6  -4    1.40    0.58
   1  -6  -3  135.60    2.18
   1   6  -3  136.96    2.12
   1  -6  -3  141.13    1.57
  -1  -6   3  139.82    1.50
   1   6  -3  141.88    1.78
   1  -6  -2    0.19    0.40
  -1  -6   2    0.13    0.24
   1  -6  -2    0.11    0.17
   1   6  -2    0.25    0.26
   1  -6  -2    0.12    0.46
  -1  -6   1   16.92    0.83
   1  -6  -1   17.01    0.74
   1  -6  -1   17.51    0.79
   1   6  -1   17.61    0.51
  -1  -6   1   17.03    0.60
   1  -6   0    2.99    0.43
  -1  -6   0    2.74    0.51
   1  -6   0    2.36    0.46
   1  -6   1   71.33    1.42
   1  -6   1   71.52    1.35
  -1  -6  -1   72.76    1.45
   1   6   1   72.98    1.40
  -1   6  -1   71.78    0.84
  -1  -6  -2    0.09    0.31
  -1  -6  -2    0.11    0.42
   1  -6   2    0.16    0.41
   1  -6   2    0.09    0.40
  -1   6  -2    0.19    0.27
   1   6   2    0.59    0.51
  -1   6  -3  127.32    1.74
  -1  -6  -3  123.22    2.08
   1  -6   3  124.91    2.03
   1   6   3  125.18    1.64
  -1  -6  -3  126.92    1.74
  -1  -6  -4    1.77    0.59
  -1   6  -4    2.60    0.56
   1  -6   4    2.08    0.67
  -1  -6  -4    2.38    0.54
   1  -6   5   15.81    1.07
  -1   6  -5   17.25    1.01
  -1  -6  -5   17.01    1.02
  -1  -6  -5   18.23    0.99
  -1   6  -6    0.85    0.67
  -1  -6  -6    0.83    0.62
   1  -6   6    1.37    0.68
  -1  -6  -6    0.63    0.60
  -1  -6  -7    7.78    0.90
   1  -6   7    7.84    0.97
  -1   6  -7    7.25    0.94
  -1  -6  -7    8.59    0.94
  -1  -6  -8   -0.26    0.81
  -1   6  -8    0.73    0.76
  -1  -6  -8    0.87    0.84
  -1   6  -9    0.29    0.90
  -1  -6  -9    0.63    0.79
  -1  -6  -9    0.53    0.91
   1   7 -10    6.57    1.07
   1  -7  -9    0.23    0.87
   1   7  -9    0.41    0.77
   1  -7  -9    0.75    0.68
   1  -7  -8   -0.05    0.84
   1   7  -8    0.44    0.67
   1  -7  -8    0.87    0.66
   1  -7  -7   52.04    1.97
   1   7  -7   53.94    1.80
   1  -7  -7   52.46    1.66
   1  -7  -6    0.53    0.49
   1   7  -6    0.76    0.57
   1  -7  -6    1.14    0.64
   1   7  -6    0.69    0.83
   1   7  -5    5.23    0.99
   1  -7  -5    4.79    0.76
   1   7  -5    4.86    0.64
   1  -7  -5    4.99    0.58
   1   7  -4   14.88    0.76
   1  -7  -4   13.76    0.67
   1   7  -4   14.85    1.11
   1  -7  -4   13.01    0.95
   1  -7  -3    7.30    0.71
   1  -7  -3    8.20    0.44
  -1  -7   3    7.75    0.48
   1   7  -3    8.23    0.53
   1  -7  -2   62.76    1.53
  -1  -7   2   56.60    1.49
  -1  -7   2   61.78    1.08
   1   7  -2   62.24    1.06
   1  -7  -2   58.42    1.47
  -1  -7   1    5.61    0.66
   1  -7  -1    5.20    0.60
   1  -7  -1    5.53    0.56
  -1  -7   1    5.41    0.48
   1  -7   0   45.82    1.19
  -1  -7   0   44.98    1.27
   1  -7   0   44.92    1.21
   1  -7   1    7.41    0.62
  -1  -7  -1    7.10    0.64
   1  -7   1    6.62    0.60
   1   7   1    8.16    0.78
  -1   7  -1    7.00    0.30
   1   7   2    1.09    0.61
   1  -7   2    0.61    0.51
  -1  -7  -2    0.49    0.32
   1  -7   2    0.84    0.48
  -1   7  -2    0.53    0.28
  -1  -7  -2    0.25    0.51
   1   7   3    7.31    0.73
  -1   7  -3    7.41    0.56
   1  -7   3    6.50    0.71
  -1  -7  -3    6.08    0.73
  -1  -7  -3    6.62    0.55
  -1  -7  -4    5.05    0.60
   1  -7   4    5.19    0.76
  -1  -7  -4    5.24    0.72
  -1   7  -4    4.74    0.63
  -1  -7  -5   10.57    0.81
  -1  -7  -5   10.01    0.90
  -1   7  -5   10.58    0.86
   1  -7   5   10.41    0.90
  -1  -7  -6    0.44    0.60
  -1   7  -6    0.53    0.59
   1  -7   6    0.10    0.62
  -1  -7  -6    0.53    0.67
   1  -7   7    5.41    0.88
  -1  -7  -7    6.62    0.95
  -1  -7  -7    7.15    0.91
  -1   7  -7    6.24    0.90
  -1  -7  -8    0.34    0.78
  -1   7  -8    1.48    0.82
  -1  -7  -8    1.55    0.81
  -1   7  -9    2.71    0.92
  -1  -7  -9    1.60    0.89
  -1  -7  -9    2.58    0.85
   1   8  -9   -0.54    0.73
   1  -8  -9    0.39    0.86
   1   8  -8    2.61    0.80
   1  -8  -8    1.99    0.91
   1   8  -7    3.49    0.75
   1  -8  -7    2.85    0.84
   1   8  -6   15.56    1.14
   1   8  -6   15.08    0.98
   1  -8  -6   13.98    1.12
   1   8  -5    1.25    0.93
   1   8  -5    0.38    0.52
   1  -8  -5    0.79    0.61
   1   8  -4    1.79    0.46
   1   8  -4    2.61    0.98
   1  -8  -4    1.62    0.67
   1  -8  -3    0.19    0.55
   1   8  -3    0.06    0.32
  -1  -8   3   -0.04    0.38
  -1  -8   2   29.71    1.26
   1  -8  -2   31.15    1.17
   1   8  -2   32.15    0.78
  -1  -8   2   30.60    0.87
   1  -8  -2   32.54    1.26
  -1  -8   1    3.68    0.67
  -1  -8   1    4.53    0.55
   1  -8  -1    1.07    0.53
   1  -8  -1    1.33    0.55
   1  -8   0  148.77    2.28
   1  -8   0  152.18    2.26
  -1  -8   0  154.15    2.40
  -1  -8  -1    0.50    0.54
   1   8   1    0.98    0.73
   1  -8   1    0.38    0.52
   1  -8   1    0.66    0.51
  -1  -8  -2    0.09    0.32
  -1  -8  -2    0.13    0.56
   1  -8   2    0.31    0.50
   1  -8   2    0.15    0.55
   1   8   2    0.16    0.72
  -1  -8  -3    0.49    0.62
  -1  -8  -3    0.14    0.38
   1  -8   3    0.37    0.58
   1  -8   3   -0.05    0.56
   1   8   3   -0.20    0.67
  -1   8  -4    0.40    0.46
  -1  -8  -4    0.30    0.46
  -1  -8  -4    0.10    0.57
   1  -8   4    0.06    0.59
  -1  -8  -5    1.25    0.51
   1  -8   5    1.28    0.65
  -1   8  -5    1.05    0.55
  -1  -8  -5    0.97    0.60
  -1  -8  -6    9.23    0.96
   1  -8   6    7.69    0.90
  -1  -8  -6    9.52    0.85
  -1   8  -6    9.69    0.88
  -1   8  -7    0.50    0.63
  -1  -8  -7   -0.32    0.72
  -1   8  -8    0.71    0.69
  -1  -8  -8   -0.19    0.85
  -1   8  -9    0.41    0.76
  -1  -8  -9    0.21    0.84
   1  -9  -9   -0.42    0.85
   1  -9  -8   -0.08    0.85
   1  -9  -7   34.45    1.76
   1   9  -7   32.54    1.57
   1  -9  -6    0.25    0.77
   1   9  -6    0.56    0.92
   1   9  -5    2.02    0.92
   1  -9  -5    1.33    0.66
   1  -9  -4    7.23    0.84
   1   9  -4    9.47    1.20
   1  -9  -3    0.21    0.60
  -1  -9   3    0.10    0.72
  -1  -9   2   17.94    0.77
   1  -9  -2   17.33    1.08
  -1  -9   2   15.71    1.07
   1  -9  -2   17.62    1.01
  -1  -9   1    0.89    0.65
   1  -9  -1    0.69    0.61
   1  -9  -1    0.90    0.57
  -1  -9   1    1.30    0.50
   1  -9   0    0.49    0.59
  -1  -9   0    0.36    0.60
   1  -9   0    0.80    0.53
   1   9   1    1.45    0.84
   1  -9   1    0.47    0.56
   1  -9   1    0.30    0.55
  -1  -9  -1    0.65    0.60
  -1  -9  -2    1.04    0.64
   1  -9   2    0.92    0.63
   1   9   2    1.75    0.86
   1  -9   2    1.36    0.60
  -1  -9  -3    2.16    0.67
   1  -9   3    1.20    0.58
   1  -9   3    1.51    0.65
   1   9   3    1.70    0.83
   1  -9   4    2.50    0.67
   1  -9   4    2.30    0.66
  -1  -9  -4    2.20    0.69
   1  -9   5    6.51    0.82
  -1  -9  -5    7.37    0.94
  -1  -9  -6    0.22    0.68
  -1  -9  -7    1.03    0.75
  -1  -9  -8   -0.17    0.86
  -1  -9  -9    1.02    0.95
   1 -10  -8    0.36    0.93
   1  10  -7   13.26    1.30
   1 -10  -7   13.25    1.27
   1 -10  -6    0.32    0.76
   1  10  -6   -0.02    0.94
   1  10  -5    6.67    1.10
   1 -10  -5    5.34    0.89
   1 -10  -4    1.15    0.68
   1  10  -4    1.45    0.95
  -1 -10   4    0.78    0.70
   1 -10  -3   36.02    1.47
  -1 -10   3   35.72    1.53
   1 -10  -2    0.09    0.63
   1 -10  -2    0.72    0.74
  -1 -10   2    0.11    0.72
   1 -10  -1    5.41    0.77
  -1 -10   1    6.14    0.87
  -1 -10   1    6.09    0.69
   1 -10  -1    5.44    0.81
   1 -10   0    1.54    0.66
   1 -10   0    1.56    0.63
  -1 -10   0    1.53    0.69
   1 -10   1   15.57    1.00
   1 -10   1   13.67    0.97
   1  10   1   15.68    1.23
  -1 -10  -1   14.05    1.03
   1  10   2    0.67    0.90
   1 -10   2   -0.07    0.70
   1 -10   2    0.11    0.57
  -1 -10  -2    0.14    0.61
   1  10   3   38.98    1.44
   1 -10   3   37.24    1.38
   1 -10   3   38.92    1.46
  -1 -10  -3   35.85    1.51
   1 -10   4    2.15    0.69
   1 -10   4    1.90    0.65
  -1 -10  -4    2.19    0.70
   1 -10   5    3.65    0.78
  -1 -10  -5    4.69    0.87
  -1 -10  -6    0.90    0.73
  -1 -10  -7    2.73    0.91
  -1 -10  -8   -0.02    0.84
   1 -11  -8    0.14    0.98
   1  11  -7   23.81    1.65
   1 -11  -7   25.55    1.67
   1 -11  -6    0.42    0.74
   1  11  -6    0.26    0.97
  -1 -11   5    1.80    0.81
   1  11  -5    1.96    1.08
   1 -11  -5    1.97    0.78
  -1 -11   4    6.49    0.94
   1  11  -4    7.01    1.20
   1 -11  -4    5.80    0.92
   1  11  -3    4.14    1.13
  -1 -11   3    1.98    0.74
   1 -11  -3    3.53    0.81
   1 -11  -2   13.76    1.08
   1 -11  -2   14.21    1.09
  -1 -11   2   13.88    1.14
  -1 -11   1    4.91    0.87
  -1 -11   1    4.96    0.69
   1 -11  -1    4.90    0.76
   1 -11  -1    4.59    0.81
  -1 -11   0   15.32    1.11
   1 -11   0   13.84    1.01
   1 -11   0   13.53    0.99
   1  11   0   16.61    1.32
   1 -11   1    3.24    0.73
   1 -11   1    2.40    0.71
   1  11   1    4.65    1.04
  -1 -11  -1    3.77    0.79
  -1 -11  -2    0.44    0.65
   1 -11   2   -0.07    0.64
   1 -11   2    0.15    0.61
   1  11   2    0.97    0.92
  -1 -11  -3    3.23    0.77
   1 -11   3    3.02    0.79
   1 -11   3    3.27    0.70
   1  11   3    3.75    0.91
   1 -11   4    1.41    0.76
   1 -11   4    0.82    0.63
  -1 -11  -4    0.43    0.69
  -1 -11  -5    2.95    0.76
   1 -11   5    2.54    0.81
  -1 -11  -6    1.19    0.79
  -1 -11  -7    3.58    0.99
   1 -12  -7    3.50    0.99
   1  12  -7    3.41    1.28
  -1 -12   6    7.58    1.12
   1  12  -6    7.35    1.29
   1 -12  -6    7.40    1.10
   1  12  -5    0.66    1.08
   1 -12  -5    0.61    0.76
  -1 -12   5    1.34    0.87
  -1 -12   4    1.32    0.84
   1  12  -4    2.02    1.17
   1 -12  -4    1.47    0.80
   1 -12  -3   -0.12    0.71
  -1 -12   3   -0.46    0.81
   1  12  -3    0.13    1.06
  -1 -12   2    7.45    1.03
   1 -12  -2    8.12    1.00
   1 -12  -2    6.59    0.86
   1  12  -2    9.54    1.30
  -1 -12   1    0.73    0.74
   1 -12  -1    0.41    0.69
   1  12  -1    1.23    1.08
   1 -12  -1    0.26    0.73
   1 -12   0   40.92    1.57
   1  12   0   45.36    1.86
   1 -12   0   45.46    1.70
  -1 -12   0   43.95    1.70
  -1 -12  -1    0.18    0.70
   1 -12   1    0.46    0.64
   1 -12   1   -0.04    0.65
   1  12   1    0.27    0.98
   1 -12   2    0.51    0.68
   1 -12   2   -0.06    0.66
  -1 -12  -2    0.03    0.75
   1  12   2    0.66    0.97
   1 -12   3   -0.04    0.71
   1 -12   3    0.67    0.63
  -1 -12  -3    0.27    0.66
   1 -12   4   -0.11    0.76
  -1 -12  -4    0.43    0.69
  -1 -12  -5    1.26    0.76
   1 -12   5    1.21    0.80
  -1 -12  -6    5.68    1.05
  -1 -12  -7    0.91    1.03
  -1 -13   7   13.07    1.44
   1  13  -7   12.15    1.59
   1 -13  -6   -0.12    0.97
  -1 -13   6   -0.88    0.92
   1  13  -6    0.40    1.18
   1  13  -5    0.56    1.07
   1 -13  -5    0.72    0.83
  -1 -13   5    0.09    0.85
  -1 -13   4    1.50    0.87
   1 -13  -4    3.25    0.87
   1  13  -4    4.05    1.24
  -1 -13   3    0.72    0.81
   1  13  -3    0.90    1.05
   1 -13  -3    0.05    0.73
   1 -13  -2    3.20    0.78
  -1 -13   2    2.65    0.90
   1  13  -2    2.52    1.07
   1 -13  -2    2.75    0.84
   1 -13  -1   -0.05    0.73
   1 -13  -1    0.63    0.73
  -1 -13   1    0.54    0.79
   1  13  -1    0.85    1.02
  -1 -13   0    0.00    0.71
   1 -13   0   -0.23    0.69
   1 -13   0   -0.29    0.68
   1  13   0    0.35    1.02
   1 -13   1    1.01    0.64
  -1 -13  -1    0.78    0.71
   1 -13   1    0.28    0.68
   1  13   1    0.45    1.07
   1 -13   2    0.65    0.62
   1  13   2    0.39    0.99
   1 -13   2    0.55    0.70
  -1 -13  -2    0.33    0.80
   1 -13   3    1.00    0.76
  -1 -13  -3    0.27    0.73
   1 -13   4    0.32    0.74
  -1 -13  -4    0.23    0.78
  -1 -13  -5    2.57    0.91
  -1 -13  -6    0.25    0.85
   1 -14  -6    0.08    0.97
   1  14  -6   -0.08    1.29
  -1 -14   6   -0.42    0.98
   1 -14  -5    2.02    0.91
  -1 -14   5    1.53    1.04
   1  14  -5    1.11    1.35
  -1 -14   4    0.75    0.91
   1  14  -4    1.11    1.14
   1 -14  -4    0.27    0.88
  -1 -14   3    7.33    1.10
   1 -14  -3    9.25    1.08
   1  14  -3    8.01    1.45
   1 -14  -2    0.77    0.74
  -1 -14   2   -0.40    0.82
   1  14  -2    1.05    1.17
  -1 -14   1    3.09    0.93
   1 -14  -1    3.48    0.89
   1  14  -1    4.25    1.27
   1 -14  -1    1.71    0.86
   1 -14   0    0.90    0.73
  -1 -14   0   -0.37    0.79
   1  14   0    0.62    1.12
   1 -14   0    1.58    0.79
  -1 -14  -1    2.93    0.90
   1 -14   1    3.43    0.80
   1 -14   1    2.64    0.75
   1  14   1    3.37    1.12
   1  14   2    0.40    0.96
   1 -14   2    0.23    0.75
  -1 -14  -2    0.16    0.79
  -1 -14  -3   13.03    1.27
   1 -14   3   11.39    1.17
   1 -14   4    0.93    0.86
  -1 -14  -4    0.45    0.78
  -1 -14  -5    0.38    0.91
  -1 -15   5    0.27    0.96
   1  15  -5    1.05    1.44
  -1 -15   4    1.64    0.98
   1  15  -4    2.22    1.42
   1 -15  -4    3.31    0.94
  -1 -15   3    0.74    0.93
   1  15  -3    1.34    1.23
   1 -15  -3    1.42    0.90
  -1 -15   2    3.66    1.00
   1  15  -2    3.39    1.33
   1 -15  -2    3.36    0.93
   1 -15  -1    3.03    0.89
  -1 -15   1    3.05    0.97
   1  15  -1    2.69    1.27
   1 -15  -1    2.59    0.92
  -1 -15   0    3.92    1.01
   1 -15   0    5.19    1.01
   1 -15   0    4.25    0.92
   1  15   0    5.45    1.30
  -1 -15  -1    1.12    0.89
   1 -15   1    2.33    0.89
   1  15   1    2.45    1.16
  -1 -15  -2    0.42    0.84
   1 -15   2    0.55    0.85
   1  15   2    0.87    1.10
  -1 -15  -3    2.28    0.89
   1 -15   3    2.17    1.00
   1 -15   4    0.32    0.81
  -1 -15  -4   -0.28    0.90
  -1 -16   4    0.70    0.98
  -1 -16   3    0.28    0.87
   1  16  -3    0.58    1.35
   1 -16  -3    0.76    0.90
  -1 -16   2    2.14    1.07
   1 -16  -2    1.60    0.89
   1  16  -2    2.57    1.31
   1  16  -1    0.26    1.28
   1 -16  -1    0.44    0.85
  -1 -16   1    0.31    0.94
   1 -16  -1    0.10    0.84
   1  16   0   14.49    1.66
   1 -16   0   14.29    1.34
  -1 -16   0   15.40    1.42
   1 -16   1    0.30    0.86
  -1 -16  -1    0.34    0.84
   1  16   1   -0.10    1.23
  -1 -16  -2   -0.50    0.97
   1 -16   2    0.71    0.89
   1  16   2    0.73    1.03
   1 -16   3    1.16    0.96
   1 -17  -1   -0.49    0.86
   1 -17   0   -1.51    0.94
   1  17   1    0.24    1.26
   1 -17   1   -1.26    0.86
   1 -17   2    0.00    0.96
   2   0 -10    9.99    1.19
   2   0  -9   -0.09    0.74
   2   0  -8    0.11    0.69
   2   0  -7    0.21    0.65
   2   0  -6    0.93    0.57
   2   0  -5    0.15    0.44
   2   0  -5   -0.05    0.33
   2   0  -4  133.93    1.55
   2   0  -4  132.65    1.98
   2   0  -3    0.10    0.31
   2   0  -3    0.07    0.32
   2   0  -2   25.52    0.73
   2   0  -2   28.89    0.78
   2   0  -2   27.71    0.56
   2   0  -1   -0.07    0.31
   2   0  -1   -0.06    0.37
   2   0  -1   -0.03    0.23
   2   0   0    0.33    0.31
   2   0   0    0.21    0.37
   2   0   1   -0.05    0.32
   2   0   1   -0.14    0.38
   2   0   2    0.19    0.29
  -2   0  -2    0.16    0.18
   2   0   2    0.21    0.44
   2   0   3    0.40    0.58
  -2   0  -3    1.67    0.52
   2   0   3    0.26    0.33
  -2   0  -3    1.40    0.31
   2   0   4   38.49    1.36
  -2   0  -4   40.40    0.98
  -2   0  -4   36.89    1.24
  -2   0  -5    0.17    0.71
   2   0   5    0.48    0.83
   2   0   6   22.02    1.37
  -2   0  -6   20.64    1.20
   2   0   7    0.17    0.88
  -2   0  -7   -0.35    0.74
  -2   0  -8    1.99    0.90
   2   0   8    2.14    1.00
  -2   0  -9    0.24    0.90
   2   0   9   -0.43    1.10
   2  -1 -10   22.73    1.50
   2   1 -10   23.33    1.52
   2   1  -9    1.02    0.77
   2  -1  -9   -0.50    0.79
   2   1  -8    0.09    0.71
   2  -1  -8   -0.04    0.68
   2   1  -7    1.46    0.73
   2  -1  -7    0.78    0.62
   2  -1  -6    0.16    0.58
   2   1  -6    0.92    0.63
   2  -1  -6    0.66    0.63
   2   1  -6    0.69    0.40
   2   1  -5    3.22    0.58
   2  -1  -5    3.18    0.60
   2   1  -5    2.99    0.43
   2  -1  -5    2.75    0.39
   2  -1  -5    3.08    0.56
   2   1  -4  136.11    2.01
   2  -1  -4  139.43    2.09
   2  -1  -4  140.14    1.53
   2  -1  -4  134.97    1.99
   2   1  -4  138.10    1.61
   2   1  -3   54.64    1.03
   2   1  -3   52.68    1.16
   2  -1  -3   55.00    1.18
   2  -1  -3   52.34    0.97
   2  -1  -3   52.42    1.12
   2   1  -2   11.40    0.58
   2  -1  -2   10.52    0.52
   2  -1  -2   11.58    0.48
   2   1  -2   11.12    0.30
   2  -1  -2   10.76    0.53
   2   1  -2   10.87    0.55
   2  -1  -2   10.99    0.52
   2   1  -1   65.53    1.08
   2  -1  -1   64.19    1.10
   2   1  -1   69.44    0.74
   2  -1  -1   67.97    0.97
   2  -1  -1   62.50    0.85
   2   1  -1   66.64    1.11
   2  -1  -1   66.48    1.05
   2   1   0    3.89    0.38
   2   1   0    3.78    0.43
   2  -1   0    4.11    0.42
   2  -1   0    4.03    0.45
   2   1   1    0.78    0.39
   2  -1   1    0.88    0.39
   2   1   1    0.76    0.33
  -2  -1  -1    0.62    0.18
   2  -1   1    0.61    0.35
  -2  -1  -2    9.78    0.37
   2  -1   2    9.09    0.50
   2   1   2    8.75    0.45
   2  -1   2    9.74    0.67
  -2   1  -3   35.30    1.10
  -2  -1  -3   33.55    0.80
   2  -1   3   31.94    1.11
  -2  -1  -3   32.96    1.07
   2   1   3   32.66    0.75
  -2   1  -4   11.94    0.83
   2  -1   4   10.99    0.92
   2   1   4   14.01    0.53
  -2  -1  -4   12.74    0.65
  -2  -1  -4   12.07    0.86
  -2  -1  -5    0.28    0.45
   2  -1   5    0.42    0.78
  -2   1  -5    0.17    0.64
  -2  -1  -5    0.45    0.69
   2  -1   6    0.93    0.89
  -2   1  -6    0.02    0.70
   2   1   6    1.38    0.92
  -2  -1  -6    0.85    0.48
  -2  -1  -6    0.78    0.74
  -2   1  -7    0.75    0.75
  -2  -1  -7    1.18    0.76
   2   1   7    1.09    0.98
   2  -1   7    0.91    0.86
  -2  -1  -8    2.91    0.82
   2  -1   8    4.12    1.06
  -2   1  -8    2.95    0.86
   2   1   8    3.72    1.13
   2   1   9   -0.59    1.08
  -2  -1  -9    0.47    0.97
  -2   1  -9    0.33    0.92
   2  -1   9   -0.01    1.06
   2  -2 -10    0.52    0.85
   2   2 -10    0.16    0.93
   2   2  -9   10.23    1.07
   2  -2  -9    9.31    1.09
   2  -2  -8   -0.24    0.66
   2   2  -8   -0.14    0.75
   2  -2  -8    0.05    0.67
   2   2  -7    0.01    0.64
   2  -2  -7   -0.05    0.62
   2  -2  -7    0.13    0.67
   2  -2  -6    0.36    0.61
   2   2  -6    0.23    0.54
   2  -2  -6    0.51    0.58
   2   2  -6    0.17    0.47
   2  -2  -5    1.30    0.49
   2  -2  -5    1.31    0.32
   2   2  -5    1.27    0.46
   2  -2  -5    1.31    0.55
   2   2  -5    1.46    0.50
   2  -2  -4    0.12    0.39
   2  -2  -4    0.29    0.43
   2  -2  -4    0.37    0.32
   2   2  -4    0.56    0.43
   2   2  -4    0.43    0.38
   2  -2  -3  210.01    2.04
   2   2  -3  206.28    2.24
   2  -2  -3  209.00    1.88
   2  -2  -3  207.00    2.13
   2   2  -3  206.82    2.03
   2  -2  -3  211.19    2.27
   2   2  -2    1.16    0.31
   2  -2  -2    1.27    0.32
   2  -2  -2    1.30    0.38
   2   2  -2    1.30    0.41
   2  -2  -2    1.34    0.35
   2  -2  -2    1.02    0.31
   2   2  -1   14.92    0.34
   2   2  -1   14.18    0.66
   2  -2  -1   15.11    0.62
   2  -2  -1   14.99    0.47
   2  -2  -1   15.05    0.57
   2  -2  -1   15.46    0.55
   2   2  -1   15.47    0.59
   2  -2   0    0.27    0.34
   2   2   0    0.19    0.40
  -2  -2   0    0.20    0.25
   2  -2   0    0.19    0.38
   2  -2   0    0.11    0.14
   2  -2   1   82.46    1.36
   2  -2   1   82.35    1.27
  -2  -2  -1   84.01    1.00
   2   2   1   85.71    1.21
   2  -2   2    0.14    0.42
   2   2   2   -0.05    0.30
  -2  -2  -2   -0.06    0.23
  -2   2  -3  120.22    1.90
  -2  -2  -3  125.43    1.55
   2   2   3  127.21    1.37
   2  -2   3  119.70    1.99
  -2  -2  -3  123.48    1.93
  -2   2  -4    0.21    0.57
  -2  -2  -4    0.10    0.36
  -2  -2  -4   -0.02    0.55
   2  -2   4    0.39    0.67
  -2   2  -5    2.38    0.75
  -2  -2  -5    3.03    0.73
  -2  -2  -5    2.28    0.49
   2  -2   5    1.81    0.86
  -2  -2  -6    0.04    0.68
  -2  -2  -6    0.70    0.48
  -2   2  -6   -0.12    0.72
   2  -2   6    0.17    0.84
  -2   2  -7    0.62    0.76
  -2  -2  -7    1.31    0.77
   2  -2   7    0.91    0.91
  -2   2  -8   -0.03    0.85
  -2  -2  -8    0.68    0.86
   2  -2   8   -0.27    0.94
   2   2   8    0.81    1.01
   2   2   9    2.25    1.11
  -2   2  -9    1.51    0.91
   2  -2   9    1.48    1.06
  -2  -2  -9    2.47    0.97
   2   3 -10   23.26    1.61
   2  -3 -10   21.44    1.50
   2  -3  -9    0.59    0.70
   2   3  -9    0.89    0.79
   2  -3  -9    1.01    0.83
   2  -3  -8    0.12    0.69
   2   3  -8    0.00    0.64
   2  -3  -8   -0.10    0.61
   2  -3  -7    2.75    0.78
   2   3  -7    2.65    0.69
   2  -3  -7    1.42    0.64
   2   3  -6    0.20    0.57
   2  -3  -6    0.15    0.55
   2  -3  -6   -0.13    0.61
   2   3  -6    0.44    0.55
   2  -3  -5    4.61    0.41
   2  -3  -5    4.34    0.63
   2   3  -5    5.16    0.62
  -2  -3   5    4.43    0.45
   2   3  -5    4.40    0.60
   2  -3  -5    4.48    0.61
   2   3  -4  103.33    1.61
   2  -3  -4  103.51    1.85
   2  -3  -4  101.16    1.33
   2   3  -4   97.91    1.76
  -2  -3   4   99.40    1.06
   2  -3  -4  100.32    1.67
   2  -3  -3   35.64    1.00
   2   3  -3   33.19    0.98
   2  -3  -3   35.12    0.91
   2  -3  -3   34.58    1.01
   2   3  -3   35.43    0.98
   2  -3  -3   33.31    0.84
   2  -3  -2   16.73    0.68
   2   3  -2   18.24    0.68
   2  -3  -2   18.17    0.59
   2  -3  -2   17.43    0.67
   2   3  -2   17.97    0.74
   2  -3  -2   17.99    0.65
   2  -3  -1   39.37    0.94
   2  -3  -1   40.18    0.79
   2   3  -1   39.79    0.89
   2  -3  -1   40.57    0.95
   2   3  -1   39.70    0.97
   2  -3   0    6.33    0.50
  -2  -3   0    6.39    0.42
   2   3   0    6.33    0.54
   2  -3   0    6.79    0.52
   2  -3   0    6.60    0.31
  -2  -3  -1   -0.01    0.25
   2  -3   1    0.05    0.17
   2  -3   1   -0.09    0.37
   2   3   1   -0.09    0.38
  -2  -3  -2   13.61    0.56
   2  -3   2   12.88    0.73
   2   3   2   13.61    0.58
  -2   3  -3   18.17    0.85
   2  -3   3   18.16    0.90
  -2  -3  -3   18.35    0.85
  -2  -3  -3   17.86    0.69
   2   3   3   19.03    0.62
  -2   3  -4    8.63    0.77
  -2  -3  -4    9.17    0.79
   2  -3   4    9.35    0.87
  -2  -3  -4   10.07    0.66
  -2   3  -5    0.32    0.65
  -2  -3  -5    0.11    0.63
   2  -3   5    0.42    0.79
  -2  -3  -5    0.11    0.48
   2  -3   6    0.46    0.79
  -2   3  -6    1.21    0.72
  -2  -3  -6    0.87    0.68
  -2  -3  -6    0.62    0.52
   2  -3   7    1.30    0.89
  -2  -3  -7    1.79    0.78
  -2   3  -7    1.32    0.77
   2  -3   8    3.30    1.06
  -2   3  -8    2.84    0.88
  -2  -3  -8    3.38    0.87
  -2  -3  -9    0.41    0.93
  -2   3  -9   -0.09    0.85
   2  -3   9   -0.24    1.05
   2   3   9    0.43    1.02
   2  -3  10   -0.52    1.08
   2  -4 -10    7.47    1.09
   2  -4 -10    8.40    1.17
   2   4 -10    8.50    1.14
   2   4  -9    0.19    0.70
   2  -4  -9    0.26    0.77
   2  -4  -9    0.65    0.80
   2   4  -8    0.51    0.73
   2  -4  -8    0.65    0.68
   2  -4  -8    0.68    0.75
   2  -4  -7   -0.10    0.65
   2  -4  -7    0.22    0.57
   2   4  -7    0.01    0.64
   2  -4  -6    0.36    0.57
   2   4  -6    0.30    0.61
   2  -4  -6    0.89    0.63
   2   4  -6    0.66    0.62
   2  -4  -5    0.19    0.53
   2   4  -5    0.37    0.57
   2   4  -5   -0.08    0.53
   2  -4  -5    0.17    0.47
   2  -4  -4   91.02    1.58
  -2  -4   4   84.88    0.90
   2   4  -4   87.88    1.68
   2   4  -4   88.67    1.62
   2  -4  -4   90.57    1.81
   2   4  -3    0.33    0.34
   2   4  -3    0.30    0.60
   2  -4  -3    0.05    0.39
   2  -4  -3    0.31    0.31
   2  -4  -3    0.32    0.45
   2   4  -2   18.40    0.85
   2  -4  -2   19.08    0.77
   2  -4  -2   18.68    0.60
   2  -4  -2   20.43    0.73
   2   4  -2   19.23    0.70
   2  -4  -1    0.19    0.36
   2   4  -1    0.03    0.50
   2  -4  -1    0.13    0.27
   2   4   0    1.52    0.47
   2  -4   0    1.23    0.39
  -2  -4   0    1.34    0.37
   2  -4   0    1.20    0.26
   2   4   1    0.50    0.43
   2  -4   1   -0.03    0.25
  -2  -4  -1    0.12    0.31
   2  -4   1    0.04    0.41
  -2  -4  -2   -0.01    0.36
   2  -4   2   -0.07    0.44
   2  -4   2    0.11    0.26
   2   4   2   -0.04    0.39
  -2   4  -2   -0.05    0.37
  -2   4  -3    0.02    0.44
  -2  -4  -3   -0.20    0.47
   2  -4   3    0.16    0.54
   2   4   3    0.36    0.34
  -2  -4  -3    0.07    0.36
  -2  -4  -4   23.49    1.06
   2  -4   4   22.40    1.12
  -2  -4  -4   23.11    0.93
  -2   4  -4   23.23    1.07
   2  -4   5    0.47    0.72
  -2  -4  -5    0.04    0.53
  -2  -4  -5   -0.04    0.71
  -2   4  -5   -0.06    0.70
  -2   4  -6   15.44    1.08
  -2  -4  -6   16.04    1.10
   2  -4   6   17.40    1.20
  -2  -4  -6   17.14    0.99
  -2   4  -7    0.71    0.76
  -2  -4  -7    0.68    0.75
   2  -4   7    0.02    0.87
  -2   4  -8    2.18    0.90
   2  -4   8    1.68    0.93
  -2  -4  -8    1.65    0.82
  -2  -4  -9   -0.03    0.92
   2  -4   9    0.98    1.00
  -2   4  -9    1.17    0.87
   2  -4  10    0.32    1.09
   2  -5 -10   17.77    1.55
   2   5 -10   15.19    1.38
   2  -5 -10   15.86    1.33
   2  -5  -9    0.02    0.82
   2  -5  -9    0.06    0.70
   2   5  -9    0.00    0.74
   2  -5  -8    0.38    0.64
   2   5  -8    0.19    0.68
   2  -5  -8    0.02    0.73
   2   5  -7    0.13    0.65
   2  -5  -7    0.49    0.59
   2  -5  -7    0.51    0.69
   2  -5  -6    0.05    0.55
   2   5  -6    0.29    0.70
   2  -5  -6    0.51    0.66
   2   5  -6    0.15    0.62
   2  -5  -5    1.18    0.51
   2  -5  -5    1.05    0.56
   2   5  -5    0.83    0.75
   2   5  -5    0.85    0.55
   2  -5  -4   73.10    1.69
   2  -5  -4   71.25    1.40
   2   5  -4   73.81    1.55
   2   5  -4   70.41    1.61
   2  -5  -3   18.57    0.86
   2   5  -3   19.07    0.98
   2  -5  -3   19.94    0.70
   2   5  -3   19.29    0.78
   2  -5  -3   20.78    0.94
   2   5  -2    6.95    0.48
   2  -5  -2    6.53    0.40
   2  -5  -2    6.47    0.53
   2  -5  -2    6.22    0.58
   2   5  -2    6.60    0.73
   2   5  -1   31.03    1.04
   2  -5  -1   31.28    0.84
   2  -5  -1   30.98    0.99
  -2  -5   1   31.71    0.99
   2  -5   0    2.30    0.34
  -2  -5   0    2.70    0.46
   2  -5   0    2.19    0.47
   2   5   0    1.87    0.60
   2  -5   1    3.12    0.36
   2  -5   1    3.46    0.53
   2   5   1    3.84    0.56
  -2  -5  -1    3.05    0.48
  -2  -5  -2    1.73    0.43
   2  -5   2    1.62    0.52
   2  -5   2    1.68    0.35
  -2   5  -2    1.73    0.41
   2   5   2    1.93    0.49
  -2  -5  -3   26.74    0.99
   2   5   3   26.28    0.83
   2  -5   3   27.05    1.14
  -2   5  -3   26.64    0.98
  -2  -5  -3   27.06    1.01
  -2   5  -4    7.75    0.79
  -2  -5  -4    7.75    0.76
  -2  -5  -4    6.91    0.69
   2  -5   4    7.36    0.85
   2  -5   5    0.27    0.70
  -2   5  -5    0.88    0.66
  -2  -5  -5    0.00    0.68
  -2  -5  -5    0.52    0.52
  -2   5  -6    1.17    0.68
  -2  -5  -6    0.55    0.69
  -2  -5  -6    0.71    0.53
   2  -5   6    0.35    0.69
  -2   5  -7    0.67    0.76
  -2  -5  -7    1.17    0.75
  -2  -5  -7    0.84    0.65
   2  -5   7    1.08    0.83
  -2  -5  -8    2.66    0.84
  -2   5  -8    1.62    0.82
   2  -5   8    2.38    0.89
  -2   5  -9    0.55    0.91
  -2  -5  -9    0.18    0.98
   2  -5   9    0.12    0.86
   2  -6 -10   -0.72    0.89
   2   6 -10    0.40    0.90
   2  -6 -10    1.38    0.96
   2   6  -9    5.77    0.96
   2  -6  -9    6.73    0.94
   2  -6  -9    6.21    1.09
   2   6  -8   -0.32    0.69
   2  -6  -8   -0.45    0.66
   2  -6  -8   -0.35    0.73
   2   6  -7   -0.08    0.67
   2  -6  -7   -0.33    0.59
   2  -6  -7    0.58    0.72
   2   6  -6    0.79    0.61
   2  -6  -6    1.03    0.60
   2  -6  -6    0.93    0.66
   2   6  -6    0.63    0.82
   2  -6  -5    0.99    0.49
   2   6  -5    1.07    0.84
   2  -6  -5    1.24    0.61
   2   6  -5    1.19    0.57
   2   6  -4    0.90    0.44
   2   6  -4    0.93    0.82
   2  -6  -4    1.19    0.40
   2  -6  -4    0.92    0.57
   2   6  -3   77.66    1.76
   2  -6  -3   79.61    1.68
   2  -6  -3   81.09    1.28
   2  -6  -3   77.08    1.74
   2   6  -3   78.07    1.46
   2  -6  -2    3.74    0.60
   2  -6  -2    4.37    0.52
   2  -6  -2    3.93    0.33
   2   6  -2    4.53    0.77
   2   6  -2    4.13    0.43
   2  -6  -1    0.55    0.37
   2  -6  -1    0.63    0.46
  -2  -6   1    0.42    0.47
   2   6  -1    0.29    0.65
   2  -6   0    0.74    0.37
  -2  -6   0    1.04    0.45
   2  -6   0    0.67    0.45
   2   6   0    1.01    0.65
   2   6   1   20.08    0.93
   2  -6   1   20.99    0.75
  -2  -6  -1   19.85    0.86
   2  -6   1   18.83    0.92
  -2   6  -1   19.21    0.63
   2  -6   2    0.05    0.49
  -2  -6  -2    0.09    0.44
   2   6   2    0.23    0.50
   2  -6   2    0.09    0.38
  -2   6  -2    0.16    0.37
  -2   6  -3   51.51    1.28
  -2  -6  -3   53.46    1.35
  -2  -6  -3   51.47    1.41
   2  -6   3   52.57    1.56
   2   6   3   53.23    1.21
   2  -6   3   52.73    1.21
  -2   6  -4   -0.36    0.58
   2  -6   4   -0.04    0.66
  -2  -6  -4    0.02    0.59
  -2  -6  -4    0.11    0.50
  -2   6  -5    1.76    0.64
  -2  -6  -5    1.59    0.68
  -2  -6  -5    0.99    0.54
   2  -6   5    1.38    0.72
  -2  -6  -6    1.21    0.67
  -2   6  -6    0.64    0.63
   2  -6   6    0.54    0.69
  -2  -6  -6    0.52    0.59
  -2   6  -7    0.97    0.79
  -2  -6  -7    1.00    0.70
  -2  -6  -7    0.06    0.65
   2  -6   7    0.95    0.77
   2  -6   8    0.45    0.76
  -2   6  -8    0.83    0.83
  -2  -6  -8   -0.12    0.76
  -2   6  -9    0.87    0.90
  -2  -6  -9    1.44    0.94
   2   7 -10   14.09    1.36
   2  -7  -9    0.38    0.95
   2   7  -9    2.17    0.79
   2   7  -8   -0.12    0.70
   2  -7  -8    0.33    0.64
   2  -7  -8   -0.59    0.78
   2   7  -7    2.53    0.72
   2  -7  -7    3.82    0.70
   2  -7  -7    3.15    0.85
   2   7  -7    3.23    0.86
   2  -7  -6   -0.16    0.43
   2  -7  -6    0.33    0.63
   2   7  -6   -0.09    0.54
   2   7  -6   -0.26    0.81
   2  -7  -5    3.05    0.54
   2   7  -5    3.35    0.61
   2   7  -5    3.08    0.99
   2  -7  -5    3.41    0.76
   2   7  -4   38.85    1.21
   2  -7  -4   34.49    1.33
   2   7  -4   38.95    1.48
   2  -7  -4   37.55    1.03
   2   7  -3   10.01    0.64
   2  -7  -3    8.92    0.49
   2  -7  -3   10.09    0.88
   2   7  -3    9.47    0.95
   2  -7  -3    8.06    0.74
   2  -7  -2   10.01    0.81
   2   7  -2   11.62    0.61
   2  -7  -2   10.76    0.72
   2   7  -2   11.01    1.00
  -2  -7   1    9.74    0.77
   2   7  -1   10.70    0.95
   2  -7  -1   10.77    0.79
   2  -7  -1   10.90    0.70
   2   7   0    2.32    0.69
   2  -7   0    1.71    0.43
  -2  -7   0    2.16    0.57
   2  -7   0    1.87    0.54
  -2  -7  -1    0.26    0.51
   2  -7   1    0.33    0.42
  -2   7  -1    0.25    0.28
   2  -7   1    0.52    0.51
   2   7   1    0.42    0.66
  -2   7  -2    5.74    0.52
   2   7   2    5.46    0.78
   2  -7   2    5.93    0.61
  -2  -7  -2    4.92    0.67
   2  -7   2    5.11    0.72
   2  -7   3    5.97    0.64
  -2  -7  -3    5.45    0.67
   2  -7   3    5.97    0.77
   2   7   3    7.29    0.69
  -2   7  -3    5.81    0.61
  -2  -7  -3    6.21    0.66
  -2   7  -4    4.65    0.66
  -2  -7  -4    4.70    0.70
  -2  -7  -4    4.82    0.70
   2  -7   4    3.60    0.81
   2  -7   5    0.20    0.69
  -2   7  -5   -0.12    0.56
  -2  -7  -5   -0.20    0.64
  -2  -7  -5    0.17    0.48
  -2   7  -6    0.43    0.67
  -2  -7  -6    1.11    0.70
   2  -7   6    0.82    0.71
  -2  -7  -6    1.00    0.68
  -2   7  -7    0.97    0.76
  -2  -7  -7    2.18    0.78
   2  -7   7    1.67    0.81
  -2  -7  -7    0.97    0.73
  -2   7  -8    1.65    0.87
  -2  -7  -8    2.88    0.92
   2  -7   8    0.50    0.85
  -2   7  -9   -0.56    0.85
  -2  -7  -9    0.02    0.84
   2   8 -10    3.87    0.92
   2   8  -9   -0.51    0.84
   2  -8  -9    1.52    0.88
   2  -8  -8   -0.15    0.74
   2   8  -8    0.02    0.75
   2   8  -7   -0.02    0.61
   2  -8  -7    0.33    0.74
   2   8  -7   -0.03    0.90
   2   8  -6   -0.09    0.83
   2  -8  -6    0.11    0.70
   2   8  -6   -0.09    0.45
   2   8  -5    0.31    0.93
   2   8  -5    0.33    0.48
   2  -8  -5   -0.05    0.58
   2  -8  -4   35.18    1.40
   2   8  -4   32.73    1.52
   2   8  -4   36.33    1.18
   2   8  -3    0.21    0.37
   2   8  -3    0.68    0.92
   2  -8  -3    0.25    0.57
   2  -8  -3    0.07    0.70
   2   8  -2    6.61    0.51
   2  -8  -2    6.55    0.70
   2  -8  -2    5.98    0.76
  -2  -8   2    6.05    0.78
   2   8  -2    6.09    0.99
   2  -8  -1    0.24    0.44
   2  -8  -1    0.56    0.59
  -2  -8   1    0.27    0.57
   2   8  -1    0.41    0.84
   2   8   0    1.88    0.85
   2  -8   0    1.50    0.48
  -2  -8   0    1.26    0.60
   2  -8   0    1.82    0.63
  -2  -8  -1   -0.01    0.55
   2  -8   1    0.03    0.46
   2  -8   1   -0.07    0.56
   2   8   1   -0.02    0.81
  -2  -8  -2    0.13    0.55
   2  -8   2    0.12    0.51
   2   8   2    0.48    0.73
   2  -8   2    0.61    0.60
  -2  -8  -3    0.44    0.58
   2  -8   3   -0.21    0.55
  -2  -8  -3   -0.08    0.47
   2   8   3    0.92    0.67
   2  -8   3   -0.01    0.65
  -2  -8  -4    7.61    0.82
   2  -8   4    8.41    0.74
   2  -8   4    9.04    0.91
  -2  -8  -4    8.46    0.75
   2  -8   5    0.19    0.67
  -2   8  -5    0.30    0.52
  -2  -8  -5   -0.43    0.60
  -2  -8  -5    0.61    0.56
  -2  -8  -6    9.39    0.92
   2  -8   6    9.21    1.03
  -2  -8  -6   10.41    1.01
  -2   8  -6    9.55    0.94
  -2   8  -7    0.17    0.70
   2  -8   7   -0.12    0.75
  -2  -8  -7    0.03    0.69
  -2  -8  -7   -0.55    0.72
   2  -9  -9   -1.97    0.94
   2  -9  -8    0.53    0.95
   2  -9  -7    0.45    0.76
   2   9  -7    0.16    0.59
   2   9  -7   -0.24    0.95
   2  -9  -6    0.50    0.66
   2   9  -6    0.11    0.96
   2  -9  -5    0.24    0.70
   2   9  -5    0.34    0.86
   2  -9  -4   24.28    1.27
   2   9  -4   25.07    1.45
  -2  -9   3    4.84    0.86
   2   9  -3    5.00    1.07
   2  -9  -3    5.41    0.93
   2  -9  -3    4.93    0.76
   2  -9  -2    1.04    0.57
  -2  -9   2    0.99    0.71
   2  -9  -2    1.04    0.71
   2   9  -2    0.64    0.99
   2  -9  -1    8.30    0.88
  -2  -9   1    8.69    0.89
   2  -9  -1    7.94    0.78
   2   9  -1    8.74    1.12
  -2  -9   0    0.07    0.64
   2  -9   0    0.50    0.61
   2  -9   0    0.06    0.56
   2   9   0    0.09    0.91
  -2  -9  -1    1.21    0.63
   2  -9   1    1.41    0.57
   2  -9   1    1.37    0.65
   2   9   1    1.96    0.95
  -2  -9  -2   -0.11    0.60
   2   9   2    0.05    0.84
   2  -9   2   -0.16    0.54
   2  -9   2    0.08    0.65
   2  -9   3   11.05    0.84
  -2  -9  -3   11.84    0.94
   2  -9   3   11.17    0.97
   2   9   3   11.82    0.96
   2  -9   4    2.83    0.76
  -2  -9  -4    3.03    0.72
   2  -9   5    0.77    0.72
  -2  -9  -5    0.25    0.68
   2  -9   6    1.11    0.72
  -2  -9  -6    1.03    0.67
  -2  -9  -7    1.55    0.75
   2 -10  -8   -0.42    0.81
   2 -10  -7   -0.15    0.83
   2  10  -7   -0.23    1.05
   2 -10  -6    1.10    0.70
   2  10  -6    1.11    1.07
   2  10  -5   -0.22    0.99
   2 -10  -5    0.48    0.67
   2  10  -4    0.82    0.91
   2 -10  -4    0.28    0.59
  -2 -10   3   21.51    1.30
   2  10  -3   20.40    1.44
   2 -10  -3   18.81    1.15
   2 -10  -3   20.55    1.26
   2 -10  -2    3.08    0.72
   2 -10  -2    2.64    0.81
  -2 -10   2    2.42    0.84
   2  10  -2    2.67    1.03
   2 -10  -1    0.30    0.61
   2 -10  -1    0.48    0.74
  -2 -10   1    0.24    0.73
   2  10  -1   -0.09    1.03
   2 -10   0    0.96    0.64
  -2 -10   0    0.72    0.69
   2 -10   0    0.72    0.64
   2  10   0    0.88    1.03
   2 -10   1    4.42    0.69
   2 -10   1    4.68    0.79
   2  10   1    4.98    1.07
  -2 -10  -1    4.91    0.83
   2 -10   2    0.00    0.62
  -2 -10  -2   -0.27    0.67
   2 -10   2    0.01    0.55
   2  10   2    0.25    0.84
  -2 -10  -3   14.87    1.12
   2 -10   3   16.32    0.98
   2 -10   3   14.67    1.09
   2 -10   4    0.59    0.66
  -2 -10  -4    0.27    0.64
  -2 -10  -5   -0.03    0.71
   2 -10   5    1.30    0.74
   2 -10   6    0.66    0.79
  -2 -10  -6    0.66    0.71
  -2 -10  -7   -0.38    0.75
   2 -11  -8   -0.30    0.90
   2 -11  -7    3.14    1.00
   2  11  -7    3.09    1.12
   2 -11  -6    0.11    0.74
   2  11  -6    0.49    1.01
   2  11  -5   -0.11    0.99
   2 -11  -5    0.92    0.71
   2 -11  -4   10.97    1.07
   2  11  -4   11.24    1.31
  -2 -11   4    9.67    1.13
   2 -11  -3    3.02    0.86
  -2 -11   3    2.96    0.86
   2  11  -3    3.66    1.11
   2 -11  -3    3.09    0.73
   2 -11  -2    2.49    0.77
  -2 -11   2    2.45    0.82
   2 -11  -2    3.08    0.75
   2  11  -2    4.02    1.05
   2 -11  -1    2.40    0.75
  -2 -11   1    2.45    0.82
   2 -11  -1    2.23    0.70
   2  11  -1    2.85    1.10
   2 -11   0   -0.01    0.60
   2 -11   0   -0.10    0.67
  -2 -11   0    0.05    0.65
   2  11   0    0.36    0.93
  -2 -11  -1    0.73    0.67
   2 -11   1    1.25    0.60
   2 -11   1    1.03    0.64
   2  11   1    0.75    0.88
  -2 -11  -2    1.88    0.71
   2 -11   2    2.28    0.68
   2 -11   2    0.87    0.71
   2  11   2    1.82    0.89
  -2 -11  -3    1.27    0.76
   2 -11   3    1.07    0.59
   2 -11   3    1.20    0.71
   2 -11   4    0.88    0.71
  -2 -11  -4    1.31    0.75
   2 -11   5    0.16    0.77
  -2 -11  -5   -0.19    0.74
  -2 -11  -6    0.70    0.76
  -2 -11  -7    1.63    0.87
   2 -12  -7    1.07    0.83
   2  12  -7    0.22    1.16
  -2 -12   6    0.64    0.90
   2 -12  -6    0.65    0.88
   2  12  -6    0.90    1.06
  -2 -12   5   -0.03    0.89
   2  12  -5   -0.11    1.09
   2 -12  -5    0.02    0.81
   2  12  -4   12.21    1.40
   2 -12  -4   10.71    1.09
  -2 -12   4   11.13    1.21
  -2 -12   3    0.43    0.83
   2  12  -3    0.91    1.07
   2 -12  -3    0.59    0.80
   2 -12  -3    0.14    0.64
   2 -12  -2    1.25    0.63
  -2 -12   2    0.63    0.79
   2  12  -2    1.97    1.15
   2 -12  -2    1.37    0.79
   2 -12  -1    0.21    0.74
  -2 -12   1   -0.03    0.79
   2 -12  -1    0.10    0.68
   2  12  -1   -0.11    1.03
   2 -12   0    1.59    0.63
   2 -12   0    1.72    0.75
  -2 -12   0    1.65    0.80
   2  12   0    2.12    1.07
   2 -12   1   -0.25    0.60
   2 -12   1    0.04    0.69
  -2 -12  -1    0.29    0.72
   2  12   1    0.02    0.89
  -2 -12  -2    0.88    0.79
   2 -12   2    1.21    0.62
   2 -12   2    0.76    0.68
   2  12   2    1.38    0.95
  -2 -12  -3    0.04    0.67
   2 -12   3    0.23    0.59
   2 -12   3   -0.04    0.74
   2 -12   4    1.99    0.79
  -2 -12  -4    3.28    0.93
  -2 -12  -5    0.64    0.82
  -2 -12  -6    3.36    0.99
  -2 -13   7    0.43    1.11
   2  13  -7   -0.52    1.25
  -2 -13   6   -0.82    1.04
   2 -13  -6    0.23    0.82
   2  13  -6    0.49    1.22
  -2 -13   5    0.80    0.92
   2  13  -5   -0.46    1.20
   2 -13  -5    0.64    0.84
  -2 -13   4    7.27    1.11
   2  13  -4    7.49    1.42
   2 -13  -4    8.02    1.07
  -2 -13   3    1.48    0.87
   2  13  -3    1.29    1.16
   2 -13  -3    1.14    0.87
   2 -13  -3   -0.72    0.74
   2 -13  -2    0.13    0.66
  -2 -13   2    0.07    0.89
   2  13  -2    0.43    1.09
   2 -13  -2    0.05    0.78
   2 -13  -1    2.26    0.87
   2 -13  -1    1.64    0.76
  -2 -13   1    1.75    0.83
   2  13  -1    2.23    1.19
   2  13   0    0.19    1.03
  -2 -13   0    0.03    0.73
   2 -13   0    0.08    0.71
   2 -13   0    0.52    0.66
  -2 -13  -1    0.51    0.81
   2 -13   1   -0.28    0.73
   2 -13   1    0.14    0.59
   2  13   1    0.48    1.06
  -2 -13  -2   -0.41    0.81
   2 -13   2   -0.02    0.72
   2 -13   2   -0.08    0.63
   2  13   2    0.38    0.93
  -2 -13  -3    4.29    0.93
   2 -13   3    3.13    0.85
  -2 -13  -4    0.91    0.88
  -2 -13  -5    0.70    0.80
  -2 -13  -6    0.13    0.92
  -2 -14   6    0.86    1.08
   2  14  -6    0.57    1.36
   2 -14  -6    0.39    0.85
  -2 -14   5   -0.30    1.03
   2  14  -5   -0.23    1.27
   2 -14  -5   -1.78    0.88
  -2 -14   4   -0.20    0.90
   2  14  -4    1.20    1.24
   2 -14  -4    0.46    0.80
  -2 -14   3    4.79    1.02
   2  14  -3    5.40    1.29
   2 -14  -3    3.78    0.90
   2 -14  -2    1.16    0.82
  -2 -14   2    0.75    0.91
   2 -14  -2    0.72    0.90
   2  14  -2    0.49    1.12
   2 -14  -1    0.19    0.87
   2 -14  -1    0.71    0.72
  -2 -14   1   -0.01    0.84
   2  14  -1    0.46    1.16
   2 -14   0    0.81    0.84
   2 -14   0    0.49    0.78
  -2 -14   0    0.28    0.82
   2  14   0    0.12    1.16
  -2 -14  -1    0.57    0.84
   2 -14   1    0.97    0.67
   2 -14   1    1.02    0.77
   2  14   1    0.43    1.04
  -2 -14  -2    0.49    0.82
   2 -14   2    0.04    0.74
   2 -14   2   -0.04    0.72
   2  14   2    0.31    1.06
  -2 -14  -3    5.01    1.03
   2 -14   3    4.50    0.94
  -2 -14  -4    0.26    0.84
  -2 -14  -5    0.28    0.89
  -2 -15   5    0.32    1.04
   2  15  -5   -0.01    1.28
   2 -15  -5   -1.25    0.89
   2  15  -4    2.94    1.38
  -2 -15   4    1.99    1.05
   2 -15  -4    3.10    0.98
  -2 -15   3    0.73    0.97
   2  15  -3    0.91    1.31
   2 -15  -3    1.01    0.83
   2 -15  -2    0.22    0.78
   2 -15  -2    1.76    0.97
  -2 -15   2    0.83    0.92
   2  15  -2    0.89    1.16
  -2 -15   1    2.30    0.96
   2 -15  -1    1.84    0.84
   2  15  -1    0.62    1.19
   2 -15  -1    0.36    0.90
   2 -15   0    0.09    0.89
   2 -15   0    0.57    0.71
  -2 -15   0    0.98    0.83
   2  15   0    0.12    1.19
   2 -15   1    1.00    0.78
  -2 -15  -1    0.43    0.83
   2 -15   1   -0.24    0.66
   2  15   1    0.54    1.10
   2 -15   2    0.36    0.76
  -2 -15  -2   -0.32    0.98
   2  15   2    0.92    1.20
  -2 -15  -3    0.87    0.91
  -2 -16   3    0.53    0.96
   2 -16  -3   -0.65    0.89
   2 -16  -2   -0.36    0.91
   2  16  -2    0.67    1.25
  -2 -16   2    0.44    1.01
   2 -16  -2    0.76    1.05
   2 -16  -1    0.39    0.74
  -2 -16   1   -0.60    0.93
   2  16  -1    0.25    1.23
   2 -16  -1    0.84    0.99
   2 -16   0    1.83    1.05
   2 -16   0    1.40    0.87
   2  16   0    2.65    1.28
  -2 -16   0    1.02    0.92
   2 -16   1    0.11    0.91
  -2 -16  -1    0.14    1.06
   2 -16   1   -0.49    0.81
   2  16   1   -0.23    1.23
   2 -17  -1    0.61    0.89
   2 -17  -1    1.53    1.02
   2 -17   0    0.69    0.95
   2 -17   0    0.14    0.96
   2  17   1    0.75    1.40
   3   0 -10    7.93    1.13
   3   0  -9   -0.10    0.75
   3   0  -8    2.42    0.70
   3   0  -7   -0.23    0.66
   3   0  -6    2.91    0.70
   3   0  -6    2.50    0.55
   3   0  -5    0.13    0.46
   3   0  -5    0.09    0.45
   3   0  -4   33.88    1.02
   3   0  -4   35.67    1.14
   3   0  -3   -0.02    0.38
   3   0  -3    0.03    0.27
   3   0  -3    0.00    0.42
   3   0  -2    9.18    0.64
   3   0  -2   10.20    0.63
   3   0  -2   10.18    0.45
   3   0  -1   -0.09    0.44
   3   0  -1   -0.04    0.28
   3   0   0   39.04    0.94
   3   0   0   36.59    1.02
   3   0   1   -0.09    0.47
   3   0   1    0.12    0.42
   3   0   2   48.95    1.15
   3   0   2   50.36    1.34
  -3   0  -2   43.90    0.54
   3   0   3    0.26    0.66
   3   0   3    0.02    0.40
   3   0   4    2.43    0.84
  -3   0  -4    1.91    0.75
   3   0   4    2.21    0.48
   3   0   5    0.34    0.87
  -3   0  -5    0.56    0.74
  -3   0  -6    9.73    1.06
   3   0   6    9.58    1.15
   3   0   7    0.41    0.96
  -3   0  -7    0.14    0.80
   3   0   8    1.12    1.09
  -3   0  -8    0.30    0.88
  -3   0  -9   -0.17    1.04
   3   0   9   -0.45    1.14
   3  -1 -10    1.19    0.93
   3   1 -10    1.47    0.88
   3   1  -9    0.72    0.53
   3  -1  -9    0.45    0.73
   3   1  -8    7.74    0.95
   3  -1  -8    7.53    0.93
   3   1  -7   -0.19    0.58
   3  -1  -7    0.15    0.66
   3   1  -6   13.11    0.77
   3   1  -6   13.55    0.97
   3  -1  -6   12.63    0.72
   3  -1  -6   12.66    0.98
   3  -1  -5    8.86    0.64
   3  -1  -5    9.10    0.81
   3   1  -5    9.61    0.67
   3   1  -5   10.35    0.81
   3  -1  -5    9.58    0.75
   3   1  -4    2.04    0.47
   3  -1  -4    2.12    0.48
   3   1  -4    2.04    0.49
   3  -1  -4    1.69    0.45
   3  -1  -4    2.27    0.49
   3   1  -3   12.10    0.72
   3  -1  -3   12.72    0.69
   3  -1  -3   12.17    0.66
   3   1  -3   12.97    0.72
   3   1  -3   11.72    0.42
   3  -1  -3   11.41    0.55
   3  -1  -3   12.22    0.69
   3  -1  -2    1.51    0.39
   3  -1  -2    1.79    0.34
   3   1  -2    1.80    0.25
   3  -1  -2    1.77    0.44
   3   1  -2    1.35    0.43
   3   1  -2    1.24    0.48
   3  -1  -1    5.53    0.55
   3   1  -1    5.16    0.59
   3  -1  -1    5.85    0.47
   3   1  -1    5.43    0.37
   3   1   0    3.34    0.53
   3  -1   0    3.01    0.48
  -3  -1   0    3.85    0.28
   3  -1   0    2.92    0.45
   3   1   0    3.51    0.45
   3   1   1    2.30    0.50
   3  -1   1    1.71    0.45
  -3  -1  -1    1.85    0.20
   3   1   1    1.56    0.44
   3  -1   1    1.99    0.48
   3  -1   2   -0.19    0.55
   3  -1   2    0.00    0.42
   3   1   2    2.15    0.65
  -3  -1  -2    0.27    0.19
   3  -1   3    8.50    0.62
   3   1   3    8.83    0.61
   3  -1   3    8.99    0.87
  -3  -1  -3    8.81    0.43
   3   1   3    8.09    0.84
   3   1   4    1.06    0.80
   3  -1   4    0.69    0.80
  -3   1  -4    0.96    0.67
  -3  -1  -4    0.94    0.69
   3   1   5    0.62    0.87
  -3   1  -5   -0.10    0.70
  -3  -1  -5   -0.32    0.70
   3  -1   5   -0.48    0.87
  -3   1  -6   27.57    1.42
  -3  -1  -6   28.77    1.44
   3  -1   6   30.43    1.60
   3   1   6   32.02    1.67
  -3   1  -7    0.12    0.82
  -3  -1  -7    0.21    0.86
   3   1   7    0.86    0.98
   3  -1   7   -0.06    0.99
  -3   1  -8    0.21    0.89
  -3  -1  -8    0.20    0.79
   3   1   8    0.88    1.01
   3  -1   8    0.40    1.03
   3   1   9    0.27    1.19
  -3   1  -9    0.31    1.04
  -3  -1  -9    0.03    0.91
   3  -1   9   -0.21    1.16
   3  -2 -10   -0.01    0.84
   3   2 -10    0.20    0.79
   3   2  -9   -0.08    0.77
   3  -2  -9    0.33    0.76
   3   2  -8    0.25    0.72
   3  -2  -8   -0.02    0.61
   3  -2  -7    1.52    0.74
   3   2  -7    0.86    0.67
   3  -2  -7    1.01    0.65
   3   2  -6    0.22    0.53
   3   2  -6    0.08    0.61
   3  -2  -6   -0.16    0.62
   3  -2  -6   -0.17    0.64
   3  -2  -5    6.48    0.73
   3  -2  -5    6.32    0.57
   3   2  -5    6.29    0.66
   3   2  -5    6.67    0.74
   3  -2  -5    6.07    0.67
   3   2  -4    0.26    0.41
   3  -2  -4    0.29    0.40
   3  -2  -4    0.31    0.43
   3  -2  -4    0.11    0.44
   3   2  -4    0.03    0.50
   3  -2  -4    0.13    0.42
   3  -2  -3    0.28    0.38
   3  -2  -3    0.20    0.38
   3  -2  -3    0.51    0.40
   3  -2  -3    0.18    0.43
   3   2  -3    0.42    0.40
   3   2  -3    0.18    0.48
   3  -2  -2    0.03    0.33
   3   2  -2    0.14    0.38
   3  -2  -2    0.13    0.34
   3   2  -2   -0.10    0.49
   3   2  -2    0.21    0.16
   3  -2  -2    0.06    0.44
   3  -2  -2    0.11    0.31
   3  -2  -1  348.87    3.00
   3   2  -1  354.14    2.07
   3   2  -1  351.55    2.95
   3  -2  -1  345.60    2.77
   3  -2  -1  352.27    2.12
   3  -2   0    0.03    0.40
  -3  -2   0    0.17    0.26
   3  -2   0    0.05    0.44
   3  -2   0    0.05    0.12
   3   2   0    0.15    0.45
   3   2   0    0.25    0.37
   3  -2   1   23.49    0.90
   3   2   1   23.14    0.86
  -3  -2  -1   23.08    0.58
   3  -2   1   23.15    0.91
   3   2   1   23.52    0.87
   3   2   2    0.56    0.53
   3  -2   2    0.14    0.44
   3   2   2    0.27    0.41
   3  -2   2    0.08    0.48
  -3  -2  -2    0.07    0.22
   3  -2   3    4.23    0.78
   3   2   3    5.03    0.53
  -3  -2  -3    5.09    0.41
   3   2   3    6.22    0.83
   3  -2   4    0.11    0.77
  -3   2  -4    0.35    0.69
  -3  -2  -4    0.13    0.64
   3   2   4    0.64    0.82
  -3   2  -5    2.22    0.85
  -3  -2  -5    3.23    0.82
   3  -2   5    1.98    0.88
   3   2   5    3.24    0.98
   3   2   6    1.95    1.03
  -3   2  -6   -0.30    0.76
  -3  -2  -6    0.26    0.75
   3  -2   6    0.60    0.87
  -3   2  -7   -0.06    0.79
  -3  -2  -7   -0.35    0.86
   3  -2   7    0.42    0.94
   3   2   7    0.54    0.94
   3   2   8   -0.27    1.06
  -3   2  -8    0.44    0.94
  -3  -2  -8    0.88    0.88
   3  -2   8   -0.17    1.02
  -3  -2  -9   -0.16    1.04
   3  -2   9   -0.32    1.06
   3   2   9   -0.08    1.18
   3   3 -10    0.57    0.86
   3  -3 -10    0.54    0.89
   3   3  -9   -0.10    0.71
   3  -3  -9   -0.18    0.78
   3   3  -8    7.04    0.95
   3  -3  -8    7.46    0.99
   3  -3  -8    7.67    0.95
   3  -3  -7   -0.13    0.60
   3   3  -7    0.35    0.64
   3  -3  -7   -0.09    0.63
   3   3  -6   10.56    0.90
   3  -3  -6   11.49    0.99
   3   3  -6   10.56    0.86
   3  -3  -6   10.32    0.88
   3   3  -5    4.49    0.69
   3   3  -5    4.30    0.66
   3  -3  -5    4.21    0.56
   3  -3  -5    4.36    0.70
   3  -3  -5    4.78    0.63
   3  -3  -4    0.99    0.46
   3  -3  -4    0.86    0.42
   3   3  -4    1.01    0.58
   3  -3  -4    0.87    0.46
   3   3  -4    0.76    0.45
   3  -3  -4    1.30    0.50
   3  -3  -3    8.28    0.58
   3  -3  -3    9.28    0.66
   3   3  -3    8.90    0.73
   3  -3  -3    8.44    0.61
   3  -3  -3    8.61    0.61
   3   3  -3    8.65    0.65
   3  -3  -2    1.97    0.39
   3   3  -2    1.45    0.44
   3  -3  -2    1.31    0.42
   3  -3  -2    1.69    0.49
   3  -3  -2    1.48    0.34
   3   3  -2    1.68    0.53
   3   3  -1    1.23    0.27
   3  -3  -1    1.04    0.52
   3  -3  -1    1.04    0.41
   3   3  -1    0.96    0.53
   3  -3  -1    1.27    0.28
   3   3   0    2.44    0.55
   3  -3   0    2.59    0.23
  -3  -3   0    2.57    0.37
   3  -3   0    2.60    0.50
   3   3   0    2.87    0.42
   3  -3   0    2.28    0.54
   3  -3   1    1.77    0.51
   3  -3   1    1.55    0.51
   3   3   1    1.72    0.46
  -3  -3  -1    2.16    0.33
  -3  -3  -2    0.30    0.28
   3  -3   2    0.03    0.11
   3  -3   2    0.40    0.49
   3  -3   2    0.13    0.52
   3   3   2    0.00    0.42
   3  -3   3    7.48    0.81
   3   3   3    7.03    0.60
  -3  -3  -3    7.26    0.52
  -3   3  -3    6.95    0.76
   3  -3   4    3.70    0.80
  -3   3  -4    2.98    0.73
  -3  -3  -4    2.87    0.71
  -3  -3  -4    2.93    0.46
   3  -3   5   -0.03    0.78
  -3   3  -5   -0.20    0.71
  -3  -3  -5    0.42    0.73
  -3   3  -6   28.05    1.43
  -3  -3  -6   28.35    1.44
   3  -3   6   27.10    1.52
   3  -3   7    0.21    0.91
   3   3   7    1.03    0.99
  -3   3  -7    0.66    0.73
  -3  -3  -7    0.25    0.79
   3  -3   8    0.16    1.08
  -3   3  -8    0.30    0.80
  -3  -3  -8    0.01    0.85
   3   3   8    0.49    1.11
   3  -3   9    0.52    1.11
   3  -4 -10    6.15    1.04
   3   4 -10    6.21    1.07
   3   4  -9   -0.43    0.77
   3  -4  -9   -0.49    0.71
   3  -4  -9    0.35    0.76
   3  -4  -8    2.10    0.81
   3   4  -8    1.19    0.72
   3  -4  -8    1.99    0.70
   3   4  -7    0.23    0.63
   3  -4  -7    0.22    0.61
   3  -4  -7   -0.04    0.70
   3  -4  -6    3.49    0.68
   3  -4  -6    3.04    0.76
   3   4  -6    2.69    0.73
   3   4  -6    2.84    0.70
   3  -4  -5    0.02    0.49
   3   4  -5   -0.01    0.54
   3  -4  -5   -0.15    0.47
   3  -4  -5   -0.03    0.59
   3   4  -5   -0.16    0.65
   3  -4  -4   18.49    0.97
   3   4  -4   19.46    1.00
   3  -4  -4   18.98    0.85
   3  -4  -4   18.74    0.92
   3   4  -4   19.99    0.96
   3  -4  -4   19.24    0.87
   3   4  -3    1.42    0.45
   3   4  -3    1.72    0.63
   3  -4  -3    1.49    0.46
   3  -4  -3    1.17    0.48
   3  -4  -3    1.51    0.46
   3  -4  -3    1.21    0.40
   3  -4  -2    4.03    0.52
   3   4  -2    3.60    0.61
   3  -4  -2    3.38    0.54
   3  -4  -2    3.87    0.45
   3  -4  -2    3.92    0.44
   3   4  -2    3.86    0.49
   3   4  -1    1.11    0.57
   3  -4  -1    1.15    0.46
   3  -4  -1    1.10    0.52
   3  -4  -1    1.33    0.30
   3   4  -1    1.05    0.29
   3  -4   0   14.14    0.82
   3   4   0   15.39    0.84
   3  -4   0   14.69    0.48
   3  -4   0   14.54    0.80
  -3  -4   0   13.77    0.65
   3  -4   1    0.55    0.19
   3  -4   1    0.22    0.49
  -3  -4  -1    0.84    0.34
   3   4   1    0.39    0.50
  -3  -4  -2   22.97    0.80
   3  -4   2   23.16    0.52
   3   4   2   22.81    0.88
   3  -4   2   21.88    1.05
  -3   4  -3   -0.04    0.58
   3  -4   3   -0.23    0.65
   3   4   3    0.12    0.43
  -3  -4  -3    0.14    0.40
  -3   4  -4    1.68    0.72
  -3  -4  -4    1.34    0.72
   3  -4   4    1.70    0.77
  -3  -4  -4    1.42    0.45
  -3   4  -5   -0.24    0.66
  -3  -4  -5    0.47    0.68
   3  -4   5    0.13    0.71
  -3   4  -6    8.76    1.02
  -3  -4  -6    8.02    0.96
   3  -4   6    9.15    1.08
  -3   4  -7    0.60    0.74
  -3  -4  -7    0.43    0.87
   3  -4   7    0.94    0.90
   3   4   8    0.96    1.17
  -3   4  -8    0.70    0.83
  -3  -4  -8    0.80    0.93
   3  -4   8    0.38    0.93
   3  -4   9    0.62    0.98
   3  -5 -10    0.85    0.84
   3  -5 -10    1.90    0.89
   3   5 -10    0.84    0.78
   3   5  -9   -0.38    0.71
   3  -5  -9   -0.24    0.76
   3  -5  -9    1.08    0.87
   3   5  -8    5.21    0.87
   3  -5  -8    5.07    0.85
   3  -5  -8    5.37    0.93
   3   5  -7    0.31    0.60
   3  -5  -7   -0.24    0.59
   3  -5  -7    0.26    0.65
   3   5  -7    0.55    0.65
   3   5  -6    9.71    0.94
   3  -5  -6    8.86    0.90
   3  -5  -6    9.82    0.81
   3   5  -6    8.95    0.89
   3  -5  -5    4.56    0.63
   3  -5  -5    5.07    0.76
   3   5  -5    4.45    0.68
   3   5  -5    5.40    0.83
   3   5  -4    3.27    0.58
   3  -5  -4    4.94    0.73
   3   5  -4    4.64    0.78
   3  -5  -4    4.31    0.63
   3  -5  -4    4.05    0.54
   3  -5  -3    8.79    0.67
   3  -5  -3    7.87    0.71
   3   5  -3    9.32    0.85
   3  -5  -3    7.99    0.72
   3  -5  -3    8.68    0.60
   3   5  -3    8.65    0.67
   3   5  -2    2.84    0.45
   3  -5  -2    3.57    0.58
   3  -5  -2    2.84    0.44
   3   5  -2    3.52    0.68
   3   5  -1    8.92    0.77
   3  -5  -1    9.60    0.54
   3  -5  -1    9.13    0.72
  -3  -5   1    9.29    0.66
  -3  -5   0    0.29    0.44
   3  -5   0    0.40    0.48
   3   5   0    0.37    0.55
   3  -5   0    0.34    0.26
   3  -5   1    0.15    0.52
   3  -5   1    0.02    0.24
  -3  -5  -1    0.09    0.38
   3   5   1    0.05    0.55
   3  -5   2    0.31    0.62
   3  -5   2   -0.02    0.27
  -3  -5  -2    0.42    0.43
   3   5   2    0.23    0.55
   3  -5   3    3.94    0.81
  -3   5  -3    3.75    0.67
   3   5   3    4.02    0.56
  -3  -5  -3    4.48    0.56
  -3   5  -4    0.33    0.66
  -3  -5  -4    0.18    0.67
   3  -5   4    0.25    0.73
  -3  -5  -4    0.22    0.44
  -3   5  -5    0.28    0.65
  -3  -5  -5    0.42    0.67
   3  -5   5   -0.10    0.73
  -3   5  -6   19.61    1.28
  -3  -5  -6   20.61    1.30
   3  -5   6   21.10    1.39
  -3   5  -7    0.52    0.75
  -3  -5  -7   -0.04    0.81
   3  -5   7    0.62    0.91
   3  -5   8   -0.15    0.92
  -3   5  -8   -0.38    0.85
  -3  -5  -8    0.16    0.88
   3  -5   9    1.83    1.00
   3   6 -10   -0.16    0.79
   3  -6 -10    0.41    0.80
   3  -6 -10    0.34    1.02
   3   6  -9    0.46    0.75
   3  -6  -9    0.55    0.73
   3  -6  -9    0.61    0.85
   3   6  -8    0.74    0.69
   3  -6  -8    0.45    0.66
   3  -6  -8    0.45    0.82
   3  -6  -7    0.74    0.62
   3   6  -7    0.66    0.62
   3  -6  -7    0.37    0.66
   3   6  -7    0.42    0.69
   3   6  -6   -0.83    0.58
   3   6  -6    0.24    0.75
   3  -6  -6    0.29    0.62
   3  -6  -6   -0.24    0.53
   3   6  -5    3.12    0.65
   3  -6  -5    3.48    0.59
   3   6  -5    4.57    0.88
   3  -6  -5    3.10    0.73
   3   6  -4    0.42    0.50
   3  -6  -4    0.53    0.42
   3   6  -4    0.96    0.84
   3  -6  -4    0.56    0.53
   3  -6  -4    0.67    0.65
   3  -6  -3    0.01    0.32
   3   6  -3   -0.16    0.44
   3  -6  -3    0.20    0.55
   3   6  -3    0.39    0.71
   3  -6  -3    0.16    0.49
   3   6  -2    0.57    0.72
   3  -6  -2    0.12    0.53
   3   6  -2    0.23    0.40
   3  -6  -2    0.24    0.42
   3  -6  -1  120.95    1.74
   3  -6  -1  114.21    2.10
  -3  -6   1  116.74    2.02
   3   6  -1  116.39    2.07
   3  -6   0    0.45    0.32
  -3  -6   0    0.33    0.50
   3   6   0    0.68    0.64
   3  -6   0    0.37    0.55
  -3  -6  -1   12.01    0.77
   3  -6   1   11.62    0.89
   3  -6   1   11.48    0.56
   3   6   1   11.73    0.88
   3  -6   2    0.41    0.61
  -3  -6  -2    0.39    0.47
   3  -6   2    0.60    0.32
  -3   6  -2    0.54    0.49
   3   6   2    0.51    0.62
  -3  -6  -3    4.37    0.60
   3  -6   3    3.72    0.81
  -3   6  -3    4.74    0.69
   3   6   3    3.64    0.65
   3  -6   4    0.16    0.72
  -3   6  -4    0.26    0.64
  -3  -6  -4   -0.12    0.61
  -3  -6  -4   -0.03    0.45
  -3   6  -5    1.95    0.68
  -3  -6  -5    2.52    0.77
   3  -6   5    2.10    0.82
  -3   6  -6   -0.01    0.71
  -3  -6  -6    0.46    0.79
   3  -6   6    0.32    0.79
  -3   6  -7    0.03    0.77
  -3  -6  -7   -0.20    0.78
   3  -6   7    0.18    0.89
  -3   6  -8   -0.33    0.84
  -3  -6  -8    0.02    0.81
   3  -6   8   -0.95    0.93
   3   7 -10    0.87    0.86
   3   7  -9    0.88    0.84
   3  -7  -9   -0.16    0.89
   3   7  -8    6.07    0.94
   3  -7  -8    4.12    0.75
   3  -7  -8    4.30    0.96
   3   7  -7    0.36    0.65
   3  -7  -7   -0.23    0.49
   3  -7  -7   -0.24    0.78
   3   7  -7    0.52    0.76
   3   7  -6    5.26    0.76
   3   7  -6    6.41    0.94
   3  -7  -6    5.26    0.81
   3  -7  -6    5.04    0.67
   3  -7  -5    0.25    0.63
   3   7  -5    0.04    0.55
   3  -7  -5    0.13    0.39
   3   7  -5    1.39    0.85
   3  -7  -4    0.28    0.44
   3   7  -4   -0.02    0.53
   3   7  -4    0.60    0.86
   3  -7  -4    0.12    0.61
   3  -7  -4   -0.09    0.70
   3  -7  -3    2.90    0.42
   3   7  -3    3.11    0.55
   3  -7  -3    3.46    0.74
   3   7  -3    2.22    0.91
   3  -7  -3    2.99    0.63
   3  -7  -2    1.38    0.66
   3   7  -2    1.01    0.82
   3  -7  -2    0.78    0.48
   3  -7  -1    0.00    0.59
  -3  -7   1    0.55    0.57
   3   7  -1    0.77    0.78
   3  -7  -1    0.28    0.39
   3  -7   0    0.37    0.40
  -3  -7   0    0.36    0.55
   3   7   0    0.40    0.76
   3  -7   0    0.30    0.59
   3  -7   1    0.26    0.37
  -3  -7  -1    0.56    0.56
   3  -7   1    0.40    0.62
   3   7   1    0.78    0.77
  -3  -7  -2   -0.08    0.56
  -3   7  -2    0.11    0.46
   3   7   2    0.14    0.67
   3  -7   2   -0.01    0.65
  -3  -7  -3    4.75    0.68
   3  -7   3    4.15    0.83
  -3   7  -3    4.40    0.67
   3   7   3    3.95    0.71
   3  -7   4    2.41    0.80
  -3   7  -4    2.45    0.63
  -3  -7  -4    3.14    0.70
  -3  -7  -4    2.58    0.59
   3  -7   5   -0.07    0.75
  -3   7  -5    0.06    0.65
  -3  -7  -5    0.23    0.67
  -3  -7  -5    0.25    0.53
  -3   7  -6   18.96    1.20
  -3  -7  -6   20.67    1.30
   3  -7   6   19.16    1.39
  -3   7  -7    0.17    0.74
  -3  -7  -7    0.17    0.81
   3  -7   7    0.02    0.91
  -3   7  -8    0.31    0.87
  -3  -7  -8    0.93    0.87
   3  -7   8    0.84    0.91
   3   8  -9    0.10    0.76
   3  -8  -9    0.46    0.83
   3  -8  -8    1.17    0.84
   3   8  -8    1.37    0.72
   3   8  -7    0.13    0.62
   3   8  -7    0.66    0.83
   3  -8  -7   -0.11    0.79
   3  -8  -6    1.84    0.81
   3   8  -6    2.37    0.63
   3   8  -6    2.37    0.91
   3   8  -5    0.01    0.51
   3  -8  -5    0.28    0.61
   3   8  -5   -0.29    0.86
   3  -8  -4    8.48    0.88
   3   8  -4    8.62    1.13
   3  -8  -4    9.24    1.00
   3   8  -4    9.03    0.78
   3  -8  -3    1.01    0.73
   3   8  -3    1.56    1.03
   3   8  -3    1.79    0.52
   3  -8  -3    2.27    0.62
   3  -8  -2    0.46    0.70
   3   8  -2    0.89    0.94
  -3  -8   2    1.00    0.70
   3  -8  -2    0.99    0.51
   3  -8  -1    1.39    0.48
   3  -8  -1    1.11    0.68
  -3  -8   1    1.10    0.68
   3   8  -1    1.18    0.93
  -3  -8   0    5.73    0.78
   3  -8   0    5.04    0.59
   3  -8   0    4.97    0.78
   3   8   0    5.70    0.92
   3  -8   1    0.45    0.45
  -3  -8  -1    0.75    0.62
   3  -8   1    0.75    0.67
   3   8   1    1.01    0.81
  -3  -8  -2    3.50    0.68
   3   8   2    4.00    0.82
   3  -8   2    2.74    0.81
  -3  -8  -3   -0.07    0.59
  -3  -8  -3    0.31    0.54
   3  -8   3    0.51    0.69
   3  -8   4    1.14    0.74
  -3  -8  -4    1.11    0.63
  -3  -8  -4    0.50    0.57
  -3  -8  -5    0.31    0.68
   3  -8   5    0.36    0.79
  -3  -8  -5    0.21    0.54
   3  -8   6    4.93    0.99
  -3  -8  -6    5.08    0.96
   3  -8   7    0.14    0.86
  -3  -8  -7    0.40    0.74
   3  -8   8    0.68    0.95
   3  -9  -9    0.78    0.97
   3   9  -9   -0.61    0.76
   3   9  -8    2.63    0.75
   3  -9  -8    2.76    0.98
   3   9  -7    1.85    0.64
   3  -9  -7    0.51    0.78
   3   9  -7    1.66    0.92
   3   9  -6    4.16    0.73
   3   9  -6    3.92    1.05
   3  -9  -6    3.52    0.86
   3   9  -5    1.37    0.57
   3   9  -5    0.34    0.91
   3  -9  -5    0.70    0.67
   3   9  -4    2.92    0.56
   3   9  -4    2.21    1.01
   3  -9  -4    2.63    0.69
   3  -9  -4    2.15    0.80
   3  -9  -3    4.06    0.87
  -3  -9   3    3.97    0.87
   3   9  -3    3.34    1.10
   3  -9  -3    4.42    0.73
   3  -9  -2    1.55    0.75
  -3  -9   2    0.89    0.73
   3   9  -2    1.12    1.05
   3  -9  -2    1.41    0.62
   3  -9  -1    4.95    0.82
  -3  -9   1    4.79    0.84
   3   9  -1    4.39    1.02
   3  -9  -1    5.79    0.69
   3  -9   0   -0.05    0.55
  -3  -9   0    0.35    0.72
   3  -9   0    0.25    0.71
   3   9   0   -0.19    0.97
   3  -9   1    0.12    0.44
  -3  -9  -1    0.09    0.66
   3  -9   1   -0.12    0.66
   3   9   1    0.86    0.83
  -3  -9  -2    0.45    0.55
   3  -9   2   -0.14    0.65
   3   9   2    0.10    0.71
  -3  -9  -3    1.25    0.67
   3  -9   3    1.58    0.77
   3  -9   4    0.07    0.73
  -3  -9  -4    0.48    0.62
   3  -9   5    0.04    0.74
  -3  -9  -5    0.57    0.65
   3  -9   6   10.43    1.13
   3  -9   7   -0.01    0.95
   3 -10  -8    0.66    0.91
   3 -10  -7    0.24    0.80
   3  10  -7    0.20    0.94
   3 -10  -6   -0.03    0.79
   3  10  -6    0.13    0.92
   3  10  -5    0.48    1.04
   3 -10  -5    0.57    0.73
   3  10  -4    0.00    0.93
   3 -10  -4    0.04    0.67
   3 -10  -4    0.02    0.79
   3 -10  -3    0.29    0.74
  -3 -10   3   -0.11    0.72
   3  10  -3   -0.14    0.97
   3 -10  -3   -0.43    0.58
   3  10  -2   -0.52    1.02
   3 -10  -2    0.32    0.68
  -3 -10   2    0.03    0.73
   3 -10  -2   -0.01    0.57
   3  10  -1   33.87    1.63
   3 -10  -1   35.54    1.32
   3 -10  -1   32.26    1.48
  -3 -10   1   30.68    1.47
   3 -10   0    0.60    0.56
  -3 -10   0    0.64    0.65
   3 -10   0    0.20    0.64
   3  10   0   -0.29    0.86
   3 -10   1    4.30    0.61
  -3 -10  -1    4.38    0.79
   3 -10   1    4.18    0.80
   3  10   1    4.23    0.93
  -3 -10  -2    0.34    0.72
   3  10   2    0.63    0.73
   3 -10   2    0.11    0.68
  -3 -10  -3    2.30    0.64
   3 -10   3    2.62    0.82
   3 -10   4    0.21    0.72
  -3 -10  -4    0.45    0.62
   3 -10   5    1.64    0.86
  -3 -10  -5    0.83    0.68
   3 -10   6    0.07    0.88
   3 -10   7   -0.50    0.91
   3 -11  -8    2.00    1.02
   3 -11  -7    0.28    0.91
   3  11  -7    0.18    1.01
   3  11  -6    1.47    1.04
   3 -11  -6    1.96    0.93
   3  11  -5   -0.36    1.08
   3 -11  -5   -0.01    0.72
   3 -11  -4    0.16    0.80
  -3 -11   4    0.83    0.77
   3  11  -4   -0.64    1.00
   3 -11  -4   -0.12    0.66
  -3 -11   3    0.87    0.86
   3  11  -3    0.36    1.04
   3 -11  -3    0.84    0.65
   3 -11  -3    1.29    0.85
   3 -11  -2    0.52    0.73
   3  11  -2    0.15    1.08
  -3 -11   2    0.35    0.78
   3 -11  -2    0.08    0.58
   3 -11  -1    0.22    0.53
   3 -11  -1   -0.11    0.73
  -3 -11   1    0.22    0.71
   3  11  -1   -0.05    1.07
   3 -11   0    0.14    0.57
  -3 -11   0   -0.07    0.65
   3 -11   0   -0.02    0.73
   3  11   0    0.02    0.97
   3 -11   1    0.31    0.52
  -3 -11  -1    0.39    0.70
   3 -11   1    1.01    0.75
   3  11   1   -0.05    0.91
  -3 -11  -2    0.42    0.70
   3 -11   2   -0.17    0.73
   3  11   2    0.19    0.78
  -3 -11  -3    3.64    0.80
   3 -11   3    2.82    0.83
   3 -11   4    1.71    0.86
  -3 -11  -4    1.21    0.75
   3 -11   5   -0.05    0.81
  -3 -11  -5   -0.08    0.71
   3 -11   6   10.67    1.22
   3 -12  -7    0.53    0.88
   3  12  -7   -0.03    1.20
   3  12  -6    0.72    1.15
   3 -12  -6    0.15    0.88
  -3 -12   5    0.64    0.97
   3  12  -5   -0.73    1.09
   3 -12  -5   -0.14    0.82
  -3 -12   4    4.67    1.03
   3  12  -4    3.94    1.26
   3 -12  -4    4.81    0.98
   3 -12  -4    3.84    0.82
  -3 -12   3    1.03    0.88
   3  12  -3    1.74    1.07
   3 -12  -3    0.60    0.70
   3 -12  -3    0.78    0.78
   3 -12  -2   -0.24    0.83
  -3 -12   2    0.21    0.80
   3  12  -2    0.16    1.00
   3 -12  -2   -0.21    0.61
   3 -12  -1    0.42    0.62
   3 -12  -1    0.03    0.77
  -3 -12   1    0.33    0.79
   3  12  -1    0.06    1.07
   3 -12   0    2.96    0.73
  -3 -12   0    3.26    0.81
   3 -12   0    2.90    0.90
   3  12   0    3.34    1.14
  -3 -12  -1    0.27    0.75
   3 -12   1   -0.09    0.77
   3  12   1    0.36    1.02
  -3 -12  -2   -0.24    0.75
   3 -12   2    0.44    0.71
   3  12   2    0.61    0.87
  -3 -12  -3    0.66    0.74
   3 -12   3   -0.23    0.81
   3 -12   4    0.14    0.80
  -3 -12  -4    0.29    0.67
   3 -12   5   -0.16    0.79
  -3 -12  -5    0.00    0.78
   3  13  -7   -0.05    1.15
  -3 -13   6    0.59    0.95
   3  13  -6    1.01    1.21
   3 -13  -6    0.04    0.90
  -3 -13   5   -0.39    1.01
   3  13  -5    0.22    1.21
   3 -13  -5    1.13    0.78
  -3 -13   4    0.95    0.94
   3 -13  -4    1.12    0.90
   3  13  -4    0.82    1.21
   3 -13  -4    2.22    0.82
  -3 -13   3    0.96    0.87
   3  13  -3    0.79    1.10
   3 -13  -3    0.84    0.71
   3 -13  -3    1.69    0.91
   3 -13  -2    0.35    0.86
  -3 -13   2    0.00    0.86
   3  13  -2    0.03    1.10
   3 -13  -2   -0.12    0.73
   3 -13  -1    2.01    0.75
   3 -13  -1    2.50    0.93
  -3 -13   1    1.60    0.88
   3  13  -1    1.66    1.11
   3 -13   0    0.30    0.64
   3 -13   0    0.25    0.78
  -3 -13   0    0.11    0.84
   3  13   0   -0.31    1.03
  -3 -13  -1    0.00    0.72
   3 -13   1    0.11    0.77
   3  13   1    0.25    1.02
  -3 -13  -2    0.17    0.75
   3 -13   2    0.03    0.79
   3  13   2    0.79    0.91
  -3 -13  -3    0.67    0.80
   3 -13   3    0.83    0.86
   3 -13   4    0.99    0.85
  -3 -13  -4    0.71    0.78
  -3 -13  -5    0.61    0.80
   3  14  -6    0.30    1.25
  -3 -14   5   -1.07    1.00
   3  14  -5    0.59    1.27
   3 -14  -5    0.44    0.84
  -3 -14   4    0.44    0.99
   3  14  -4   -0.34    1.31
   3 -14  -4    0.50    0.81
  -3 -14   3   -0.58    0.93
   3  14  -3   -0.48    1.19
   3 -14  -3    1.31    0.96
   3 -14  -3    0.28    0.69
  -3 -14   2    0.07    0.93
   3  14  -2   -0.68    1.22
   3 -14  -2    0.21    0.75
   3 -14  -2   -0.07    0.86
   3  14  -1    8.61    1.38
   3 -14  -1   10.61    1.24
   3 -14  -1    7.97    1.01
  -3 -14   1    8.22    1.18
   3 -14   0    0.65    0.63
   3 -14   0    0.29    0.79
  -3 -14   0    0.07    0.80
   3  14   0   -0.67    1.10
  -3 -14  -1    1.20    0.88
   3 -14   1    0.70    0.92
   3  14   1    0.35    1.06
  -3 -14  -2    0.73    0.91
   3 -14   2    0.47    0.85
  -3 -14  -3    2.46    0.97
   3 -14   3    0.89    0.89
   3 -14   4   -1.42    0.84
  -3 -14  -4   -0.12    0.82
  -3 -15   4    0.75    1.12
   3  15  -4    0.43    1.30
   3 -15  -4    0.34    0.84
  -3 -15   3    0.91    0.99
   3  15  -3   -1.88    1.40
   3 -15  -3    1.03    1.06
   3 -15  -3    0.05    0.74
  -3 -15   2    0.00    0.88
   3  15  -2   -0.75    1.37
   3 -15  -2   -0.01    0.97
   3 -15  -2   -0.21    0.89
   3 -15  -1    0.71    0.69
   3 -15  -1   -0.14    0.95
  -3 -15   1    0.59    0.81
   3  15  -1   -0.15    1.27
   3 -15   0    0.63    0.94
  -3 -15   0   -0.56    0.77
   3  15   0   -0.28    1.28
  -3 -15  -1    0.77    0.82
   3 -15   1    0.35    0.90
   3  15   1   -0.15    1.21
  -3 -15  -2   -0.32    1.00
   3 -15   2    0.52    0.94
   3 -15   3    1.34    0.95
   3 -16  -3   -0.04    0.85
   3 -16  -2    1.63    1.00
   3 -16  -2   -0.54    0.84
   3 -16  -1    0.87    0.88
   3 -16  -1   -0.07    0.96
   3  16  -1    0.38    1.33
   3 -16   0    2.14    1.11
   3  16   0    1.04    1.38
   3 -16   1   -0.15    0.89
   3  16   1   -0.33    1.15
   3 -16   2   -0.95    0.98
   4   0 -10    0.48    0.81
   4   0  -9    0.17    0.69
   4   0  -8    6.71    0.94
   4   0  -7   -0.01    0.59
   4   0  -6    3.18    0.76
   4   0  -6    3.19    0.69
   4   0  -5   -0.09    0.55
   4   0  -5   -0.13    0.57
   4   0  -4   48.45    1.40
   4   0  -4   52.16    1.07
   4   0  -4   48.99    1.45
   4   0  -3    0.02    0.44
   4   0  -3   -0.03    0.32
   4   0  -3   -0.08    0.53
   4   0  -2    3.22    0.41
   4   0  -2    2.54    0.60
   4   0  -1   -0.07    0.39
   4   0  -1    0.28    0.53
   4   0   0   34.16    1.16
  -4   0   0   36.53    0.55
   4   0   0   34.08    1.04
   4   0   1   -0.25    0.49
   4   0   1    0.23    0.53
   4   0   2   91.56    1.80
   4   0   2   87.01    1.92
   4   0   3    0.17    0.80
   4   0   3    0.16    0.58
  -4   0  -4   38.81    1.55
   4   0   4   40.79    1.66
  -4   0  -5    0.36    0.77
   4   0   5    0.10    0.89
  -4   0  -6    0.42    0.82
   4   0   6   -0.30    0.98
  -4   0  -7   -0.36    0.91
   4   0   7   -0.44    1.02
   4   0   8    1.04    1.21
  -4   0  -8    2.19    1.06
   4   1 -10    0.01    0.83
   4  -1 -10    0.11    0.88
   4   1  -9    0.48    0.74
   4  -1  -9    0.25    0.69
   4   1  -8   21.07    1.35
   4  -1  -8   19.83    1.30
   4   1  -7    0.37    0.59
   4  -1  -7    0.12    0.57
   4   1  -6    0.25    0.56
   4  -1  -6   -0.21    0.65
   4  -1  -6    0.01    0.59
   4   1  -6   -0.02    0.59
   4  -1  -5    4.82    0.71
   4   1  -5    4.86    0.74
   4  -1  -5    4.56    0.68
   4   1  -5    5.19    0.74
   4  -1  -4    2.86    0.61
   4   1  -4    2.64    0.59
   4   1  -4    2.37    0.35
   4   1  -4    2.82    0.67
   4  -1  -4    2.28    0.63
   4  -1  -4    2.35    0.47
   4  -1  -3   52.86    1.42
   4   1  -3   52.69    1.44
   4   1  -3   54.94    0.95
   4  -1  -3   55.04    1.17
   4  -1  -3   54.31    1.46
   4   1  -3   53.27    1.47
   4  -1  -2    0.04    0.35
   4  -1  -2    0.04    0.55
   4   1  -2    0.11    0.28
   4   1  -2    0.09    0.55
   4   1  -1    3.75    0.61
   4  -1  -1    3.33    0.60
   4  -1  -1    3.57    0.51
   4   1  -1    3.45    0.42
   4  -1   0    0.90    0.50
  -4  -1   0    1.04    0.24
   4  -1   0    0.67    0.52
   4   1   0    0.89    0.57
   4   1   0    1.34    0.45
   4  -1   1    4.36    0.69
   4   1   1    4.48    0.63
   4  -1   1    4.96    0.64
   4   1   1    5.06    0.67
   4   1   2   12.42    0.96
   4   1   2    8.40    0.83
   4  -1   2    0.66    0.63
   4  -1   3    9.80    0.80
   4   1   3    9.70    0.78
   4  -1   3    8.24    0.98
   4   1   3    9.73    1.00
  -4   1  -4    9.66    1.02
   4  -1   4    8.59    1.06
   4   1   4   11.24    1.15
   4   1   5    1.29    0.90
   4  -1   5    1.12    0.95
  -4   1  -5    0.87    0.76
  -4  -1  -5    1.61    0.80
   4   1   6    4.62    1.10
  -4   1  -6    4.44    0.94
  -4  -1  -6    4.34    0.96
   4  -1   6    3.85    1.03
   4   1   7    5.29    1.20
  -4   1  -7    7.13    1.09
  -4  -1  -7    5.74    1.04
   4  -1   7    6.52    1.23
  -4   1  -8    2.32    1.03
  -4  -1  -8    1.33    1.06
   4  -1   8   -0.15    1.19
   4   1   8    1.11    1.16
   4   2 -10    0.16    0.86
   4  -2 -10    0.93    0.91
   4   2  -9    0.35    0.73
   4  -2  -9    0.04    0.78
   4   2  -8    0.11    0.69
   4  -2  -8    0.57    0.69
   4   2  -7    0.53    0.59
   4  -2  -7    1.06    0.64
   4   2  -7    0.69    0.59
   4   2  -6    0.13    0.64
   4  -2  -6    0.14    0.60
   4  -2  -6    0.05    0.58
   4   2  -6    0.27    0.63
   4  -2  -5    5.47    0.71
   4  -2  -5    5.28    0.73
   4   2  -5    5.55    0.79
   4   2  -5    5.35    0.73
   4  -2  -5    5.60    0.72
   4  -2  -4    0.06    0.48
   4  -2  -4    0.15    0.49
   4   2  -4    0.21    0.55
   4  -2  -4   -0.02    0.56
   4  -2  -4   -0.28    0.46
   4   2  -4    0.02    0.62
   4   2  -3    2.27    0.26
   4  -2  -3    2.56    0.52
   4   2  -3    2.47    0.57
   4  -2  -3    2.28    0.45
   4  -2  -3    1.87    0.56
   4  -2  -3    1.81    0.43
   4   2  -3    2.50    0.64
   4  -2  -2   -0.10    0.49
   4  -2  -2    0.28    0.42
   4   2  -2    0.06    0.26
   4   2  -2    0.19    0.55
   4  -2  -1  293.61    3.18
   4   2  -1  289.13    3.17
   4  -2  -1  294.29    2.92
   4   2  -1  296.17    2.39
   4  -2   0   -0.10    0.50
   4   2   0   -0.31    0.46
  -4  -2   0   -0.08    0.27
   4  -2   0    0.05    0.49
   4   2   0    0.03    0.51
   4   2   1    7.22    0.74
   4   2   1    7.04    0.73
   4  -2   1    7.33    0.75
   4  -2   1    7.00    0.73
   4   2   2    0.36    0.66
   4  -2   2   -0.02    0.60
   4   2   2    0.14    0.52
   4  -2   2    0.35    0.63
   4  -2   3   43.25    1.58
   4  -2   3   42.57    1.37
   4   2   3   44.15    1.28
   4   2   3   44.47    1.62
   4  -2   4    0.35    0.73
  -4   2  -4    0.12    0.71
   4   2   4    1.41    0.90
  -4   2  -5   14.20    1.13
  -4  -2  -5   15.23    1.21
   4  -2   5   14.21    1.26
   4   2   5   16.55    1.30
   4  -2   6   -0.32    0.95
  -4   2  -6   -0.11    0.82
  -4  -2  -6   -0.43    0.80
   4   2   6    0.95    1.00
   4  -2   7    0.12    1.00
   4   2   7    0.56    0.98
  -4   2  -7    0.43    0.94
  -4  -2  -7    0.36    0.91
   4  -2   8   -0.34    1.16
   4   2   8   -0.87    1.13
  -4   2  -8   -0.01    0.99
  -4  -2  -8   -0.29    1.00
   4   3 -10    0.29    0.86
   4  -3 -10   -0.20    0.79
   4   3  -9   -0.25    0.81
   4  -3  -9    0.83    0.78
   4   3  -8   19.01    1.31
   4  -3  -8   17.17    1.19
   4   3  -7    0.22    0.63
   4  -3  -7    0.30    0.60
   4   3  -7    0.57    0.57
   4  -3  -7    0.17    0.66
   4   3  -6   -0.09    0.62
   4  -3  -6   -0.05    0.59
   4   3  -6    0.13    0.61
   4  -3  -6   -0.18    0.52
   4  -3  -6    0.20    0.60
   4   3  -5    4.56    0.72
   4  -3  -5    4.19    0.68
   4  -3  -5    4.75    0.74
   4  -3  -5    4.09    0.66
   4  -3  -5    5.04    0.71
   4   3  -5    4.71    0.78
   4  -3  -4    4.26    0.64
   4   3  -4    4.44    0.68
   4  -3  -4    4.61    0.65
   4  -3  -4    4.87    0.69
   4   3  -4    4.59    0.76
   4  -3  -4    4.50    0.63
   4  -3  -3   37.91    1.22
   4  -3  -3   38.11    1.14
   4   3  -3   36.66    1.29
   4  -3  -3   36.68    1.14
   4  -3  -3   36.80    1.26
   4   3  -3   36.61    1.30
   4  -3  -2    0.11    0.45
   4  -3  -2    0.13    0.53
   4  -3  -2   -0.05    0.35
   4   3  -2    0.58    0.54
   4   3  -2    0.07    0.23
   4  -3  -1    2.50    0.61
   4  -3  -1    1.83    0.31
   4   3  -1    2.58    0.65
   4  -3  -1    2.49    0.53
   4   3  -1    2.56    0.39
   4  -3   0    0.22    0.50
  -4  -3   0    0.14    0.34
   4   3   0    0.15    0.45
   4  -3   0    0.24    0.58
   4   3   0    0.54    0.57
   4   3   1    6.39    0.72
   4  -3   1    5.65    0.75
  -4  -3  -1    5.72    0.43
   4  -3   1    5.44    0.73
   4   3   1    5.79    0.72
   4  -3   2    0.26    0.61
   4  -3   2    0.55    0.67
   4   3   2    0.24    0.56
   4   3   2    0.80    0.67
   4   3   3   10.74    0.78
   4  -3   3    9.90    1.01
   4   3   3   10.76    1.06
  -4   3  -4    9.14    0.94
   4  -3   4    8.63    1.00
   4   3   4   10.11    1.07
   4   3   5    0.68    0.91
  -4   3  -5    1.02    0.73
  -4  -3  -5    0.80    0.81
   4  -3   5    1.04    0.83
   4   3   6    4.22    1.11
  -4   3  -6    4.66    0.97
  -4  -3  -6    3.56    0.93
   4  -3   6    3.57    0.99
   4  -3   7    5.94    1.16
  -4   3  -7    5.61    1.06
  -4  -3  -7    4.41    1.08
   4   3   7    5.57    1.18
  -4   3  -8    1.25    0.97
  -4  -3  -8    0.44    0.97
   4   3   8    2.97    1.30
   4  -3   8    1.31    1.04
   4   4 -10    0.97    0.78
   4  -4 -10    0.67    0.88
   4   4  -9    0.23    0.79
   4  -4  -9    0.36    0.74
   4  -4  -9    0.59    0.88
   4   4  -8    4.33    0.89
   4  -4  -8    4.62    0.81
   4  -4  -8    4.17    0.90
   4   4  -7   -0.04    0.65
   4  -4  -7    0.15    0.52
   4  -4  -7    0.17    0.66
   4   4  -7    1.12    0.72
   4   4  -6    2.30    0.64
   4  -4  -6    2.52    0.64
   4  -4  -6    2.23    0.56
   4  -4  -6    2.49    0.74
   4   4  -6    2.28    0.76
   4   4  -5    0.36    0.61
   4  -4  -5    0.65    0.57
   4  -4  -5    0.99    0.62
   4  -4  -5    0.64    0.60
   4   4  -5    0.92    0.71
   4  -4  -5    1.17    0.65
   4   4  -4   32.88    1.32
   4  -4  -4   31.66    1.21
   4  -4  -4   32.13    1.21
   4  -4  -4   31.76    1.21
   4  -4  -4   32.62    1.19
   4   4  -4   33.62    1.31
   4  -4  -3    0.66    0.47
   4   4  -3    1.12    0.56
   4  -4  -3    0.59    0.53
   4  -4  -3    0.58    0.59
   4  -4  -3    0.82    0.43
   4   4  -3    0.20    0.72
   4  -4  -2    0.29    0.52
   4  -4  -2    0.40    0.64
   4   4  -2    0.02    0.64
   4  -4  -2    0.40    0.36
   4  -4  -1   -0.06    0.28
   4   4  -1    0.01    0.34
   4  -4  -1   -0.03    0.59
   4  -4  -1    0.35    0.52
   4   4  -1   -1.07    0.66
   4  -4   0   17.36    0.95
   4   4   0   17.00    0.98
  -4  -4   0   16.41    0.75
   4  -4   0   15.81    0.96
   4   4   0   15.95    0.77
   4  -4   1   -0.13    0.62
  -4  -4  -1    0.17    0.35
   4   4   1    0.35    0.58
   4  -4   1   -0.04    0.61
   4   4   1    0.47    0.59
   4   4   2   71.78    1.64
   4  -4   2   70.60    1.91
   4   4   2   72.97    1.79
   4   4   3    0.82    0.88
   4   4   3    0.75    0.58
   4  -4   3    0.73    0.78
  -4   4  -4   26.07    1.30
   4  -4   4   28.27    1.44
   4   4   4   27.20    1.46
  -4   4  -5    0.03    0.77
  -4  -4  -5   -0.12    0.76
   4   4   5    0.86    0.93
   4  -4   5    0.02    0.79
   4   4   6    0.40    0.99
  -4   4  -6    0.02    0.78
  -4  -4  -6    0.02    0.84
   4  -4   6   -0.11    0.84
   4   4   7    0.40    1.08
  -4   4  -7   -0.58    0.88
  -4  -4  -7    1.99    0.95
   4  -4   7    0.49    0.90
  -4   4  -8    1.28    0.96
  -4  -4  -8    1.46    1.10
   4  -4   8    0.36    1.05
   4   5 -10    0.41    0.88
   4  -5 -10   -0.17    0.78
   4  -5 -10    0.09    1.01
   4   5  -9    0.09    0.77
   4  -5  -9    0.98    0.70
   4  -5  -9   -0.04    0.90
   4  -5  -8   12.21    1.19
   4   5  -8   12.76    1.14
   4  -5  -8   12.92    1.12
   4   5  -7    0.74    0.65
   4  -5  -7    0.91    0.66
   4  -5  -7    0.58    0.74
   4   5  -7    0.57    0.76
   4   5  -6    0.15    0.61
   4  -5  -6    0.05    0.54
   4  -5  -6    0.31    0.65
   4   5  -6    0.21    0.72
   4  -5  -5    4.08    0.65
   4   5  -5    2.85    0.68
   4  -5  -5    4.12    0.70
   4  -5  -5    3.50    0.69
   4   5  -5    4.23    0.89
   4  -5  -5    3.78    0.78
   4  -5  -4    0.51    0.61
   4   5  -4   -0.04    0.80
   4  -5  -4    0.40    0.49
   4   5  -4    0.40    0.54
   4  -5  -4    0.10    0.67
   4  -5  -4    0.16    0.55
   4  -5  -3   29.53    1.23
   4  -5  -3   29.49    1.10
   4   5  -3   29.95    1.35
   4  -5  -3   30.86    1.23
   4  -5  -3   30.64    1.07
   4   5  -3   31.81    1.23
   4  -5  -2    0.08    0.60
   4  -5  -2    0.32    0.64
   4   5  -2    0.16    0.70
   4  -5  -2    0.08    0.41
   4  -5  -1    4.56    0.81
   4  -5  -1    4.19    0.43
   4  -5  -1    4.31    0.68
  -4  -5   1    4.64    0.62
   4   5  -1    4.34    0.83
   4   5  -1    4.34    0.46
  -4  -5   0    0.07    0.47
   4   5   0    0.67    0.49
   4  -5   0    0.29    0.62
   4   5   0   -0.06    0.74
   4  -5   0    0.31    0.58
   4  -5   1    3.49    0.74
  -4  -5  -1    3.49    0.52
   4   5   1    5.22    0.78
  -4  -5  -2    0.75    0.45
   4   5   2    0.75    0.64
   4  -5   2    0.80    0.74
  -4   5  -3    6.02    0.81
   4  -5   3    5.50    0.92
   4   5   3    5.65    0.72
  -4   5  -4    4.16    0.79
   4  -5   4    4.06    0.85
  -4  -5  -4    5.43    0.84
  -4   5  -5    1.08    0.71
  -4  -5  -5    0.90    0.80
   4  -5   5    1.48    0.91
  -4   5  -6    3.40    0.90
  -4  -5  -6    2.87    0.88
   4  -5   6    3.16    0.98
   4   5   6    5.15    1.16
  -4   5  -7    4.78    1.00
   4   5   7    5.86    1.29
  -4  -5  -7    4.27    1.09
   4  -5   7    4.87    1.06
  -4  -5  -8    2.27    1.06
   4   6 -10    0.44    0.86
   4  -6 -10    0.12    0.81
   4   6  -9   -0.27    0.79
   4  -6  -9    0.16    0.71
   4  -6  -9    0.19    0.88
   4   6  -8    0.07    0.74
   4  -6  -8    0.66    0.67
   4  -6  -8    0.26    0.77
   4   6  -7    1.63    0.67
   4  -6  -7    0.86    0.61
   4  -6  -7    2.82    0.87
   4   6  -7    0.92    0.75
   4   6  -6    0.37    0.58
   4  -6  -6    0.66    0.51
   4   6  -6   -0.19    0.81
   4  -6  -6    0.22    0.73
   4  -6  -5    3.69    0.59
   4   6  -5    3.03    0.69
   4   6  -5    3.72    0.90
   4  -6  -5    4.12    0.79
   4  -6  -5    3.21    0.76
   4  -6  -4    0.38    0.70
   4  -6  -4    0.19    0.53
   4   6  -4    0.76    0.61
   4   6  -4    0.51    0.87
   4  -6  -4    0.72    0.57
   4   6  -3    0.49    0.57
   4  -6  -3    0.27    0.65
   4   6  -3    0.92    0.86
   4  -6  -3    0.64    0.54
   4  -6  -2    1.15    0.65
   4   6  -2    1.02    0.83
   4  -6  -2    1.11    0.49
   4   6  -1  127.61    2.38
   4  -6  -1  130.14    1.80
   4  -6  -1  134.21    2.44
  -4  -6   1  127.68    2.22
  -4  -6   0    0.11    0.54
   4  -6   0    0.06    0.67
   4   6   0   -0.20    0.74
  -4  -6  -1    1.71    0.52
   4   6   1    2.00    0.81
   4  -6   1    1.87    0.72
   4  -6   2    0.72    0.71
  -4  -6  -2    0.62    0.48
   4   6   2    0.85    0.69
  -4   6  -3   23.37    1.19
   4  -6   3   23.53    1.34
   4  -6   4   -0.27    0.77
  -4   6  -4    0.08    0.67
  -4  -6  -4    0.30    0.70
  -4   6  -5    8.51    0.97
  -4  -6  -5    8.44    1.02
   4  -6   5    8.65    1.10
  -4   6  -6    0.17    0.79
  -4  -6  -6    0.24    0.78
   4  -6   6   -0.21    0.85
  -4   6  -7    1.30    0.89
  -4  -6  -7   -0.38    1.00
   4  -6   7   -0.12    0.96
   4   6   7    0.91    1.19
   4   7  -9    1.60    0.83
   4  -7  -9    0.46    0.89
   4  -7  -8   13.62    1.30
   4   7  -8   12.32    1.11
   4   7  -7    0.31    0.64
   4  -7  -7    0.32    0.75
   4   7  -7    0.48    0.87
   4   7  -6   -0.25    0.62
   4  -7  -6    0.06    0.52
   4  -7  -6    0.20    0.66
   4   7  -6    0.43    0.85
   4  -7  -5    3.43    0.58
   4   7  -5    3.93    0.74
   4  -7  -5    3.45    0.72
   4   7  -5    3.78    1.01
   4  -7  -5    3.50    0.82
   4  -7  -4    3.82    0.79
   4  -7  -4    4.60    0.73
   4   7  -4    4.25    0.71
   4  -7  -4    4.40    0.56
   4   7  -4    4.09    0.97
   4  -7  -3   11.62    0.83
   4   7  -3   10.71    1.15
   4  -7  -3   10.84    0.98
   4   7  -3   11.79    0.90
   4  -7  -2    0.54    0.65
  -4  -7   2    0.14    0.67
   4   7  -2    0.43    0.87
   4  -7  -2    0.45    0.47
  -4  -7   1    0.96    0.62
   4  -7  -1    0.35    0.68
   4   7  -1    1.01    0.84
   4  -7  -1    0.72    0.43
  -4  -7   0    0.04    0.59
   4  -7   0   -0.10    0.69
   4   7   0    0.13    0.83
  -4  -7  -1    4.91    0.70
   4   7   1    4.39    0.88
   4  -7   1    4.87    0.87
  -4  -7  -2    0.69    0.52
   4   7   2    0.61    0.67
   4  -7   2    1.39    0.70
  -4   7  -3    7.45    0.77
   4  -7   3    8.74    1.02
   4  -7   4    5.00    0.96
  -4   7  -4    5.11    0.78
  -4  -7  -4    5.01    0.83
   4  -7   5   -0.04    0.85
  -4   7  -5    0.26    0.68
  -4  -7  -5    0.68    0.79
   4  -7   6    3.60    1.02
  -4   7  -6    3.39    0.82
  -4  -7  -6    3.34    0.87
   4  -7   7    2.95    1.13
  -4   7  -7    3.83    1.02
  -4  -7  -7    3.37    1.00
   4   8  -9   -0.05    0.78
   4  -8  -9    1.42    1.03
   4   8  -8    2.63    0.84
   4  -8  -8    1.92    0.92
   4   8  -7   -0.29    0.62
   4  -8  -7    0.01    0.81
   4   8  -7   -0.09    0.87
   4   8  -6    1.88    0.69
   4  -8  -6    1.58    0.73
   4   8  -6    2.53    0.93
   4   8  -5    1.75    0.63
   4  -8  -5    1.16    0.65
   4   8  -5    1.89    0.97
   4  -8  -5    1.27    0.80
   4  -8  -4   19.55    1.11
   4   8  -4   18.96    1.31
   4  -8  -4   18.60    1.23
   4   8  -4   20.17    1.11
   4  -8  -3    1.39    0.72
   4   8  -3    1.70    0.94
   4  -8  -3    0.91    0.61
   4  -8  -2    0.28    0.68
   4   8  -2    0.18    0.88
  -4  -8   2   -0.10    0.69
   4  -8  -2   -0.05    0.52
  -4  -8   1   -0.14    0.68
   4  -8  -1   -0.20    0.73
   4   8  -1    0.31    0.90
   4  -8  -1   -0.08    0.42
  -4  -8   0    3.09    0.77
   4  -8   0    4.03    0.81
   4   8   0    4.04    0.94
  -4  -8  -1    0.12    0.56
   4  -8   1   -0.25    0.69
   4   8   1   -0.07    0.78
   4   8   2   38.27    1.48
   4  -8   2   39.97    1.68
  -4  -8  -2   36.71    1.38
  -4  -8  -3    2.05    0.63
   4  -8   3    1.79    0.83
  -4  -8  -4   13.21    1.07
   4  -8   4   10.90    1.17
   4  -8   5    0.18    0.89
  -4  -8  -5    0.27    0.79
   4  -8   6   -1.05    0.93
  -4  -8  -6   -0.13    0.79
   4  -8   7   -0.31    0.98
  -4  -8  -7   -0.46    0.96
   4   9  -9   -0.60    0.79
   4   9  -8    6.92    0.98
   4  -9  -8    6.94    1.15
   4   9  -7    1.39    0.66
   4  -9  -7    0.85    0.75
   4   9  -7    1.03    0.96
   4   9  -6    0.83    0.59
   4  -9  -6    0.96    0.76
   4   9  -6    0.03    0.82
   4   9  -5    2.84    0.66
   4   9  -5    3.13    1.00
   4  -9  -5    3.63    0.82
   4  -9  -5    1.58    0.82
   4   9  -4   -0.20    0.51
   4   9  -4    0.77    0.85
   4  -9  -4   -0.13    0.62
   4  -9  -4    0.08    0.76
   4  -9  -3   10.05    0.85
   4   9  -3   12.74    1.11
   4  -9  -3   11.53    1.08
  -4  -9   3   11.03    1.09
   4  -9  -2    0.19    0.71
  -4  -9   2    0.34    0.69
   4   9  -2   -0.05    0.88
   4  -9  -2    0.20    0.52
  -4  -9   1    1.38    0.76
   4  -9  -1    1.32    0.74
   4   9  -1    1.99    0.93
   4  -9  -1    1.77    0.52
  -4  -9   0   -0.05    0.60
   4  -9   0    0.29    0.70
   4   9   0    0.41    0.84
  -4  -9  -1    2.77    0.72
   4  -9   1    1.59    0.79
   4   9   1    2.24    0.82
  -4  -9  -2    1.26    0.63
   4  -9   2    2.37    0.86
   4   9   2    1.52    0.74
  -4  -9  -3    3.07    0.73
   4  -9   3    2.94    0.90
   4  -9   4    1.52    0.80
   4  -9   5    1.62    0.91
   4  -9   6    3.68    1.09
   4 -10  -8   -0.25    0.90
   4 -10  -7    0.97    0.86
   4  10  -7    1.13    1.01
   4 -10  -6   -0.45    0.76
   4  10  -6    1.86    0.96
   4  10  -5    0.52    0.91
   4 -10  -5    1.47    0.78
   4 -10  -5    2.28    0.98
  -4 -10   4    0.50    0.83
   4  10  -4    0.60    0.90
   4 -10  -4    0.36    0.62
   4 -10  -4    0.73    0.85
   4 -10  -3    0.96    0.81
  -4 -10   3    0.34    0.74
   4  10  -3    0.16    0.85
   4 -10  -3    0.17    0.66
   4 -10  -2    1.05    0.75
  -4 -10   2    1.23    0.82
   4  10  -2    1.55    0.95
   4 -10  -2    0.85    0.58
   4  10  -1   45.85    1.83
   4 -10  -1   42.79    1.77
  -4 -10   1   42.54    1.69
  -4 -10   0    0.22    0.66
   4 -10   0   -0.01    0.77
   4  10   0    0.49    0.91
  -4 -10  -1    0.01    0.68
   4 -10   1    0.11    0.74
   4  10   1    1.14    0.86
  -4 -10  -2    0.08    0.63
   4 -10   2    0.28    0.76
   4  10   2    0.69    0.76
  -4 -10  -3   12.06    1.05
   4 -10   3   11.35    1.17
   4 -10   4   -0.26    0.85
   4 -10   5    3.28    1.09
   4 -10   6    1.01    0.96
   4  11  -8    6.30    1.31
   4 -11  -7    0.66    0.86
   4  11  -7   -0.19    1.03
   4 -11  -6    0.67    0.71
   4  11  -6   -0.52    0.99
   4  11  -5    2.83    1.04
   4 -11  -5    2.80    0.85
   4 -11  -5    2.13    0.90
  -4 -11   4    4.11    1.04
   4  11  -4    4.27    1.08
   4 -11  -4    3.52    0.76
   4 -11  -4    3.26    1.00
   4 -11  -3    2.16    0.88
  -4 -11   3    1.63    0.95
   4  11  -3    2.47    1.07
   4 -11  -3    1.32    0.72
   4 -11  -2    0.83    0.74
  -4 -11   2    0.00    0.89
   4  11  -2    0.57    0.99
   4 -11  -2    0.13    0.54
   4 -11  -1    0.37    0.78
  -4 -11   1   -0.22    0.78
   4  11  -1    0.49    0.88
  -4 -11   0    0.20    0.74
   4 -11   0   -0.15    0.76
   4  11   0    0.18    0.89
  -4 -11  -1    2.20    0.76
   4 -11   1    1.81    0.84
   4  11   1    2.60    0.92
  -4 -11  -2    0.54    0.70
   4 -11   2    0.39    0.87
   4  11   2    0.61    0.77
  -4 -11  -3    4.80    0.85
   4 -11   3    5.86    1.05
   4 -11   4    1.33    0.89
   4 -11   5   -0.15    0.97
   4 -12  -7    0.30    1.00
   4  12  -7    2.46    1.08
  -4 -12   6    1.58    1.06
   4  12  -6    1.02    1.10
   4 -12  -6    0.29    0.81
  -4 -12   5    1.19    1.01
   4 -12  -5    1.38    1.00
   4  12  -5    1.11    1.05
   4 -12  -5    0.96    0.79
   4  12  -4   10.66    1.26
  -4 -12   4   10.40    1.28
   4 -12  -4    9.61    1.21
   4 -12  -4   10.97    1.11
   4 -12  -3    1.61    0.90
  -4 -12   3    1.40    0.96
   4  12  -3    1.86    1.00
   4 -12  -3    1.21    0.70
   4 -12  -2    0.48    0.86
  -4 -12   2   -0.05    0.84
   4  12  -2    0.18    0.98
   4 -12  -2    0.17    0.61
   4 -12  -1    0.08    0.79
  -4 -12   1   -0.41    0.82
   4  12  -1    0.20    0.91
  -4 -12   0    0.39    0.79
   4 -12   0    0.32    0.81
   4  12   0    1.03    1.03
  -4 -12  -1    0.56    0.84
   4 -12   1    0.36    0.80
   4  12   1    0.08    0.82
  -4 -12  -2   17.69    1.41
   4 -12   2   17.83    1.42
  -4 -12  -3    2.08    0.77
   4 -12   3    1.92    0.93
   4 -12   4    2.41    1.07
   4 -12   5    0.25    1.01
  -4 -13   6    0.30    1.08
   4  13  -6    1.57    1.15
   4 -13  -6    0.04    0.90
  -4 -13   5    1.74    1.10
   4  13  -5    3.09    1.25
   4 -13  -5    0.99    0.76
  -4 -13   4   -0.21    0.95
   4  13  -4    0.01    1.15
   4 -13  -4    0.46    0.72
   4 -13  -4   -0.25    0.94
   4 -13  -3    2.36    1.02
  -4 -13   3    2.96    1.08
   4  13  -3    5.64    1.25
   4 -13  -3    2.84    0.87
   4 -13  -2    0.47    0.92
  -4 -13   2   -0.27    0.91
   4  13  -2    0.36    1.00
   4 -13  -1    0.85    0.87
  -4 -13   1    0.14    0.85
   4  13  -1   -0.18    0.99
  -4 -13   0    0.29    0.80
   4 -13   0    0.00    0.89
   4  13   0   -0.03    1.03
  -4 -13  -1    1.18    0.84
   4 -13   1    0.45    0.80
   4  13   1    1.56    0.92
  -4 -13  -2    0.68    0.83
   4 -13   2    0.51    0.92
  -4 -13  -3    1.06    0.75
   4 -13   3    1.92    1.07
   4 -13   4    0.45    0.95
   4 -14  -5    0.26    0.90
  -4 -14   4    0.39    1.05
   4  14  -4    1.72    1.23
   4 -14  -4    0.69    0.78
   4 -14  -4    0.60    1.03
  -4 -14   3   -0.33    1.10
   4  14  -3    0.51    1.06
   4 -14  -3   -0.20    0.68
   4 -14  -3   -0.06    0.96
   4 -14  -2    0.80    0.95
  -4 -14   2    0.15    0.94
   4  14  -2    0.99    1.13
   4  14  -1   12.49    1.44
   4 -14  -1   12.76    1.36
  -4 -14   1   12.69    1.34
  -4 -14   0    0.11    0.82
   4 -14   0    0.74    0.92
   4  14   0    0.49    1.05
  -4 -14  -1   -0.40    0.85
   4 -14   1   -0.91    0.99
   4  14   1    0.41    1.11
  -4 -14  -2    0.39    0.86
   4 -14   2    0.10    0.96
  -4 -14  -3    4.46    0.92
   4 -14   3    4.32    1.14
   4 -15  -4    1.38    0.92
   4 -15  -2   -0.02    0.99
  -4 -15   2    1.20    1.06
   4  15  -2    0.60    1.20
   4 -15  -1    1.47    0.98
  -4 -15   1    0.48    1.02
   4  15  -1    0.85    1.15
   4 -15   0   -0.01    1.07
  -4 -15   0   -0.95    0.82
   4  15   0    0.76    1.14
  -4 -15  -1    1.13    0.93
   4 -15   1    1.20    0.97
   4  15   1    0.89    1.11
   5   0 -10    6.49    1.12
   5   0  -9   -0.01    0.75
   5   0  -8    1.30    0.73
   5   0  -7   -0.17    0.68
   5   0  -7   -0.32    0.61
   5   0  -6    3.89    0.72
   5   0  -6    3.85    0.72
   5   0  -5    2.95    0.78
   5   0  -5    2.45    0.85
   5   0  -4  179.69    2.12
   5   0  -4  182.05    2.86
   5   0  -4  180.06    2.94
   5   0  -3   -0.18    0.40
   5   0  -3    0.07    0.73
   5   0  -2    0.19    0.71
   5   0  -2    0.33    0.41
   5   0  -1   -0.15    0.46
   5   0  -1    0.12    0.62
   5   0   0    8.39    0.91
   5   0   0    8.94    0.77
   5   0   1   -0.03    0.67
   5   0   1    0.25    0.62
   5   0   2  255.36    3.30
   5   0   2  253.69    3.47
   5   0   3    0.78    0.79
   5   0   3   -0.17    0.60
   5   0   4    0.46    0.88
   5   0   5   -0.18    0.94
  -5   0  -5   -0.23    0.83
   5   0   6    2.03    1.10
  -5   0  -6    2.27    0.94
   5   0   7   -0.71    1.16
  -5   0  -7    0.05    1.05
   5   1 -10    1.39    0.83
   5  -1 -10    1.55    0.97
   5   1  -9    0.49    0.82
   5  -1  -9    0.83    0.73
   5   1  -8    4.46    0.86
   5  -1  -8    4.16    0.83
   5   1  -7    0.00    0.65
   5  -1  -7   -0.09    0.67
   5   1  -7    0.13    0.65
   5  -1  -6    1.13    0.63
   5   1  -6    1.20    0.62
   5  -1  -6    1.33    0.68
   5   1  -6    1.34    0.71
   5  -1  -5   87.96    2.08
   5   1  -5   93.11    2.12
   5  -1  -5   92.10    2.24
   5   1  -5   87.89    2.25
   5  -1  -4    0.52    0.62
   5   1  -4    0.49    0.61
   5  -1  -4    0.56    0.46
   5  -1  -4    0.01    0.68
   5   1  -4    0.93    0.80
   5  -1  -3   21.46    0.89
   5  -1  -3   20.40    1.17
   5   1  -3   21.88    0.75
   5   1  -3   21.47    1.20
   5  -1  -2    2.52    0.74
   5   1  -2    2.25    0.75
   5  -1  -2    2.80    0.53
   5   1  -2    2.59    0.46
   5   1  -1    1.27    0.49
   5  -1  -1    1.06    0.64
   5   1  -1    0.61    0.65
   5  -1  -1    1.24    0.57
   5  -1   0    2.18    0.59
   5   1   0    3.10    0.60
   5  -1   0    1.71    0.77
   5   1   0    2.14    0.72
   5  -1   1    1.27    0.68
   5  -1   1    0.91    0.68
   5   1   1    0.36    0.73
   5   1   1    1.29    0.65
   5   1   2   46.81    1.64
   5  -1   2   30.03    1.38
   5   1   2   50.93    1.73
   5  -1   3   13.51    0.97
   5   1   3   11.99    0.90
   5  -1   3   12.00    1.08
   5   1   3   12.56    1.11
   5  -1   4    4.75    0.95
   5   1   4    5.05    0.99
   5  -1   5    2.19    0.91
  -5   1  -5    1.53    0.92
  -5  -1  -5    1.62    0.87
   5   1   5    1.01    1.03
   5  -1   6    1.22    0.99
  -5   1  -6    1.23    0.89
  -5  -1  -6    1.33    0.91
   5   1   6    1.32    1.08
   5  -1   7    0.83    1.10
  -5   1  -7    0.12    1.00
  -5  -1  -7    0.39    0.97
   5   1   7    0.26    1.16
   5   2 -10    0.94    0.94
   5  -2 -10    0.40    0.79
   5   2  -9    0.75    0.78
   5  -2  -9    2.24    0.87
   5   2  -8    0.06    0.78
   5  -2  -8   -0.27    0.67
   5   2  -7   -0.02    0.69
   5  -2  -7    0.07    0.61
   5   2  -7    0.24    0.63
   5  -2  -6    0.17    0.62
   5   2  -6    0.55    0.61
   5  -2  -6   -0.11    0.67
   5   2  -6    0.14    0.64
   5  -2  -5   48.98    1.39
   5  -2  -5   51.40    1.64
   5   2  -5   52.74    1.69
   5  -2  -5   48.65    1.67
   5   2  -5   51.52    1.76
   5  -2  -4    0.17    0.59
   5   2  -4    0.26    0.65
   5  -2  -4    0.37    0.48
   5  -2  -4   -0.12    0.70
   5   2  -4    0.13    0.74
   5  -2  -3   10.67    0.94
   5   2  -3   11.24    0.98
   5  -2  -3   11.35    0.78
   5  -2  -2    0.04    0.52
   5  -2  -2    0.17    0.66
   5   2  -2    0.00    0.71
   5   2  -2   -0.17    0.35
   5   2  -1    0.63    0.47
   5  -2  -1    0.15    0.64
   5   2  -1    0.35    0.73
   5  -2  -1    0.35    0.54
   5  -2   0    0.20    0.60
   5  -2   0    0.17    0.69
   5   2   0   -0.20    0.65
   5   2   0    0.30    0.53
   5  -2   1    8.65    0.93
   5   2   1    8.68    0.86
   5  -2   1    8.15    0.92
   5   2   1    8.64    0.89
   5   2   2    2.64    0.89
   5  -2   2   -0.01    0.75
   5  -2   2    0.65    0.74
   5   2   2    0.81    0.74
   5  -2   3    0.39    0.67
   5   2   3    0.34    0.61
   5   2   3    0.59    0.82
   5  -2   3    0.59    0.80
  -5   2  -4    0.03    0.75
   5  -2   4    0.33    0.80
   5   2   4    0.08    0.84
  -5   2  -5    1.66    0.83
  -5  -2  -5    1.84    0.89
   5   2   5    2.04    0.92
   5  -2   5    2.23    0.97
  -5   2  -6   -0.01    0.86
  -5  -2  -6    0.48    0.90
   5   2   6    0.32    1.04
   5  -2   6    0.40    0.88
  -5   2  -7    0.69    1.05
  -5  -2  -7    1.07    1.00
   5   2   7    1.38    1.15
   5  -2   7    2.79    1.08
   5   3 -10    1.40    0.99
   5  -3 -10    2.14    0.92
   5   3  -9    0.64    0.84
   5  -3  -9    0.87    0.71
   5   3  -8    2.67    0.88
   5  -3  -8    2.91    0.80
   5   3  -7    0.07    0.67
   5  -3  -7    0.07    0.59
   5   3  -7    0.38    0.65
   5  -3  -6    0.70    0.58
   5   3  -6    0.73    0.68
   5  -3  -6    1.02    0.68
   5   3  -6    0.94    0.72
   5  -3  -5   66.04    1.82
   5  -3  -5   69.02    1.72
   5   3  -5   69.26    1.90
   5  -3  -5   70.37    1.88
   5  -3  -5   65.68    1.89
   5   3  -5   66.16    1.98
   5  -3  -4    0.90    0.62
   5   3  -4    0.86    0.61
   5  -3  -4    1.42    0.56
   5  -3  -4    1.01    0.56
   5  -3  -4    1.32    0.72
   5   3  -4    1.76    0.85
   5  -3  -3   18.09    1.15
   5   3  -3   17.14    1.14
   5  -3  -3   18.80    0.99
   5  -3  -2    1.53    0.59
   5  -3  -2    1.29    0.75
   5   3  -2    1.12    0.77
  -5  -3   1    2.03    0.46
   5   3  -1    2.53    0.47
   5  -3  -1    2.08    0.78
   5   3  -1    2.05    0.80
   5  -3  -1    1.21    0.61
   5  -3   0    0.67    0.61
   5   3   0    1.05    0.55
   5  -3   0    0.83    0.71
   5   3   0    0.51    0.66
   5  -3   1    0.28    0.74
   5   3   1   -0.16    0.67
   5  -3   1    0.09    0.73
   5   3   1    0.10    0.70
   5  -3   2   28.54    1.33
   5   3   2   28.80    1.27
   5  -3   2   28.99    1.42
   5   3   2   28.35    1.33
   5   3   3    9.31    0.86
   5  -3   3   10.23    0.98
   5  -3   3   10.64    1.09
   5   3   3    9.71    1.05
   5   3   4    3.42    0.98
  -5   3  -4    3.18    0.85
   5  -3   4    3.35    0.89
   5   3   5    2.21    1.03
  -5   3  -5    1.23    0.82
  -5  -3  -5    2.05    0.93
   5  -3   5    1.83    0.93
   5   3   6    1.73    1.08
  -5   3  -6    1.87    0.95
  -5  -3  -6    0.99    0.94
   5  -3   6    1.16    0.94
   5   3   7    0.44    1.14
  -5   3  -7   -0.12    1.03
  -5  -3  -7    0.27    1.03
   5  -3   7    0.34    1.10
   5   4 -10    3.61    1.10
   5  -4 -10    3.65    0.87
   5   4  -9    0.31    0.77
   5  -4  -9    0.10    0.82
   5   4  -8    0.82    0.70
   5  -4  -8    0.42    0.70
   5   4  -7   -0.01    0.72
   5  -4  -7   -0.13    0.65
   5  -4  -7    0.00    0.70
   5   4  -7   -0.37    0.69
   5  -4  -6    2.14    0.66
   5   4  -6    3.09    0.74
   5  -4  -6    2.99    0.72
   5   4  -6    3.36    0.82
   5  -4  -6    3.53    0.73
   5  -4  -5   -0.18    0.61
   5   4  -5    0.17    0.60
   5  -4  -5   -0.01    0.66
   5  -4  -5   -0.10    0.60
   5   4  -5    0.52    0.68
   5  -4  -5    0.09    0.62
   5  -4  -4  141.01    2.40
   5  -4  -4  143.35    2.64
   5  -4  -4  139.76    2.45
   5   4  -4  142.31    2.68
   5  -4  -4  137.84    2.54
   5   4  -4  141.02    2.73
   5  -4  -3    0.82    0.64
   5  -4  -3    0.51    0.75
   5  -4  -3    0.44    0.49
   5   4  -3    0.76    0.74
   5  -4  -2    0.06    0.60
   5  -4  -2    0.05    0.74
   5   4  -2    0.28    0.70
  -5  -4   1    0.48    0.49
   5  -4  -1    0.30    0.72
   5   4  -1    0.15    0.72
   5  -4  -1    0.22    0.60
   5  -4   0    5.05    0.89
   5  -4   0    5.82    0.80
   5   4   0    5.70    0.90
   5   4   0    6.47    0.69
   5  -4   1    0.94    0.69
   5  -4   1    0.49    0.76
   5   4   1    0.95    0.72
   5   4   1    0.36    0.67
   5  -4   2  183.15    3.04
   5   4   2  192.94    2.90
   5  -4   2  179.98    3.17
   5   4   2  188.25    2.98
   5  -4   3    0.09    0.77
   5   4   3    0.11    0.76
  -5   4  -4    0.75    0.76
   5  -4   4    0.88    0.82
   5   4   4    0.87    0.83
  -5   4  -5    0.17    0.78
  -5  -4  -5   -0.30    0.77
   5   4   5    1.05    0.95
   5  -4   5    0.01    0.87
   5   4   6    1.63    1.13
  -5   4  -6    1.74    0.92
  -5  -4  -6    1.60    0.93
   5  -4   6    2.16    0.96
   5   4   7   -0.21    1.19
  -5   4  -7    0.55    0.99
  -5  -4  -7   -0.43    0.94
   5  -4   7    0.86    1.12
   5  -5 -10   -0.33    0.82
   5   5  -9    0.09    0.91
   5  -5  -9    0.54    0.77
   5  -5  -9    0.31    0.93
   5   5  -8    3.06    0.85
   5  -5  -8    2.98    0.77
   5  -5  -8    3.46    0.97
   5  -5  -7    0.16    0.68
   5   5  -7   -0.08    0.71
   5  -5  -7   -0.20    0.67
   5   5  -7    0.02    0.74
   5  -5  -6    1.45    0.65
   5   5  -6    1.16    0.70
   5  -5  -6    1.34    0.70
   5  -5  -6    1.19    0.67
   5   5  -6    2.22    0.76
   5  -5  -5   66.03    1.86
   5  -5  -5   68.83    1.93
   5  -5  -5   65.82    1.89
   5   5  -5   64.61    1.98
   5  -5  -5   64.43    1.85
   5   5  -5   65.13    2.00
   5  -5  -4    0.19    0.53
   5   5  -4    0.08    0.55
   5  -5  -4    0.19    0.62
   5  -5  -4    0.18    0.73
   5  -5  -4    0.33    0.58
   5   5  -4    0.28    0.84
   5  -5  -3   13.24    1.07
   5  -5  -3   13.85    0.85
   5   5  -3   13.40    1.12
   5  -5  -3   13.73    1.00
   5  -5  -2    0.86    0.70
   5  -5  -2    1.46    0.78
   5   5  -2    1.35    0.83
  -5  -5   1    0.66    0.57
   5  -5  -1    0.41    0.79
   5  -5  -1    0.10    0.66
   5   5  -1    0.31    0.80
   5  -5   0    1.16    0.76
   5   5   0    1.60    0.79
   5   5   0    0.90    0.57
   5  -5   0    1.83    0.74
   5  -5   1    0.81    0.70
   5   5   1    0.66    0.61
   5  -5   1    0.94    0.73
   5   5   1    0.93    0.68
   5   5   2   18.55    1.14
   5  -5   2   15.95    1.22
   5   5   2   17.95    1.16
   5  -5   3   11.20    1.13
   5   5   3   11.54    1.09
   5   5   4    4.83    1.05
   5  -5   4    4.31    1.01
  -5   5  -4    4.11    0.93
  -5   5  -5    0.63    0.75
   5  -5   5    0.96    0.87
  -5  -5  -5    0.40    0.82
   5   5   5    0.81    0.99
  -5   5  -6    2.04    0.96
  -5  -5  -6    0.42    0.95
   5  -5   6    0.49    0.94
   5   5   6    0.71    1.11
  -5   5  -7    0.15    0.99
  -5  -5  -7    0.77    1.00
   5   6  -9    1.62    0.92
   5  -6  -9    2.26    0.78
   5  -6  -9    1.67    1.02
   5   6  -8    0.10    0.76
   5  -6  -8    0.09    0.65
   5  -6  -8    0.34    0.80
   5  -6  -7   -0.57    0.58
   5   6  -7    0.04    0.70
   5  -6  -7   -0.32    0.79
   5   6  -7   -0.40    0.85
   5  -6  -6   -0.09    0.53
   5   6  -6   -0.23    0.69
   5  -6  -6    0.13    0.68
   5  -6  -6    0.54    0.66
   5  -6  -6    1.15    0.70
   5   6  -6    0.15    0.85
   5  -6  -5   34.53    1.45
   5  -6  -5   30.50    1.40
   5  -6  -5   32.13    1.48
   5   6  -5   33.15    1.56
   5  -6  -5   31.90    1.36
   5   6  -5   32.99    1.49
   5   6  -4   -0.13    0.59
   5  -6  -4   -0.11    0.65
   5  -6  -4    0.65    0.69
   5  -6  -4    0.38    0.56
   5   6  -4   -0.13    0.88
   5  -6  -3    4.57    0.79
   5  -6  -3    5.07    0.65
   5  -6  -3    4.76    0.91
   5   6  -3    3.99    0.94
   5  -6  -2   -0.02    0.64
  -5  -6   2    0.45    0.66
   5  -6  -2    0.43    0.78
   5   6  -2   -0.12    0.84
  -5  -6   1    0.40    0.58
   5  -6  -1    0.76    0.82
   5  -6  -1    0.61    0.67
   5   6  -1    0.71    0.87
  -5  -6   0    0.13    0.53
   5   6   0    0.39    0.76
   5  -6   0    0.29    0.65
   5   6   1    5.56    0.84
   5   6   1    5.15    0.72
   5  -6   1    5.11    0.86
   5  -6   2    0.96    0.79
   5   6   2    0.40    0.72
   5   6   2    0.26    0.66
   5  -6   3    0.27    0.81
  -5   6  -3    0.07    0.69
   5   6   3    0.49    0.83
   5  -6   4    0.06    0.86
  -5   6  -4   -0.18    0.70
   5   6   4    0.62    0.91
   5  -6   5    0.37    0.93
  -5   6  -5    1.60    0.80
  -5  -6  -5    0.43    0.80
   5   6   5    0.98    0.96
   5   6   6    0.74    1.11
   5  -6   6    0.40    1.06
  -5   6  -6    0.51    0.87
  -5  -6  -6    0.16    0.93
   5   7  -9    0.63    0.87
   5  -7  -9    0.92    0.86
   5   7  -8    1.15    0.83
   5  -7  -8    1.98    0.85
   5   7  -7    0.08    0.72
   5  -7  -7    0.04    0.84
   5   7  -7    0.19    0.79
   5   7  -6    0.38    0.66
   5  -7  -6    0.25    0.81
   5  -7  -6   -0.16    0.75
   5   7  -6    0.11    0.91
   5  -7  -5   33.42    1.52
   5  -7  -5   32.73    1.56
   5   7  -5   31.97    1.60
   5   7  -5   33.99    1.53
   5   7  -4    1.71    0.67
   5  -7  -4    2.61    0.75
   5   7  -4    1.93    0.91
   5  -7  -4    1.86    0.64
   5  -7  -3    7.60    0.75
   5   7  -3    9.66    1.05
   5  -7  -3    8.34    0.92
   5  -7  -2    0.33    0.69
  -5  -7   2    0.13    0.69
   5   7  -2    0.12    0.83
  -5  -7   1    1.76    0.63
   5  -7  -1    1.75    0.69
   5   7  -1    1.64    0.89
  -5  -7   0   -0.32    0.53
   5  -7   0    0.28    0.69
   5   7   0   -0.22    0.75
   5   7   1    0.36    0.69
   5  -7   1    0.34    0.74
   5   7   2   20.18    1.18
   5  -7   2   19.10    1.33
   5   7   2   21.53    1.22
   5  -7   3    5.76    1.01
   5   7   3    4.97    1.03
  -5   7  -3    5.03    0.85
   5  -7   4    0.84    0.84
  -5   7  -4    1.34    0.74
  -5  -7  -4    1.79    0.86
   5   7   4    2.99    0.96
   5  -7   5    0.62    0.98
  -5   7  -5    1.81    0.81
  -5  -7  -5    0.75    0.89
   5   7   5    1.90    1.06
   5  -7   6    0.74    1.03
  -5   7  -6    0.16    0.86
  -5  -7  -6   -0.06    0.86
   5   7   6    1.14    1.18
   5   8  -9    0.17    0.82
   5  -8  -9   -0.25    1.15
   5   8  -8    0.24    0.80
   5  -8  -8    0.12    0.91
   5   8  -8   -0.33    0.92
   5   8  -7    0.46    0.67
   5  -8  -7   -0.14    0.75
   5   8  -7   -0.31    0.89
   5   8  -6    2.36    0.78
   5  -8  -6    1.79    0.81
   5  -8  -6    1.25    0.69
   5   8  -6    2.69    0.98
   5   8  -5    0.82    0.69
   5  -8  -5    0.93    0.65
   5   8  -5   -1.49    0.85
   5  -8  -5    0.39    0.81
   5  -8  -4   78.06    2.06
   5   8  -4   76.54    2.29
   5  -8  -4   78.12    2.27
   5  -8  -3    1.16    0.75
  -5  -8   3    0.88    0.78
   5   8  -3    0.45    0.84
   5  -8  -3    0.68    0.49
   5  -8  -2   -0.17    0.70
  -5  -8   2   -0.07    0.65
   5   8  -2    0.15    0.87
  -5  -8   1    0.18    0.60
   5  -8  -1    0.09    0.73
   5   8  -1    0.25    0.87
  -5  -8   0    3.55    0.68
   5  -8   0    2.11    0.80
   5   8   0    2.96    0.88
   5  -8   1    1.61    0.77
   5   8   1    1.59    0.76
   5   8   2  101.73    2.36
   5  -8   2   99.23    2.68
   5  -8   3    0.61    0.83
   5  -8   4    1.01    0.88
  -5  -8  -4    0.24    0.80
   5  -8   5   -0.36    0.88
   5   8   5    0.30    1.04
  -5  -8  -5    0.65    0.84
  -5  -8  -6    1.54    0.89
   5   8   6    2.39    1.21
   5   9  -9   -0.13    0.90
   5   9  -8    2.21    0.82
   5  -9  -8    2.88    1.03
   5   9  -8    1.46    0.98
   5   9  -7   -0.87    0.68
   5  -9  -7   -0.08    0.82
   5   9  -7   -1.09    0.83
   5   9  -6    1.28    0.68
   5  -9  -6    2.44    0.96
   5  -9  -6    0.33    0.80
   5   9  -6    1.34    1.04
   5  -9  -5   33.59    1.73
   5  -9  -5   36.09    1.65
   5   9  -5   35.81    1.80
   5   9  -5   35.17    1.58
   5  -9  -4    0.26    0.82
   5   9  -4   -0.10    0.95
   5  -9  -4    0.50    0.63
   5  -9  -3    3.78    0.91
  -5  -9   3    4.81    0.92
   5   9  -3    5.67    1.08
   5  -9  -2    0.47    0.75
  -5  -9   2    0.62    0.67
   5   9  -2    0.71    0.93
  -5  -9   1    0.19    0.67
   5  -9  -1    0.01    0.79
   5   9  -1    0.00    0.90
  -5  -9   0    1.19    0.64
   5  -9   0   -0.15    0.73
   5   9   0    0.63    0.84
   5  -9   1   -0.03    0.82
   5   9   1    0.62    0.89
   5   9   2    8.89    0.98
   5  -9   2    6.75    1.09
   5  -9   3    8.48    1.14
   5  -9   4    2.70    0.93
   5  -9   5    0.55    0.91
   5 -10  -8   -0.70    0.91
   5  10  -8    0.48    1.04
   5 -10  -7    0.17    0.94
   5  10  -7    1.04    0.97
   5 -10  -6    0.83    0.77
   5  10  -6    0.76    1.02
   5 -10  -5   15.98    1.39
   5 -10  -5   16.01    1.24
   5  10  -5   16.52    1.52
   5 -10  -4    0.45    0.85
  -5 -10   4   -0.02    0.84
   5  10  -4    0.03    0.96
   5 -10  -4    0.78    0.58
   5 -10  -3    1.98    0.86
  -5 -10   3    1.55    0.90
   5  10  -3    1.38    1.03
   5 -10  -2    0.06    0.79
  -5 -10   2    0.60    0.82
   5  10  -2    0.02    0.95
  -5 -10   1    0.75    0.76
   5 -10  -1   -0.05    0.74
   5  10  -1    0.62    1.00
  -5 -10   0    0.03    0.59
   5 -10   0    0.29    0.85
   5  10   0    0.45    0.97
  -5 -10  -1    3.53    0.77
   5 -10   1    2.67    0.94
   5  10   1    3.20    0.96
   5 -10   2    0.17    0.80
   5 -10   3   -0.39    0.91
   5 -10   4   -0.43    1.01
   5  11  -8    0.57    1.11
   5 -11  -7    0.62    0.88
   5  11  -7    0.18    1.07
   5  11  -6    0.04    1.02
   5 -11  -6   -0.29    0.83
   5 -11  -5   13.84    1.24
   5  11  -5   14.00    1.48
  -5 -11   5   12.46    1.35
   5 -11  -5   11.83    1.31
   5 -11  -4    2.17    0.92
  -5 -11   4    2.08    0.96
   5  11  -4    1.48    1.05
   5 -11  -4    1.86    0.74
   5 -11  -3    2.28    0.89
  -5 -11   3    2.27    0.94
   5  11  -3    2.20    1.07
   5 -11  -2    0.60    0.81
  -5 -11   2    0.23    0.84
   5  11  -2   -0.06    1.07
  -5 -11   1    0.74    0.84
   5 -11  -1    0.69    0.81
   5  11  -1    1.31    1.03
  -5 -11   0    0.52    0.73
   5 -11   0    0.21    0.81
   5  11   0   -0.40    1.04
  -5 -11  -1    1.08    0.73
   5 -11   1    0.42    0.89
   5  11   1    0.76    0.99
   5 -11   2    9.98    1.28
   5 -11   3    2.46    1.03
   5 -11   4    0.65    1.04
   5 -12  -7    0.72    0.94
  -5 -12   6    0.38    1.09
   5  12  -6    2.27    1.12
   5 -12  -6    1.07    0.96
  -5 -12   5    0.00    1.05
   5  12  -5    0.60    1.17
   5 -12  -5    0.02    0.75
   5 -12  -5    0.40    0.95
   5 -12  -4   31.74    1.86
   5  12  -4   33.95    1.95
  -5 -12   4   29.64    1.81
   5 -12  -3    1.35    0.92
  -5 -12   3    1.21    1.00
   5  12  -3    0.65    1.12
   5 -12  -2    0.19    0.85
  -5 -12   2   -0.17    0.88
   5  12  -2   -0.34    1.05
  -5 -12   1   -0.81    0.71
   5 -12  -1    0.39    0.87
   5  12  -1    0.92    1.05
  -5 -12   0    1.03    0.80
   5 -12   0    0.68    0.84
   5  12   0    1.38    1.03
  -5 -12  -1    0.82    0.75
   5 -12   1    0.74    0.96
   5  12   1    0.68    0.91
   5 -12   2   38.13    2.01
   5 -12   3   -0.05    1.04
   5 -13  -6   -1.06    0.97
   5 -13  -5   15.47    1.35
   5  13  -5   15.57    1.76
   5 -13  -5   14.46    1.50
  -5 -13   5   15.60    1.63
  -5 -13   4    1.07    1.06
   5  13  -4    0.76    1.09
   5 -13  -4   -0.21    0.98
   5 -13  -3    0.81    0.97
  -5 -13   3    1.03    1.05
   5  13  -3    0.88    1.18
   5 -13  -2   -0.51    0.89
  -5 -13   2    0.09    1.00
   5  13  -2   -0.58    1.09
   5 -13  -1    0.94    0.89
  -5 -13   1    0.11    0.83
   5  13  -1    0.44    1.07
  -5 -13   0   -0.02    0.92
   5 -13   0   -0.10    0.94
   5  13   0   -0.07    1.07
  -5 -13  -1   -0.10    0.78
   5 -13   1    0.47    1.02
   5  13   1    0.06    0.97
   5 -13   2    1.50    0.98
  -5 -14   3    0.06    1.04
   5 -14  -2    0.02    0.97
  -5 -14   2    0.01    1.04
   5  14  -2   -0.30    1.28
   5 -14  -1    0.90    1.00
  -5 -14   1   -0.06    0.86
   5  14  -1    0.05    1.14
  -5 -14   0    0.36    0.92
   5  14   0    0.23    1.01
  -5 -14  -1    1.91    0.97
   5  14   1    0.15    1.10
   6   0  -9   -0.24    0.91
   6   0  -8   10.82    1.18
   6   0  -7   -0.35    0.65
   6   0  -7    0.19    0.70
   6   0  -6   13.77    1.17
   6   0  -6   12.37    1.13
   6   0  -5    0.13    0.69
   6   0  -5   -0.14    0.77
   6   0  -4   20.26    1.27
   6   0  -3   -0.01    0.78
   6   0  -2   13.51    1.13
   6   0  -2   15.40    0.87
   6   0  -1   -0.04    0.53
   6   0  -1    0.22    0.75
   6   0   0    4.68    0.79
   6   0   0    3.44    0.84
   6   0   1   -0.15    0.65
   6   0   1   -0.29    0.70
   6   0   2   16.62    1.16
   6   0   2   15.20    1.17
   6   0   3    0.29    0.66
   6   0   3    0.53    0.80
   6   0   4    2.95    0.92
   6   0   5    0.02    0.94
  -6   0  -5    1.06    0.95
   6   0   6    0.32    1.00
  -6   0  -6   -0.08    1.03
   6   1  -9   -0.22    0.81
   6  -1  -9    0.25    0.88
   6  -1  -8    4.39    0.98
   6   1  -8    3.83    0.88
   6  -1  -7   -0.08    0.71
   6   1  -7    0.45    0.76
   6  -1  -7    0.07    0.70
   6   1  -7    0.10    0.71
   6  -1  -6    4.19    0.91
   6   1  -6    4.11    0.83
   6  -1  -6    3.84    0.89
   6   1  -6    3.85    0.86
   6  -1  -5   18.91    1.28
   6   1  -5   22.41    1.34
   6  -1  -5   20.14    1.23
   6   1  -5   20.78    1.32
   6  -1  -4   13.16    1.13
   6   1  -4   13.15    1.13
   6  -1  -3   -0.15    0.51
   6  -1  -3    0.01    0.77
   6   1  -3   -0.07    0.71
   6  -1  -2    0.42    0.77
   6   1  -2    0.77    0.70
   6  -1  -2    0.22    0.52
   6   1  -1    2.31    0.57
   6  -1  -1    1.86    0.81
   6   1  -1    2.44    0.81
   6  -1  -1    2.04    0.65
   6  -1   0   10.67    1.06
   6   1   0   12.14    1.10
   6  -1   0   10.23    0.91
   6   1   0   11.85    0.91
   6  -1   1    1.97    0.72
   6  -1   1    1.59    0.80
   6   1   1    1.61    0.75
   6   1   1    2.14    0.71
   6  -1   2    7.35    0.91
   6   1   2    7.90    0.98
   6  -1   2    6.41    0.91
   6   1   2    9.62    0.97
   6   1   3   -0.07    0.73
   6  -1   3    0.29    0.72
   6   1   3    0.47    0.69
   6  -1   3    0.56    0.83
   6   1   4    0.24    0.80
   6  -1   4   -0.22    0.79
   6   1   5    4.34    1.11
  -6   1  -5    3.82    1.07
  -6  -1  -5    4.40    1.08
   6  -1   5    5.62    1.15
   6   1   6    0.96    1.05
  -6   1  -6    0.90    0.98
  -6  -1  -6    1.23    1.13
   6  -1   6    0.07    1.06
   6  -2  -9    2.93    1.00
   6   2  -9    2.21    0.94
   6  -2  -8    0.53    0.73
   6   2  -8    0.32    0.81
   6  -2  -7    3.27    0.77
   6   2  -7    3.13    0.91
   6  -2  -7    3.83    0.78
   6   2  -7    3.43    0.90
   6  -2  -6    0.27    0.61
   6   2  -6    0.02    0.69
   6  -2  -6    0.19    0.71
   6   2  -6    0.39    0.83
   6  -2  -5   75.21    2.12
   6   2  -5   74.11    2.13
   6  -2  -5   71.75    2.14
   6   2  -5   72.12    2.20
   6  -2  -4    0.14    0.52
   6  -2  -4   -0.02    0.74
   6   2  -4    0.17    0.77
   6  -2  -3   19.01    1.23
   6   2  -3   17.79    1.22
   6  -2  -3   18.24    0.97
   6  -2  -2    0.22    0.79
   6  -2  -2    0.26    0.52
   6   2  -2   -0.09    0.75
   6  -2  -1   16.80    1.22
   6   2  -1   17.57    1.21
   6  -2  -1   17.27    1.06
   6   2  -1   17.58    0.91
   6  -2   0   -0.18    0.63
   6   2   0    0.39    0.59
   6  -2   0    0.44    0.78
   6   2   0    1.00    0.73
   6  -2   1    0.17    0.69
   6  -2   1   -0.26    0.71
   6   2   1   -0.08    0.75
   6   2   1    0.10    0.60
   6   2   2    0.76    0.71
   6  -2   2    0.24    0.77
   6  -2   2    0.82    0.72
   6   2   2    0.63    0.72
   6  -2   3   15.36    1.15
   6  -2   3   15.97    1.26
   6   2   3   16.96    1.28
   6   2   4   -1.50    0.90
   6  -2   4   -0.27    0.82
   6   2   5    5.12    1.21
  -6   2  -5    4.36    1.13
  -6  -2  -5    4.83    1.13
   6  -2   5    3.54    1.06
   6   2   6   -1.11    1.16
  -6   2  -6    0.56    1.02
  -6  -2  -6    0.20    1.04
   6  -2   6   -0.03    1.04
   6  -3  -9    0.35    0.83
   6   3  -9    0.79    0.90
   6  -3  -8    4.53    0.90
   6   3  -8    6.11    1.00
   6  -3  -7    0.11    0.69
   6   3  -7    0.05    0.75
   6   3  -7   -0.11    0.81
   6  -3  -6    3.09    0.73
   6   3  -6    3.05    0.78
   6  -3  -6    3.26    0.84
   6   3  -6    3.75    0.88
   6  -3  -5   24.98    1.34
   6   3  -5   25.40    1.43
   6  -3  -5   25.37    1.21
   6  -3  -5   25.96    1.37
   6   3  -5   24.06    1.40
   6  -3  -4   11.33    1.08
   6   3  -4   12.64    1.06
   6  -3  -4   13.04    0.93
   6  -3  -3   -0.07    0.58
   6  -3  -3   -0.20    0.76
   6   3  -3   -0.06    0.75
   6  -3  -2    0.61    0.60
   6  -3  -2    0.77    0.79
   6   3  -2   -0.14    0.76
   6  -3  -1    2.82    0.84
   6   3  -1    2.95    0.80
   6  -3  -1    2.55    0.69
   6  -3   0    9.37    1.05
   6   3   0    9.89    1.01
   6  -3   0   10.48    0.95
   6   3   0   10.46    0.83
   6   3   1    0.67    0.60
   6  -3   1    0.44    0.74
   6  -3   1    0.59    0.80
   6   3   1    0.29    0.74
   6  -3   2    7.90    0.94
   6   3   2    9.23    1.00
   6  -3   2    8.25    1.05
   6   3   2    7.47    0.99
   6   3   3    0.33    0.85
   6  -3   3    0.36    0.80
   6  -3   3    0.31    0.75
  -6   3  -4    0.66    0.85
   6  -3   4    0.10    0.88
   6   3   4    0.51    0.95
  -6   3  -5    2.66    1.00
  -6  -3  -5    4.02    1.14
   6  -3   5    3.77    1.13
   6   3   5    3.93    1.16
  -6   3  -6    0.69    0.99
   6   3   6    1.55    1.20
   6  -4  -9    0.07    0.75
   6   4  -9    0.90    0.89
   6   4  -8    7.83    1.13
   6  -4  -8    8.91    1.08
   6  -4  -7    0.17    0.70
   6   4  -7    0.23    0.86
   6   4  -7   -1.07    0.72
   6  -4  -6   10.34    1.05
   6   4  -6   11.19    1.15
   6  -4  -6    8.87    1.04
   6   4  -6    9.81    1.10
   6  -4  -5    0.02    0.59
   6  -4  -5    0.75    0.69
   6   4  -5    0.81    0.75
   6  -4  -5    0.62    0.82
   6   4  -5    0.87    0.84
   6  -4  -4   14.10    1.18
   6   4  -4   16.68    1.26
   6  -4  -4   16.45    1.07
   6  -4  -3   -0.08    0.63
   6  -4  -3    0.05    0.74
   6   4  -3    0.47    0.79
   6  -4  -2   10.67    1.09
   6   4  -2   11.74    1.10
   6  -4  -2   11.39    0.95
   6  -4  -1    0.11    0.77
   6   4  -1   -0.11    0.74
   6  -4  -1   -0.33    0.63
   6  -4   0    2.53    0.86
   6   4   0    1.59    0.82
   6  -4   0    2.35    0.76
   6  -4   1    0.21    0.74
   6   4   1   -0.25    0.72
   6  -4   1    0.08    0.79
   6   4   1   -0.38    0.72
   6  -4   2   12.36    1.13
   6   4   2   12.84    1.05
   6  -4   2   12.57    1.21
   6   4   2   12.36    1.11
   6  -4   3    0.22    0.85
   6   4   3    0.08    0.85
   6  -4   4    2.27    0.94
  -6   4  -4    1.85    0.93
   6   4   4    2.48    0.98
  -6   4  -5    0.02    0.86
   6  -4   5    0.54    0.98
  -6  -4  -5   -0.13    0.96
   6   4   5    0.85    1.05
   6   4   6   -0.40    1.08
   6  -5  -9   -0.41    0.77
   6   5  -9    0.25    1.03
   6  -5  -8    2.19    0.80
   6   5  -8    2.63    0.90
   6  -5  -7    0.28    0.68
   6   5  -7    0.71    0.75
   6  -5  -7    0.16    0.70
   6   5  -7    0.66    0.80
   6  -5  -6    2.35    0.71
   6   5  -6    2.70    0.88
   6  -5  -6    2.50    0.79
   6  -5  -6    3.37    0.82
   6   5  -6    2.33    0.87
   6  -5  -6    2.18    0.76
   6  -5  -5   11.30    1.00
   6  -5  -5   11.83    1.15
   6   5  -5   11.72    1.21
   6  -5  -5   11.22    1.01
   6  -5  -5   11.33    1.02
   6   5  -5   11.36    1.07
   6  -5  -4    7.23    0.88
   6  -5  -4    6.15    0.94
   6   5  -4    5.97    0.97
   6  -5  -3   -0.14    0.64
   6  -5  -3   -0.16    0.77
   6   5  -3    0.04    0.79
   6  -5  -2   -0.15    0.65
   6  -5  -2    0.39    0.75
   6   5  -2    0.22    0.80
   6  -5  -1    0.72    0.83
   6  -5  -1    0.73    0.68
   6   5  -1    0.88    0.85
   6   5   0    7.23    1.01
   6  -5   0    6.09    0.99
   6  -5   0    6.62    0.92
   6  -5   1    3.20    0.91
   6   5   1    3.20    0.83
   6  -5   1    3.12    0.87
   6  -5   2    5.30    0.96
   6   5   2    4.93    0.86
   6   5   2    5.52    0.91
   6  -5   3    0.44    0.90
   6   5   3    0.20    0.81
   6   5   4   -0.21    0.96
   6  -5   4    0.39    0.87
  -6   5  -4   -0.01    0.80
   6   5   5    2.86    1.12
   6  -5   5    2.37    0.91
  -6   5  -5    3.24    0.98
  -6  -5  -5    3.38    1.05
  -6   5  -6    0.45    0.97
   6   6  -9    2.05    0.93
   6  -6  -8    1.45    0.75
   6   6  -8    0.49    0.82
   6  -6  -8    0.79    0.75
   6   6  -8    0.82    0.82
   6  -6  -7    2.79    0.76
   6   6  -7    2.43    0.91
   6  -6  -7    1.65    0.83
   6   6  -7    2.16    0.87
   6  -6  -6    0.46    0.67
   6   6  -6    1.13    0.72
   6  -6  -6    1.08    0.75
   6  -6  -6    0.79    0.71
   6   6  -6    0.73    0.79
   6  -6  -6    1.03    0.77
   6  -6  -5   48.35    1.84
   6  -6  -5   50.18    1.71
   6   6  -5   46.38    1.87
   6  -6  -5   44.65    1.75
   6   6  -5   47.03    1.87
   6  -6  -4    0.26    0.69
   6  -6  -4    0.39    0.71
   6   6  -4    0.28    0.86
   6  -6  -3   11.91    1.13
   6   6  -3   12.16    1.18
   6  -6  -3   11.81    1.04
   6  -6  -2    0.09    0.67
   6  -6  -2    0.12    0.84
   6   6  -2    0.27    0.76
   6  -6  -1   14.52    1.27
   6   6  -1   13.42    1.14
   6  -6  -1   14.07    1.13
   6   6   0   -0.08    0.75
   6  -6   0   -0.16    0.74
   6   6   1   -0.07    0.80
   6  -6   1    0.12    0.82
   6   6   2    0.84    0.69
   6  -6   2    1.27    0.90
   6  -6   3   10.28    1.20
   6   6   3   10.32    1.14
   6  -6   4    0.15    0.91
   6   6   4    0.39    0.97
  -6   6  -4    0.19    0.78
   6   6   5    4.26    1.08
   6  -6   5    2.92    1.09
  -6   6  -5    2.62    0.94
  -6  -6  -5    2.58    1.05
   6   7  -8    3.69    1.03
   6  -7  -8    3.70    0.89
   6   7  -8    4.08    1.05
   6   7  -7    0.17    0.77
   6  -7  -7   -0.01    0.85
   6   7  -7    0.25    0.80
   6   7  -6    1.98    0.81
   6  -7  -6    1.54    0.86
   6   7  -6    1.89    0.99
   6  -7  -6    1.01    0.79
   6  -7  -5   20.70    1.36
   6   7  -5   20.46    1.38
   6  -7  -4    7.83    1.00
   6   7  -4    7.97    1.11
   6  -7  -3    0.11    0.68
  -6  -7   3    0.08    0.63
   6   7  -3   -0.02    0.81
   6  -7  -2    0.26    0.77
  -6  -7   2    0.75    0.62
   6   7  -2    1.33    0.91
   6  -7  -1    1.88    0.79
   6   7  -1    2.34    0.89
   6  -7   0    5.90    0.96
   6   7   0    6.24    0.97
   6   7   1   -0.03    0.77
   6  -7   1   -0.06    0.79
   6   7   2    6.32    0.93
   6  -7   2    6.41    1.02
   6  -7   3    0.25    0.78
   6  -7   4    0.72    1.02
   6   7   4   -0.16    0.81
   6   7   5    2.66    1.16
  -6  -7  -5    2.64    1.12
   6   8  -8    5.86    1.04
   6  -8  -8    4.61    1.07
   6   8  -8    6.00    1.19
   6   8  -7   -0.25    0.83
   6  -8  -7    0.47    0.95
   6   8  -7    1.08    0.89
   6   8  -6    5.20    0.94
   6  -8  -6    4.64    0.89
   6   8  -6    4.22    1.10
   6  -8  -6    4.28    0.98
   6  -8  -5    1.23    0.85
   6   8  -5    1.15    1.04
   6   8  -4    9.17    1.24
   6  -8  -4   10.37    1.09
   6  -8  -3    0.18    0.73
  -6  -8   3    0.07    0.75
   6   8  -3    0.04    1.05
  -6  -8   2    7.16    0.92
   6   8  -2    8.20    1.11
   6  -8  -2    7.58    1.03
   6  -8  -1   -0.14    0.78
   6   8  -1   -0.20    0.87
   6  -8   0    1.14    0.81
   6   8   0    0.72    0.77
   6  -8   1   -0.12    0.79
   6   8   1    0.46    0.78
   6  -8   2    8.24    1.12
   6  -8   3   -0.27    0.94
  -6  -8  -4    2.21    0.93
   6  -8   4    2.21    1.09
  -6  -8  -5   -0.26    0.91
   6   8   5    0.54    1.11
   6   9  -8    0.63    0.86
   6  -9  -8    1.94    0.96
   6   9  -8    0.26    0.96
   6   9  -7    0.61    0.77
   6  -9  -7    0.68    0.83
   6   9  -7   -0.49    1.11
   6   9  -6    1.17    0.74
   6  -9  -6    1.49    0.86
   6   9  -6    0.95    0.99
   6  -9  -6    1.22    0.88
   6   9  -5    4.39    1.16
   6  -9  -5    5.39    1.00
   6  -9  -4    2.34    0.83
  -6  -9   4    2.76    0.89
   6   9  -4    2.30    1.03
   6  -9  -3    0.64    0.84
  -6  -9   3    0.20    0.75
   6   9  -3   -0.34    1.00
   6  -9  -2    0.51    0.78
  -6  -9   2   -0.11    0.68
   6   9  -2   -0.23    0.96
   6  -9  -1   -0.57    0.85
   6   9  -1   -0.03    0.90
   6  -9   0    2.25    0.88
   6   9   0    3.19    0.95
   6  -9   1    1.60    0.91
   6   9   1    3.00    0.97
   6  -9   2    1.81    0.88
   6  -9   3    1.03    0.98
   6 -10  -7    2.24    1.00
   6  10  -7   -0.61    1.15
   6  10  -6    0.89    1.15
   6 -10  -6    1.08    1.02
   6 -10  -5   20.12    1.56
   6  10  -5   21.75    1.69
   6 -10  -4   -0.13    0.86
  -6 -10   4    0.91    0.90
   6  10  -4    0.04    1.07
   6 -10  -3    4.59    1.02
  -6 -10   3    4.60    0.97
   6  10  -3    4.62    1.16
   6 -10  -2    0.00    0.87
  -6 -10   2    0.27    0.78
   6  10  -2   -0.13    1.03
   6 -10  -1    8.10    1.10
   6  10  -1    7.50    1.22
   6 -10   0    0.34    0.90
   6  10   0    1.10    0.99
   6 -10   1   -0.37    0.89
   6  10   1    0.29    0.82
   6 -10   2    0.97    0.86
   6 -10   3    5.22    1.20
   6  11  -6    0.61    1.10
   6 -11  -6   -0.08    0.92
   6 -11  -5   11.82    1.37
   6  11  -5   11.70    1.50
  -6 -11   5   11.00    1.38
   6 -11  -4    2.72    1.06
  -6 -11   4    3.89    1.03
   6  11  -4    2.84    1.15
   6 -11  -3    0.08    0.91
  -6 -11   3    0.13    0.85
   6  11  -3    0.23    1.04
   6 -11  -2   -0.05    0.88
  -6 -11   2    0.92    0.80
   6  11  -2    0.76    1.07
   6 -11  -1    2.09    0.98
   6  11  -1    1.16    1.03
   6 -11   0    1.53    0.95
   6  11   0    2.30    1.14
   6 -11   1    0.43    0.91
   6  11   1    0.65    1.00
   6 -11   2    3.85    1.17
  -6 -12   5    2.11    1.15
   6 -12  -4    4.62    1.24
  -6 -12   4    5.43    1.20
   6  12  -4    5.14    1.35
   6 -12  -3    0.32    0.96
  -6 -12   3   -0.57    1.07
   6  12  -3   -0.16    1.07
   6 -12  -2    3.98    1.10
  -6 -12   2    4.59    1.00
   6  12  -2    3.74    1.37
   6 -12  -1    0.51    0.86
   6  12  -1   -0.18    1.09
   6 -12   0    0.25    0.95
   6  12   0    0.20    1.11
   6  12   1    0.14    1.03
  -6 -13   3   -0.19    0.96
  -6 -13   2    0.33    0.98
   6  13   0   -0.72    1.06
   7   0  -9    0.76    1.05
   7   0  -8   30.89    1.83
   7   0  -7    0.35    0.80
   7   0  -7   -0.29    0.82
   7   0  -6    1.03    0.84
   7   0  -6   -0.03    0.83
   7   0  -5   -0.29    0.77
   7   0  -4    0.10    0.85
   7   0  -3   -0.03    0.87
   7   0  -2   17.10    1.33
   7   0  -1   -0.09    0.84
   7   0  -1    0.60    0.58
   7   0   0    0.56    0.68
   7   0   0    0.66    0.88
   7   0   1    0.06    0.65
   7   0   1   -0.16    0.81
   7   0   2    6.63    0.96
   7   0   2    9.34    1.04
   7   0   3    0.20    0.84
   7   0   4    1.79    0.97
   7  -1  -9    3.64    0.98
   7  -1  -8   13.80    1.42
   7   1  -8   11.88    1.33
   7  -1  -7    0.27    0.73
   7   1  -7   -0.43    0.83
   7  -1  -7    0.27    0.82
   7   1  -7   -0.18    0.85
   7  -1  -6    2.27    0.78
   7   1  -6    2.81    0.86
   7  -1  -6    1.85    0.82
   7   1  -6    1.32    0.76
   7  -1  -5    2.97    0.91
   7   1  -5    3.40    0.90
   7  -1  -4    0.35    0.79
   7   1  -4   -0.43    0.84
   7  -1  -3   -0.14    0.82
   7   1  -3   -0.24    0.78
   7  -1  -2    1.85    0.89
   7   1  -2    1.94    0.86
   7  -1  -1    9.45    1.16
   7   1  -1   11.19    1.19
   7  -1  -1   10.60    0.92
   7  -1   0    0.04    0.73
   7   1   0   -0.02    0.64
   7  -1   0    0.02    0.85
   7   1   0   -0.07    0.78
   7  -1   1    3.20    0.81
   7   1   1    4.17    0.87
   7  -1   1    3.64    0.94
   7   1   1    3.84    0.87
   7  -1   2   -0.77    0.79
   7   1   2    0.73    0.78
   7  -1   2   -0.01    0.78
   7   1   2    0.64    0.85
   7  -1   3    0.66    0.86
   7   1   3    0.02    0.83
   7  -1   4    0.26    0.89
   7   1   4    0.88    1.05
   7   1   5    1.96    1.06
   7  -2  -9    3.22    1.17
   7  -2  -8    0.14    0.84
   7   2  -8    0.99    0.91
   7  -2  -7    0.52    0.77
   7   2  -7    1.20    0.83
   7  -2  -7    1.21    0.84
   7   2  -7    1.27    0.89
   7  -2  -6    0.63    0.78
   7   2  -6   -0.13    0.78
   7  -2  -6    0.16    0.77
   7   2  -6   -0.11    0.90
   7  -2  -5    0.57    0.76
   7   2  -5   -0.20    0.83
   7  -2  -4    0.68    0.88
   7   2  -4    0.26    0.85
   7  -2  -3    0.79    0.89
   7   2  -3    0.54    0.88
   7  -2  -2    0.02    0.61
   7  -2  -2    0.45    0.87
   7   2  -2   -0.08    0.89
   7  -2  -1    7.98    1.16
   7   2  -1    9.05    1.14
   7  -2  -1    7.94    0.90
   7  -2   0    0.43    0.74
   7  -2   0   -0.21    0.91
   7   2   0    0.40    0.82
   7  -2   1    0.17    0.81
   7   2   1    0.52    0.71
   7  -2   1    1.17    0.85
   7   2   1    0.06    0.88
   7  -2   2   -0.19    0.81
   7  -2   2    0.10    0.87
   7   2   2   -0.22    0.72
   7   2   2   -0.33    0.78
   7  -2   3    3.13    0.94
   7  -2   3    3.88    0.91
   7   2   3    4.97    1.01
   7  -2   4    0.31    1.00
   7   2   4    0.17    0.92
   7   2   5   -0.24    0.96
   7  -3  -9    3.14    1.00
   7  -3  -8   11.34    1.26
   7   3  -8   10.16    1.29
   7  -3  -7    0.62    0.72
   7   3  -7    0.88    0.86
   7  -3  -7    0.67    0.77
   7   3  -7    0.40    0.80
   7   3  -6    1.38    0.78
   7  -3  -6    2.07    0.90
   7   3  -6    1.39    0.91
   7  -3  -6    2.56    0.88
   7  -3  -5    4.46    0.99
   7   3  -5    4.22    0.94
   7  -3  -4    0.05    0.84
   7   3  -4   -0.04    0.81
   7  -3  -3   -0.13    0.61
   7  -3  -3    0.09    0.81
   7   3  -3    0.26    0.82
   7  -3  -2    0.49    0.65
   7  -3  -2    1.64    0.92
   7   3  -2    1.19    0.86
   7  -3  -1    8.07    1.10
   7   3  -1    7.95    1.16
   7  -3  -1    7.71    0.93
   7  -3   0    0.17    0.93
   7   3   0    0.35    0.82
   7  -3   0    0.14    0.69
   7  -3   1    2.24    0.80
   7  -3   1    2.16    0.85
   7   3   1    1.45    0.91
   7  -3   2   -0.77    0.80
   7  -3   2   -0.19    0.80
   7   3   2    0.24    0.73
   7   3   2    0.80    0.79
   7  -3   3    0.31    0.94
   7  -3   3    0.47    0.79
   7   3   3    0.76    0.84
   7   3   4    0.80    0.97
   7  -3   4    0.98    1.10
  -7   3  -4    1.29    1.06
   7  -4  -9   -0.09    0.91
   7   4  -8   22.59    1.59
   7  -4  -8   22.91    1.57
   7   4  -8   22.06    1.69
   7  -4  -7   -0.04    0.70
   7   4  -7    0.26    0.94
   7   4  -7    0.06    0.92
   7   4  -6    0.35    0.78
   7  -4  -6    0.47    0.89
   7   4  -6    0.08    0.96
   7  -4  -5    0.13    0.88
   7   4  -5    0.18    0.81
   7  -4  -4    0.16    0.64
   7  -4  -4   -0.33    0.83
   7   4  -4   -0.20    0.89
   7  -4  -3   -0.17    0.65
   7  -4  -3    0.44    0.87
   7   4  -3   -0.21    0.88
   7  -4  -2   14.30    1.27
   7   4  -2   14.75    1.33
   7  -4  -2   15.50    1.11
   7  -4  -1    0.46    0.81
   7   4  -1   -0.16    0.95
   7  -4  -1    0.25    0.69
   7  -4   0    1.07    0.87
   7   4   0    1.11    0.89
   7  -4   0    0.19    0.79
   7  -4   1    0.28    0.91
   7   4   1    0.26    0.83
   7  -4   1   -0.17    0.74
   7  -4   2    6.88    1.16
   7   4   2    6.53    1.05
   7  -4   2    7.22    1.03
   7   4   3    0.87    0.87
   7  -4   3    0.14    0.99
   7   4   4    1.41    1.10
   7  -4   4    1.09    1.08
  -7   4  -4    0.17    0.97
   7  -5  -9    2.71    1.06
   7  -5  -8    6.96    1.16
   7   5  -8    8.11    1.27
   7   5  -8    6.66    1.09
   7  -5  -7   -0.93    0.88
   7   5  -7   -0.17    0.87
   7   5  -7   -1.08    0.82
   7  -5  -6    1.74    0.83
   7   5  -6    0.99    0.91
   7   5  -6    0.15    0.77
   7  -5  -5    1.12    0.85
   7   5  -5    1.70    0.93
   7  -5  -4    0.89    0.66
   7  -5  -4    0.17    0.82
   7   5  -4    0.62    0.83
   7  -5  -3   -0.25    0.65
   7  -5  -3   -0.32    1.01
   7   5  -3    0.42    0.93
   7  -5  -2    2.20    0.75
   7  -5  -2    1.97    0.96
   7   5  -2    2.02    0.97
   7   5  -1    8.91    1.16
   7  -5  -1    6.72    1.10
   7  -5  -1    6.84    0.99
   7  -5   0   -0.14    0.89
   7   5   0    0.09    0.87
   7  -5   0   -0.14    0.66
   7  -5   1    2.30    0.98
   7   5   1    3.47    0.91
   7  -5   1    4.19    1.00
   7  -5   2    1.13    0.85
   7  -5   3   -0.38    0.92
   7  -5   4   -0.19    1.05
   7   5   4   -0.07    1.07
  -7   5  -4    0.79    0.95
   7   6  -8    0.61    0.93
   7   6  -8   -0.55    0.95
   7   6  -7    1.18    0.81
   7   6  -7    1.32    1.00
   7  -6  -6    0.54    0.86
   7   6  -6   -0.18    0.99
   7  -6  -5   -0.02    0.73
   7  -6  -5   -0.02    0.88
   7   6  -5    0.15    0.86
   7  -6  -4    0.96    0.72
   7  -6  -4    0.30    0.87
   7   6  -4    1.13    0.86
   7  -6  -3    0.51    0.76
   7  -6  -3    0.79    0.94
   7   6  -3    0.53    0.92
   7  -6  -2    0.32    0.72
   7  -6  -2    0.43    0.92
   7   6  -2    0.07    0.94
   7  -6  -1    6.87    1.13
   7  -6  -1    4.91    0.88
   7   6  -1    6.63    1.06
   7   6   0    0.31    0.84
   7  -6   0   -0.05    0.78
   7   6   1    0.05    0.87
   7  -6   1    0.45    0.82
   7  -6   2    0.07    0.86
   7  -6   3    1.25    0.98
  -7   6  -4    0.46    0.93
   7   7  -8    7.15    1.22
   7   7  -7    0.61    0.90
   7   7  -7    1.97    1.04
   7   7  -6    1.59    1.03
   7  -7  -6    1.30    0.88
   7  -7  -5    3.15    0.89
   7  -7  -5    3.06    1.04
   7   7  -5    3.62    1.10
   7  -7  -4   -0.21    0.74
   7  -7  -4    0.98    0.82
   7   7  -4    0.04    0.93
   7  -7  -3    0.11    0.74
   7  -7  -3    0.45    1.01
   7   7  -3    0.47    0.85
   7  -7  -2   -0.38    0.79
   7   7  -2    0.03    0.92
   7  -7  -1    5.03    0.95
   7   7  -1    4.85    1.15
   7  -7   0    0.05    0.79
   7   7   0    0.10    0.89
   7   7   1    1.03    0.81
   7  -7   1    0.42    0.93
   7  -7   2    0.38    0.89
   7  -7   3   -0.13    0.99
   7   8  -7    0.19    1.04
   7   8  -7    0.17    0.79
   7   8  -6   -0.51    0.91
   7  -8  -6    0.93    0.96
   7  -8  -5   -0.46    0.81
   7   8  -5   -0.10    0.98
   7  -8  -4    0.49    0.76
   7   8  -4    0.17    1.00
   7  -8  -3    0.23    0.76
   7   8  -3    0.78    1.04
   7   8  -2   11.36    1.36
   7  -8  -2   11.15    1.18
   7  -8  -1   -0.15    0.85
   7   8  -1   -0.10    0.98
   7  -8   0    0.95    0.97
   7   8   0    0.37    0.90
   7  -8   1    0.70    0.93
   7   8   1   -0.01    0.91
   7  -8   2    4.49    1.12
   7   9  -6    0.54    1.02
   7  -9  -6    0.63    0.97
   7  -9  -5    0.43    0.85
   7   9  -5    1.08    1.01
   7  -9  -4    0.79    0.93
   7   9  -4    0.23    0.96
   7  -9  -3    1.26    0.92
   7   9  -3    1.19    0.90
   7  -9  -2    1.45    0.95
   7   9  -2    1.58    0.97
   7  -9  -1    3.08    1.04
   7   9  -1    4.93    1.14
   7  -9   0   -0.32    0.91
   7   9   0    0.95    0.89
   7  -9   1    1.86    0.98
   7   9   1    2.61    0.89
   7 -10  -6    0.66    0.94
   7 -10  -5    1.41    0.96
  -7 -10   5   -0.22    0.90
   7 -10  -4    0.81    0.93
   7  10  -4    2.17    1.11
   7 -10  -3    0.83    0.87
   7  10  -3    0.69    1.00
   7 -10  -2   -0.37    0.95
   7  10  -2   -0.34    1.06
   7 -10  -1    3.39    1.12
   7  10  -1    2.42    0.97
   7 -10   0   -0.13    0.98
   7  10   0    0.36    0.96
  -7 -11   4   -0.44    0.91
   7 -11  -3    0.51    0.98
   7 -11  -2    0.35    0.96
   7  11  -1    2.36    1.10
   7  11   0    1.14    1.01
   8   0  -7    1.35    0.97
   8   0  -6   -0.03    0.88
   8   0  -5   -1.27    0.91
   8   0  -4    5.67    1.07
   8   0  -3    0.31    0.92
   8   0  -2   -0.06    0.92
   8   0  -1   -0.08    0.96
   8   0   0    0.74    0.90
   8   0   1    0.41    0.83
   8   0   1    0.46    0.98
   8   0   2    8.77    1.13
   8   0   2   10.26    1.22
   8   0   3   -0.14    0.96
   8  -1  -7    2.45    0.92
   8   1  -7    2.16    0.95
   8  -1  -6    1.59    1.02
   8   1  -6    0.79    0.90
   8  -1  -5    3.93    1.04
   8   1  -5    5.18    1.08
   8  -1  -4    2.27    0.99
   8   1  -4    2.32    0.98
   8  -1  -3    1.30    1.00
   8   1  -3    0.60    0.95
   8  -1  -2    0.54    0.91
   8   1  -2    0.09    0.90
   8  -1  -1    2.59    1.03
   8   1  -1    2.64    1.05
   8  -1   0    1.15    0.89
   8   1   0   -0.41    0.96
   8  -1   0   -0.30    0.71
   8  -1   1    0.86    0.76
   8  -1   1    0.23    0.91
   8   1   1    0.22    0.85
   8  -1   2    0.80    0.95
   8   1   2    1.67    0.93
   8  -1   2    1.62    0.93
   8   1   2    1.85    1.00
   8  -1   3   -0.09    1.01
   8   1   3    0.78    0.96
   8  -2  -7    0.08    0.91
   8   2  -7   -0.27    0.88
   8  -2  -6    0.16    0.90
   8   2  -6    0.04    0.89
   8  -2  -5    2.54    1.01
   8   2  -5    2.52    1.02
   8  -2  -4   -0.27    0.94
   8   2  -4   -0.12    0.91
   8  -2  -3    0.14    0.89
   8   2  -3   -0.21    0.88
   8  -2  -2    0.74    0.90
   8   2  -2    0.38    0.91
   8  -2  -1    0.63    0.94
   8   2  -1    0.62    0.94
   8  -2   0   -0.01    0.89
   8   2   0    0.25    0.91
   8  -2   0    0.19    0.75
   8  -2   1   15.44    1.47
   8   2   1   16.04    1.37
   8  -2   1   14.48    1.33
   8  -2   2   -0.41    0.90
   8  -2   2   -0.44    1.04
   8  -2   3   -1.01    0.95
   8   2   3    0.46    0.90
   8   3  -8    1.04    1.04
   8  -3  -7    1.17    0.95
   8   3  -7    2.06    0.98
   8  -3  -6    2.67    0.97
   8   3  -6    2.97    1.07
   8  -3  -5    2.06    1.00
   8   3  -5    1.93    1.04
   8  -3  -4    2.17    0.98
   8   3  -4    2.22    1.01
   8  -3  -3    0.69    0.98
   8   3  -3    0.30    0.92
   8  -3  -2    0.36    0.93
   8   3  -2    0.13    0.94
   8  -3  -1    3.02    1.09
   8   3  -1    2.35    0.96
   8  -3  -1    2.88    0.84
   8  -3   0    0.81    0.90
   8   3   0    0.84    0.93
   8  -3   0    0.20    0.80
   8  -3   1    1.43    1.04
   8   3   1    0.33    0.99
   8  -3   1    0.61    0.81
   8  -3   2    2.40    0.98
   8  -3   2    0.89    0.97
   8   4  -8    8.47    1.37
   8  -4  -7    0.79    0.97
   8   4  -7   -0.20    0.96
   8  -4  -6   -0.30    0.82
   8   4  -6   -0.41    1.00
   8  -4  -5    0.51    0.99
   8   4  -5   -0.10    0.95
   8  -4  -4    5.19    1.23
   8   4  -4    5.16    1.15
   8  -4  -3    0.24    1.06
   8   4  -3   -0.38    0.90
   8  -4  -2    0.91    0.77
   8  -4  -2    0.46    0.99
   8   4  -2    0.70    0.92
   8  -4  -1    0.07    0.97
   8  -4  -1    0.11    0.77
   8   4  -1    0.14    0.86
   8  -4   0    1.21    0.99
   8   4   0    0.36    0.88
   8  -4   0    1.24    0.86
   8  -4   1    0.18    0.96
   8   4   1    1.11    1.01
   8  -4   1    0.22    0.92
   8  -4   2    8.68    1.26
   8  -4   2    6.87    1.27
   8   5  -7    1.63    1.09
   8  -5  -6    1.41    0.99
   8   5  -6    0.44    1.02
   8  -5  -5    3.75    1.14
   8   5  -5    2.67    1.08
   8  -5  -4    1.75    0.94
   8   5  -4    1.76    1.00
   8  -5  -3    0.66    0.76
   8  -5  -3    0.66    0.82
   8   5  -3    0.55    0.96
   8  -5  -2    0.22    0.74
   8  -5  -2    0.48    0.92
   8   5  -2   -0.04    0.98
   8  -5  -1    0.93    0.95
   8  -5  -1    1.37    0.79
   8   5  -1    1.78    1.06
   8  -5   0   -0.22    0.94
   8   5   0   -0.52    0.89
   8  -5   0    0.50    0.82
   8  -5   1    0.68    0.89
   8   5   1    0.66    0.92
   8  -5   1   -0.05    0.91
   8  -5   2    1.21    1.01
   8  -6  -6    0.23    0.95
   8   6  -6    1.00    1.10
   8  -6  -5    2.09    1.01
   8   6  -5    1.64    1.05
   8  -6  -4   -0.60    1.17
   8   6  -4    0.08    1.04
   8  -6  -3    0.12    0.73
   8  -6  -3    0.57    1.10
   8   6  -3    0.44    0.99
   8  -6  -2   -0.29    0.84
   8  -6  -2    0.96    1.00
   8   6  -2    0.31    0.97
   8  -6  -1   -0.65    0.77
   8  -6  -1    0.97    0.99
   8   6  -1   -0.06    1.06
   8   6   0    0.75    0.99
   8  -6   0   -1.03    0.92
   8  -6   1    9.68    1.31
   8   6   1    9.75    1.20
   8  -7  -6    2.04    1.00
   8  -7  -5    0.47    0.94
   8   7  -5    0.42    1.01
   8  -7  -4    0.81    0.88
   8  -7  -4    2.93    1.05
   8   7  -4    0.36    0.98
   8  -7  -3   -0.27    0.81
   8  -7  -3    0.04    1.01
   8   7  -3   -0.25    1.01
   8  -7  -2    0.14    0.77
   8   7  -2   -1.27    1.00
   8  -7  -1    2.22    0.93
   8   7  -1    2.04    1.01
   8  -7   0   -0.92    0.94
   8   7   0    0.23    1.01
   8   7   1    1.17    1.04
   8  -8  -5    0.59    0.92
   8  -8  -4    2.85    0.99
   8  -8  -3   -0.27    0.84
   8   8  -3    0.82    1.10
   8  -8  -2    0.58    0.90
   8   8  -2    0.33    1.18
   8  -8  -1   -0.62    0.95
   8   8  -1    0.56    1.02
   8  -8   0   -0.27    0.97
   8   8   0   -0.24    0.97
   8  -9  -5    2.04    1.00
   8  -9  -4    1.24    0.94
   8  -9  -3    0.49    0.91
   8  -9  -2    0.00    0.91
   9   0  -5   -1.21    0.99
   9   0  -4    1.83    1.00
   9   0  -3   -0.24    1.04
   9   0  -2   11.69    1.48
   9   0  -1   -0.15    1.03
   9   0   0    0.98    1.02
   9  -1  -5    0.30    0.95
   9   1  -5   -1.86    1.00
   9  -1  -4    1.40    1.09
   9   1  -4    0.80    1.05
   9  -1  -3    1.38    1.08
   9   1  -3    0.68    1.05
   9  -1  -2    1.52    1.18
   9   1  -2    0.82    0.93
   9  -1  -1    2.75    1.24
   9   1  -1    1.63    1.09
   9  -2  -5    2.36    1.12
   9  -2  -4    0.09    1.15
   9   2  -4    0.28    1.04
   9  -2  -3    0.20    1.18
   9   2  -3    0.47    1.06
   9  -2  -2   -0.22    1.11
   9   2  -2   -0.08    0.98
   9  -2  -1    6.77    1.34
   9   2  -1    5.46    1.28
   9  -3  -4   -0.43    1.03
   9  -3  -3    0.96    1.18
   9   3  -3    0.64    1.11
   9   3  -2    0.31    1.09
   9  -4   0    0.39    0.95
   9  -5  -1    2.12    0.90
   0   0   0    0.00    0.00
;
_shelx_hkl_checksum              76896
#END Tags that were not found in dictionaries
loop_
_space_group_symop_operation_xyz
'x, y, z'
'-x, y+1/2, -z+1/2'
'-x, -y, -z'
'x, -y-1/2, z-1/2'
loop_
_atom_site_label
_atom_site_type_symbol
_atom_site_fract_x
_atom_site_fract_y
_atom_site_fract_z
_atom_site_U_iso_or_equiv
_atom_site_adp_type
_atom_site_occupancy
_atom_site_site_symmetry_order
_atom_site_calc_flag
_atom_site_refinement_flags_posn
_atom_site_refinement_flags_adp
O1 O 0.63516(17) 0.13075(9) -0.14281(13) 0.0322(3) Uani 1 1 d . .
O2 O 0.33124(18) 0.12280(10) -0.29001(13) 0.0374(3) Uani 1 1 d . .
N1 N 0.5956(2) 0.12302(14) 0.44916(16) 0.0289(4) Uani 1 1 d . .
H1A H 0.543(2) 0.1205(13) 0.529(2) 0.035 Uiso 1 1 d . U
N2 N 0.4565(2) 0.12667(11) -0.15485(16) 0.0262(3) Uani 1 1 d . .
C1 C 0.4642(2) 0.12230(14) 0.29633(18) 0.0201(3) Uani 1 1 d . .
C2 C 0.5271(2) 0.12692(13) 0.14942(19) 0.0208(4) Uani 1 1 d . .
H2A H 0.6613 0.1311 0.1532 0.025 Uiso 1 1 calc R U
C3 C 0.3854(2) 0.12508(14) -0.00224(18) 0.0211(3) Uani 1 1 d . .
C4 C 0.1852(2) 0.11992(14) -0.01736(19) 0.0288(4) Uani 1 1 d . .
H4A H 0.0942 0.1192 -0.1211 0.035 Uiso 1 1 calc R U
C5 C 0.1252(2) 0.11583(14) 0.1293(2) 0.0320(4) Uani 1 1 d . .
H5A H -0.0095 0.1125 0.1239 0.038 Uiso 1 1 calc R U
C6 C 0.2588(2) 0.11660(13) 0.2820(2) 0.0262(4) Uani 1 1 d . .
H6A H 0.2133 0.1133 0.3779 0.031 Uiso 1 1 calc R U
C7 C 0.8067(2) 0.12830(16) 0.4734(2) 0.0340(4) Uani 1 1 d . .
H7D H 0.8702 0.1276 0.5906 0.051 Uiso 1 1 calc R U
H7A H 0.8405 0.1917 0.4249 0.051 Uiso 1 1 calc R U
H7B H 0.8506 0.0692 0.4210 0.051 Uiso 1 1 calc R U
loop_
_atom_site_aniso_label
_atom_site_aniso_U_11
_atom_site_aniso_U_22
_atom_site_aniso_U_33
_atom_site_aniso_U_23
_atom_site_aniso_U_13
_atom_site_aniso_U_12
O1 0.0367(8) 0.0361(7) 0.0302(7) 0.0000(6) 0.0200(5) 0.0004(7)
O2 0.0498(8) 0.0450(8) 0.0158(6) -0.0002(7) 0.0055(6) 0.0029(8)
N1 0.0253(8) 0.0464(9) 0.0165(7) -0.0009(8) 0.0081(6) -0.0032(8)
N2 0.0385(9) 0.0229(8) 0.0193(7) 0.0003(7) 0.0115(6) 0.0017(8)
C1 0.0236(8) 0.0213(8) 0.0164(8) -0.0009(8) 0.0071(6) -0.0012(8)
C2 0.0192(8) 0.0237(8) 0.0209(8) 0.0006(9) 0.0081(6) -0.0001(9)
C3 0.0281(9) 0.0212(8) 0.0163(8) -0.0003(8) 0.0100(6) 0.0014(9)
C4 0.0260(9) 0.0391(10) 0.0188(9) 0.0014(9) 0.0013(7) 0.0019(9)
C5 0.0181(8) 0.0456(12) 0.0339(10) 0.0015(9) 0.0096(7) 0.0010(9)
C6 0.0269(9) 0.0314(10) 0.0244(9) 0.0014(8) 0.0143(7) 0.0002(8)
C7 0.0275(10) 0.0454(11) 0.0254(10) 0.0010(9) 0.0002(7) -0.0026(10)
loop_
_atom_type_symbol
_atom_type_description
_atom_type_scat_dispersion_real
_atom_type_scat_dispersion_imag
_atom_type_scat_source
C C 0.0033 0.0016 'International Tables Vol C Tables 4.2.6.8 and 6.1.1.4'
H H 0.0000 0.0000 'International Tables Vol C Tables 4.2.6.8 and 6.1.1.4'
N N 0.0061 0.0033 'International Tables Vol C Tables 4.2.6.8 and 6.1.1.4'
O O 0.0106 0.0060 'International Tables Vol C Tables 4.2.6.8 and 6.1.1.4'
loop_
_geom_angle_atom_site_label_1
_geom_angle_atom_site_label_2
_geom_angle_atom_site_label_3
_geom_angle
C1 N1 C7 123.62(14)
C1 N1 H1A 114.3(12)
C7 N1 H1A 122.1(12)
O1 N2 O2 123.07(13)
O1 N2 C3 119.26(13)
O2 N2 C3 117.67(13)
N1 C1 C2 121.65(15)
N1 C1 C6 120.52(14)
C2 C1 C6 117.83(14)
C3 C2 C1 118.70(15)
C3 C2 H2A 120.7
C1 C2 H2A 120.7
C4 C3 C2 123.86(15)
C4 C3 N2 118.70(14)
C2 C3 N2 117.43(14)
C3 C4 C5 116.75(15)
C3 C4 H4A 121.6
C5 C4 H4A 121.6
C6 C5 C4 121.73(15)
C6 C5 H5A 119.1
C4 C5 H5A 119.1
C5 C6 C1 121.14(15)
C5 C6 H6A 119.4
C1 C6 H6A 119.4
N1 C7 H7D 109.5
N1 C7 H7A 109.5
H7D C7 H7A 109.5
N1 C7 H7B 109.5
H7D C7 H7B 109.5
H7A C7 H7B 109.5
loop_
_geom_bond_atom_site_label_1
_geom_bond_atom_site_label_2
_geom_bond_distance
O1 N2 1.2252(16)
O2 N2 1.2343(16)
N1 C1 1.3618(19)
N1 C7 1.436(2)
N1 H1A 0.839(18)
N2 C3 1.4725(19)
C1 C2 1.397(2)
C1 C6 1.408(2)
C2 C3 1.388(2)
C2 H2A 0.9300
C3 C4 1.371(2)
C4 C5 1.385(2)
C4 H4A 0.9300
C5 C6 1.367(2)
C5 H5A 0.9300
C6 H6A 0.9300
C7 H7D 0.9600
C7 H7A 0.9600
C7 H7B 0.9600
loop_
_geom_hbond_atom_site_label_D
_geom_hbond_atom_site_label_H
_geom_hbond_atom_site_label_A
_geom_hbond_distance_DH
_geom_hbond_distance_HA
_geom_hbond_distance_DA
_geom_hbond_angle_DHA
_geom_hbond_site_symmetry_A
N1 H1A O2 0.839(18) 2.356(18) 3.1795(19) 167.5(16) 1_556
loop_
_geom_torsion_atom_site_label_1
_geom_torsion_atom_site_label_2
_geom_torsion_atom_site_label_3
_geom_torsion_atom_site_label_4
_geom_torsion
C7 N1 C1 C2 -0.1(3)
C7 N1 C1 C6 179.76(18)
N1 C1 C2 C3 179.5(2)
C6 C1 C2 C3 -0.3(2)
C1 C2 C3 C4 0.6(3)
C1 C2 C3 N2 -178.11(15)
O1 N2 C3 C4 -179.64(16)
O2 N2 C3 C4 -0.3(2)
O1 N2 C3 C2 -0.9(2)
O2 N2 C3 C2 178.49(17)
C2 C3 C4 C5 -0.4(3)
N2 C3 C4 C5 178.36(16)
C3 C4 C5 C6 -0.2(3)
C4 C5 C6 C1 0.4(3)
N1 C1 C6 C5 179.99(19)
C2 C1 C6 C5 -0.1(3)
