#------------------------------------------------------------------------------
#$Date: 2015-09-05 23:55:18 +0300 (Sat, 05 Sep 2015) $
#$Revision: 154577 $
#$URL: svn://www.crystallography.net/cod/cif/4/51/34/4513490.cif $
#------------------------------------------------------------------------------
#
# This file is available in the Crystallography Open Database (COD),
# http://www.crystallography.net/
#
# All data on this site have been placed in the public domain by the
# contributors.
#
data_4513490
loop_
_publ_author_name
'Karmakar, Anirban'
'R\'ubio, Guilherme M. D. M.'
'Guedes da Silva, M. F\'atima C.'
'Hazra, Susanta'
'Pombeiro, Armando J. L.'
_publ_section_title
;
 Solvent-Dependent Structural Variation of Zinc(II) Coordination Polymers
 and Their Catalytic Activity in the Knoevenagel Condensation Reaction
;
_journal_issue                   9
_journal_name_full               'Crystal Growth &amp; Design'
_journal_page_first              4185
_journal_paper_doi               10.1021/acs.cgd.5b00948
_journal_volume                  15
_journal_year                    2015
_chemical_formula_moiety         'C10 H11 N O7 Zn, C2 H5 N O'
_chemical_formula_sum            'C12 H16 N2 O8 Zn'
_chemical_formula_weight         381.64
_chemical_name_systematic
;
 ?
;
_space_group_crystal_system      triclinic
_space_group_IT_number           2
_space_group_name_Hall           '-P 1'
_space_group_name_H-M_alt        'P -1'
_symmetry_space_group_name_Hall  '-P 1'
_symmetry_space_group_name_H-M   'P -1'
_atom_sites_solution_hydrogens   mixed
_audit_creation_method           SHELXL-2014
_cell_angle_alpha                89.985(2)
_cell_angle_beta                 67.875(3)
_cell_angle_gamma                70.639(2)
_cell_formula_units_Z            2
_cell_length_a                   8.4640(4)
_cell_length_b                   10.1065(5)
_cell_length_c                   11.0093(5)
_cell_measurement_reflns_used    9322
_cell_measurement_temperature    296(2)
_cell_measurement_theta_max      26.30
_cell_measurement_theta_min      2.71
_cell_volume                     814.66(7)
_computing_publication_material  'WinGX publication routines (Farrugia, 1999)'
_computing_structure_refinement  'SHELXL-2014 (Sheldrick, 2014)'
_computing_structure_solution    'SIR97 (Giacovazzo et al, 1997)'
_diffrn_ambient_temperature      296(2)
_diffrn_measured_fraction_theta_full 0.997
_diffrn_measured_fraction_theta_max 0.997
_diffrn_measurement_device_type  'Bruker APEX-II PHOTON 100 detector'
_diffrn_measurement_method       '\f and \w scans'
_diffrn_radiation_source         'fine-focus sealed tube'
_diffrn_radiation_type           MoK\a
_diffrn_radiation_wavelength     0.71073
_diffrn_reflns_av_R_equivalents  0.0239
_diffrn_reflns_av_unetI/netI     0.0157
_diffrn_reflns_laue_measured_fraction_full 0.997
_diffrn_reflns_laue_measured_fraction_max 0.997
_diffrn_reflns_limit_h_max       10
_diffrn_reflns_limit_h_min       -10
_diffrn_reflns_limit_k_max       12
_diffrn_reflns_limit_k_min       -12
_diffrn_reflns_limit_l_max       13
_diffrn_reflns_limit_l_min       -13
_diffrn_reflns_number            18757
_diffrn_reflns_point_group_measured_fraction_full 0.997
_diffrn_reflns_point_group_measured_fraction_max 0.997
_diffrn_reflns_theta_full        25.242
_diffrn_reflns_theta_max         26.363
_diffrn_reflns_theta_min         2.707
_exptl_absorpt_coefficient_mu    1.548
_exptl_absorpt_correction_T_max  0.7
_exptl_absorpt_correction_T_min  0.6
_exptl_absorpt_correction_type   multi-scan
_exptl_absorpt_process_details   SADABS
_exptl_crystal_colour            colourless
_exptl_crystal_density_diffrn    1.556
_exptl_crystal_description       Block
_exptl_crystal_F_000             392
_exptl_crystal_size_max          0.360
_exptl_crystal_size_mid          0.250
_exptl_crystal_size_min          0.180
_refine_diff_density_max         0.637
_refine_diff_density_min         -0.375
_refine_diff_density_rms         0.098
_refine_ls_extinction_method     none
_refine_ls_goodness_of_fit_ref   1.094
_refine_ls_hydrogen_treatment    mixed
_refine_ls_matrix_type           full
_refine_ls_number_parameters     216
_refine_ls_number_reflns         3322
_refine_ls_number_restraints     4
_refine_ls_restrained_S_all      1.107
_refine_ls_R_factor_all          0.0429
_refine_ls_R_factor_gt           0.0381
_refine_ls_shift/su_max          0.001
_refine_ls_shift/su_mean         0.000
_refine_ls_structure_factor_coef Fsqd
_refine_ls_weighting_details
'w=1/[\s^2^(Fo^2^)+(0.0696P)^2^+0.2650P] where P=(Fo^2^+2Fc^2^)/3'
_refine_ls_weighting_scheme      calc
_refine_ls_wR_factor_gt          0.1008
_refine_ls_wR_factor_ref         0.1050
_reflns_Friedel_coverage         0.000
_reflns_number_gt                3008
_reflns_number_total             3322
_reflns_threshold_expression     'I > 2\s(I)'
_cod_data_source_file            cg5b00948_si_002.cif
_cod_data_source_block           compound3
_cod_depositor_comments
'Adding full bibliography for 4513488--4513492.cif.'
_cod_database_code               4513490
_shelx_space_group_comment
;
The symmetry employed for this shelxl refinement is uniquely defined
by the following loop, which should always be used as a source of
symmetry information in preference to the above space-group names.
They are only intended as comments.
;
_shelx_estimated_absorpt_t_min   0.606
_shelx_estimated_absorpt_t_max   0.768
_shelxl_version_number           2014-1
_shelx_res_file
;
TITL Ak-GR48 in P-1
CELL  0.71073   8.4640  10.1065  11.0093   89.985   67.875   70.639
ZERR     2.00   0.0004   0.0005   0.0005    0.002    0.002    0.002
LATT   1
SFAC  C    H    N    O    ZN
UNIT  24   32   4    16   2
MERG   2
EQIV $1 x+1, y-1, z
HTAB N1 O8_$1
HTAB C8 O5
EQIV $2 -x+1, -y+1, -z
HTAB N2 O4_$2
HTAB O6 O8
EQIV $3 -x+1, -y+2, -z+1
HTAB O7 O5_$3
EQIV $4 -x, -y+2, -z+1
HTAB O6 O2_$4
HTAB N1 O8_$1
HTAB C8 O5
HTAB N2 O4_$2
HTAB O6 O8
HTAB O7 O5_$3
HTAB O6 O2_$4
DFIX  0.850 0.020 H7B O7
DFIX  0.850 0.020 O7 H7A
DFIX     0.850   0.020 H6B O6
DFIX     0.850   0.020 O6 H6A
FMAP   2
PLAN    5
SIZE     0.18   0.25   0.36
ACTA
BOND   $H
CONF
L.S.  20
WGHT    0.069600    0.265000
FVAR       0.24827
ZN1   5    0.293062    1.115815    0.414544    11.00000    0.03554    0.02490 =
         0.04476    0.00427   -0.00697   -0.01353
O2    4    0.200288    0.871535    0.414738    11.00000    0.03886    0.03160 =
         0.08864    0.00123   -0.00112   -0.01345
O1    4    0.455413    0.917114    0.330884    11.00000    0.04142    0.02212 =
         0.05625    0.00097   -0.00788   -0.01438
O5    4    1.027252    0.636231    0.181642    11.00000    0.05198    0.04373 =
         0.10204   -0.01102   -0.00292   -0.02562
O4    4    0.489573    0.199705    0.333724    11.00000    0.05912    0.02877 =
         0.05645    0.00198   -0.00745   -0.02504
O3    4    0.239701    0.375671    0.458277    11.00000    0.05111    0.04399 =
         0.07971    0.00159   -0.00178   -0.02753
O6    4    0.077482    1.192505    0.365041    11.00000    0.06081    0.05664 =
         0.06820    0.01636   -0.02285   -0.02269
O7    4    0.199416    1.105402    0.611009    11.00000    0.08593    0.06214 =
         0.05713   -0.00276   -0.01697   -0.02346
N1    3    0.965627    0.436215    0.164524    11.00000    0.04317    0.02598 =
         0.05153    0.00120   -0.01321   -0.01171
AFIX  43
H1    2    1.016883    0.348276    0.130702    11.00000   -1.20000
AFIX   0
C5    1    0.400182    0.331229    0.379671    11.00000    0.05619    0.02914 =
         0.04556    0.00560   -0.01684   -0.02181
C4    1    0.499387    0.433712    0.334219    11.00000    0.04910    0.02681 =
         0.03785    0.00445   -0.01487   -0.02052
C3    1    0.396025    0.577532    0.362700    11.00000    0.04054    0.02752 =
         0.04180    0.00022   -0.00896   -0.01575
AFIX  43
H3    2    0.269735    0.608002    0.407257    11.00000   -1.20000
AFIX   0
C2    1    0.480523    0.675521    0.324934    11.00000    0.04306    0.02255 =
         0.03791    0.00255   -0.01184   -0.01488
C1    1    0.367572    0.831590    0.360035    11.00000    0.04300    0.02393 =
         0.04215    0.00138   -0.00835   -0.01487
C8    1    0.668712    0.631138    0.258711    11.00000    0.04248    0.02318 =
         0.04158    0.00332   -0.01229   -0.01664
AFIX  43
H8    2    0.724595    0.697648    0.233268    11.00000   -1.20000
AFIX   0
C7    1    0.774523    0.486994    0.230118    11.00000    0.04322    0.02544 =
         0.03748    0.00284   -0.01488   -0.01373
C6    1    0.687751    0.388821    0.267332    11.00000    0.04971    0.02134 =
         0.04365    0.00348   -0.01836   -0.01404
AFIX  43
H6    2    0.756801    0.292421    0.247118    11.00000   -1.20000
AFIX   0
C9    1    1.079092    0.509340    0.148131    11.00000    0.04494    0.04308 =
         0.04730    0.00159   -0.01090   -0.01884
C10   1    1.280104    0.421431    0.083339    11.00000    0.04336    0.05867 =
         0.06259    0.00288   -0.01405   -0.01793
AFIX 137
H10A  2    1.324323    0.426878   -0.009929    11.00000   -1.50000
H10B  2    1.298378    0.324581    0.096980    11.00000   -1.50000
H10C  2    1.345499    0.456905    0.121743    11.00000   -1.50000
AFIX   0
C12   1    0.240203    0.839609    0.045121    11.00000    0.10472    0.04808 =
         0.08642    0.01345   -0.00384   -0.01671
AFIX 137
H12A  2    0.302112    0.836549    0.102961    11.00000   -1.50000
H12B  2    0.274519    0.745553    0.002632    11.00000   -1.50000
H12C  2    0.110599    0.877568    0.095715    11.00000   -1.50000
AFIX   0
N2    3    0.289880    0.927652   -0.053023    11.00000    0.06703    0.04494 =
         0.04615   -0.00627   -0.00131   -0.01821
AFIX  43
H2    2    0.359373    0.888266   -0.133350    11.00000   -1.20000
AFIX   0
O8    4    0.137914    1.133292    0.083860    11.00000    0.10291    0.03713 =
         0.05815   -0.00652   -0.02156   -0.00747
C11   1    0.235022    1.063813   -0.026438    11.00000    0.09849    0.04573 =
         0.04903    0.00931   -0.01820   -0.02479
AFIX  43
H11   2    0.272072    1.113266   -0.096520    11.00000   -1.20000
AFIX   0
H7A   2   10.301502   11.073833   10.636696    11.00000   -1.50000
H7B   2   10.119063   11.198238   10.658360    11.00000   -1.50000
H6B   2   -0.010647    1.176546    0.432238    11.00000   -1.50000
H6A   2    0.106870    1.172286    0.276234    11.00000   -1.50000
HKLF    4

REM  Ak-GR48 in P-1
REM R1 =  0.0381 for    3008 Fo > 4sig(Fo)  and  0.0429 for all    3322 data
REM    216 parameters refined using      4 restraints

END

WGHT      0.0730      0.2529

REM Highest difference peak  0.637,  deepest hole -0.375,  1-sigma level  0.098
Q1    1   0.1608  1.0260  0.6585  11.00000  0.05    0.57
Q2    1   0.6065  0.1594  0.3096  11.00000  0.05    0.57
Q3    1   0.0440  1.3006  0.3621  11.00000  0.05    0.49
Q4    1   0.5640  0.4132  0.2933  11.00000  0.05    0.43
Q5    1   0.5717  0.6567  0.3029  11.00000  0.05    0.43
;
_shelx_res_checksum              57579
_shelx_hkl_file
;
  -1   0   0   65.53    1.08
  -1   0   0   65.44    1.03
   1   0   0   63.50    1.03
   1   0   0   71.02    1.01
  -2   0   0  255.57    3.89
  -2   0   0  253.72    4.11
   2   0   0  266.63    3.84
   2   0   0  252.69    3.89
  -3   0   0   45.13    0.82
  -3   0   0   44.59    0.82
   3   0   0   47.02    0.74
   3   0   0   44.62    0.82
  -4   0   0  152.36    2.49
  -4   0   0  154.72    2.57
   4   0   0  159.90    2.36
   4   0   0  152.34    2.48
  -5   0   0   55.70    1.03
  -5   0   0   53.46    1.05
   5   0   0   53.87    1.04
  -6   0   0    0.14    0.16
  -6   0   0    0.13    0.16
   6   0   0    0.10    0.13
  -7   0   0    4.02    0.38
  -7   0   0    3.85    0.37
   7   0   0    3.08    0.29
  -8   0   0    2.19    0.30
  -8   0   0    2.15    0.29
   8   0   0    2.46    0.31
  -9   0   0    3.46    0.52
  -9   0   0    3.70    0.42
   9   0   0    2.21    0.41
   9   0   0    2.04    0.39
   9   1   0    0.56    0.34
  -9  -1   0    0.97    0.37
  -9  -1   0    0.77    0.34
   8   1   0   12.21    0.51
  -8  -1   0   13.13    0.56
  -8  -1   0   11.77    0.60
   7   1   0   13.44    0.48
  -7  -1   0   11.75    0.51
  -7  -1   0   14.00    0.54
   6   1   0   29.55    0.71
  -6  -1   0   28.37    0.72
  -6  -1   0   29.58    0.73
   5   1   0   25.92    0.62
  -5  -1   0   26.30    0.63
  -5  -1   0   25.93    0.63
   4   1   0   30.19    0.65
  -4  -1   0   30.44    0.66
  -4  -1   0   29.12    0.65
   3   1   0    4.49    0.14
   3   1   0    5.15    0.23
  -3  -1   0    4.74    0.23
  -3  -1   0    4.67    0.23
  -3  -1   0    4.61    0.14
   2   1   0  279.91    4.27
  -2  -1   0  282.55    4.22
  -2  -1   0  285.27    4.28
   1   1   0  248.00    3.89
  -1   1   0   59.06    0.92
   1  -1   0   60.23    0.92
   1  -1   0   55.99    0.99
  -2   1   0  184.38    2.83
   2  -1   0  186.44    2.84
  -3   1   0   48.14    0.82
  -3   1   0   47.62    0.86
   3  -1   0   47.23    0.86
  -4   1   0   40.63    0.74
  -4   1   0   40.89    0.80
   4  -1   0   41.30    0.72
   4  -1   0   39.44    0.79
  -5   1   0   15.09    0.38
  -5   1   0   15.21    0.46
   5  -1   0   15.41    0.37
   5  -1   0   15.00    0.44
  -6   1   0   12.22    0.48
  -6   1   0   12.79    0.38
   6  -1   0   12.80    0.46
  -7   1   0    6.75    0.50
  -7   1   0    6.17    0.43
   7  -1   0    5.47    0.42
   7  -1   0    7.53    0.49
  -8   1   0   -0.35    0.33
  -8   1   0   -0.59    0.27
   8  -1   0    0.43    0.29
   8  -1   0    0.36    0.27
   9   2   0    2.70    0.33
   9   2   0    3.25    0.53
  -9  -2   0    2.47    0.35
  -9  -2   0    3.15    0.46
   8   2   0   17.35    0.61
  -8  -2   0   18.81    0.65
  -8  -2   0   18.26    0.73
   7   2   0    1.61    0.22
  -7  -2   0    1.76    0.30
  -7  -2   0    1.84    0.24
   6   2   0   17.45    0.53
  -6  -2   0   17.83    0.60
  -6  -2   0   16.96    0.54
   5   2   0    4.26    0.28
  -5  -2   0    3.94    0.29
  -5  -2   0    3.83    0.28
   4   2   0   64.53    1.18
  -4  -2   0   66.69    1.25
  -4  -2   0   64.89    1.05
  -4  -2   0   64.18    1.19
   3   2   0    7.58    0.28
   3   2   0    7.73    0.29
  -3  -2   0    8.16    0.30
  -3  -2   0    7.59    0.21
   2   2   0  138.95    2.29
   2   2   0  137.29    2.20
  -2  -2   0  144.73    2.21
  -2  -2   0  140.65    2.30
   1   2   0   29.62    0.56
   1   2   0   29.06    0.54
  -1  -2   0   28.47    0.54
  -1  -2   0   28.11    0.56
   0   2   0   52.96    0.84
   0   2   0   53.41    0.90
   0   2   0   43.92    0.83
   0  -2   0   49.70    0.91
   0  -2   0   51.05    0.89
   0  -2   0   51.50    0.84
  -1   2   0   82.77    1.43
  -1   2   0   86.35    1.34
   1  -2   0   86.15    1.34
   1  -2   0   84.81    1.34
   1  -2   0   84.44    1.43
  -2   2   0    3.45    0.18
   2  -2   0    3.61    0.17
   2  -2   0    3.52    0.24
  -3   2   0    0.59    0.11
  -3   2   0    0.63    0.13
   3  -2   0    0.74    0.16
   3  -2   0    0.72    0.12
  -4   2   0  104.75    1.78
  -4   2   0  107.70    1.78
   4  -2   0  108.14    1.96
   4  -2   0  107.84    1.79
  -5   2   0    1.41    0.19
  -5   2   0    1.42    0.21
   5  -2   0    1.17    0.18
   5  -2   0    1.44    0.17
   5  -2   0    1.33    0.22
  -6   2   0   23.43    0.65
  -6   2   0   21.49    0.66
   6  -2   0   22.71    0.74
   6  -2   0   22.21    0.54
   6  -2   0   22.62    0.62
  -7   2   0    5.08    0.44
  -7   2   0    6.01    0.52
   7  -2   0    4.96    0.41
   7  -2   0    5.46    0.50
  -8   2   0    3.27    0.42
  -8   2   0    3.96    0.46
   8  -2   0    4.27    0.42
   8  -2   0    4.41    0.44
   9   3   0    5.87    0.59
   9   3   0    6.95    0.57
  -9  -3   0    8.84    0.56
  -9  -3   0    6.79    0.78
   8   3   0    0.89    0.23
   8   3   0    0.23    0.33
  -8  -3   0    0.05    0.23
  -8  -3   0   -0.07    0.33
   7   3   0    0.53    0.26
   7   3   0    0.58    0.17
  -7  -3   0    0.22    0.21
  -7  -3   0    0.17    0.26
   6   3   0   35.80    0.88
   6   3   0   34.63    0.82
  -6  -3   0   35.29    0.89
  -6  -3   0   35.65    0.85
   5   3   0   32.78    0.75
   5   3   0   33.36    0.79
  -5  -3   0   32.83    0.77
  -5  -3   0   33.33    0.62
  -5  -3   0   33.44    0.81
   4   3   0   39.67    0.84
   4   3   0   39.53    0.82
  -4  -3   0   38.02    0.70
  -4  -3   0   37.79    0.82
   3   3   0  332.62    5.25
   3   3   0  317.85    5.02
  -3  -3   0  333.69    5.03
  -3  -3   0  325.94    5.25
   2   3   0   73.25    1.28
   2   3   0   72.62    1.23
  -2  -3   0   70.79    1.27
  -2  -3   0   71.90    1.23
   1   3   0  240.03    3.65
   1   3   0  242.75    3.65
   1   3   0  233.92    3.76
   1   3   0  240.71    3.83
  -1  -3   0  246.35    3.65
  -1  -3   0  235.36    3.83
  -1  -3   0  232.79    3.77
   0   3   0  283.97    4.36
   0   3   0  292.93    4.36
   0   3   0  284.47    4.53
   0  -3   0  292.82    4.36
   0  -3   0  287.73    4.53
   0  -3   0  298.54    4.37
   0  -3   0  279.91    4.61
  -1   3   0   43.36    0.85
  -1   3   0   44.66    0.76
   1  -3   0   43.08    0.85
   1  -3   0   44.22    0.76
  -2   3   0   12.15    0.33
   2  -3   0   12.21    0.33
   2  -3   0   12.37    0.32
   2  -3   0   12.34    0.42
  -3   3   0   72.12    1.24
   3  -3   0   72.91    1.24
   3  -3   0   71.69    1.39
  -4   3   0   10.34    0.36
   4  -3   0   10.81    0.35
   4  -3   0   10.41    0.45
  -5   3   0    4.86    0.32
  -5   3   0    3.43    0.31
   5  -3   0    4.67    0.39
   5  -3   0    4.80    0.29
  -6   3   0    7.42    0.44
  -6   3   0    8.09    0.46
   6  -3   0    9.09    0.52
   6  -3   0    8.61    0.41
   6  -3   0    8.60    0.41
  -7   3   0    0.00    0.27
  -7   3   0   -0.22    0.28
   7  -3   0   -0.22    0.30
   7  -3   0   -0.04    0.24
   7  -3   0    0.26    0.25
  -8   3   0    2.95    0.41
   8  -3   0    3.21    0.41
   8  -3   0    3.97    0.47
   9   4   0    4.05    0.35
   9   4   0    5.08    0.55
  -9  -4   0    3.81    0.53
  -9  -4   0    4.20    0.39
   8   4   0    0.65    0.23
   8   4   0   -0.27    0.33
  -8  -4   0    0.01    0.22
  -8  -4   0   -0.02    0.32
   7   4   0   13.20    0.50
   7   4   0   12.21    0.60
  -7  -4   0   12.69    0.64
  -7  -4   0   13.22    0.54
   6   4   0   25.94    0.71
   6   4   0   27.39    0.75
  -6  -4   0   28.43    0.75
  -6  -4   0   29.08    0.81
  -6  -4   0   26.85    0.58
   5   4   0   43.10    0.95
   5   4   0   42.29    0.93
  -5  -4   0   42.74    0.99
  -5  -4   0   43.64    0.94
  -5  -4   0   41.92    0.80
   4   4   0   52.58    1.03
   4   4   0   51.76    1.05
  -4  -4   0   51.94    1.04
   3   4   0   34.03    0.73
   3   4   0   34.02    0.75
  -3  -4   0   33.77    0.75
  -3  -4   0   33.86    0.74
   2   4   0  416.00    6.55
   2   4   0  427.50    6.36
   2   4   0  412.95    6.35
   2   4   0  419.07    6.65
  -2  -4   0  417.51    6.35
  -2  -4   0  416.47    6.65
   1   4   0    4.63    0.25
   1   4   0    4.59    0.24
   1   4   0    5.09    0.27
   1   4   0    4.76    0.24
  -1  -4   0    4.64    0.26
  -1  -4   0    4.60    0.25
  -1  -4   0    4.89    0.24
   0   4   0 1000.00   15.38
  -1   4   0   61.68    1.19
  -1   4   0   62.92    1.07
   1  -4   0   61.78    1.19
   1  -4   0   63.32    1.07
  -2   4   0   80.50    1.50
  -2   4   0   81.13    1.34
   2  -4   0   73.84    1.38
   2  -4   0   82.74    1.35
   2  -4   0   80.77    1.50
  -3   4   0   53.90    0.99
   3  -4   0   54.66    0.99
   3  -4   0   53.57    1.15
  -4   4   0    5.01    0.30
   4  -4   0    4.82    0.28
   4  -4   0    4.65    0.37
  -5   4   0    5.29    0.35
   5  -4   0    5.72    0.33
   5  -4   0    5.81    0.45
  -6   4   0    0.21    0.22
   6  -4   0    0.81    0.27
   6  -4   0    0.07    0.26
   6  -4   0    0.35    0.21
  -7   4   0    9.79    0.60
   7  -4   0    9.79    0.57
   7  -4   0    9.58    0.69
   7  -4   0   10.76    0.60
   9   5   0    0.33    0.41
   9   5   0    0.40    0.34
  -9  -5   0    0.25    0.47
  -9  -5   0    0.55    0.31
   8   5   0   20.15    0.84
   8   5   0   21.11    0.71
  -8  -5   0   21.20    0.91
  -8  -5   0   22.25    0.75
   7   5   0   17.38    0.68
   7   5   0   16.18    0.61
  -7  -5   0   16.63    0.75
  -7  -5   0   17.44    0.65
  -7  -5   0   16.39    0.48
   6   5   0    8.72    0.44
   6   5   0    9.52    0.47
  -6  -5   0    9.51    0.48
  -6  -5   0   10.08    0.55
  -6  -5   0    8.97    0.36
   5   5   0   26.23    0.70
   5   5   0   25.52    0.69
  -5  -5   0   26.37    0.71
  -5  -5   0   25.78    0.60
   4   5   0    0.99    0.18
   4   5   0    1.06    0.18
  -4  -5   0    0.91    0.18
  -4  -5   0    0.80    0.18
   3   5   0    0.25    0.16
   3   5   0    0.42    0.15
   3   5   0    0.50    0.14
  -3  -5   0    0.32    0.16
  -3  -5   0    0.38    0.15
   2   5   0   64.00    1.18
   2   5   0   64.66    1.25
   2   5   0   64.94    1.18
   2   5   0   65.73    1.23
  -2  -5   0   63.90    1.25
  -2  -5   0   64.71    1.18
   1   5   0   58.98    1.07
   1   5   0   59.26    1.14
   1   5   0   59.22    1.07
   1   5   0   59.28    1.16
  -1  -5   0   59.42    1.08
  -1  -5   0   59.21    1.17
  -1  -5   0   57.20    1.13
   0   5   0   68.97    1.23
   0   5   0   71.92    1.24
   0   5   0   71.21    1.34
   0  -5   0   70.28    1.36
   0  -5   0   72.97    1.25
   0  -5   0   71.82    1.24
   0  -5   0   70.90    1.34
  -1   5   0   16.96    0.43
  -1   5   0   17.16    0.51
  -1   5   0   16.97    0.42
   1  -5   0   17.15    0.52
   1  -5   0   16.77    0.42
   1  -5   0   17.58    0.53
   1  -5   0   16.51    0.44
  -2   5   0   96.93    1.61
  -2   5   0   94.97    1.79
   2  -5   0   97.57    1.61
   2  -5   0   93.95    1.78
  -3   5   0    0.71    0.15
   3  -5   0    0.62    0.13
   3  -5   0    0.60    0.19
  -4   5   0   21.06    0.56
   4  -5   0   20.74    0.71
   4  -5   0   18.35    0.53
  -5   5   0    3.04    0.29
   5  -5   0    3.37    0.35
   5  -5   0    3.58    0.39
  -6   5   0    3.28    0.33
   6  -5   0    3.17    0.42
   6  -5   0    3.71    0.35
  -7   5   0    3.51    0.43
  -7   5   0    3.22    0.42
   7  -5   0    3.21    0.48
   9   6   0    1.75    0.38
   9   6   0    1.53    0.47
  -9  -6   0    0.85    0.35
  -9  -6   0    0.52    0.48
   8   6   0   35.84    1.10
   8   6   0   38.30    1.04
  -8  -6   0   37.26    1.17
  -8  -6   0   37.21    0.82
  -8  -6   0   37.74    1.07
   7   6   0    2.96    0.33
   7   6   0    3.30    0.37
  -7  -6   0    3.17    0.28
  -7  -6   0    2.57    0.36
  -7  -6   0    3.13    0.38
   6   6   0   54.16    1.20
   6   6   0   55.71    1.23
  -6  -6   0   54.04    1.21
  -6  -6   0   48.71    1.26
  -6  -6   0   52.79    1.05
   5   6   0    4.64    0.37
   5   6   0    4.72    0.37
  -5  -6   0    5.31    0.38
  -5  -6   0    4.55    0.36
   4   6   0   19.83    0.59
   4   6   0   19.31    0.59
   4   6   0   18.99    0.58
  -4  -6   0   19.39    0.60
  -4  -6   0   19.00    0.58
   3   6   0   47.93    1.02
   3   6   0   47.58    1.01
   3   6   0   46.97    0.98
   3   6   0   46.96    0.97
  -3  -6   0   46.57    1.02
  -3  -6   0   47.15    0.99
   2   6   0    0.73    0.15
   2   6   0    0.78    0.15
   2   6   0    0.86    0.17
   2   6   0    0.69    0.17
  -2  -6   0    0.84    0.17
  -2  -6   0    0.71    0.15
   1   6   0   77.13    1.39
   1   6   0   79.50    1.48
   1   6   0   77.03    1.38
  -1  -6   0   77.48    1.51
  -1  -6   0   78.76    1.47
  -1  -6   0   78.30    1.40
   0   6   0    6.73    0.31
   0   6   0    6.86    0.28
   0   6   0    6.68    0.35
   0  -6   0    6.71    0.27
   0  -6   0    6.50    0.32
   0  -6   0    6.70    0.35
   0  -6   0    6.50    0.36
  -1   6   0    5.89    0.35
  -1   6   0    5.76    0.27
  -1   6   0    5.18    0.29
   1  -6   0    5.05    0.35
   1  -6   0    5.34    0.29
   1  -6   0    5.29    0.33
   1  -6   0    5.72    0.27
  -2   6   0   32.52    0.86
  -2   6   0   32.89    0.71
   2  -6   0   32.68    0.67
   2  -6   0   33.08    0.87
   2  -6   0   33.85    0.71
  -3   6   0    1.83    0.21
   3  -6   0    2.19    0.21
   3  -6   0    2.02    0.28
  -4   6   0   33.74    0.78
   4  -6   0   32.27    0.97
   4  -6   0   32.46    0.76
  -5   6   0    2.76    0.32
  -5   6   0    2.64    0.30
   5  -6   0    3.07    0.38
   5  -6   0    2.49    0.28
  -6   6   0    7.27    0.59
  -6   6   0    7.36    0.56
   6  -6   0   10.10    0.78
   6  -6   0    7.21    0.56
   9   7   0    6.87    0.66
   9   7   0    7.95    0.73
  -9  -7   0    7.33    0.54
  -9  -7   0    8.49    0.69
  -9  -7   0    6.98    0.70
   8   7   0    3.36    0.48
   8   7   0    2.63    0.39
  -8  -7   0    2.95    0.40
  -8  -7   0    2.84    0.32
  -8  -7   0    2.14    0.42
   7   7   0    6.88    0.55
   7   7   0    7.33    0.58
  -7  -7   0    7.55    0.61
  -7  -7   0    6.85    0.44
  -7  -7   0    7.60    0.57
   6   7   0   10.40    0.55
   6   7   0   10.82    0.56
  -6  -7   0   10.26    0.56
  -6  -7   0    9.46    0.56
  -6  -7   0   10.71    0.47
   5   7   0    0.24    0.20
   5   7   0    0.49    0.23
   5   7   0    0.13    0.21
  -5  -7   0    0.31    0.21
  -5  -7   0    0.23    0.22
   4   7   0   16.76    0.58
   4   7   0   17.12    0.57
   4   7   0   17.62    0.57
   4   7   0   17.29    0.59
  -4  -7   0   16.84    0.59
  -4  -7   0   16.88    0.58
   3   7   0   34.25    0.86
   3   7   0   34.11    0.82
   3   7   0   34.34    0.81
   3   7   0   35.31    0.84
  -3  -7   0   33.54    0.82
  -3  -7   0   34.61    0.86
   2   7   0   40.41    0.93
   2   7   0   38.88    0.87
   2   7   0   38.34    0.91
   2   7   0   39.12    0.85
  -2  -7   0   38.78    0.87
  -2  -7   0   37.71    0.92
   1   7   0   64.73    1.25
   1   7   0   66.19    1.24
   1   7   0   66.17    1.34
  -1  -7   0   65.29    1.37
  -1  -7   0   67.04    1.34
  -1  -7   0   67.59    1.26
   0   7   0    0.09    0.13
   0   7   0    0.19    0.15
   0   7   0    0.24    0.16
   0  -7   0    0.38    0.12
   0  -7   0    0.20    0.15
   0  -7   0    0.12    0.16
   0  -7   0    0.06    0.17
  -1   7   0   36.90    0.78
  -1   7   0   36.15    0.93
  -1   7   0   35.45    0.78
   1  -7   0   37.58    0.81
   1  -7   0   36.47    0.93
   1  -7   0   35.66    0.78
   1  -7   0   35.35    0.93
  -2   7   0    0.23    0.15
  -2   7   0   -0.13    0.12
  -2   7   0    0.27    0.22
   2  -7   0    0.33    0.18
   2  -7   0    0.13    0.16
   2  -7   0    0.20    0.21
   2  -7   0    0.06    0.15
  -3   7   0   21.20    0.60
   3  -7   0   20.73    0.77
   3  -7   0   20.71    0.58
   3  -7   0   21.64    0.76
  -4   7   0    9.14    0.48
  -4   7   0    8.35    0.49
   4  -7   0    7.57    0.44
   4  -7   0    8.57    0.62
  -5   7   0    0.20    0.29
  -5   7   0    0.69    0.31
   5  -7   0    0.70    0.36
   5  -7   0    0.92    0.29
   9   8   0    1.35    0.53
   9   8   0    1.71    0.50
  -9  -8   0    1.75    0.60
  -9  -8   0    1.01    0.43
  -9  -8   0    0.45    0.37
   8   8   0    1.95    0.41
   8   8   0    2.59    0.45
  -8  -8   0    2.38    0.35
  -8  -8   0    2.30    0.43
  -8  -8   0    1.01    0.37
   7   8   0   10.06    0.67
   7   8   0    8.98    0.64
   7   8   0    9.28    0.68
  -7  -8   0   10.20    0.68
  -7  -8   0   10.82    0.63
  -7  -8   0   10.54    0.54
   6   8   0    0.40    0.27
   6   8   0   -0.01    0.27
   6   8   0   -0.22    0.23
  -6  -8   0    0.33    0.27
  -6  -8   0    0.01    0.23
  -6  -8   0    0.19    0.22
  -6  -8   0    0.09    0.21
   5   8   0   15.39    0.65
   5   8   0   15.64    0.62
   5   8   0   15.94    0.65
   5   8   0   15.71    0.62
  -5  -8   0   16.18    0.66
  -5  -8   0   16.05    0.64
   4   8   0   15.81    0.62
   4   8   0   16.05    0.57
   4   8   0   15.72    0.60
   4   8   0   16.74    0.63
  -4  -8   0   15.54    0.61
  -4  -8   0   15.50    0.60
   3   8   0    7.72    0.45
   3   8   0    7.52    0.44
   3   8   0    8.23    0.46
   3   8   0    8.97    0.41
  -3  -8   0    7.32    0.43
  -3  -8   0    8.26    0.47
   2   8   0  202.89    3.49
   2   8   0  205.97    3.34
   2   8   0  200.44    3.34
   2   8   0  207.04    3.57
  -2  -8   0  198.73    3.55
  -2  -8   0  206.21    3.36
   1   8   0   43.80    1.04
   1   8   0   42.86    0.93
   1   8   0   42.48    0.95
  -1  -8   0   42.00    0.95
  -1  -8   0   42.46    1.03
  -1  -8   0   42.57    1.04
   0   8   0   19.17    0.58
   0   8   0   17.57    0.65
   0   8   0   19.76    0.56
   0  -8   0   18.54    0.55
   0  -8   0   19.91    0.60
   0  -8   0   19.99    0.66
   0  -8   0   18.96    0.66
  -1   8   0    2.31    0.24
  -1   8   0    2.37    0.26
  -1   8   0    2.18    0.31
   1  -8   0    3.01    0.34
   1  -8   0    2.79    0.29
   1  -8   0    2.55    0.27
   1  -8   0    2.73    0.24
   1  -8   0    2.59    0.28
  -2   8   0   19.42    0.58
  -2   8   0   19.33    0.75
   2  -8   0   19.57    0.71
   2  -8   0   19.17    0.55
   2  -8   0   19.27    0.57
   2  -8   0   18.78    0.74
  -3   8   0   12.57    0.52
   3  -8   0   11.77    0.65
   3  -8   0   12.65    0.67
   3  -8   0   11.79    0.50
  -4   8   0    0.48    0.27
  -4   8   0    0.61    0.29
   4  -8   0    0.06    0.33
   4  -8   0    0.21    0.26
   4  -8   0   -0.23    0.33
   8   9   0    4.76    0.57
   8   9   0    4.27    0.53
   8   9   0    4.51    0.56
  -8  -9   0    4.25    0.50
  -8  -9   0    5.19    0.56
  -8  -9   0    5.09    0.46
   7   9   0    8.98    0.71
   7   9   0   11.42    0.72
   7   9   0    9.87    0.69
  -7  -9   0   10.76    0.73
  -7  -9   0   10.11    0.63
  -7  -9   0   10.98    0.60
   6   9   0   17.96    0.77
   6   9   0   19.07    0.79
   6   9   0   20.65    0.76
   6   9   0   17.97    0.75
  -6  -9   0   18.76    0.76
  -6  -9   0   18.30    0.76
  -6  -9   0   18.92    0.81
   5   9   0   10.87    0.58
   5   9   0   11.48    0.59
   5   9   0   11.03    0.57
   5   9   0   11.13    0.59
  -5  -9   0   11.61    0.64
  -5  -9   0   10.49    0.56
  -5  -9   0   12.41    0.59
   4   9   0    5.19    0.38
   4   9   0    3.94    0.43
   4   9   0    4.30    0.42
   4   9   0    5.32    0.49
  -4  -9   0    4.79    0.46
  -4  -9   0    4.77    0.42
   3   9   0    1.07    0.26
   3   9   0    1.57    0.29
   3   9   0    1.88    0.28
   3   9   0    1.84    0.25
  -3  -9   0    1.64    0.30
  -3  -9   0    1.65    0.25
   2   9   0    3.79    0.37
   2   9   0    3.56    0.34
   2   9   0    3.80    0.32
  -2  -9   0    3.89    0.37
  -2  -9   0    3.76    0.36
   1   9   0   12.29    0.47
   1   9   0   11.20    0.52
   1   9   0   12.03    0.59
  -1  -9   0   12.55    0.56
  -1  -9   0   12.57    0.55
  -1  -9   0   12.15    0.58
   0   9   0   19.51    0.64
   0   9   0   19.32    0.60
   0   9   0   20.55    0.76
   0  -9   0   19.22    0.72
   0  -9   0   19.39    0.70
   0  -9   0   20.62    0.66
   0  -9   0   19.66    0.70
  -1   9   0    0.73    0.24
  -1   9   0   -0.09    0.25
  -1   9   0    0.16    0.20
   1  -9   0    0.46    0.21
   1  -9   0    0.53    0.29
   1  -9   0    0.43    0.25
   1  -9   0    0.48    0.25
   1  -9   0    0.05    0.20
  -2   9   0    7.65    0.65
  -2   9   0    8.49    0.48
   2  -9   0    8.05    0.46
   2  -9   0    6.95    0.61
   2  -9   0    7.57    0.44
   2  -9   0    7.44    0.53
  -3   9   0    1.14    0.31
  -3   9   0    1.36    0.29
   3  -9   0    1.54    0.38
   3  -9   0    1.48    0.30
   3  -9   0    1.15    0.35
   8  10   0   14.08    1.01
   8  10   0   17.37    1.02
   8  10   0   17.20    0.99
   8  10   0   15.55    0.99
  -8 -10   0   16.24    0.97
  -8 -10   0   14.90    0.92
  -8 -10   0   16.73    0.83
   7  10   0   -0.42    0.37
   7  10   0    0.37    0.40
   7  10   0   -0.43    0.41
   7  10   0   -0.37    0.37
  -7 -10   0    0.40    0.35
  -7 -10   0   -0.78    0.37
  -7 -10   0   -0.38    0.33
  -7 -10   0   -0.06    0.35
   6  10   0   15.98    0.82
   6  10   0   15.18    0.79
   6  10   0   16.32    0.73
   6  10   0   15.82    0.75
  -6 -10   0   17.06    0.83
  -6 -10   0   15.66    0.72
  -6 -10   0   15.17    0.75
   5  10   0   20.39    0.73
   5  10   0   21.71    0.79
   5  10   0   20.98    0.82
   5  10   0   22.34    0.85
  -5 -10   0   20.98    0.82
  -5 -10   0   20.26    0.79
  -5 -10   0   22.47    0.86
   4  10   0    4.95    0.45
   4  10   0    4.52    0.42
   4  10   0    3.71    0.39
   4  10   0    4.85    0.39
  -4 -10   0    4.45    0.51
  -4 -10   0    4.94    0.46
  -4 -10   0    4.61    0.46
   3  10   0    6.21    0.53
   3  10   0    6.68    0.43
   3  10   0    6.16    0.51
  -3 -10   0    6.54    0.59
  -3 -10   0    7.16    0.47
  -3 -10   0    6.37    0.56
   2  10   0    0.60    0.28
   2  10   0    0.66    0.29
   2  10   0    0.61    0.19
  -2 -10   0    0.36    0.31
  -2 -10   0    0.42    0.28
  -2 -10   0    0.28    0.21
   1  10   0   30.62    0.81
   1  10   0   31.50    0.97
   1  10   0   29.93    0.86
  -1 -10   0   31.04    0.87
  -1 -10   0   30.32    0.94
  -1 -10   0   30.27    0.94
  -1 -10   0   31.08    0.92
   0  10   0    7.33    0.51
   0  10   0    7.31    0.62
   0  10   0    6.88    0.44
   0 -10   0    7.85    0.56
   0 -10   0    7.73    0.52
   0 -10   0    7.05    0.57
   0 -10   0    7.55    0.53
  -1  10   0    5.66    0.55
  -1  10   0    5.65    0.45
  -1  10   0    5.01    0.50
   1 -10   0    5.39    0.53
   1 -10   0    7.20    0.51
   1 -10   0    4.80    0.48
   1 -10   0    5.11    0.54
  -2  10   0    8.01    0.54
  -2  10   0    8.30    0.82
   2 -10   0    9.20    0.53
   2 -10   0    7.36    0.60
   2 -10   0    9.23    0.74
   7  11   0    2.41    0.56
   7  11   0    3.37    0.49
   7  11   0    2.51    0.59
   7  11   0    3.10    0.52
  -7 -11   0    3.01    0.52
  -7 -11   0    3.01    0.53
  -7 -11   0    3.14    0.44
  -7 -11   0    3.00    0.48
   6  11   0   15.20    0.87
   6  11   0   17.18    0.94
   6  11   0   16.54    0.84
   6  11   0   16.58    0.75
  -6 -11   0   17.89    0.85
  -6 -11   0   15.41    0.89
  -6 -11   0   15.56    0.79
   5  11   0    1.83    0.28
   5  11   0    2.23    0.37
   5  11   0    1.85    0.37
   5  11   0    2.21    0.45
  -5 -11   0    3.14    0.37
  -5 -11   0    1.54    0.44
  -5 -11   0    1.51    0.37
   4  11   0    8.79    0.50
   4  11   0    8.43    0.69
   4  11   0    9.38    0.69
   4  11   0    7.65    0.60
  -4 -11   0    8.84    0.70
  -4 -11   0    7.73    0.70
  -4 -11   0    8.76    0.59
   3  11   0    5.23    0.41
   3  11   0    6.05    0.64
   3  11   0    5.85    0.51
  -3 -11   0    5.32    0.53
  -3 -11   0    5.54    0.49
  -3 -11   0    6.03    0.62
   2  11   0   14.26    0.57
   2  11   0   13.58    0.70
   2  11   0   13.17    0.77
  -2 -11   0   13.90    0.76
  -2 -11   0   14.29    0.72
  -2 -11   0   13.91    0.66
   1  11   0   14.03    0.71
   1  11   0   14.40    0.59
   1  11   0   13.06    0.79
  -1 -11   0   14.45    0.66
  -1 -11   0   14.32    0.77
  -1 -11   0   14.19    0.70
  -1 -11   0   13.50    0.74
   0  11   0    0.51    0.26
   0  11   0    0.20    0.32
   0  11   0    0.01    0.42
   0 -11   0    0.27    0.34
   0 -11   0   -0.04    0.35
   0 -11   0   -0.32    0.38
   0 -11   0    0.11    0.30
  -1  11   0    9.43    0.90
  -1  11   0    8.41    0.58
  -1  11   0    8.49    0.62
   1 -11   0    7.28    0.65
   1 -11   0    8.45    0.68
   1 -11   0    8.28    0.75
   1 -11   0    9.50    0.66
   6  12   0    1.53    0.57
   6  12   0    2.09    0.41
   6  12   0    1.47    0.48
   6  12   0    1.05    0.54
  -6 -12   0    1.65    0.56
  -6 -12   0    1.68    0.46
  -6 -12   0    1.58    0.48
   5  12   0    6.26    0.57
   5  12   0    5.69    0.63
   5  12   0    6.25    0.63
   5  12   0    6.34    0.56
  -5 -12   0    6.18    0.65
  -5 -12   0    6.84    0.66
  -5 -12   0    7.71    0.67
   4  12   0   14.51    0.64
   4  12   0   15.07    0.90
   4  12   0   12.78    0.88
  -4 -12   0   14.23    0.95
  -4 -12   0   14.04    0.90
  -4 -12   0   15.39    0.79
   3  12   0    0.25    0.42
   3  12   0    0.28    0.44
   3  12   0    0.34    0.27
  -3 -12   0    0.69    0.46
  -3 -12   0    0.14    0.42
  -3 -12   0    0.39    0.32
   2  12   0   21.10    1.01
   2  12   0   19.72    0.74
   2  12   0   19.67    0.91
  -2 -12   0   19.32    0.83
  -2 -12   0   19.34    0.89
  -2 -12   0   19.37    1.00
   1  12   0   14.31    0.69
   1  12   0   12.84    0.80
   1  12   0   11.87    0.99
  -1 -12   0   15.76    0.89
  -1 -12   0   13.58    0.73
  -1 -12   0   14.02    0.90
  -1 -12   0   13.66    0.84
  -1 -12   1    1.95    0.48
  -1 -12   1    1.76    0.38
  -1 -12   1    2.25    0.50
   1  12  -1    1.40    0.50
   1  12  -1    1.60    0.33
   1  12  -1    1.76    0.46
  -2 -12   1   14.32    0.86
  -2 -12   1   13.47    0.91
  -2 -12   1   11.22    0.70
   2  12  -1   13.88    0.86
   2  12  -1   12.26    0.88
   2  12  -1   13.38    0.61
  -3 -12   1    3.76    0.52
  -3 -12   1    3.28    0.56
  -3 -12   1    4.26    0.48
   3  12  -1    3.30    0.53
   3  12  -1    3.83    0.36
   3  12  -1    4.74    0.57
  -4 -12   1   18.39    0.87
  -4 -12   1   18.20    1.00
  -4 -12   1   19.37    0.97
   4  12  -1   17.26    0.73
   4  12  -1   18.26    0.96
   4  12  -1   16.88    0.98
  -5 -12   1   21.40    1.07
  -5 -12   1   25.22    1.13
  -5 -12   1   24.03    1.01
   5  12  -1   22.66    0.88
   5  12  -1   22.56    1.04
   5  12  -1   22.18    1.07
   5  12  -1   20.74    1.01
   1 -11   1   13.78    0.71
   1 -11   1   13.56    0.78
   1 -11   1   12.46    0.75
   1 -11   1   13.37    0.75
  -1  11  -1   13.03    0.90
  -1  11  -1   11.79    0.72
  -1  11  -1   14.10    0.65
   0 -11   1    5.99    0.67
   0 -11   1    6.28    0.65
   0 -11   1    5.48    0.49
   0 -11   1    5.83    0.50
   0  11  -1    7.17    0.65
   0  11  -1    5.60    0.48
   0  11  -1    6.57    0.63
  -1 -11   1    0.51    0.37
  -1 -11   1    0.40    0.34
  -1 -11   1    0.35    0.27
  -1 -11   1    0.64    0.32
   1  11  -1    0.27    0.33
   1  11  -1    0.53    0.36
   1  11  -1    0.90    0.24
  -2 -11   1   12.59    0.66
  -2 -11   1   12.77    0.73
  -2 -11   1   13.19    0.76
   2  11  -1   12.89    0.56
   2  11  -1   12.49    0.71
   2  11  -1   14.42    0.75
  -3 -11   1   -0.44    0.34
  -3 -11   1   -0.16    0.26
  -3 -11   1   -0.18    0.33
   3  11  -1   -0.32    0.30
   3  11  -1    0.09    0.22
   3  11  -1   -0.13    0.34
  -4 -11   1   10.73    0.77
  -4 -11   1   10.10    0.75
  -4 -11   1   11.17    0.66
   4  11  -1   12.01    0.79
   4  11  -1   11.04    0.70
   4  11  -1   10.16    0.56
   4  11  -1   11.39    0.70
  -5 -11   1    0.06    0.38
  -5 -11   1    0.24    0.35
  -5 -11   1    0.58    0.33
   5  11  -1    0.09    0.29
   5  11  -1   -0.09    0.36
   5  11  -1   -0.18    0.34
   5  11  -1    0.61    0.39
  -6 -11   1    2.78    0.41
  -6 -11   1    3.26    0.49
  -6 -11   1    3.92    0.53
   6  11  -1    3.98    0.52
   6  11  -1    3.72    0.55
   6  11  -1    4.55    0.49
   6  11  -1    3.77    0.52
  -7 -11   1    4.45    0.54
  -7 -11   1    4.86    0.60
  -7 -11   1    4.55    0.59
   7  11  -1    4.79    0.64
   7  11  -1    4.40    0.59
   7  11  -1    4.70    0.61
   7  11  -1    4.60    0.54
   3 -10   1    1.63    0.38
   3 -10   1    0.58    0.40
   3 -10   1    0.72    0.42
   3 -10   1    1.98    0.38
  -3  10  -1    1.31    0.35
  -3  10  -1    0.17    0.34
   2 -10   1   10.17    0.58
   2 -10   1    8.46    0.61
   2 -10   1   11.17    0.74
   2 -10   1    9.94    0.68
   2 -10   1   10.47    0.53
  -2  10  -1    9.77    0.56
  -2  10  -1    9.96    0.61
  -2  10  -1   10.40    0.79
   1 -10   1    5.40    0.53
   1 -10   1    5.31    0.46
   1 -10   1    5.31    0.55
   1 -10   1    6.07    0.49
   1 -10   1    4.77    0.44
  -1  10  -1    4.36    0.42
  -1  10  -1    5.05    0.48
  -1  10  -1    5.29    0.53
   0 -10   1   -0.02    0.29
   0 -10   1    0.30    0.26
   0 -10   1    0.73    0.31
   0 -10   1    0.59    0.27
   0  10  -1    0.44    0.29
   0  10  -1    0.35    0.27
   0  10  -1    0.52    0.21
  -1 -10   1    3.69    0.38
  -1 -10   1    2.33    0.36
  -1 -10   1    3.48    0.37
  -1 -10   1    3.41    0.37
   1  10  -1    3.52    0.39
   1  10  -1    3.18    0.39
   1  10  -1    3.32    0.35
  -2 -10   1    2.55    0.37
  -2 -10   1    1.98    0.29
  -2 -10   1    2.18    0.36
   2  10  -1    2.38    0.34
   2  10  -1    2.38    0.34
   2  10  -1    2.45    0.28
  -3 -10   1    0.63    0.32
  -3 -10   1    0.92    0.25
  -3 -10   1    1.00    0.32
   3  10  -1    0.72    0.29
   3  10  -1    0.50    0.28
   3  10  -1    0.87    0.21
  -4 -10   1    7.77    0.61
  -4 -10   1    8.26    0.54
  -4 -10   1    7.70    0.56
   4  10  -1    6.88    0.55
   4  10  -1    7.78    0.63
   4  10  -1    7.72    0.54
   4  10  -1    6.91    0.47
  -5 -10   1    1.31    0.29
  -5 -10   1    0.60    0.35
  -5 -10   1    1.07    0.32
   5  10  -1    0.77    0.34
   5  10  -1    0.68    0.33
   5  10  -1    1.22    0.28
   5  10  -1    1.37    0.32
  -6 -10   1   16.22    0.80
  -6 -10   1   15.61    0.76
  -6 -10   1   17.11    0.85
   6  10  -1   16.19    0.80
   6  10  -1   16.28    0.77
   6  10  -1   16.84    0.86
   6  10  -1   17.05    0.82
  -7 -10   1    3.02    0.50
  -7 -10   1    2.41    0.40
  -7 -10   1    3.64    0.43
  -7 -10   1    3.49    0.50
   7  10  -1    3.36    0.50
   7  10  -1    3.01    0.50
   7  10  -1    3.86    0.52
   7  10  -1    3.52    0.52
  -8 -10   1    4.96    0.66
   8  10  -1    3.25    0.59
   8  10  -1    4.45    0.66
   8  10  -1    4.43    0.65
   8  10  -1    4.04    0.63
   4  -9   1    6.81    0.59
   4  -9   1    7.84    0.72
   4  -9   1    6.30    0.48
  -4   9  -1    6.42    0.59
   3  -9   1    0.15    0.31
   3  -9   1   -0.16    0.32
   3  -9   1    0.16    0.30
   3  -9   1    0.65    0.28
  -3   9  -1    0.44    0.31
  -3   9  -1    0.55    0.35
  -3   9  -1    0.71    0.28
   2  -9   1   27.75    0.89
   2  -9   1   27.50    0.83
   2  -9   1   27.49    0.93
   2  -9   1   26.52    0.76
   2  -9   1   27.16    0.70
  -2   9  -1   27.31    0.77
  -2   9  -1   28.12    0.94
  -2   9  -1   25.49    0.77
   1  -9   1   10.36    0.53
   1  -9   1    9.89    0.53
   1  -9   1   10.51    0.57
   1  -9   1   10.44    0.47
   1  -9   1    9.73    0.59
  -1   9  -1    9.53    0.51
  -1   9  -1   11.07    0.60
  -1   9  -1   10.00    0.46
   0  -9   1   32.03    0.88
   0  -9   1   33.60    0.82
   0  -9   1   32.24    0.88
   0  -9   1   34.19    0.95
   0  -9   1   33.82    0.93
   0   9  -1   32.29    0.95
   0   9  -1   33.56    0.88
   0   9  -1   34.39    0.84
  -1  -9   1   29.45    0.87
  -1  -9   1   29.06    0.87
  -1  -9   1   29.23    0.83
  -1  -9   1   28.52    0.86
   1   9  -1   27.77    0.75
   1   9  -1   29.86    0.82
   1   9  -1   29.00    0.86
  -2  -9   1    4.70    0.45
  -2  -9   1    4.40    0.39
  -2  -9   1    4.97    0.48
   2   9  -1    4.73    0.43
   2   9  -1    4.46    0.35
   2   9  -1    4.79    0.43
  -3  -9   1   40.44    1.04
  -3  -9   1   39.54    1.02
  -3  -9   1   40.01    1.08
   3   9  -1   41.28    0.99
   3   9  -1   40.95    1.04
   3   9  -1   40.15    1.04
   3   9  -1   41.57    1.06
  -4  -9   1    0.77    0.29
  -4  -9   1    1.02    0.29
  -4  -9   1    0.65    0.25
   4   9  -1    0.93    0.24
   4   9  -1    0.77    0.25
   4   9  -1    1.07    0.24
   4   9  -1    0.31    0.27
  -5  -9   1   34.49    1.01
  -5  -9   1   34.04    1.00
  -5  -9   1   35.73    1.00
   5   9  -1   34.38    0.99
   5   9  -1   35.12    1.00
   5   9  -1   33.60    0.99
   5   9  -1   33.58    0.96
  -6  -9   1   30.18    0.99
  -6  -9   1   31.39    0.99
  -6  -9   1   30.88    1.00
   6   9  -1   31.27    1.00
   6   9  -1   30.51    0.97
   6   9  -1   30.56    0.99
   6   9  -1   30.21    0.98
  -7  -9   1   -0.28    0.33
  -7  -9   1    0.49    0.31
  -7  -9   1    0.14    0.37
   7   9  -1    0.31    0.36
   7   9  -1    0.46    0.37
   7   9  -1    0.76    0.41
  -8  -9   1   10.40    0.80
  -8  -9   1   10.36    0.69
  -8  -9   1    9.90    0.87
   8   9  -1   11.13    0.90
   8   9  -1   12.45    0.86
   8   9  -1   11.30    0.90
   5  -8   1    0.63    0.41
   5  -8   1    0.50    0.34
  -5   8  -1    1.32    0.37
   4  -8   1    4.25    0.39
   4  -8   1    6.52    0.62
   4  -8   1    4.41    0.47
  -4   8  -1    4.22    0.46
   3  -8   1    6.15    0.41
   3  -8   1    7.43    0.49
   3  -8   1    7.43    0.50
   3  -8   1    5.85    0.55
  -3   8  -1    6.72    0.55
  -3   8  -1    6.67    0.45
  -3   8  -1    7.00    0.48
   2  -8   1   26.85    0.83
   2  -8   1   25.93    0.64
   2  -8   1   24.86    0.68
   2  -8   1   27.35    0.75
   2  -8   1   25.62    0.83
  -2   8  -1   24.60    0.69
  -2   8  -1   26.31    0.84
  -2   8  -1   24.49    0.71
   1  -8   1    7.73    0.43
   1  -8   1    6.85    0.41
   1  -8   1    6.80    0.47
   1  -8   1    6.66    0.44
   1  -8   1    6.93    0.36
  -1   8  -1    6.73    0.42
  -1   8  -1    7.11    0.37
  -1   8  -1    7.69    0.48
   0  -8   1   23.08    0.74
   0  -8   1   24.30    0.70
   0  -8   1   25.58    0.70
   0  -8   1   24.85    0.64
   0  -8   1   25.37    0.75
   0   8  -1   24.82    0.76
   0   8  -1   24.68    0.69
   0   8  -1   23.96    0.65
  -1  -8   1    2.56    0.30
  -1  -8   1    2.18    0.29
  -1  -8   1    3.13    0.35
  -1  -8   1    2.98    0.30
   1   8  -1    3.20    0.32
   1   8  -1    2.20    0.24
   1   8  -1    2.01    0.26
  -2  -8   1  239.25    3.89
  -2  -8   1  238.67    4.14
  -2  -8   1  230.83    4.08
   2   8  -1  244.21    4.05
   2   8  -1  238.56    3.88
   2   8  -1  236.53    3.88
  -3  -8   1   48.47    1.10
  -3  -8   1   48.28    1.17
  -3  -8   1   48.51    1.13
   3   8  -1   48.60    1.12
   3   8  -1   46.83    1.06
   3   8  -1   47.10    1.13
   3   8  -1   48.26    1.10
  -4  -8   1   10.28    0.53
  -4  -8   1   10.89    0.52
  -4  -8   1   10.03    0.54
   4   8  -1   10.44    0.52
   4   8  -1   10.94    0.55
   4   8  -1   10.37    0.50
   4   8  -1   11.15    0.51
  -5  -8   1   18.40    0.71
  -5  -8   1   17.83    0.70
  -5  -8   1   16.89    0.66
   5   8  -1   16.83    0.67
   5   8  -1   17.24    0.66
   5   8  -1   17.42    0.68
   5   8  -1   17.06    0.66
  -6  -8   1    0.92    0.25
  -6  -8   1    1.57    0.32
  -6  -8   1    1.69    0.36
   6   8  -1    1.26    0.31
   6   8  -1    1.46    0.34
   6   8  -1    1.44    0.32
  -7  -8   1    8.20    0.64
  -7  -8   1    9.41    0.54
  -7  -8   1    9.33    0.64
   7   8  -1    8.47    0.66
   7   8  -1    9.30    0.72
   7   8  -1    9.39    0.67
  -8  -8   1    4.34    0.46
  -8  -8   1    3.92    0.53
  -8  -8   1    4.46    0.39
   8   8  -1    5.10    0.55
   8   8  -1    4.76    0.51
   8   8  -1    4.69    0.58
   5  -7   1   14.44    0.63
   5  -7   1   16.17    0.79
  -5   7  -1   16.32    0.66
   4  -7   1    1.87    0.26
   4  -7   1    1.49    0.30
  -4   7  -1    1.97    0.29
  -4   7  -1    1.43    0.26
   3  -7   1   20.23    0.59
   3  -7   1   19.54    0.72
   3  -7   1   21.71    0.65
  -3   7  -1   22.10    0.73
  -3   7  -1   19.90    0.62
  -3   7  -1   20.12    0.61
   2  -7   1   13.69    0.42
   2  -7   1   13.43    0.46
   2  -7   1   14.21    0.52
   2  -7   1   13.75    0.58
   2  -7   1   13.89    0.55
  -2   7  -1   14.77    0.48
  -2   7  -1   13.01    0.56
  -2   7  -1   13.44    0.50
   1  -7   1   11.40    0.40
   1  -7   1   10.96    0.49
   1  -7   1   11.46    0.46
   1  -7   1   11.91    0.48
   1  -7   1   11.34    0.43
  -1   7  -1   12.16    0.42
  -1   7  -1   11.41    0.45
  -1   7  -1   11.57    0.50
   0  -7   1   10.26    0.46
   0  -7   1   11.15    0.39
   0  -7   1   11.05    0.46
   0  -7   1   10.74    0.44
   0  -7   1   11.14    0.45
   0   7  -1   10.35    0.45
   0   7  -1   10.73    0.43
   0   7  -1   11.25    0.41
  -1  -7   1    0.16    0.15
  -1  -7   1    0.14    0.13
  -1  -7   1    0.07    0.16
  -1  -7   1    0.08    0.16
  -1  -7   1    0.09    0.17
   1   7  -1    0.09    0.15
   1   7  -1   -0.02    0.16
   1   7  -1   -0.01    0.13
  -2  -7   1   90.47    1.73
  -2  -7   1   85.99    1.68
  -2  -7   1   87.37    1.61
   2   7  -1   87.08    1.60
   2   7  -1   85.82    1.67
   2   7  -1   84.65    1.67
   2   7  -1   86.29    1.59
  -3  -7   1   24.48    0.69
  -3  -7   1   23.80    0.72
  -3  -7   1   24.54    0.70
   3   7  -1   24.07    0.69
   3   7  -1   24.92    0.67
   3   7  -1   24.43    0.70
   3   7  -1   25.00    0.70
  -4  -7   1   30.01    0.81
  -4  -7   1   29.66    0.80
  -4  -7   1   30.57    0.85
   4   7  -1   29.35    0.81
   4   7  -1   29.66    0.80
   4   7  -1   30.78    0.81
   4   7  -1   29.41    0.80
  -5  -7   1    2.22    0.27
  -5  -7   1    2.40    0.30
  -5  -7   1    2.54    0.32
   5   7  -1    2.41    0.29
   5   7  -1    2.73    0.32
   5   7  -1    2.25    0.30
  -6  -7   1    4.33    0.46
  -6  -7   1    4.39    0.48
   6   7  -1    4.37    0.42
   6   7  -1    4.58    0.45
   6   7  -1    3.96    0.39
  -7  -7   1   23.79    0.91
  -7  -7   1   24.86    0.84
  -7  -7   1   24.51    0.69
   7   7  -1   24.56    0.88
   7   7  -1   24.53    0.84
   7   7  -1   24.89    0.92
  -8  -7   1   -0.02    0.29
  -8  -7   1   -0.07    0.26
  -8  -7   1   -0.15    0.41
   8   7  -1    0.33    0.40
   8   7  -1   -0.41    0.34
   8   7  -1    0.05    0.40
  -9  -7   1    1.34    0.40
  -9  -7   1    1.80    0.57
   9   7  -1    2.38    0.60
   9   7  -1    1.61    0.44
   9   7  -1    2.78    0.60
   6  -6   1   11.18    0.60
   6  -6   1   10.67    0.70
  -6   6  -1   10.35    0.60
   5  -6   1    1.50    0.25
   5  -6   1    1.44    0.29
  -5   6  -1    1.67    0.28
  -5   6  -1    1.23    0.29
   4  -6   1    5.64    0.35
   4  -6   1    5.48    0.45
  -4   6  -1    5.56    0.41
  -4   6  -1    6.06    0.39
   3  -6   1   66.09    1.25
   3  -6   1   64.83    1.42
   3  -6   1   65.96    1.27
  -3   6  -1   66.58    1.42
  -3   6  -1   67.28    1.26
  -3   6  -1   63.84    1.25
   2  -6   1   17.82    0.49
   2  -6   1   18.32    0.44
   2  -6   1   17.41    0.53
   2  -6   1   17.41    0.60
  -2   6  -1   17.16    0.51
  -2   6  -1   17.53    0.50
  -2   6  -1   17.86    0.59
   1  -6   1    6.73    0.31
   1  -6   1    6.49    0.28
   1  -6   1    6.66    0.35
   1  -6   1    6.84    0.34
   1  -6   1    6.90    0.37
  -1   6  -1    7.04    0.31
  -1   6  -1    7.03    0.34
  -1   6  -1    6.36    0.35
   0  -6   1    4.46    0.30
   0  -6   1    5.14    0.30
   0  -6   1    4.86    0.27
   0  -6   1    5.26    0.31
   0  -6   1    5.01    0.32
   0   6  -1    4.71    0.30
   0   6  -1    5.01    0.27
   0   6  -1    4.54    0.30
  -1  -6   1   27.58    0.71
  -1  -6   1   28.22    0.70
  -1  -6   1   27.40    0.65
  -1  -6   1   26.62    0.69
  -1  -6   1   28.74    0.67
   1   6  -1   27.23    0.65
   1   6  -1   27.84    0.66
   1   6  -1   28.02    0.70
  -2  -6   1   76.98    1.50
  -2  -6   1   78.13    1.42
  -2  -6   1   76.00    1.47
   2   6  -1   75.12    1.46
   2   6  -1   77.77    1.47
   2   6  -1   76.53    1.41
   2   6  -1   74.84    1.40
  -3  -6   1    0.48    0.14
  -3  -6   1    0.60    0.18
  -3  -6   1    0.40    0.15
   3   6  -1    0.37    0.15
   3   6  -1    0.48    0.15
   3   6  -1    0.34    0.17
   3   6  -1    0.29    0.16
  -4  -6   1   21.09    0.63
  -4  -6   1   21.76    0.64
  -4  -6   1   21.95    0.69
   4   6  -1   21.68    0.64
   4   6  -1   22.90    0.65
   4   6  -1   22.29    0.63
  -5  -6   1   -0.07    0.18
  -5  -6   1    0.09    0.18
  -5  -6   1   -0.24    0.17
   5   6  -1    0.17    0.18
   5   6  -1    0.08    0.18
   5   6  -1    0.17    0.20
  -6  -6   1   32.63    0.97
  -6  -6   1   33.27    0.90
  -6  -6   1   32.80    0.74
   6   6  -1   34.09    0.92
   6   6  -1   32.28    0.87
  -7  -6   1    7.90    0.40
  -7  -6   1    8.92    0.62
  -7  -6   1    8.18    0.53
   7   6  -1    7.70    0.58
   7   6  -1    8.36    0.50
  -8  -6   1   10.30    0.81
  -8  -6   1    9.84    0.59
   8   6  -1   11.51    0.72
   8   6  -1    9.62    0.59
  -9  -6   1    5.75    0.47
  -9  -6   1    5.28    0.66
   9   6  -1    6.10    0.62
   9   6  -1    5.41    0.46
   7  -5   1    2.70    0.38
   7  -5   1    3.48    0.42
   7  -5   1    3.89    0.46
  -7   5  -1    3.36    0.41
  -7   5  -1    1.82    0.39
   6  -5   1    3.96    0.35
   6  -5   1    3.99    0.41
   6  -5   1    3.49    0.38
  -6   5  -1    3.53    0.37
  -6   5  -1    3.44    0.33
   5  -5   1   -0.12    0.18
   5  -5   1    0.11    0.23
  -5   5  -1    0.05    0.22
  -5   5  -1   -0.30    0.21
   4  -5   1   57.89    1.27
   4  -5   1   51.52    1.08
  -4   5  -1   55.17    1.10
  -4   5  -1   57.86    1.11
   3  -5   1    0.14    0.12
   3  -5   1    0.09    0.16
   3  -5   1   -0.14    0.15
  -3   5  -1    0.20    0.14
  -3   5  -1    0.23    0.17
  -3   5  -1    0.25    0.16
   2  -5   1   75.57    1.34
   2  -5   1   75.82    1.33
   2  -5   1   75.38    1.29
   2  -5   1   73.55    1.47
  -2   5  -1   75.28    1.47
  -2   5  -1   75.24    1.34
  -2   5  -1   76.39    1.34
   1  -5   1   41.35    0.91
   1  -5   1   42.46    0.93
   1  -5   1   42.03    0.82
   1  -5   1   41.35    0.83
   1  -5   1   42.30    0.82
  -1   5  -1   41.45    0.83
  -1   5  -1   41.15    0.82
  -1   5  -1   41.06    0.91
   0  -5   1   40.25    0.80
   0  -5   1   41.51    0.84
   0  -5   1   39.73    0.87
   0  -5   1   40.06    0.88
   0  -5   1   40.83    0.81
   0   5  -1   40.37    0.81
   0   5  -1   38.53    0.79
   0   5  -1   39.28    0.86
  -1  -5   1   73.66    1.31
  -1  -5   1   78.85    1.42
  -1  -5   1   72.28    1.30
  -1  -5   1   72.15    1.37
  -1  -5   1   72.03    1.38
   1   5  -1   72.25    1.37
   1   5  -1   73.92    1.37
   1   5  -1   72.97    1.31
   1   5  -1   71.72    1.30
  -2  -5   1   17.79    0.51
  -2  -5   1   17.73    0.51
  -2  -5   1   18.98    0.55
   2   5  -1   17.93    0.52
   2   5  -1   17.33    0.50
   2   5  -1   18.26    0.51
   2   5  -1   18.38    0.51
  -3  -5   1   69.16    1.35
  -3  -5   1   70.63    1.33
  -3  -5   1   74.57    1.45
   3   5  -1   71.76    1.33
   3   5  -1   71.01    1.35
   3   5  -1   71.67    1.33
  -4  -5   1    0.31    0.16
  -4  -5   1    0.36    0.16
  -4  -5   1    0.33    0.16
   4   5  -1    0.34    0.16
   4   5  -1    0.26    0.16
  -5  -5   1   14.39    0.51
  -5  -5   1   14.20    0.55
   5   5  -1   13.41    0.50
   5   5  -1   13.79    0.50
  -6  -5   1   98.03    1.64
  -6  -5   1  102.02    2.00
  -6  -5   1  100.81    1.87
   6   5  -1  100.88    1.89
   6   5  -1   87.66    1.81
  -7  -5   1    0.00    0.30
  -7  -5   1    0.46    0.22
   7   5  -1    0.42    0.27
   7   5  -1    0.27    0.20
  -8  -5   1   13.43    0.82
  -8  -5   1   14.53    0.62
   8   5  -1   14.37    0.58
   8   5  -1   13.60    0.76
  -9  -5   1    0.74    0.34
  -9  -5   1    1.25    0.56
   9   5  -1    0.62    0.34
   9   5  -1    0.52    0.46
   7  -4   1    5.09    0.48
   7  -4   1    5.12    0.57
   7  -4   1    5.53    0.44
  -7   4  -1    5.58    0.56
  -7   4  -1    5.50    0.53
   6  -4   1    2.78    0.33
   6  -4   1    2.49    0.27
   6  -4   1    3.39    0.37
  -6   4  -1    3.06    0.29
  -6   4  -1    2.69    0.32
   5  -4   1    3.67    0.38
   5  -4   1    3.26    0.30
  -5   4  -1    3.38    0.33
  -5   4  -1    3.45    0.36
   4  -4   1    1.98    0.23
   4  -4   1    2.30    0.24
  -4   4  -1    2.09    0.22
  -4   4  -1    2.00    0.23
   3  -4   1   35.17    0.72
   3  -4   1   34.55    0.84
  -3   4  -1   34.41    0.72
  -3   4  -1   33.88    0.72
   2  -4   1  135.84    2.20
   2  -4   1  138.47    2.21
   2  -4   1  134.78    2.36
  -2   4  -1  135.35    2.20
  -2   4  -1  137.21    2.20
  -2   4  -1  136.81    2.36
   1  -4   1    0.69    0.14
   1  -4   1    0.60    0.11
   1  -4   1    0.88    0.14
   1  -4   1    0.67    0.16
  -1   4  -1    0.67    0.16
  -1   4  -1    0.60    0.13
  -1   4  -1    0.62    0.13
   0  -4   1   22.89    0.56
   0  -4   1   22.86    0.53
   0  -4   1   22.31    0.52
   0  -4   1   22.86    0.56
   0  -4   1   22.69    0.51
   0   4  -1   22.99    0.52
   0   4  -1   23.26    0.51
   0   4  -1   22.75    0.56
  -1  -4   1   51.83    0.98
  -1  -4   1   50.84    0.94
  -1  -4   1   51.11    1.00
  -1  -4   1   49.68    0.98
  -1  -4   1   51.29    0.94
   1   4  -1   51.21    0.98
   1   4  -1   51.50    0.94
   1   4  -1   50.90    0.94
  -2  -4   1  750.60   11.20
   2   4  -1  739.91   11.20
   2   4  -1  737.69   11.20
   2   4  -1  757.31   11.70
  -3  -4   1  116.48    2.03
  -3  -4   1  121.84    2.14
  -3  -4   1  117.93    1.99
   3   4  -1  116.05    1.98
   3   4  -1  116.67    2.03
  -4  -4   1    0.54    0.16
  -4  -4   1    0.25    0.15
   4   4  -1    0.64    0.15
   4   4  -1    0.55    0.14
  -5  -4   1   39.11    0.89
  -5  -4   1   37.80    0.73
  -5  -4   1   41.27    0.97
   5   4  -1   40.13    0.89
   5   4  -1   38.87    0.88
  -6  -4   1    3.80    0.42
  -6  -4   1    3.79    0.35
   6   4  -1    3.91    0.35
   6   4  -1    3.76    0.30
  -7  -4   1    8.13    0.60
  -7  -4   1    8.32    0.45
   7   4  -1    7.24    0.41
   7   4  -1    7.45    0.53
  -8  -4   1    3.79    0.46
  -8  -4   1    3.64    0.35
   8   4  -1    3.61    0.47
   8   4  -1    5.33    0.42
  -9  -4   1    3.50    0.55
  -9  -4   1    3.84    0.40
   9   4  -1    4.48    0.59
   9   4  -1    3.92    0.38
   8  -3   1    4.94    0.44
   8  -3   1    4.03    0.42
   8  -3   1    4.67    0.39
  -8   3  -1    4.83    0.46
  -8   3  -1    4.59    0.50
   7  -3   1    3.43    0.38
   7  -3   1    4.54    0.46
   7  -3   1    3.22    0.31
  -7   3  -1    2.98    0.32
  -7   3  -1    3.87    0.39
   6  -3   1    3.61    0.37
   6  -3   1    3.25    0.34
   6  -3   1    3.43    0.32
  -6   3  -1    4.03    0.43
  -6   3  -1    3.18    0.30
   5  -3   1   59.84    1.32
   5  -3   1   61.50    1.17
  -5   3  -1   62.78    1.19
  -5   3  -1   58.71    1.18
   4  -3   1    3.11    0.22
   4  -3   1    2.53    0.28
  -4   3  -1    3.15    0.28
  -4   3  -1    3.37    0.26
   3  -3   1  183.33    2.85
   3  -3   1  178.33    3.03
  -3   3  -1  180.97    2.85
  -3   3  -1  177.08    2.84
   2  -3   1   44.22    0.82
   2  -3   1   43.34    0.90
   2  -3   1   44.79    0.83
  -2   3  -1   44.09    0.82
  -2   3  -1   44.48    0.91
  -2   3  -1   43.22    0.82
   1  -3   1    0.29    0.10
   1  -3   1    0.29    0.09
   1  -3   1    0.27    0.08
   1  -3   1    0.27    0.12
  -1   3  -1    0.62    0.13
  -1   3  -1    0.23    0.10
  -1   3  -1    0.38    0.10
   0  -3   1   45.06    0.80
   0  -3   1   43.84    0.85
   0  -3   1   45.40    0.83
   0  -3   1   44.60    0.85
   0  -3   1   46.17    0.81
   0   3  -1   44.41    0.80
   0   3  -1   45.20    0.80
   0   3  -1   45.43    0.85
  -1  -3   1    1.66    0.17
  -1  -3   1    1.76    0.17
  -1  -3   1    1.81    0.17
  -1  -3   1    1.49    0.18
   1   3  -1    1.64    0.18
   1   3  -1    1.55    0.17
   1   3  -1    1.80    0.17
   1   3  -1    1.76    0.16
  -2  -3   1  141.60    2.42
  -2  -3   1  142.19    2.27
  -2  -3   1  138.73    2.33
   2   3  -1  144.68    2.34
   2   3  -1  137.96    2.26
   2   3  -1  143.18    2.27
  -3  -3   1   10.48    0.37
  -3  -3   1   10.79    0.41
   3   3  -1   11.33    0.36
   3   3  -1   10.78    0.36
  -4  -3   1   64.73    1.27
  -4  -3   1   60.35    1.03
  -4  -3   1   62.95    1.18
   4   3  -1   62.04    1.17
   4   3  -1   64.46    1.21
  -5  -3   1   19.69    0.62
  -5  -3   1   19.55    0.57
   5   3  -1   19.46    0.54
   5   3  -1   19.66    0.57
  -6  -3   1    1.83    0.24
  -6  -3   1    2.12    0.29
   6   3  -1    1.80    0.22
   6   3  -1    2.03    0.28
  -7  -3   1   20.39    0.76
  -7  -3   1   20.56    0.66
   7   3  -1   21.43    0.76
   7   3  -1   20.57    0.62
  -8  -3   1    0.15    0.35
  -8  -3   1   -0.04    0.23
   8   3  -1   -0.30    0.35
   8   3  -1    0.06    0.24
  -9  -3   1    2.10    0.37
  -9  -3   1    2.64    0.53
   9   3  -1    2.40    0.34
   9   3  -1    2.60    0.56
   8  -2   1    6.98    0.53
   8  -2   1    8.16    0.63
  -8   2  -1    6.90    0.69
  -8   2  -1    6.84    0.55
   7  -2   1   -0.19    0.25
   7  -2   1    0.28    0.21
   7  -2   1    0.09    0.21
  -7   2  -1   -0.04    0.27
  -7   2  -1   -0.16    0.22
   6  -2   1   43.84    0.95
   6  -2   1   43.89    1.08
   6  -2   1   44.72    0.88
  -6   2  -1   43.08    0.98
  -6   2  -1   44.57    0.97
   5  -2   1   26.57    0.64
   5  -2   1   27.73    0.61
   5  -2   1   26.96    0.75
  -5   2  -1   27.30    0.66
  -5   2  -1   26.29    0.67
   4  -2   1   60.09    1.22
   4  -2   1   61.08    1.11
  -4   2  -1   60.14    1.11
  -4   2  -1   59.24    1.11
   3  -2   1  169.32    2.83
   3  -2   1  171.38    2.68
  -3   2  -1  166.82    2.67
  -3   2  -1  170.67    2.68
   2  -2   1  133.98    2.24
   2  -2   1  136.34    2.13
   2  -2   1  136.20    2.13
  -2   2  -1  136.04    2.13
  -2   2  -1  132.54    2.24
  -2   2  -1  135.30    2.13
   1  -2   1    5.75    0.21
   1  -2   1    5.86    0.17
   1  -2   1    5.79    0.24
   1  -2   1    5.95    0.22
  -1   2  -1    5.63    0.21
  -1   2  -1    5.50    0.21
  -1   2  -1    5.81    0.24
   0  -2   1   95.16    1.60
   0  -2   1   99.28    1.54
   0  -2   1   99.69    1.62
   0  -2   1   94.59    1.53
   0   2  -1   95.98    1.53
   0   2  -1   97.51    1.53
  -1  -2   1  105.05    1.66
  -1  -2   1  103.19    1.71
  -1  -2   1  103.22    1.77
   1   2  -1  107.67    1.71
   1   2  -1  104.38    1.66
   1   2  -1  104.48    1.66
  -2  -2   1   64.02    1.11
  -2  -2   1   63.49    1.09
  -2  -2   1   64.86    1.17
   2   2  -1   63.30    1.09
   2   2  -1   64.09    1.10
  -3  -2   1    0.22    0.12
  -3  -2   1    0.29    0.13
   3   2  -1    0.25    0.12
   3   2  -1    0.28    0.12
  -4  -2   1  124.56    2.09
  -4  -2   1  125.46    2.21
   4   2  -1  127.09    2.17
   4   2  -1  124.86    2.09
  -5  -2   1   35.49    0.79
  -5  -2   1   35.28    0.83
   5   2  -1   35.13    0.79
  -6  -2   1   64.31    1.32
  -6  -2   1   64.94    1.27
   6   2  -1   59.90    1.23
  -7  -2   1    4.39    0.47
  -7  -2   1    5.08    0.40
   7   2  -1    3.81    0.32
  -8  -2   1    5.51    0.60
  -8  -2   1    5.21    0.46
   8   2  -1    6.36    0.66
   8   2  -1    4.13    0.43
  -9  -2   1   13.51    0.69
  -9  -2   1   12.25    0.85
   9   2  -1   13.06    0.70
   9   2  -1   13.74    0.98
   9  -1   1    1.78    0.42
   9  -1   1    1.35    0.38
  -9   1  -1    1.05    0.49
  -9   1  -1    0.61    0.37
   8  -1   1   -0.20    0.29
   8  -1   1    0.49    0.26
  -8   1  -1    0.45    0.34
  -8   1  -1    0.41    0.26
   7  -1   1    6.26    0.38
   7  -1   1    5.95    0.34
   7  -1   1    6.58    0.47
  -7   1  -1    5.54    0.49
  -7   1  -1    6.45    0.42
   6  -1   1   10.25    0.50
   6  -1   1    9.48    0.39
   6  -1   1   11.03    0.37
  -6   1  -1   11.51    0.45
  -6   1  -1   10.67    0.48
   5  -1   1   16.90    0.47
   5  -1   1   17.37    0.43
  -5   1  -1   16.40    0.49
   4  -1   1   94.87    1.54
   4  -1   1   93.72    1.60
  -4   1  -1   93.87    1.60
   3  -1   1   16.74    0.38
   3  -1   1   16.64    0.42
   3  -1   1   16.25    0.46
  -3   1  -1   16.21    0.42
  -3   1  -1   16.36    0.42
   2  -1   1   25.93    0.50
   2  -1   1   24.60    0.54
  -2   1  -1   26.23    0.51
  -2   1  -1   25.62    0.50
   0  -1   1   13.69    0.28
   0  -1   1   14.21    0.28
   0  -1   1   13.90    0.29
   0   1  -1   13.55    0.28
   0   1  -1   13.96    0.29
  -1  -1   1  233.26    3.54
  -1  -1   1  235.62    3.67
  -1  -1   1  233.16    3.77
   1   1  -1  238.32    3.67
   1   1  -1  234.93    3.78
   1   1  -1  231.33    3.54
  -2  -1   1   27.64    0.57
  -2  -1   1   28.26    0.53
   2   1  -1   27.54    0.53
   2   1  -1   27.32    0.57
  -3  -1   1  144.73    2.44
  -3  -1   1  145.23    2.30
   3   1  -1  143.95    2.30
  -4  -1   1   58.66    1.08
  -4  -1   1   58.96    1.13
   4   1  -1   58.56    1.08
  -5  -1   1    5.20    0.30
  -5  -1   1    4.82    0.33
   5   1  -1    4.78    0.25
  -6  -1   1   39.83    0.91
  -6  -1   1   40.55    0.89
   6   1  -1   36.41    0.85
  -7  -1   1    2.04    0.27
  -7  -1   1    2.13    0.30
   7   1  -1    1.88    0.22
  -8  -1   1   10.39    0.55
  -8  -1   1    9.50    0.63
   8   1  -1   10.28    0.53
  -9  -1   1    2.68    0.41
  -9  -1   1    2.07    0.44
   9   1  -1    1.81    0.39
   9   0   1    2.97    0.38
   9   0   1    3.34    0.41
  -9   0  -1    2.71    0.38
  -9   0  -1    3.94    0.53
   8   0   1    0.11    0.22
  -8   0  -1   -0.20    0.23
  -8   0  -1    0.23    0.23
   7   0   1    2.41    0.23
  -7   0  -1    2.51    0.24
  -7   0  -1    1.62    0.25
   6   0   1    8.04    0.36
   6   0   1    8.60    0.30
  -6   0  -1    8.94    0.40
  -6   0  -1    9.59    0.38
   5   0   1    0.22    0.12
   5   0   1    0.06    0.11
  -5   0  -1    0.20    0.14
  -5   0  -1    0.02    0.13
   4   0   1   22.83    0.45
   4   0   1   21.66    0.53
  -4   0  -1   21.88    0.54
   3   0   1   43.06    0.71
   3   0   1   40.30    0.77
  -3   0  -1   40.38    0.77
   2   0   1   38.96    0.71
   2   0   1   41.45    0.68
  -2   0  -1   40.93    0.68
  -2   0  -1   40.20    0.71
   1   0   1   32.69    0.56
   1   0   1   33.77    0.55
  -1   0  -1   34.12    0.56
  -1   0  -1   32.80    0.55
  -2   0   1    2.13    0.15
  -2   0   1    2.45    0.16
   2   0  -1    2.08    0.14
   2   0  -1    2.23    0.15
  -3   0   1   31.61    0.64
  -3   0   1   31.12    0.62
   3   0  -1   30.15    0.63
   3   0  -1   31.89    0.61
  -4   0   1    4.42    0.26
  -4   0   1    4.28    0.25
   4   0  -1    4.36    0.22
  -5   0   1   39.15    0.82
  -5   0   1   39.90    0.83
   5   0  -1   38.40    0.81
  -6   0   1    9.00    0.42
  -6   0   1    8.97    0.42
   6   0  -1    9.20    0.40
  -7   0   1    0.95    0.24
  -7   0   1    0.66    0.23
   7   0  -1    1.16    0.23
  -8   0   1    4.15    0.40
  -8   0   1    4.23    0.37
   8   0  -1    5.37    0.49
   9   1   1    1.95    0.31
  -9  -1  -1    1.50    0.35
  -9  -1  -1    1.28    0.31
   8   1   1   18.56    0.61
  -8  -1  -1   19.45    0.66
  -8  -1  -1   18.74    0.68
   7   1   1   28.01    0.73
  -7  -1  -1   27.07    0.73
  -7  -1  -1   27.22    0.74
   6   1   1    0.15    0.12
   6   1   1    0.23    0.14
  -6  -1  -1    0.23    0.16
  -6  -1  -1    0.01    0.17
   5   1   1  157.20    2.37
   5   1   1  151.34    2.51
  -5  -1  -1  148.73    2.59
  -5  -1  -1  151.28    2.52
   4   1   1    0.12    0.12
   4   1   1    0.15    0.09
  -4  -1  -1    0.12    0.13
  -4  -1  -1    0.17    0.10
   3   1   1  101.54    1.56
   3   1   1   95.79    1.62
  -3  -1  -1   99.35    1.56
  -3  -1  -1   99.19    1.63
   2   1   1   17.06    0.38
   2   1   1   17.26    0.34
  -2  -1  -1   17.47    0.38
  -2  -1  -1   17.13    0.34
   1   1   1    2.32    0.12
   1   1   1    2.25    0.13
   1   1   1    2.24    0.12
  -1  -1  -1    2.13    0.13
  -1  -1  -1    2.13    0.12
  -1  -1  -1    2.25    0.12
  -1   1   1   17.60    0.30
   1  -1  -1   17.49    0.30
   1  -1  -1   16.59    0.34
  -2   1   1   14.81    0.32
  -2   1   1   14.74    0.31
   2  -1  -1   14.21    0.32
   2  -1  -1   14.38    0.31
  -3   1   1   25.41    0.53
  -3   1   1   25.43    0.52
   3  -1  -1   26.08    0.53
   3  -1  -1   25.56    0.53
  -4   1   1   53.24    0.96
  -4   1   1   51.07    0.96
   4  -1  -1   52.67    0.96
  -5   1   1   25.99    0.63
  -5   1   1   26.67    0.59
   5  -1  -1   26.01    0.62
  -6   1   1   -0.30    0.17
  -6   1   1   -0.12    0.17
   6  -1  -1   -0.13    0.16
  -7   1   1    4.43    0.43
  -7   1   1    3.46    0.37
  -7   1   1    4.52    0.46
   7  -1  -1    3.82    0.33
  -8   1   1    0.42    0.36
  -8   1   1    0.59    0.34
   8  -1  -1    0.85    0.34
   8  -1  -1    0.97    0.32
   9   2   1    1.16    0.30
  -9  -2  -1    0.80    0.36
  -9  -2  -1    0.87    0.29
   8   2   1   10.67    0.50
  -8  -2  -1   11.07    0.61
  -8  -2  -1   10.25    0.52
   7   2   1    2.33    0.24
  -7  -2  -1    4.48    0.47
  -7  -2  -1    2.77    0.28
   6   2   1   52.71    1.08
  -6  -2  -1   51.38    0.91
  -6  -2  -1   51.95    1.09
  -6  -2  -1   53.01    1.12
   5   2   1   49.40    0.99
  -5  -2  -1   49.63    0.87
  -5  -2  -1   49.87    1.00
   4   2   1  115.47    1.94
  -4  -2  -1  117.82    1.84
  -4  -2  -1  115.36    1.94
   3   2   1  219.85    3.48
   3   2   1  211.45    3.31
  -3  -2  -1  209.03    3.26
  -3  -2  -1  211.79    3.31
   2   2   1   53.86    0.97
   2   2   1   54.13    0.93
  -2  -2  -1   54.97    0.93
  -2  -2  -1   53.43    0.98
  -2  -2  -1   53.33    0.91
   1   2   1  207.21    3.33
   1   2   1  212.69    3.25
   1   2   1  210.39    3.16
  -1  -2  -1  204.49    3.33
  -1  -2  -1  208.60    3.17
   0   2   1   10.52    0.23
   0   2   1   11.35    0.28
   0   2   1   11.77    0.22
   0  -2  -1   11.33    0.30
   0  -2  -1   11.42    0.22
   0  -2  -1   11.39    0.28
  -1   2   1  131.43    1.92
  -1   2   1  119.53    1.92
   1  -2  -1  129.78    1.92
   1  -2  -1  127.70    1.92
   1  -2  -1  126.10    2.08
  -2   2   1   50.14    0.83
   2  -2  -1   50.03    0.83
   2  -2  -1   49.15    0.86
   2  -2  -1   48.67    0.97
  -3   2   1    7.50    0.26
  -3   2   1    6.53    0.27
   3  -2  -1    6.38    0.22
   3  -2  -1    7.48    0.36
   3  -2  -1    7.39    0.25
  -4   2   1   57.14    1.03
   4  -2  -1   55.78    1.20
   4  -2  -1   57.11    1.03
  -5   2   1    5.23    0.32
   5  -2  -1    5.09    0.26
   5  -2  -1    5.12    0.30
   5  -2  -1    4.67    0.39
  -6   2   1    8.27    0.43
   6  -2  -1    9.19    0.51
   6  -2  -1    9.76    0.42
  -7   2   1    8.35    0.53
   7  -2  -1    9.84    0.59
   7  -2  -1    8.21    0.48
  -8   2   1    0.80    0.37
   8  -2  -1    1.79    0.42
   8  -2  -1    0.93    0.36
   9   3   1    6.24    0.69
   9   3   1    5.80    0.53
  -9  -3  -1    5.06    0.52
  -9  -3  -1    7.59    0.53
   8   3   1    1.65    0.33
   8   3   1    0.89    0.22
  -8  -3  -1    1.76    0.36
  -8  -3  -1    1.63    0.27
   7   3   1    0.45    0.23
   7   3   1    0.19    0.17
  -7  -3  -1    0.40    0.15
  -7  -3  -1    0.08    0.19
  -7  -3  -1    1.35    0.32
   6   3   1   30.21    0.80
   6   3   1   30.38    0.74
  -6  -3  -1   28.95    0.60
  -6  -3  -1   28.42    0.74
   5   3   1    3.36    0.26
   5   3   1    3.37    0.29
  -5  -3  -1    2.69    0.22
  -5  -3  -1    2.74    0.28
   4   3   1  196.25    3.17
   4   3   1  199.93    3.32
  -4  -3  -1  197.78    3.09
  -4  -3  -1  200.99    3.18
   3   3   1  111.71    1.90
   3   3   1  110.13    1.82
  -3  -3  -1  107.97    1.90
  -3  -3  -1  108.44    1.78
  -3  -3  -1  113.36    1.83
   2   3   1    0.12    0.09
   2   3   1    0.16    0.10
  -2  -3  -1    0.08    0.09
  -2  -3  -1    0.27    0.10
   1   3   1  173.53    2.74
   1   3   1  171.58    2.64
   1   3   1  176.79    2.65
   1   3   1  175.71    2.82
  -1  -3  -1  168.78    2.73
  -1  -3  -1  161.57    2.80
  -1  -3  -1  175.46    2.65
   0   3   1   10.38    0.30
   0   3   1   10.38    0.24
   0  -3  -1   10.32    0.24
   0  -3  -1   10.23    0.24
   0  -3  -1    9.72    0.32
   0  -3  -1   10.05    0.30
  -1   3   1  239.33    3.51
  -1   3   1  225.89    3.73
   1  -3  -1  226.56    3.73
   1  -3  -1  234.95    3.51
   1  -3  -1  236.99    3.51
  -2   3   1   46.63    0.82
  -2   3   1   49.89    0.82
   2  -3  -1   47.46    0.98
   2  -3  -1   49.58    0.83
   2  -3  -1   47.99    0.85
  -3   3   1   22.21    0.48
   3  -3  -1   22.25    0.63
   3  -3  -1   23.46    0.49
  -4   3   1   71.30    1.24
   4  -3  -1   70.52    1.45
   4  -3  -1   70.63    1.24
  -5   3   1    1.65    0.22
   5  -3  -1    1.51    0.20
   5  -3  -1    0.86    0.26
  -6   3   1   14.87    0.54
   6  -3  -1   16.07    0.69
   6  -3  -1   16.09    0.53
   6  -3  -1   16.32    0.49
  -7   3   1    2.19    0.33
   7  -3  -1    2.51    0.32
   7  -3  -1    2.75    0.38
  10   4   1    0.74    0.58
 -10  -4  -1   -0.20    0.55
 -10  -4  -1    1.14    0.39
   9   4   1    3.22    0.33
   9   4   1    5.07    0.52
  -9  -4  -1    3.70    0.36
  -9  -4  -1    3.79    0.52
   8   4   1    3.64    0.42
   8   4   1    3.87    0.41
  -8  -4  -1    3.28    0.31
  -8  -4  -1    3.61    0.44
  -8  -4  -1    5.57    0.44
   7   4   1    0.04    0.21
   7   4   1    0.28    0.18
  -7  -4  -1    0.43    0.30
  -7  -4  -1    0.41    0.23
  -7  -4  -1    0.07    0.17
   6   4   1    2.53    0.29
   6   4   1    2.33    0.25
  -6  -4  -1    2.18    0.26
  -6  -4  -1    2.37    0.25
   5   4   1   32.33    0.77
   5   4   1   33.09    0.79
  -5  -4  -1   32.72    0.78
  -5  -4  -1   32.19    0.68
   4   4   1  193.42    3.12
   4   4   1  193.69    3.25
  -4  -4  -1  193.64    3.26
  -4  -4  -1  194.12    3.05
  -4  -4  -1  191.28    3.12
   3   4   1   63.73    1.21
   3   4   1   63.10    1.16
  -3  -4  -1   63.48    1.21
  -3  -4  -1   63.48    1.16
   2   4   1   86.79    1.46
   2   4   1   87.16    1.56
   2   4   1   86.67    1.50
  -2  -4  -1   88.02    1.47
  -2  -4  -1   85.86    1.56
   1   4   1   43.31    0.78
   1   4   1   43.32    0.78
   1   4   1   42.69    0.82
   1   4   1   42.21    0.87
  -1  -4  -1   42.98    0.82
  -1  -4  -1   41.61    0.86
  -1  -4  -1   42.16    0.78
   0   4   1  524.70    7.69
   0   4   1  510.61    8.01
   0  -4  -1  514.70    8.00
   0  -4  -1  515.42    7.69
   0  -4  -1  506.07    8.15
  -1   4   1  239.42    3.56
  -1   4   1  231.55    3.79
   1  -4  -1  239.54    3.56
   1  -4  -1  228.79    3.86
   1  -4  -1  236.43    3.56
   1  -4  -1  227.70    3.79
  -2   4   1    2.33    0.18
  -2   4   1    2.32    0.18
   2  -4  -1    2.09    0.22
   2  -4  -1    2.36    0.17
   2  -4  -1    2.40    0.17
  -3   4   1   15.00    0.39
  -3   4   1   15.16    0.38
   3  -4  -1   15.08    0.54
   3  -4  -1   14.57    0.38
  -4   4   1   14.42    0.43
  -4   4   1   14.61    0.43
   4  -4  -1   14.03    0.59
   4  -4  -1   14.79    0.43
  -5   4   1   13.79    0.49
  -5   4   1   14.36    0.48
   5  -4  -1   13.35    0.63
   5  -4  -1   13.56    0.47
  -6   4   1    3.95    0.33
  -6   4   1    3.64    0.32
   6  -4  -1    3.34    0.40
   6  -4  -1    4.01    0.33
   6  -4  -1    3.56    0.32
  -7   4   1    0.20    0.34
  -7   4   1    0.11    0.31
   7  -4  -1   -0.03    0.40
   7  -4  -1    0.84    0.33
  10   5   1    3.82    0.63
  10   5   1    3.73    0.49
 -10  -5  -1    3.68    0.46
 -10  -5  -1    3.77    0.67
   9   5   1    3.94    0.39
   9   5   1    3.79    0.47
  -9  -5  -1    4.59    0.54
  -9  -5  -1    4.39    0.43
   8   5   1   15.88    0.62
   8   5   1   15.33    0.72
  -8  -5  -1   16.01    0.68
  -8  -5  -1   15.25    0.51
  -8  -5  -1   15.10    0.80
   7   5   1  103.57    2.04
   7   5   1  102.36    1.97
  -7  -5  -1  105.30    1.79
  -7  -5  -1  105.40    2.00
  -7  -5  -1  104.86    2.11
   6   5   1   12.71    0.52
   6   5   1   14.12    0.55
  -6  -5  -1   13.59    0.44
  -6  -5  -1   13.59    0.55
   5   5   1   65.36    1.34
   5   5   1   66.61    1.31
  -5  -5  -1   65.59    1.21
  -5  -5  -1   66.57    1.31
   4   5   1    6.00    0.33
   4   5   1    5.93    0.32
  -4  -5  -1    5.65    0.33
  -4  -5  -1    5.87    0.34
   3   5   1   64.20    1.24
   3   5   1   61.12    1.18
   3   5   1   61.88    1.17
  -3  -5  -1   63.13    1.18
  -3  -5  -1   63.18    1.24
   2   5   1   78.28    1.36
   2   5   1   76.33    1.46
   2   5   1   78.19    1.36
   2   5   1   79.19    1.41
  -2  -5  -1   78.41    1.36
  -2  -5  -1   77.44    1.46
   1   5   1   30.21    0.62
   1   5   1   30.03    0.68
   1   5   1   30.33    0.71
   1   5   1   30.44    0.63
  -1  -5  -1   30.30    0.63
  -1  -5  -1   29.14    0.68
  -1  -5  -1   30.49    0.72
   0   5   1    8.39    0.35
   0   5   1    8.30    0.28
   0  -5  -1    8.39    0.28
   0  -5  -1    8.77    0.37
   0  -5  -1    8.04    0.36
  -1   5   1    4.47    0.31
  -1   5   1    4.89    0.22
   1  -5  -1    4.99    0.32
   1  -5  -1    4.66    0.23
   1  -5  -1    4.90    0.31
   1  -5  -1    4.39    0.22
  -2   5   1   48.85    0.87
  -2   5   1   48.21    0.87
   2  -5  -1   48.11    0.88
   2  -5  -1   47.89    0.88
   2  -5  -1   48.93    1.07
  -3   5   1    1.70    0.18
  -3   5   1    1.57    0.18
   3  -5  -1    1.68    0.26
   3  -5  -1    1.39    0.17
  -4   5   1    0.00    0.17
  -4   5   1    0.16    0.17
   4  -5  -1    0.13    0.16
   4  -5  -1    0.39    0.24
  -5   5   1    2.65    0.26
  -5   5   1    2.28    0.26
   5  -5  -1    2.74    0.35
   5  -5  -1    2.92    0.28
  -6   5   1    0.17    0.27
  -6   5   1    0.06    0.25
   6  -5  -1    0.04    0.27
   6  -5  -1    0.71    0.36
   9   6   1    1.36    0.36
   9   6   1    1.76    0.42
  -9  -6  -1    0.36    0.43
  -9  -6  -1    0.93    0.28
  -9  -6  -1    1.36    0.35
   8   6   1   15.17    0.72
   8   6   1   15.87    0.68
  -8  -6  -1   16.62    0.73
  -8  -6  -1   16.50    0.57
  -8  -6  -1   15.31    0.82
   7   6   1    5.00    0.46
   7   6   1    5.78    0.46
  -7  -6  -1    5.20    0.51
  -7  -6  -1    5.99    0.40
   6   6   1   12.37    0.54
   6   6   1   12.24    0.54
  -6  -6  -1   11.66    0.46
  -6  -6  -1   12.12    0.54
   5   6   1    9.78    0.47
   5   6   1   10.70    0.46
  -5  -6  -1    9.63    0.40
  -5  -6  -1   10.63    0.49
  -5  -6  -1   10.39    0.46
   4   6   1   33.68    0.81
   4   6   1   34.81    0.84
  -4  -6  -1   33.79    0.84
  -4  -6  -1   35.47    0.83
   3   6   1   51.26    1.10
   3   6   1   52.36    1.03
   3   6   1   50.54    1.02
   3   6   1   51.54    1.06
  -3  -6  -1   51.38    1.03
  -3  -6  -1   52.21    1.10
   2   6   1    0.34    0.12
   2   6   1    0.29    0.13
   2   6   1    0.17    0.14
   2   6   1    0.37    0.14
  -2  -6  -1    0.44    0.16
  -2  -6  -1    0.18    0.12
   1   6   1    7.43    0.35
   1   6   1    6.88    0.29
   1   6   1    6.93    0.31
  -1  -6  -1    7.12    0.32
  -1  -6  -1    6.66    0.35
  -1  -6  -1    7.17    0.35
   0   6   1   25.57    0.56
   0   6   1   25.63    0.66
   0  -6  -1   24.94    0.66
   0  -6  -1   24.37    0.68
  -1   6   1   15.27    0.40
  -1   6   1   15.78    0.54
   1  -6  -1   15.16    0.53
   1  -6  -1   15.21    0.54
   1  -6  -1   15.08    0.40
   1  -6  -1   14.48    0.41
  -2   6   1   22.07    0.52
  -2   6   1   22.26    0.52
   2  -6  -1   21.62    0.69
   2  -6  -1   21.47    0.52
   2  -6  -1   22.14    0.70
   2  -6  -1   22.19    0.52
  -3   6   1    2.81    0.29
  -3   6   1    2.54    0.22
   3  -6  -1    3.37    0.36
   3  -6  -1    2.81    0.27
  -4   6   1   24.01    0.61
  -4   6   1   24.36    0.61
   4  -6  -1   24.98    0.85
   4  -6  -1   24.41    0.61
  -5   6   1    1.70    0.27
  -5   6   1    2.02    0.27
   5  -6  -1    1.73    0.37
   5  -6  -1    2.35    0.27
  -6   6   1    0.87    0.31
  -6   6   1    0.56    0.31
   6  -6  -1    0.48    0.44
   6  -6  -1    0.36    0.30
   9   7   1    3.86    0.49
   9   7   1    3.17    0.50
  -9  -7  -1    2.77    0.55
  -9  -7  -1    2.90    0.47
  -9  -7  -1    4.06    0.37
   8   7   1    5.45    0.58
   8   7   1    3.87    0.45
  -8  -7  -1    4.59    0.46
  -8  -7  -1    4.47    0.47
  -8  -7  -1    4.55    0.39
   7   7   1    3.12    0.39
   7   7   1    2.53    0.34
  -7  -7  -1    2.68    0.30
  -7  -7  -1    2.17    0.36
   6   7   1   20.70    0.72
   6   7   1   21.02    0.72
  -6  -7  -1   20.00    0.73
  -6  -7  -1   21.31    0.64
  -6  -7  -1   20.44    0.71
   5   7   1    1.66    0.24
   5   7   1    1.65    0.27
  -5  -7  -1    1.88    0.25
  -5  -7  -1    1.99    0.29
   4   7   1   29.19    0.74
   4   7   1   28.57    0.77
   4   7   1   29.92    0.77
   4   7   1   29.60    0.77
  -4  -7  -1   28.74    0.77
  -4  -7  -1   29.03    0.79
   3   7   1  135.79    2.32
   3   7   1  135.21    2.39
   3   7   1  137.24    2.32
   3   7   1  139.82    2.48
  -3  -7  -1  135.14    2.33
  -3  -7  -1  134.09    2.47
   2   7   1   16.55    0.51
   2   7   1   15.68    0.47
   2   7   1   16.67    0.56
   2   7   1   15.87    0.54
  -2  -7  -1   16.96    0.52
  -2  -7  -1   15.78    0.55
   1   7   1   98.77    1.72
   1   7   1  100.25    1.71
   1   7   1   99.35    1.84
  -1  -7  -1   98.41    1.90
  -1  -7  -1   99.88    1.72
  -1  -7  -1   98.85    1.84
   0   7   1    0.31    0.15
   0   7   1    0.35    0.18
   0   7   1    0.37    0.14
   0  -7  -1    0.27    0.17
   0  -7  -1    0.16    0.15
   0  -7  -1    0.28    0.16
  -1   7   1   42.69    1.03
  -1   7   1   42.26    0.84
   1  -7  -1   41.45    1.03
   1  -7  -1   40.21    0.84
   1  -7  -1   40.68    0.83
   1  -7  -1   42.80    1.02
  -2   7   1   20.61    0.53
  -2   7   1   20.30    0.54
   2  -7  -1   21.06    0.54
   2  -7  -1   21.85    0.73
   2  -7  -1   20.78    0.72
   2  -7  -1   20.26    0.55
  -3   7   1   21.41    0.57
  -3   7   1   20.48    0.56
   3  -7  -1   22.21    0.79
   3  -7  -1   21.24    0.57
   3  -7  -1   21.47    0.79
  -4   7   1    6.62    0.40
  -4   7   1    5.96    0.41
   4  -7  -1    6.74    0.61
   4  -7  -1    6.28    0.59
   4  -7  -1    6.89    0.40
  -5   7   1    4.44    0.44
  -5   7   1    4.71    0.45
   5  -7  -1    4.76    0.54
   5  -7  -1    4.68    0.46
   9   8   1    2.28    0.50
   9   8   1    2.53    0.55
  -9  -8  -1    2.41    0.57
  -9  -8  -1    2.80    0.41
  -9  -8  -1    3.12    0.48
   8   8   1    3.32    0.47
   8   8   1    3.55    0.47
  -8  -8  -1    3.29    0.39
  -8  -8  -1    3.31    0.46
  -8  -8  -1    3.09    0.42
   7   8   1   15.44    0.71
   7   8   1   14.05    0.71
  -7  -8  -1   14.65    0.61
  -7  -8  -1   14.01    0.72
   6   8   1    3.34    0.40
   6   8   1    3.78    0.37
  -6  -8  -1    3.49    0.34
  -6  -8  -1    3.22    0.36
  -6  -8  -1    3.19    0.39
   5   8   1    2.86    0.33
   5   8   1    2.23    0.29
   5   8   1    2.25    0.30
   5   8   1    2.60    0.32
  -5  -8  -1    2.14    0.29
  -5  -8  -1    2.11    0.31
   4   8   1  109.79    2.28
   4   8   1  124.93    2.20
   4   8   1  127.88    2.22
   4   8   1  124.29    2.26
  -4  -8  -1  123.85    2.33
  -4  -8  -1  125.72    2.22
   3   8   1    0.61    0.19
   3   8   1    0.84    0.17
   3   8   1    0.52    0.21
   3   8   1    0.89    0.23
  -3  -8  -1    0.53    0.18
  -3  -8  -1    0.85    0.23
   2   8   1   48.10    1.09
   2   8   1   46.51    1.12
   2   8   1   47.52    1.00
   2   8   1   46.39    1.01
  -2  -8  -1   47.92    1.03
  -2  -8  -1   47.42    1.12
   1   8   1   36.25    0.79
   1   8   1   34.15    0.89
   1   8   1   33.48    0.80
  -1  -8  -1   34.45    0.92
  -1  -8  -1   34.64    0.81
  -1  -8  -1   34.80    0.89
   0   8   1   12.89    0.46
   0   8   1   13.32    0.58
   0   8   1   14.16    0.45
   0  -8  -1   13.31    0.54
   0  -8  -1   13.69    0.48
   0  -8  -1   12.74    0.58
  -1   8   1   15.22    0.47
  -1   8   1   15.24    0.66
   1  -8  -1   14.49    0.50
   1  -8  -1   14.36    0.61
   1  -8  -1   13.16    0.59
  -2   8   1   16.94    0.51
  -2   8   1   15.59    0.52
   2  -8  -1   15.45    0.53
   2  -8  -1   14.94    0.52
   2  -8  -1   16.25    0.69
   2  -8  -1   14.86    0.50
   2  -8  -1   15.57    0.70
  -3   8   1   10.03    0.45
  -3   8   1   10.31    0.47
   3  -8  -1   10.56    0.65
   3  -8  -1   10.58    0.69
   3  -8  -1   10.77    0.46
  -4   8   1   -0.53    0.25
  -4   8   1    0.30    0.26
   4  -8  -1   -0.55    0.37
   4  -8  -1    0.13    0.27
   4  -8  -1    0.19    0.37
   9   9   1   12.90    1.00
   9   9   1   10.27    0.95
  -9  -9  -1    8.02    0.77
  -9  -9  -1    9.08    0.97
  -9  -9  -1    8.12    0.70
   8   9   1    1.97    0.46
   8   9   1    2.41    0.48
   8   9   1    2.62    0.44
  -8  -9  -1    1.51    0.39
  -8  -9  -1    2.73    0.40
  -8  -9  -1    1.69    0.45
   7   9   1   23.66    0.92
   7   9   1   25.60    0.95
   7   9   1   24.80    0.90
   7   9   1   23.88    0.88
  -7  -9  -1   24.47    0.88
  -7  -9  -1   24.55    0.82
  -7  -9  -1   24.04    0.87
  -7  -9  -1   23.24    0.93
   6   9   1   11.86    0.61
   6   9   1   11.41    0.68
   6   9   1   11.39    0.60
   6   9   1   12.93    0.69
  -6  -9  -1   11.58    0.59
  -6  -9  -1   12.76    0.70
  -6  -9  -1   11.69    0.61
   5   9   1   19.43    0.70
   5   9   1   18.52    0.66
   5   9   1   19.42    0.73
   5   9   1   18.70    0.73
  -5  -9  -1   20.21    0.75
  -5  -9  -1   17.56    0.69
   4   9   1    8.29    0.52
   4   9   1    8.40    0.43
   4   9   1    7.46    0.50
   4   9   1    8.27    0.46
  -4  -9  -1    8.88    0.47
  -4  -9  -1    8.03    0.52
   3   9   1    0.66    0.19
   3   9   1    0.45    0.25
   3   9   1    0.48    0.16
   3   9   1    0.98    0.25
  -3  -9  -1    0.35    0.24
  -3  -9  -1    0.69    0.21
   2   9   1   40.30    0.95
   2   9   1   36.65    1.02
   2   9   1   42.13    0.93
  -2  -9  -1   41.66    0.98
  -2  -9  -1   41.69    1.06
   1   9   1    0.91    0.20
   1   9   1    0.86    0.24
   1   9   1    1.03    0.28
  -1  -9  -1    0.68    0.25
  -1  -9  -1    1.06    0.26
  -1  -9  -1    0.70    0.18
   0   9   1   21.14    0.63
   0   9   1   21.96    0.80
   0   9   1   21.49    0.62
   0  -9  -1   22.77    0.67
   0  -9  -1   23.11    0.77
   0  -9  -1   22.19    0.77
  -1   9   1   18.31    0.56
  -1   9   1   18.18    0.78
   1  -9  -1   17.00    0.70
   1  -9  -1   18.29    0.59
   1  -9  -1   18.59    0.76
  -2   9   1    8.84    0.49
  -2   9   1    9.42    0.47
   2  -9  -1    9.85    0.70
   2  -9  -1    9.21    0.48
   2  -9  -1    9.02    0.61
   2  -9  -1    9.17    0.49
  -3   9   1    1.95    0.30
  -3   9   1    2.29    0.30
   3  -9  -1    2.26    0.43
   3  -9  -1    2.35    0.33
   3  -9  -1    2.18    0.41
   8  10   1    8.57    0.81
   8  10   1   10.28    0.92
   8  10   1    9.31    0.92
   8  10   1   11.12    0.82
  -8 -10  -1    9.33    0.86
  -8 -10  -1   10.06    0.74
  -8 -10  -1    7.69    0.75
   7  10   1    6.39    0.60
   7  10   1    6.68    0.60
   7  10   1    6.69    0.65
   7  10   1    8.20    0.78
  -7 -10  -1    6.60    0.65
  -7 -10  -1    6.50    0.61
  -7 -10  -1    7.25    0.63
  -7 -10  -1    8.08    0.76
   6  10   1    3.47    0.39
   6  10   1    3.71    0.40
   6  10   1    3.96    0.48
   6  10   1    3.59    0.46
  -6 -10  -1    3.73    0.41
  -6 -10  -1    3.79    0.41
  -6 -10  -1    4.27    0.49
   5  10   1    9.58    0.57
   5  10   1    9.02    0.61
   5  10   1    9.41    0.49
   5  10   1    9.21    0.63
  -5 -10  -1    9.88    0.65
  -5 -10  -1    9.63    0.57
   4  10   1    2.02    0.36
   4  10   1    1.78    0.35
   4  10   1    2.24    0.26
   4  10   1    1.98    0.26
  -4 -10  -1    1.90    0.27
  -4 -10  -1    1.71    0.35
   3  10   1   30.22    0.88
   3  10   1   29.06    0.87
   3  10   1   28.05    0.92
   3  10   1   29.62    0.79
  -3 -10  -1   30.33    0.88
  -3 -10  -1   28.08    0.87
   2  10   1    0.26    0.28
   2  10   1    0.16    0.19
   2  10   1   -0.27    0.30
  -2 -10  -1    0.08    0.20
  -2 -10  -1    0.17    0.28
   1  10   1    3.59    0.31
   1  10   1    2.87    0.38
   1  10   1    3.68    0.36
  -1 -10  -1    3.67    0.39
  -1 -10  -1    3.50    0.39
  -1 -10  -1    4.51    0.47
   0  10   1   30.42    1.02
   0  10   1   30.36    0.79
   0  10   1   26.68    0.78
   0 -10  -1   29.61    0.82
   0 -10  -1   31.29    0.96
   0 -10  -1   30.41    0.99
  -1  10   1    0.10    0.25
  -1  10   1   -0.09    0.40
   1 -10  -1   -0.05    0.32
   1 -10  -1    0.25    0.26
   1 -10  -1    1.03    0.28
   1 -10  -1   -0.26    0.36
  -2  10   1    5.66    0.52
  -2  10   1    6.51    0.49
   2 -10  -1    5.91    0.65
   2 -10  -1    5.71    0.54
   2 -10  -1    6.89    0.62
   7  11   1   -0.02    0.44
   7  11   1    0.04    0.35
   7  11   1   -0.13    0.49
   7  11   1   -0.30    0.43
  -7 -11  -1   -0.20    0.37
  -7 -11  -1    0.60    0.38
  -7 -11  -1   -0.37    0.37
  -7 -11  -1   -0.13    0.46
   6  11   1    7.09    0.55
   6  11   1    7.96    0.66
   6  11   1    6.36    0.58
   6  11   1    7.06    0.76
  -6 -11  -1    8.57    0.75
  -6 -11  -1    7.53    0.66
  -6 -11  -1    7.15    0.64
   5  11   1    8.57    0.72
   5  11   1    6.22    0.58
   5  11   1    9.54    0.51
   5  11   1    7.44    0.67
  -5 -11  -1    8.81    0.72
  -5 -11  -1    8.03    0.59
   4  11   1    3.93    0.41
   4  11   1    5.01    0.52
   4  11   1    3.28    0.36
   4  11   1    5.05    0.48
  -4 -11  -1    4.37    0.48
  -4 -11  -1    4.71    0.47
   3  11   1    7.21    0.65
   3  11   1    7.67    0.61
   3  11   1    6.68    0.44
  -3 -11  -1    6.24    0.48
  -3 -11  -1    6.89    0.62
   2  11   1    0.15    0.32
   2  11   1   -0.24    0.35
   2  11   1    0.18    0.22
  -2 -11  -1    0.27    0.32
  -2 -11  -1    0.05    0.25
   1  11   1   27.65    1.04
   1  11   1   27.40    0.86
   1  11   1   28.72    0.82
  -1 -11  -1   29.43    0.94
  -1 -11  -1   27.14    0.97
  -1 -11  -1   28.60    0.89
   0  11   1    5.12    0.58
   0  11   1    6.23    0.50
   0 -11  -1    6.00    0.54
   0 -11  -1    5.32    0.55
   0 -11  -1    5.49    0.57
   0 -11  -1    6.36    0.67
  -1  11   1    4.27    0.63
  -1  11   1    4.71    0.42
  -1  11   1    4.48    0.43
   1 -11  -1    4.45    0.57
   1 -11  -1    4.36    0.45
   1 -11  -1    4.68    0.48
   1 -11  -1    5.62    0.52
   6  12   1    6.48    0.57
   6  12   1    4.94    0.54
   6  12   1    5.75    0.66
   6  12   1    5.26    0.64
  -6 -12  -1    5.87    0.66
  -6 -12  -1    3.91    0.50
  -6 -12  -1    6.10    0.56
   5  12   1    0.99    0.47
   5  12   1    1.19    0.30
   5  12   1    0.99    0.40
   5  12   1    1.67    0.50
  -5 -12  -1    1.16    0.47
  -5 -12  -1    1.07    0.48
  -5 -12  -1    1.24    0.37
   4  12   1   12.55    0.83
   4  12   1   12.56    0.59
   4  12   1   11.45    0.86
  -4 -12  -1   11.39    0.91
  -4 -12  -1   12.83    0.70
  -4 -12  -1   11.61    0.83
   3  12   1    2.03    0.48
   3  12   1    2.33    0.33
   3  12   1    2.84    0.47
  -3 -12  -1    2.31    0.36
  -3 -12  -1    2.44    0.47
  -3 -12  -1    2.59    0.52
   2  12   1   10.84    0.60
   2  12   1    8.44    0.84
   2  12   1   11.49    0.74
  -2 -12  -1   10.75    0.75
  -2 -12  -1    9.22    0.91
  -2 -12  -1    9.50    0.63
   1  12   1    9.05    0.62
   1  12   1    8.62    0.70
   1  12   1    9.28    0.95
  -1 -12  -1    8.27    0.78
  -1 -12  -1    7.50    0.63
  -1 -12  -1    8.34    0.85
  -1 -12  -1    8.60    0.71
  -1 -12   2    8.46    0.67
  -1 -12   2    7.17    0.68
  -1 -12   2    7.82    0.89
   1  12  -2    7.95    0.82
   1  12  -2    8.34    0.57
   1  12  -2    7.64    0.79
  -2 -12   2    3.19    0.44
  -2 -12   2    3.93    0.54
  -2 -12   2    4.31    0.61
   2  12  -2    5.24    0.50
   2  12  -2    3.92    0.53
   2  12  -2    4.08    0.56
  -3 -12   2    7.44    0.64
  -3 -12   2    6.52    0.65
  -3 -12   2    7.02    0.67
   3  12  -2    6.80    0.63
   3  12  -2    6.62    0.55
   3  12  -2    6.72    0.65
  -4 -12   2    1.60    0.51
  -4 -12   2    1.35    0.40
  -4 -12   2    1.33    0.50
   4  12  -2    1.06    0.47
   4  12  -2    0.94    0.52
   4  12  -2    0.61    0.33
  -5 -12   2   12.45    1.01
  -5 -12   2   12.74    0.95
  -5 -12   2   14.35    0.91
   5  12  -2   13.76    0.82
   5  12  -2   14.53    1.06
   5  12  -2   10.76    0.86
   1 -11   2    5.27    0.52
   1 -11   2    6.96    0.57
   1 -11   2    6.02    0.65
   1 -11   2    6.86    0.59
   1 -11   2    7.25    0.61
  -1  11  -2    7.44    0.70
  -1  11  -2    6.15    0.54
  -1  11  -2    5.72    0.55
   0 -11   2   24.08    0.90
   0 -11   2   22.09    0.88
   0 -11   2   24.26    0.92
   0 -11   2   22.75    0.91
   0  11  -2   22.07    0.93
   0  11  -2   23.23    0.89
   0  11  -2   23.73    0.77
  -1 -11   2    0.68    0.37
  -1 -11   2    1.29    0.38
  -1 -11   2   -0.08    0.29
   1  11  -2    0.81    0.25
   1  11  -2    0.76    0.36
   1  11  -2    0.65    0.35
  -2 -11   2    2.16    0.42
  -2 -11   2    3.10    0.46
  -2 -11   2    3.43    0.42
   2  11  -2    2.26    0.28
   2  11  -2    2.47    0.37
   2  11  -2    2.65    0.43
  -3 -11   2    7.13    0.60
  -3 -11   2    6.65    0.72
  -3 -11   2    6.52    0.57
   3  11  -2    6.68    0.48
   3  11  -2    6.05    0.60
   3  11  -2    6.97    0.58
  -4 -11   2   14.70    0.75
  -4 -11   2   13.96    0.83
  -4 -11   2   14.83    0.81
   4  11  -2   13.23    0.68
   4  11  -2   12.79    0.71
   4  11  -2   12.82    0.81
  -5 -11   2   13.57    0.80
  -5 -11   2   13.92    0.87
  -5 -11   2   14.19    0.80
   5  11  -2   12.58    0.81
   5  11  -2   11.66    0.75
   5  11  -2   12.91    0.89
   5  11  -2   12.46    0.73
  -6 -11   2    1.74    0.50
  -6 -11   2    1.69    0.40
  -6 -11   2    1.18    0.45
   6  11  -2    2.19    0.48
   6  11  -2    1.93    0.47
   6  11  -2    1.68    0.52
   6  11  -2    2.01    0.45
   3 -10   2    2.17    0.38
   3 -10   2    2.37    0.43
   3 -10   2    1.81    0.38
   3 -10   2    2.68    0.47
  -3  10  -2    2.09    0.37
  -3  10  -2    2.60    0.43
  -3  10  -2    2.23    0.48
   2 -10   2    0.11    0.31
   2 -10   2   -0.04    0.27
   2 -10   2    0.20    0.32
   2 -10   2    0.06    0.35
   2 -10   2   -0.61    0.27
  -2  10  -2   -0.20    0.25
  -2  10  -2   -0.23    0.33
  -2  10  -2    0.58    0.38
   1 -10   2   22.59    0.83
   1 -10   2   24.03    0.85
   1 -10   2   22.99    0.79
   1 -10   2   23.80    0.73
   1 -10   2   23.35    0.84
  -1  10  -2   22.68    0.79
  -1  10  -2   23.88    0.74
  -1  10  -2   24.13    0.90
   0 -10   2    3.44    0.37
   0 -10   2    3.28    0.41
   0 -10   2    2.96    0.36
   0 -10   2    3.07    0.41
   0 -10   2    3.55    0.39
   0  10  -2    3.90    0.37
   0  10  -2    3.18    0.39
   0  10  -2    2.84    0.34
  -1 -10   2    0.11    0.31
  -1 -10   2    0.43    0.30
  -1 -10   2   -0.01    0.23
   1  10  -2    0.01    0.29
   1  10  -2    0.20    0.19
   1  10  -2    0.35    0.25
  -2 -10   2   21.40    0.79
  -2 -10   2   22.07    0.85
  -2 -10   2   21.42    0.78
   2  10  -2   21.20    0.69
   2  10  -2   22.09    0.79
   2  10  -2   21.67    0.79
  -3 -10   2    0.55    0.28
  -3 -10   2    0.23    0.26
  -3 -10   2    0.65    0.31
   3  10  -2   -0.16    0.21
   3  10  -2    0.13    0.30
   3  10  -2   -0.16    0.24
  -4 -10   2   25.73    0.92
  -4 -10   2   25.28    0.88
  -4 -10   2   25.71    0.91
   4  10  -2   26.05    0.85
   4  10  -2   24.74    0.92
   4  10  -2   25.04    0.86
   4  10  -2   26.10    0.89
  -5 -10   2    6.67    0.60
  -5 -10   2    6.15    0.64
  -5 -10   2    5.16    0.55
   5  10  -2    6.61    0.59
   5  10  -2    7.07    0.70
   5  10  -2    6.45    0.57
   5  10  -2    5.76    0.61
  -6 -10   2   21.83    0.95
  -6 -10   2   22.44    0.91
  -6 -10   2   21.39    0.89
   6  10  -2   21.10    0.91
   6  10  -2   21.32    0.94
   6  10  -2   21.41    0.92
   6  10  -2   20.63    0.88
  -7 -10   2    6.37    0.52
  -7 -10   2    9.97    0.81
   7  10  -2    8.06    0.83
   7  10  -2   10.15    0.88
   7  10  -2    8.05    0.68
   7  10  -2    7.92    0.82
   4  -9   2    2.76    0.39
   4  -9   2    2.87    0.37
   4  -9   2    2.51    0.40
  -4   9  -2    2.48    0.36
  -4   9  -2    2.64    0.44
   3  -9   2    2.59    0.42
   3  -9   2    2.14    0.30
   3  -9   2    2.26    0.31
   3  -9   2    2.61    0.38
  -3   9  -2    1.45    0.29
  -3   9  -2    1.47    0.36
  -3   9  -2    1.81    0.35
   2  -9   2    7.64    0.57
   2  -9   2    7.83    0.45
   2  -9   2    7.82    0.46
   2  -9   2    8.74    0.59
   2  -9   2    7.57    0.52
  -2   9  -2    8.44    0.47
  -2   9  -2    7.61    0.55
  -2   9  -2    7.28    0.55
   1  -9   2   16.24    0.68
   1  -9   2   19.48    0.59
   1  -9   2   17.64    0.69
   1  -9   2   18.35    0.65
   1  -9   2   17.31    0.67
  -1   9  -2   18.11    0.61
  -1   9  -2   17.29    0.70
  -1   9  -2   17.59    0.67
   0  -9   2    0.40    0.27
   0  -9   2    0.62    0.18
   0  -9   2    0.04    0.20
   0  -9   2    0.26    0.20
   0  -9   2    0.55    0.25
   0   9  -2    0.60    0.21
   0   9  -2    0.28    0.24
   0   9  -2    0.76    0.18
  -1  -9   2   15.98    0.63
  -1  -9   2   16.04    0.66
  -1  -9   2   16.21    0.65
  -1  -9   2   17.20    0.66
   1   9  -2   16.40    0.64
   1   9  -2   14.36    0.56
   1   9  -2   16.81    0.64
  -2  -9   2    0.03    0.23
  -2  -9   2    0.11    0.21
  -2  -9   2    0.04    0.24
   2   9  -2    0.17    0.18
   2   9  -2   -0.12    0.19
   2   9  -2    0.30    0.24
  -3  -9   2    5.58    0.49
  -3  -9   2    5.36    0.50
  -3  -9   2    5.30    0.45
   3   9  -2    5.65    0.45
   3   9  -2    5.36    0.46
   3   9  -2    5.72    0.50
   3   9  -2    5.98    0.44
  -4  -9   2   38.65    1.08
  -4  -9   2   39.36    1.06
  -4  -9   2   37.67    1.03
   4   9  -2   38.73    1.04
   4   9  -2   38.42    1.04
   4   9  -2   37.77    1.03
   4   9  -2   38.38    1.05
  -5  -9   2   17.17    0.73
  -5  -9   2   17.16    0.71
  -5  -9   2   16.15    0.75
   5   9  -2   16.74    0.75
   5   9  -2   16.50    0.73
   5   9  -2   17.44    0.71
   5   9  -2   18.16    0.74
  -6  -9   2   21.73    0.85
  -6  -9   2   21.40    0.85
  -6  -9   2   23.85    0.90
   6   9  -2   21.94    0.88
   6   9  -2   22.61    0.87
   6   9  -2   21.20    0.85
   6   9  -2   21.88    0.84
  -7  -9   2    0.95    0.36
  -7  -9   2    1.55    0.40
  -7  -9   2    1.16    0.35
   7   9  -2    1.55    0.46
   7   9  -2    1.48    0.44
   7   9  -2    2.25    0.43
  -8  -9   2   16.08    0.91
  -8  -9   2   12.90    0.96
  -8  -9   2   15.96    0.76
   8   9  -2   17.03    1.00
   8   9  -2   14.84    0.99
   8   9  -2   16.74    1.08
   5  -8   2    3.06    0.39
   5  -8   2    3.61    0.42
  -5   8  -2    3.68    0.47
  -5   8  -2    4.30    0.43
   4  -8   2    4.33    0.43
   4  -8   2    4.12    0.44
  -4   8  -2    3.46    0.35
  -4   8  -2    4.06    0.42
   3  -8   2    6.18    0.45
   3  -8   2    5.60    0.53
   3  -8   2    5.75    0.49
   3  -8   2    5.68    0.38
  -3   8  -2    4.92    0.41
  -3   8  -2    4.95    0.48
  -3   8  -2    6.08    0.50
   2  -8   2    9.44    0.51
   2  -8   2    9.41    0.53
   2  -8   2    9.87    0.53
   2  -8   2    9.17    0.43
   2  -8   2    9.80    0.42
  -2   8  -2    9.73    0.51
  -2   8  -2   10.16    0.45
  -2   8  -2   10.22    0.51
   1  -8   2   -0.07    0.18
   1  -8   2    0.28    0.15
   1  -8   2    0.01    0.17
   1  -8   2    0.25    0.20
   1  -8   2    0.40    0.23
  -1   8  -2   -0.02    0.21
  -1   8  -2    0.39    0.16
  -1   8  -2    0.18    0.21
   0  -8   2   33.46    0.85
   0  -8   2   31.85    0.85
   0  -8   2   33.35    0.90
   0  -8   2   32.11    0.80
   0  -8   2   33.07    0.89
   0   8  -2   32.59    0.84
   0   8  -2   33.56    0.82
   0   8  -2   32.88    0.90
  -1  -8   2   12.67    0.55
  -1  -8   2   12.47    0.48
  -1  -8   2   12.87    0.56
  -1  -8   2   12.41    0.55
  -1  -8   2   12.94    0.54
   1   8  -2   13.00    0.54
   1   8  -2   12.81    0.49
   1   8  -2   10.99    0.52
  -2  -8   2    0.74    0.21
  -2  -8   2    1.07    0.24
  -2  -8   2    0.70    0.24
   2   8  -2    0.63    0.19
   2   8  -2    0.92    0.21
   2   8  -2    0.89    0.24
  -3  -8   2   67.12    1.61
  -3  -8   2   80.65    1.61
  -3  -8   2   79.70    1.58
   3   8  -2   79.25    1.57
   3   8  -2   79.71    1.60
   3   8  -2   79.42    1.61
   3   8  -2   80.66    1.58
  -4  -8   2    2.96    0.32
  -4  -8   2    2.77    0.35
  -4  -8   2    2.41    0.28
   4   8  -2    2.57    0.32
   4   8  -2    2.68    0.32
   4   8  -2    2.76    0.34
   4   8  -2    2.92    0.32
  -5  -8   2    3.35    0.38
  -5  -8   2    3.58    0.38
  -5  -8   2    3.03    0.35
   5   8  -2    3.10    0.35
   5   8  -2    3.23    0.35
   5   8  -2    3.63    0.36
   5   8  -2    3.14    0.36
  -6  -8   2    8.31    0.55
  -6  -8   2    8.22    0.58
   6   8  -2    7.39    0.63
   6   8  -2    7.93    0.59
   6   8  -2    8.17    0.58
  -7  -8   2    2.55    0.43
  -7  -8   2    3.69    0.36
  -7  -8   2    2.89    0.41
   7   8  -2    3.80    0.48
   7   8  -2    3.49    0.43
   7   8  -2    4.16    0.49
  -8  -8   2    1.44    0.49
  -8  -8   2    2.60    0.43
  -8  -8   2    2.29    0.34
   8   8  -2    3.20    0.55
   8   8  -2    2.80    0.46
   8   8  -2    1.97    0.55
   6  -7   2    7.24    0.63
   6  -7   2    8.10    0.74
  -6   7  -2    8.82    0.73
  -6   7  -2    7.20    0.67
   5  -7   2   11.82    0.66
   5  -7   2   11.84    0.56
  -5   7  -2   12.22    0.66
  -5   7  -2   13.17    0.61
   4  -7   2    2.79    0.29
   4  -7   2    2.76    0.31
  -4   7  -2    2.97    0.30
  -4   7  -2    2.61    0.34
   3  -7   2   28.31    0.72
   3  -7   2   28.70    0.79
   3  -7   2   25.90    0.83
  -3   7  -2   27.50    0.77
  -3   7  -2   27.94    0.83
  -3   7  -2   27.69    0.74
   2  -7   2   14.07    0.56
   2  -7   2   13.61    0.54
   2  -7   2   13.61    0.44
   2  -7   2   14.35    0.57
   2  -7   2   13.46    0.46
  -2   7  -2   14.51    0.49
  -2   7  -2   14.04    0.56
  -2   7  -2   13.16    0.52
   1  -7   2   16.18    0.58
   1  -7   2   15.83    0.51
   1  -7   2   15.77    0.54
   1  -7   2   16.14    0.57
   1  -7   2   15.10    0.48
  -1   7  -2   15.46    0.56
  -1   7  -2   16.24    0.51
  -1   7  -2   15.97    0.55
   0  -7   2   38.53    0.89
   0  -7   2   36.82    0.92
   0  -7   2   39.13    0.94
   0  -7   2   37.69    0.86
   0  -7   2   38.89    0.88
   0   7  -2   37.90    0.86
   0   7  -2   38.74    0.88
   0   7  -2   37.92    0.93
  -1  -7   2    0.48    0.18
  -1  -7   2    0.15    0.17
  -1  -7   2    0.43    0.14
  -1  -7   2    0.16    0.16
  -1  -7   2    0.36    0.15
   1   7  -2    0.37    0.14
   1   7  -2    0.18    0.15
   1   7  -2    0.34    0.18
  -2  -7   2   47.05    1.05
  -2  -7   2   48.37    1.10
  -2  -7   2   46.54    1.04
   2   7  -2   46.89    1.02
   2   7  -2   46.24    1.06
   2   7  -2   46.56    1.03
   2   7  -2   46.63    1.04
  -3  -7   2   17.49    0.60
  -3  -7   2   17.40    0.60
  -3  -7   2   18.35    0.58
   3   7  -2   18.20    0.60
   3   7  -2   17.86    0.59
   3   7  -2   17.83    0.60
   3   7  -2   17.65    0.57
  -4  -7   2    7.43    0.49
  -4  -7   2    8.25    0.44
  -4  -7   2    7.53    0.44
   4   7  -2    7.25    0.45
   4   7  -2    7.44    0.42
   4   7  -2    7.16    0.44
   4   7  -2    7.00    0.41
  -5  -7   2   16.52    0.64
  -5  -7   2   15.73    0.62
  -5  -7   2   16.53    0.66
   5   7  -2   16.81    0.63
   5   7  -2   16.11    0.62
   5   7  -2   15.31    0.66
  -6  -7   2    3.32    0.37
  -6  -7   2    4.32    0.40
   6   7  -2    4.79    0.51
   6   7  -2    3.71    0.43
   6   7  -2    4.12    0.44
  -7  -7   2   10.70    0.50
  -7  -7   2    9.98    0.69
  -7  -7   2   11.74    0.62
   7   7  -2   11.42    0.70
   7   7  -2   11.00    0.61
   7   7  -2   11.05    0.76
  -8  -7   2    2.28    0.50
  -8  -7   2    2.16    0.37
   8   7  -2    2.17    0.38
   8   7  -2    3.18    0.51
   8   7  -2    2.68    0.53
   6  -6   2    6.32    0.60
   6  -6   2    5.51    0.50
  -6   6  -2    6.84    0.56
  -6   6  -2    6.60    0.61
   5  -6   2   13.38    0.53
   5  -6   2   12.80    0.62
  -5   6  -2   13.01    0.54
  -5   6  -2   12.75    0.61
   4  -6   2   10.09    0.43
   4  -6   2    9.72    0.52
  -4   6  -2    9.63    0.50
  -4   6  -2   10.27    0.46
   3  -6   2   20.18    0.62
   3  -6   2   17.81    0.54
   3  -6   2   21.34    0.69
  -3   6  -2   19.91    0.61
  -3   6  -2   20.29    0.67
  -3   6  -2   21.15    0.59
   2  -6   2    0.25    0.18
   2  -6   2    0.27    0.17
   2  -6   2    0.26    0.12
   2  -6   2    0.33    0.13
  -2   6  -2    0.45    0.13
  -2   6  -2    0.04    0.17
  -2   6  -2    0.32    0.16
   1  -6   2   69.64    1.41
   1  -6   2   71.93    1.33
   1  -6   2   70.13    1.42
   1  -6   2   69.19    1.31
   1  -6   2   71.28    1.32
  -1   6  -2   72.33    1.32
  -1   6  -2   68.94    1.31
  -1   6  -2   70.29    1.41
   0  -6   2    6.41    0.35
   0  -6   2    6.37    0.33
   0  -6   2    6.61    0.35
   0  -6   2    6.35    0.31
   0  -6   2    6.16    0.34
   0   6  -2    7.06    0.32
   0   6  -2    6.14    0.34
   0   6  -2    6.39    0.35
  -1  -6   2    1.07    0.16
  -1  -6   2    0.79    0.18
  -1  -6   2    0.75    0.17
  -1  -6   2    0.81    0.17
  -1  -6   2    0.63    0.17
   1   6  -2    0.89    0.17
   1   6  -2    0.79    0.16
   1   6  -2    0.58    0.16
  -2  -6   2   37.03    0.89
  -2  -6   2   37.36    0.85
  -2  -6   2   37.79    0.86
   2   6  -2   38.47    0.85
   2   6  -2   38.53    0.88
   2   6  -2   37.92    0.85
   2   6  -2   37.02    0.85
  -3  -6   2   19.38    0.62
  -3  -6   2   18.58    0.57
  -3  -6   2   19.47    0.59
   3   6  -2   19.32    0.57
   3   6  -2   19.64    0.59
   3   6  -2   19.90    0.59
   3   6  -2   19.49    0.59
  -4  -6   2   25.79    0.72
  -4  -6   2   25.76    0.70
  -4  -6   2   25.36    0.76
   4   6  -2   26.06    0.73
   4   6  -2   26.32    0.72
   4   6  -2   26.03    0.69
  -5  -6   2   12.48    0.54
  -5  -6   2   11.03    0.55
   5   6  -2   12.76    0.52
   5   6  -2   12.16    0.53
   5   6  -2   12.80    0.58
  -6  -6   2   22.45    0.58
  -6  -6   2   23.27    0.83
  -6  -6   2   24.14    0.75
   6   6  -2   23.17    0.72
   6   6  -2   22.96    0.77
   6   6  -2   23.20    0.81
  -7  -6   2   35.23    0.95
  -7  -6   2   33.54    0.73
  -7  -6   2   33.74    1.08
   7   6  -2   34.49    1.07
   7   6  -2   35.38    1.01
   7   6  -2   34.64    0.95
  -8  -6   2    0.63    0.45
  -8  -6   2    0.56    0.29
   8   6  -2   -0.53    0.31
   8   6  -2    0.57    0.38
   8   6  -2    0.12    0.45
  -9  -6   2    5.93    0.62
  -9  -6   2    4.67    0.71
   9   6  -2    5.99    0.68
   7  -5   2    0.76    0.42
   7  -5   2   -0.58    0.35
   7  -5   2   -0.27    0.32
  -7   5  -2    0.30    0.39
  -7   5  -2    0.07    0.32
   6  -5   2    5.20    0.53
   6  -5   2    5.83    0.44
   6  -5   2    6.82    0.58
  -6   5  -2    6.07    0.48
  -6   5  -2    5.95    0.55
   5  -5   2    0.03    0.21
   5  -5   2   -0.06    0.18
  -5   5  -2    0.07    0.25
  -5   5  -2    0.40    0.21
   4  -5   2    4.43    0.38
   4  -5   2    6.00    0.31
  -4   5  -2    5.35    0.38
  -4   5  -2    5.53    0.34
   3  -5   2   52.45    1.15
   3  -5   2   51.75    1.06
   3  -5   2   51.82    1.03
  -3   5  -2   51.23    1.15
  -3   5  -2   53.04    1.05
  -3   5  -2   51.35    1.03
   2  -5   2   47.66    1.04
   2  -5   2   46.60    0.95
   2  -5   2   46.87    0.87
   2  -5   2   47.51    0.94
  -2   5  -2   46.34    0.94
  -2   5  -2   46.96    0.94
  -2   5  -2   46.98    1.03
   1  -5   2   30.94    0.76
   1  -5   2   31.66    0.71
   1  -5   2   31.66    0.67
   1  -5   2   31.21    0.69
  -1   5  -2   30.56    0.75
  -1   5  -2   31.23    0.70
  -1   5  -2   31.13    0.69
   0  -5   2    0.02    0.14
   0  -5   2   -0.02    0.12
   0  -5   2    0.14    0.11
   0  -5   2   -0.06    0.13
   0  -5   2   -0.06    0.12
   0   5  -2    0.01    0.14
   0   5  -2    0.44    0.14
   0   5  -2    0.15    0.13
  -1  -5   2   67.75    1.26
  -1  -5   2   68.39    1.33
  -1  -5   2   67.74    1.26
  -1  -5   2   68.94    1.30
   1   5  -2   71.13    1.28
   1   5  -2   69.55    1.32
   1   5  -2   67.94    1.26
  -2  -5   2   57.49    1.13
  -2  -5   2   58.13    1.19
  -2  -5   2   56.83    1.12
   2   5  -2   57.47    1.12
   2   5  -2   58.12    1.12
   2   5  -2   59.23    1.17
   2   5  -2   58.14    1.12
  -3  -5   2   28.76    0.70
  -3  -5   2   28.90    0.69
  -3  -5   2   28.86    0.75
   3   5  -2   28.61    0.70
   3   5  -2   29.49    0.72
   3   5  -2   28.84    0.68
  -4  -5   2   73.41    1.42
  -4  -5   2   75.94    1.53
  -4  -5   2   74.53    1.42
   4   5  -2   74.62    1.42
   4   5  -2   73.24    1.42
   4   5  -2   74.55    1.43
  -5  -5   2   13.84    0.58
  -5  -5   2   13.27    0.50
   5   5  -2   12.72    0.56
   5   5  -2   12.84    0.50
   5   5  -2   12.51    0.48
  -6  -5   2  125.83    2.25
  -6  -5   2  123.52    2.39
  -6  -5   2  120.04    1.98
   6   5  -2  122.18    2.22
   6   5  -2  122.73    2.26
  -7  -5   2   13.52    0.74
  -7  -5   2   14.16    0.58
   7   5  -2   13.49    0.66
   7   5  -2   12.80    0.54
  -8  -5   2   14.97    0.89
  -8  -5   2   14.47    0.64
   8   5  -2   15.61    0.63
   8   5  -2   16.27    0.81
  -9  -5   2    1.95    0.58
  -9  -5   2    1.19    0.36
   9   5  -2    1.48    0.57
   9   5  -2    1.40    0.43
   8  -4   2    1.44    0.38
   8  -4   2    2.31    0.43
  -8   4  -2    2.32    0.48
  -8   4  -2    1.75    0.40
   7  -4   2    5.54    0.60
   7  -4   2    6.53    0.56
   7  -4   2    4.89    0.45
  -7   4  -2    5.61    0.60
  -7   4  -2    4.99    0.48
   6  -4   2   15.29    0.63
   6  -4   2   13.59    0.52
   6  -4   2   14.17    0.60
  -6   4  -2   14.24    0.62
  -6   4  -2   14.37    0.56
   5  -4   2    1.56    0.24
   5  -4   2    1.33    0.19
  -5   4  -2    1.80    0.26
  -5   4  -2    1.84    0.24
   4  -4   2   30.41    0.70
   4  -4   2   29.81    0.81
  -4   4  -2   30.51    0.72
  -4   4  -2   30.69    0.73
   3  -4   2    1.48    0.20
   3  -4   2    1.62    0.21
   3  -4   2    1.53    0.16
  -3   4  -2    1.46    0.17
  -3   4  -2    1.27    0.21
  -3   4  -2    1.66    0.20
   2  -4   2  411.30    6.39
   2  -4   2  398.47    6.38
   2  -4   2  402.00    6.13
   2  -4   2  405.82    6.13
  -2   4  -2  401.32    6.13
  -2   4  -2  393.26    6.12
  -2   4  -2  393.73    6.37
   1  -4   2  154.99    2.49
   1  -4   2  156.84    2.50
   1  -4   2  157.80    2.58
   1  -4   2  152.44    2.61
  -1   4  -2  150.15    2.60
  -1   4  -2  154.84    2.49
  -1   4  -2  157.34    2.50
   0  -4   2   44.74    0.89
   0  -4   2   45.81    0.89
   0  -4   2   44.28    0.91
   0  -4   2   43.85    0.86
   0  -4   2   44.74    0.87
   0   4  -2   45.54    0.91
   0   4  -2   45.04    0.87
   0   4  -2   43.73    0.86
  -1  -4   2   25.91    0.62
  -1  -4   2   25.41    0.58
  -1  -4   2   25.87    0.59
   1   4  -2   25.25    0.58
   1   4  -2   25.15    0.62
   1   4  -2   25.53    0.59
   1   4  -2   26.07    0.59
  -2  -4   2   57.68    1.17
  -2  -4   2   56.11    1.07
  -2  -4   2   57.33    1.07
   2   4  -2   57.37    1.07
   2   4  -2   55.82    1.07
   2   4  -2   56.97    1.08
  -3  -4   2  125.87    2.27
  -3  -4   2  124.15    2.14
  -3  -4   2  124.16    2.12
   3   4  -2  126.94    2.12
   3   4  -2  126.26    2.14
   3   4  -2  125.05    2.12
  -4  -4   2   33.38    0.83
  -4  -4   2   33.76    0.78
   4   4  -2   34.00    0.80
   4   4  -2   33.29    0.75
   4   4  -2   34.33    0.77
  -5  -4   2    1.10    0.22
  -5  -4   2    1.11    0.18
  -5  -4   2    1.32    0.14
   5   4  -2    1.26    0.21
   5   4  -2    1.10    0.18
  -6  -4   2    0.34    0.17
  -6  -4   2    0.25    0.23
   6   4  -2    0.20    0.16
   6   4  -2   -0.15    0.23
  -7  -4   2    8.97    0.48
  -7  -4   2    8.68    0.65
   7   4  -2    8.35    0.45
   7   4  -2    8.97    0.59
  -8  -4   2    4.89    0.47
  -8  -4   2    4.98    0.52
   8   4  -2    5.27    0.46
   8   4  -2    4.46    0.50
  -9  -4   2   -0.09    0.35
  -9  -4   2    0.02    0.52
   9   4  -2    0.19    0.39
   9   4  -2    0.50    0.55
   8  -3   2    2.11    0.34
   8  -3   2    0.69    0.34
   8  -3   2    1.51    0.35
  -8   3  -2    1.75    0.45
  -8   3  -2    1.41    0.34
   7  -3   2   14.32    0.61
   7  -3   2   12.95    0.53
   7  -3   2   12.87    0.63
  -7   3  -2   13.71    0.67
  -7   3  -2   13.97    0.59
   6  -3   2    4.97    0.34
   6  -3   2    6.59    0.42
   6  -3   2    4.57    0.43
  -6   3  -2    5.90    0.40
  -6   3  -2    6.02    0.46
   5  -3   2   63.82    1.20
   5  -3   2   61.51    1.33
   5  -3   2   60.09    1.19
  -5   3  -2   59.82    1.22
  -5   3  -2   62.74    1.22
   4  -3   2   19.74    0.51
   4  -3   2   20.22    0.60
  -4   3  -2   19.02    0.55
  -4   3  -2   20.45    0.54
   3  -3   2   59.57    1.18
   3  -3   2   61.42    1.12
   3  -3   2   59.26    1.10
  -3   3  -2   58.87    1.18
  -3   3  -2   59.17    1.10
  -3   3  -2   59.48    1.10
   2  -3   2   93.59    1.58
   2  -3   2   95.40    1.55
   2  -3   2   94.02    1.67
   2  -3   2   93.34    1.58
  -2   3  -2   91.65    1.66
  -2   3  -2   94.12    1.58
  -2   3  -2   94.46    1.58
   1  -3   2   33.31    0.71
   1  -3   2   34.41    0.68
   1  -3   2   34.90    0.66
   1  -3   2   34.87    0.68
  -1   3  -2   34.33    0.66
  -1   3  -2   34.52    0.68
  -1   3  -2   34.70    0.72
  -1   3  -2   34.37    0.68
   0  -3   2    1.78    0.17
   0  -3   2    2.08    0.18
   0  -3   2    1.83    0.18
   0  -3   2    1.89    0.18
   0  -3   2    1.95    0.19
   0   3  -2    2.35    0.19
   0   3  -2    1.74    0.18
   0   3  -2    1.91    0.17
   0   3  -2    1.73    0.18
  -1  -3   2    7.92    0.28
  -1  -3   2    7.73    0.28
  -1  -3   2    8.06    0.26
  -1  -3   2    8.03    0.30
   1   3  -2    8.16    0.28
   1   3  -2    8.11    0.30
   1   3  -2    7.53    0.30
   1   3  -2    7.88    0.25
   1   3  -2    7.58    0.29
  -2  -3   2   49.55    1.00
  -2  -3   2   49.20    0.93
  -2  -3   2   49.06    0.91
   2   3  -2   49.88    0.93
   2   3  -2   49.52    0.94
   2   3  -2   49.80    1.00
   2   3  -2   49.69    0.91
  -3  -3   2   94.37    1.64
  -3  -3   2   94.91    1.76
   3   3  -2   94.39    1.64
   3   3  -2   97.06    1.65
   3   3  -2   96.55    1.65
  -4  -3   2    0.01    0.14
  -4  -3   2    0.11    0.12
   4   3  -2    0.19    0.13
   4   3  -2    0.16    0.12
  -5  -3   2   24.73    0.72
  -5  -3   2   26.40    0.67
   5   3  -2   25.37    0.66
   5   3  -2   26.71    0.68
  -6  -3   2    2.18    0.31
  -6  -3   2    2.08    0.24
   6   3  -2    2.52    0.31
   6   3  -2    1.97    0.22
  -7  -3   2    9.43    0.63
  -7  -3   2    9.43    0.47
   7   3  -2   10.00    0.60
   7   3  -2    8.70    0.43
  -8  -3   2    3.10    0.32
  -8  -3   2    2.57    0.43
   8   3  -2    3.70    0.49
   8   3  -2    3.51    0.31
  -9  -3   2    0.66    0.54
  -9  -3   2   -0.04    0.37
   9   3  -2    0.44    0.40
   9   3  -2    0.63    0.55
   8  -2   2    5.49    0.48
   8  -2   2    7.12    0.59
   8  -2   2    5.51    0.50
  -8   2  -2    5.62    0.51
  -8   2  -2    6.85    0.51
   7  -2   2    3.24    0.30
   7  -2   2    3.30    0.34
   7  -2   2    3.57    0.34
  -7   2  -2    3.36    0.38
  -7   2  -2    3.68    0.39
   6  -2   2    5.67    0.36
   6  -2   2    5.14    0.39
   6  -2   2    5.08    0.31
  -6   2  -2    5.34    0.44
  -6   2  -2    5.44    0.37
   5  -2   2   24.37    0.59
   5  -2   2   23.22    0.60
   5  -2   2   24.13    0.68
  -5   2  -2   23.67    0.62
  -5   2  -2   22.96    0.64
   4  -2   2    5.00    0.27
   4  -2   2    4.65    0.26
   4  -2   2    4.99    0.31
  -4   2  -2    4.62    0.30
  -4   2  -2    4.76    0.28
   3  -2   2  135.78    2.18
   3  -2   2  132.42    2.28
  -3   2  -2  132.43    2.18
  -3   2  -2  136.88    2.19
   2  -2   2    3.01    0.19
   2  -2   2    2.75    0.14
   2  -2   2    2.57    0.21
   2  -2   2    2.71    0.21
  -2   2  -2    2.90    0.14
  -2   2  -2    2.59    0.20
  -2   2  -2    2.87    0.20
  -2   2  -2    2.72    0.21
   1  -2   2    0.81    0.09
   1  -2   2    0.81    0.12
   1  -2   2    0.66    0.10
   1  -2   2    0.72    0.12
  -1   2  -2    0.69    0.11
  -1   2  -2    0.68    0.11
  -1   2  -2    0.75    0.10
  -1   2  -2    0.73    0.09
   0  -2   2    3.70    0.20
   0  -2   2    3.72    0.19
   0  -2   2    3.99    0.17
   0  -2   2    3.71    0.19
   0  -2   2    3.93    0.19
   0   2  -2    3.84    0.20
   0   2  -2    4.07    0.20
   0   2  -2    3.95    0.19
   0   2  -2    3.78    0.19
  -1  -2   2    1.64    0.13
  -1  -2   2    1.54    0.16
  -1  -2   2    1.60    0.19
  -1  -2   2    1.50    0.16
   1   2  -2    1.62    0.17
   1   2  -2    1.55    0.16
   1   2  -2    1.54    0.13
   1   2  -2    1.45    0.19
  -2  -2   2   99.64    1.75
  -2  -2   2   99.42    1.63
   2   2  -2  102.10    1.64
   2   2  -2   97.64    1.75
   2   2  -2   97.27    1.63
   2   2  -2   98.09    1.63
  -3  -2   2   27.47    0.62
  -3  -2   2   29.92    0.69
   3   2  -2   29.08    0.61
   3   2  -2   29.35    0.63
   3   2  -2   29.11    0.70
  -4  -2   2   24.68    0.65
  -4  -2   2   24.98    0.60
   4   2  -2   24.58    0.59
   4   2  -2   26.50    0.61
  -5  -2   2   66.73    1.26
  -5  -2   2   65.77    1.33
   5   2  -2   64.86    1.24
  -6  -2   2   19.48    0.67
  -6  -2   2   20.01    0.60
   6   2  -2   18.73    0.54
  -7  -2   2   16.78    0.69
  -7  -2   2   17.45    0.60
   7   2  -2   15.86    0.71
   7   2  -2   16.33    0.55
  -8  -2   2   -0.25    0.37
  -8  -2   2    0.16    0.28
   8   2  -2    0.29    0.39
   9  -1   2    0.75    0.41
   9  -1   2    0.64    0.34
  -9   1  -2    0.75    0.48
  -9   1  -2    0.37    0.36
   8  -1   2    3.77    0.37
   8  -1   2    4.44    0.41
   8  -1   2    5.36    0.41
  -8   1  -2    4.67    0.44
  -8   1  -2    3.95    0.45
   7  -1   2    0.90    0.19
   7  -1   2    0.44    0.22
   7  -1   2    0.90    0.21
  -7   1  -2    0.60    0.27
  -7   1  -2    1.07    0.23
   6  -1   2   22.16    0.69
   6  -1   2   21.47    0.55
   6  -1   2   21.27    0.60
  -6   1  -2   21.42    0.62
  -6   1  -2   22.18    0.66
   5  -1   2   44.83    1.01
   5  -1   2   45.16    0.94
   5  -1   2   47.41    0.88
  -5   1  -2   45.94    0.95
  -5   1  -2   45.53    0.95
   4  -1   2   77.55    1.32
   4  -1   2   76.67    1.37
   4  -1   2   77.05    1.44
  -4   1  -2   77.43    1.37
  -4   1  -2   78.31    1.38
   3  -1   2   54.53    1.00
   3  -1   2   54.99    1.04
   3  -1   2   56.03    0.97
  -3   1  -2   54.41    1.00
  -3   1  -2   56.05    1.01
   2  -1   2  235.35    3.67
   2  -1   2  241.06    3.67
   2  -1   2  237.16    3.78
  -2   1  -2  242.29    3.68
  -2   1  -2  239.32    3.78
  -2   1  -2  236.28    3.67
  -2   1  -2  246.74    3.84
   1  -1   2  347.43    5.31
  -1   1  -2  355.77    5.30
  -1   1  -2  353.64    5.44
  -1   1  -2  352.54    5.29
   0  -1   2  179.07    2.92
   0  -1   2  177.11    2.74
   0  -1   2  179.55    2.74
   0  -1   2  181.56    2.74
   0   1  -2  186.25    2.74
   0   1  -2  179.70    2.81
   0   1  -2  177.76    2.74
   0   1  -2  175.43    2.92
  -1  -1   2  163.14    2.50
  -1  -1   2  159.52    2.49
  -1  -1   2  166.00    2.46
  -1  -1   2  160.93    2.68
   1   1  -2  159.49    2.49
   1   1  -2  163.21    2.49
   1   1  -2  163.98    2.55
   1   1  -2  161.36    2.68
  -2  -1   2    0.76    0.12
  -2  -1   2    0.55    0.10
   2   1  -2    0.69    0.12
   2   1  -2    0.66    0.10
  -3  -1   2   17.95    0.48
  -3  -1   2   16.57    0.43
   3   1  -2   16.81    0.42
   3   1  -2   16.94    0.49
  -4  -1   2   98.10    1.76
  -4  -1   2   94.65    1.64
   4   1  -2   97.24    1.64
  -5  -1   2    0.16    0.17
  -5  -1   2    0.24    0.14
   5   1  -2    0.50    0.13
  -6  -1   2   55.15    1.12
  -6  -1   2   53.26    1.17
   6   1  -2   52.51    1.09
  -7  -1   2    8.03    0.56
  -7  -1   2    8.07    0.47
   7   1  -2    7.74    0.44
  -8  -1   2    4.06    0.40
  -8  -1   2    3.94    0.43
   8   1  -2    3.81    0.37
   9   0   2    5.07    0.51
   9   0   2    4.68    0.46
  -9   0  -2    4.77    0.55
  -9   0  -2    5.15    0.51
   8   0   2    1.06    0.30
   8   0   2    0.86    0.22
   8   0   2    0.90    0.23
  -8   0  -2    1.03    0.24
  -8   0  -2    1.00    0.24
   7   0   2   16.65    0.48
   7   0   2   17.10    0.55
  -7   0  -2   16.49    0.58
  -7   0  -2   16.42    0.52
   6   0   2   33.27    0.80
   6   0   2   35.12    0.71
  -6   0  -2   35.04    0.75
  -6   0  -2   34.46    0.82
   5   0   2    6.58    0.28
   5   0   2    6.80    0.31
  -5   0  -2    6.47    0.32
   4   0   2   25.73    0.54
   4   0   2   25.08    0.59
  -4   0  -2   25.16    0.59
   3   0   2   -0.02    0.09
   3   0   2    0.04    0.09
  -3   0  -2    0.07    0.09
  -3   0  -2    0.09    0.11
   0   0   2    4.10    0.19
   0   0   2    4.13    0.15
   0   0   2    4.11    0.16
   0   0  -2    4.05    0.19
   0   0  -2    4.16    0.14
   0   0  -2    4.22    0.15
   0   0  -2    4.31    0.16
  -1   0   2  146.54    2.24
  -1   0   2  150.27    2.23
  -1   0   2  147.67    2.43
   1   0  -2  148.16    2.23
   1   0  -2  147.57    2.24
   1   0  -2  144.27    2.43
   1   0  -2  147.88    2.24
  -2   0   2   13.84    0.32
  -2   0   2   13.93    0.37
   2   0  -2   13.63    0.37
   2   0  -2   13.78    0.31
  -3   0   2   14.08    0.37
  -3   0   2   14.54    0.42
   3   0  -2   13.86    0.36
   3   0  -2   15.40    0.44
  -4   0   2    2.45    0.25
  -4   0   2    2.18    0.22
   4   0  -2    2.26    0.25
   4   0  -2    2.03    0.20
  -5   0   2   21.38    0.59
  -5   0   2   22.17    0.57
   5   0  -2   20.29    0.55
  -6   0   2    2.71    0.27
  -6   0   2    2.82    0.27
   6   0  -2    3.09    0.31
  -7   0   2    1.44    0.31
  -7   0   2    1.40    0.27
   7   0  -2    1.37    0.25
  -8   0   2    3.20    0.40
  -8   0   2    3.06    0.39
   8   0  -2    3.00    0.37
   9   1   2    9.55    0.55
  -9  -1  -2    9.35    0.63
  -9  -1  -2    8.09    0.56
   8   1   2    3.25    0.34
   8   1   2    3.43    0.30
  -8  -1  -2    4.14    0.41
  -8  -1  -2    3.41    0.34
   7   1   2   20.14    0.60
   7   1   2   20.10    0.52
  -7  -1  -2   21.06    0.67
  -7  -1  -2   19.97    0.64
   6   1   2   11.11    0.41
   6   1   2   10.95    0.35
  -6  -1  -2    9.52    0.42
   5   1   2   74.51    1.37
   5   1   2   78.15    1.28
  -5  -1  -2   72.75    1.27
  -5  -1  -2   74.86    1.38
   4   1   2  264.24    3.92
   4   1   2  250.72    3.98
  -4  -1  -2  250.48    3.98
  -4  -1  -2  255.13    3.92
   3   1   2   70.79    1.22
   3   1   2   73.17    1.19
  -3  -1  -2   70.58    1.22
  -3  -1  -2   71.06    1.19
   2   1   2  196.42    3.12
   2   1   2  190.60    2.98
   2   1   2  198.37    2.98
  -2  -1  -2  192.68    2.98
  -2  -1  -2  190.16    2.98
   1   1   2   25.96    0.48
   1   1   2   23.69    0.45
   1   1   2   25.66    0.48
  -1  -1  -2   25.36    0.48
  -1  -1  -2   26.05    0.48
  -1   1   2    4.02    0.19
   1  -1  -2    3.81    0.18
   1  -1  -2    3.85    0.15
  -2   1   2   12.37    0.34
  -2   1   2   11.60    0.27
   2  -1  -2   11.50    0.27
   2  -1  -2   12.17    0.27
   2  -1  -2   11.43    0.33
  -3   1   2  125.18    2.08
  -3   1   2  121.14    1.93
   3  -1  -2  119.65    2.07
   3  -1  -2  122.27    1.93
  -4   1   2    2.11    0.19
  -4   1   2    2.35    0.22
   4  -1  -2    2.37    0.25
   4  -1  -2    1.92    0.17
  -5   1   2   40.70    0.84
  -5   1   2   39.80    0.85
   5  -1  -2   40.49    0.83
  -6   1   2    6.56    0.42
  -6   1   2    6.74    0.41
   6  -1  -2    7.18    0.38
  -7   1   2    1.29    0.27
  -7   1   2    1.61    0.31
   7  -1  -2    1.09    0.28
  -8   1   2    1.41    0.39
   8  -1  -2    0.30    0.40
   8  -1  -2    1.54    0.37
  10   2   2    9.00    0.96
 -10  -2  -2    8.46    0.85
 -10  -2  -2    8.22    0.66
   9   2   2    1.54    0.29
  -9  -2  -2    1.88    0.40
  -9  -2  -2    1.42    0.29
   8   2   2    1.97    0.23
  -8  -2  -2    1.81    0.34
  -8  -2  -2    0.84    0.24
   7   2   2   26.65    0.60
   7   2   2   25.45    0.70
  -7  -2  -2   24.36    0.73
   6   2   2   10.99    0.36
   6   2   2   10.29    0.41
  -6  -2  -2   10.56    0.35
  -6  -2  -2   11.17    0.44
   5   2   2   87.26    1.46
   5   2   2   87.28    1.57
  -5  -2  -2   87.49    1.57
  -5  -2  -2   87.40    1.46
   4   2   2    7.41    0.28
   4   2   2    7.45    0.35
   4   2   2    7.33    0.32
  -4  -2  -2    7.13    0.34
  -4  -2  -2    7.35    0.28
   3   2   2   70.57    1.17
   3   2   2   67.56    1.20
   3   2   2   69.01    1.26
  -3  -2  -2   68.49    1.17
  -3  -2  -2   70.47    1.20
   2   2   2   23.69    0.49
   2   2   2   24.66    0.49
   2   2   2   23.90    0.52
  -2  -2  -2   23.99    0.49
  -2  -2  -2   25.01    0.49
  -2  -2  -2   23.97    0.52
   1   2   2   29.74    0.51
   1   2   2   30.26    0.59
  -1  -2  -2   30.46    0.51
  -1  -2  -2   29.01    0.57
  -1  -2  -2   29.79    0.52
  -1  -2  -2   28.99    0.58
   0  -2  -2    9.75    0.25
   0  -2  -2   10.13    0.28
   1  -2  -2   20.14    0.47
   1  -2  -2   20.69    0.45
  -2   2   2   42.86    0.70
   2  -2  -2   41.97    0.88
   2  -2  -2   44.68    0.71
   2  -2  -2   42.10    0.81
  -3   2   2   94.95    1.51
  -3   2   2   94.30    1.51
   3  -2  -2   92.31    1.63
   3  -2  -2   96.84    1.52
  -4   2   2   27.33    0.58
  -4   2   2   27.39    0.58
   4  -2  -2   26.12    0.60
   4  -2  -2   26.89    0.58
  -5   2   2   72.07    1.27
  -5   2   2   68.57    1.27
   5  -2  -2   70.90    1.27
   5  -2  -2   70.78    1.51
  -6   2   2    3.22    0.32
  -6   2   2    3.40    0.30
   6  -2  -2    3.37    0.37
   6  -2  -2    3.32    0.35
  -7   2   2    8.60    0.57
  -7   2   2    8.96    0.55
   7  -2  -2    8.07    0.51
   7  -2  -2    9.83    0.69
  10   3   2    1.58    0.39
  10   3   2    0.17    0.51
 -10  -3  -2    1.77    0.37
 -10  -3  -2    1.20    0.52
   9   3   2   -0.29    0.28
   9   3   2   -0.10    0.37
  -9  -3  -2    0.50    0.41
  -9  -3  -2    0.09    0.28
   8   3   2    5.33    0.49
   8   3   2    4.27    0.40
  -8  -3  -2    4.12    0.43
  -8  -3  -2    6.20    0.59
   7   3   2    2.96    0.29
   7   3   2    3.43    0.34
  -7  -3  -2    3.44    0.32
  -7  -3  -2    3.66    0.30
   6   3   2    3.87    0.32
   6   3   2    4.48    0.32
  -6  -3  -2    4.28    0.28
  -6  -3  -2    5.13    0.36
   5   3   2   80.45    1.53
   5   3   2   80.29    1.47
  -5  -3  -2   79.62    1.47
  -5  -3  -2   79.44    1.38
   4   3   2   33.11    0.73
   4   3   2   33.05    0.76
  -4  -3  -2   33.58    0.74
  -4  -3  -2   33.25    0.68
   3   3   2   62.35    1.16
   3   3   2   61.85    1.10
  -3  -3  -2   62.46    1.10
  -3  -3  -2   59.50    1.15
  -3  -3  -2   59.83    1.08
   2   3   2    1.09    0.13
   2   3   2    0.85    0.13
   2   3   2    1.10    0.11
  -2  -3  -2    1.18    0.13
  -2  -3  -2    1.35    0.16
  -2  -3  -2    1.05    0.13
   1   3   2  256.81    4.00
   1   3   2  259.16    4.13
  -1  -3  -2  244.76    4.12
  -1  -3  -2  262.80    3.88
  -1  -3  -2  258.77    4.00
   0   3   2   73.34    1.11
   0   3   2   72.50    1.24
   0   3   2   72.99    1.11
   0  -3  -2   70.40    1.12
   0  -3  -2   68.98    1.28
   0  -3  -2   72.51    1.24
   1  -3  -2   91.71    1.60
   2  -3  -2   47.13    0.77
   2  -3  -2   46.66    0.87
   2  -3  -2   46.48    0.97
  -3   3   2    2.55    0.18
  -3   3   2    2.21    0.18
   3  -3  -2    2.36    0.25
   3  -3  -2    2.33    0.20
   3  -3  -2    2.68    0.16
  -4   3   2   44.84    0.82
  -4   3   2   43.94    0.82
   4  -3  -2   45.06    0.83
   4  -3  -2   43.39    0.84
   4  -3  -2   44.24    1.07
  -5   3   2    0.00    0.17
  -5   3   2    0.03    0.17
   5  -3  -2   -0.01    0.16
   5  -3  -2   -0.20    0.23
  -6   3   2    6.92    0.44
  -6   3   2    6.71    0.43
   6  -3  -2    6.41    0.40
   6  -3  -2    6.41    0.61
  -7   3   2    2.39    0.33
  -7   3   2    2.58    0.34
   7  -3  -2    3.47    0.46
   7  -3  -2    2.45    0.33
  10   4   2    1.44    0.51
  10   4   2    0.91    0.41
 -10  -4  -2    1.81    0.40
 -10  -4  -2    1.32    0.59
   9   4   2    4.49    0.40
   9   4   2    4.52    0.50
  -9  -4  -2    5.22    0.53
  -9  -4  -2    4.83    0.54
   8   4   2    1.57    0.32
   8   4   2    1.21    0.26
  -8  -4  -2    1.15    0.22
  -8  -4  -2    1.36    0.31
  -8  -4  -2    0.74    0.36
   7   4   2    0.70    0.21
   7   4   2    0.28    0.22
  -7  -4  -2    0.23    0.18
  -7  -4  -2   -0.02    0.21
   6   4   2   49.98    1.08
   6   4   2   50.43    1.12
  -6  -4  -2   49.82    1.09
  -6  -4  -2   49.50    0.97
   5   4   2    4.04    0.29
   5   4   2    3.87    0.31
  -5  -4  -2    4.50    0.27
  -5  -4  -2    3.62    0.33
   4   4   2  128.79    2.29
   4   4   2  134.93    2.20
  -4  -4  -2  131.90    2.20
  -4  -4  -2  129.43    2.15
  -4  -4  -2  129.82    2.30
   3   4   2  344.17    5.19
   3   4   2  333.59    5.45
  -3  -4  -2  330.35    5.45
  -3  -4  -2  333.48    5.20
  -3  -4  -2  345.62    5.19
   2   4   2  149.53    2.54
   2   4   2  149.66    2.43
   2   4   2  150.65    2.38
  -2  -4  -2  155.50    2.38
  -2  -4  -2  144.38    2.53
   1   4   2   62.57    1.09
   1   4   2   60.07    1.15
   1   4   2   60.05    1.02
  -1  -4  -2   58.34    1.02
  -1  -4  -2   60.35    1.16
  -1  -4  -2   60.64    1.09
   0   4   2   54.52    0.90
   0   4   2   56.37    0.90
   0   4   2   54.96    1.03
   0  -4  -2   54.25    0.90
   0  -4  -2   52.94    1.07
   0  -4  -2   53.18    1.02
   1  -4  -2  100.18    1.76
   1  -4  -2  100.72    1.55
   1  -4  -2   98.38    1.80
   2  -4  -2    5.12    0.18
   2  -4  -2    5.32    0.33
   2  -4  -2    5.34    0.25
   3  -4  -2    3.89    0.37
   3  -4  -2    4.13    0.23
   3  -4  -2    4.10    0.21
  -4   4   2    2.52    0.19
  -4   4   2    2.68    0.24
   4  -4  -2    2.23    0.19
   4  -4  -2    2.56    0.33
  -5   4   2   16.73    0.47
  -5   4   2   16.84    0.48
   5  -4  -2   17.56    0.73
   5  -4  -2   17.38    0.50
  -6   4   2    4.72    0.42
  -6   4   2    4.22    0.41
   6  -4  -2    4.16    0.41
   6  -4  -2    5.14    0.50
   6  -4  -2    4.65    0.46
  10   5   2    3.21    0.48
  10   5   2    3.98    0.59
 -10  -5  -2    3.80    0.65
 -10  -5  -2    2.62    0.46
   9   5   2    9.37    0.65
   9   5   2   10.44    0.73
  -9  -5  -2   11.44    0.51
  -9  -5  -2   11.55    0.66
  -9  -5  -2   10.71    0.83
   8   5   2    1.47    0.30
   8   5   2    0.90    0.27
  -8  -5  -2    1.42    0.26
  -8  -5  -2    1.47    0.33
   7   5   2   73.57    1.59
   7   5   2   75.00    1.54
  -7  -5  -2   76.49    1.39
  -7  -5  -2   74.44    1.55
   6   5   2   13.79    0.54
   6   5   2   13.59    0.52
  -6  -5  -2   13.77    0.55
  -6  -5  -2   14.02    0.47
   5   5   2   15.20    0.52
   5   5   2   14.26    0.50
  -5  -5  -2   15.78    0.52
  -5  -5  -2   16.03    0.54
  -5  -5  -2   15.47    0.47
   4   5   2   23.44    0.64
   4   5   2   23.41    0.61
  -4  -5  -2   23.17    0.63
  -4  -5  -2   23.14    0.58
  -4  -5  -2   23.65    0.63
   3   5   2   38.49    0.88
   3   5   2   39.71    0.82
   3   5   2   39.55    0.81
  -3  -5  -2   39.89    0.82
  -3  -5  -2   39.51    0.88
   2   5   2  136.89    2.19
   2   5   2  135.15    2.37
   2   5   2  136.62    2.27
  -2  -5  -2  135.75    2.20
  -2  -5  -2  133.84    2.36
   1   5   2   17.38    0.41
   1   5   2   17.76    0.48
   1   5   2   17.18    0.51
  -1  -5  -2   16.59    0.51
  -1  -5  -2   17.57    0.48
   0   5   2  131.20    2.01
   0   5   2  124.30    2.02
   0   5   2  127.58    2.19
   0  -5  -2  126.79    2.26
   0  -5  -2  127.52    2.19
   0  -5  -2  130.28    2.02
  -1   5   2   27.45    0.70
  -1   5   2   28.23    0.52
  -1   5   2   27.72    0.52
   1  -5  -2   27.42    0.53
   1  -5  -2   27.26    0.53
   1  -5  -2   28.21    0.72
   1  -5  -2   27.99    0.70
   2  -5  -2    0.07    0.13
   2  -5  -2    0.03    0.16
   2  -5  -2    0.20    0.17
   2  -5  -2    0.08    0.10
   3  -5  -2  116.94    2.21
   3  -5  -2  116.24    1.86
   4  -5  -2    0.25    0.25
   4  -5  -2    0.19    0.15
   5  -5  -2   12.78    0.70
   5  -5  -2   11.73    0.43
   6  -5  -2    4.03    0.33
   6  -5  -2    4.13    0.50
  10   6   2    5.95    0.57
  10   6   2    9.05    0.91
 -10  -6  -2    7.05    0.58
 -10  -6  -2    5.84    0.70
 -10  -6  -2    6.61    0.60
   9   6   2    2.40    0.44
   9   6   2    2.49    0.41
  -9  -6  -2    2.41    0.52
  -9  -6  -2    2.45    0.41
  -9  -6  -2    2.26    0.33
   8   6   2    2.02    0.34
   8   6   2    1.58    0.32
  -8  -6  -2    1.43    0.26
  -8  -6  -2    1.81    0.36
   7   6   2   27.18    0.83
   7   6   2   27.61    0.84
  -7  -6  -2   26.45    0.87
  -7  -6  -2   27.22    0.73
   6   6   2    0.10    0.16
   6   6   2    0.32    0.22
  -6  -6  -2    0.39    0.19
  -6  -6  -2    0.60    0.25
   5   6   2   29.60    0.77
   5   6   2   27.90    0.76
  -5  -6  -2   28.05    0.77
  -5  -6  -2   28.63    0.71
  -5  -6  -2   28.87    0.77
   4   6   2    3.15    0.29
   4   6   2    2.58    0.26
   4   6   2    3.16    0.30
  -4  -6  -2    3.01    0.28
  -4  -6  -2    2.71    0.26
  -4  -6  -2    3.19    0.32
   3   6   2   71.49    1.32
   3   6   2   72.40    1.44
   3   6   2   73.28    1.36
  -3  -6  -2   72.60    1.33
  -3  -6  -2   70.69    1.43
   2   6   2   61.76    1.13
   2   6   2   63.45    1.26
   2   6   2   60.64    1.18
   2   6   2   60.31    1.13
  -2  -6  -2   61.85    1.18
  -2  -6  -2   61.61    1.14
  -2  -6  -2   60.95    1.26
   1   6   2   21.82    0.50
   1   6   2   21.89    0.58
  -1  -6  -2   21.80    0.58
  -1  -6  -2   21.02    0.62
   0   6   2    6.62    0.36
   0   6   2    6.19    0.25
   0  -6  -2    6.14    0.36
   0  -6  -2    5.85    0.26
   0  -6  -2    6.72    0.36
  -1   6   2    5.94    0.39
  -1   6   2    6.16    0.25
  -1   6   2    6.24    0.26
   1  -6  -2    6.44    0.26
   1  -6  -2    6.34    0.40
   1  -6  -2    5.95    0.39
  -2   6   2   49.96    0.89
   2  -6  -2   52.46    1.21
   2  -6  -2   51.54    0.91
   2  -6  -2   51.52    1.18
   2  -6  -2   52.69    1.01
   3  -6  -2   16.57    0.66
   3  -6  -2   16.48    0.67
   3  -6  -2   15.54    0.41
   4  -6  -2    3.50    0.42
   5  -6  -2   18.30    0.90
  10   7   2   -0.76    0.50
  10   7   2   -1.24    0.52
 -10  -7  -2    1.08    0.50
 -10  -7  -2    0.72    0.63
   9   7   2    0.39    0.38
   9   7   2    0.68    0.39
  -9  -7  -2    0.66    0.39
  -9  -7  -2    0.34    0.32
  -9  -7  -2   -0.69    0.40
   8   7   2   10.43    0.62
   8   7   2   10.89    0.66
  -8  -7  -2   10.62    0.57
  -8  -7  -2   10.85    0.70
   7   7   2    3.12    0.38
   7   7   2    3.39    0.35
  -7  -7  -2    3.68    0.34
  -7  -7  -2    3.20    0.39
   6   7   2    3.33    0.36
   6   7   2    2.47    0.29
  -6  -7  -2    2.84    0.33
  -6  -7  -2    3.07    0.30
  -6  -7  -2    2.37    0.30
   5   7   2   23.57    0.69
   5   7   2   24.02    0.71
   5   7   2   23.05    0.72
  -5  -7  -2   22.48    0.65
  -5  -7  -2   23.19    0.71
  -5  -7  -2   23.46    0.73
   4   7   2   16.37    0.56
   4   7   2   16.62    0.56
   4   7   2   15.46    0.55
  -4  -7  -2   15.24    0.55
  -4  -7  -2   16.80    0.57
   3   7   2   79.70    1.48
   3   7   2   81.16    1.48
   3   7   2   81.98    1.62
   3   7   2   81.34    1.54
  -3  -7  -2   82.73    1.50
  -3  -7  -2   79.66    1.61
   2   7   2    6.25    0.31
   2   7   2    6.77    0.37
   2   7   2    6.27    0.34
   2   7   2    6.60    0.37
  -2  -7  -2    6.84    0.35
  -2  -7  -2    5.68    0.36
  -2  -7  -2    6.61    0.37
   1   7   2   36.71    0.86
   1   7   2   35.91    0.75
  -1  -7  -2   36.44    0.86
  -1  -7  -2   35.62    0.90
   0   7   2    0.04    0.13
   0   7   2    0.20    0.19
   0  -7  -2    0.12    0.19
   0  -7  -2    0.26    0.17
   0  -7  -2    0.08    0.14
  -1   7   2    8.37    0.32
  -1   7   2    7.91    0.32
  -1   7   2    8.14    0.49
   1  -7  -2    7.57    0.47
   1  -7  -2    7.78    0.46
   1  -7  -2    8.33    0.32
  -2   7   2   18.12    0.45
  -2   7   2   18.17    0.45
   2  -7  -2   18.33    0.52
   2  -7  -2   19.12    0.71
   2  -7  -2   18.68    0.71
   3  -7  -2    3.40    0.41
   3  -7  -2    3.28    0.40
   3  -7  -2    2.35    0.21
   4  -7  -2   14.40    0.80
   4  -7  -2   15.13    0.80
   9   8   2    4.06    0.53
   9   8   2    4.05    0.59
  -9  -8  -2    2.91    0.54
  -9  -8  -2    2.96    0.54
  -9  -8  -2    3.38    0.43
   8   8   2    5.10    0.51
   8   8   2    4.98    0.49
  -8  -8  -2    6.01    0.55
  -8  -8  -2    4.51    0.51
   7   8   2   -0.34    0.28
   7   8   2    0.51    0.27
  -7  -8  -2    0.36    0.26
  -7  -8  -2   -0.15    0.33
   6   8   2   15.85    0.68
   6   8   2   16.93    0.69
   6   8   2   15.78    0.63
  -6  -8  -2   16.61    0.65
  -6  -8  -2   16.32    0.70
  -6  -8  -2   16.39    0.62
   5   8   2    0.63    0.24
   5   8   2    0.51    0.20
   5   8   2    0.43    0.26
  -5  -8  -2    0.50    0.22
  -5  -8  -2    0.44    0.19
  -5  -8  -2    0.41    0.26
   4   8   2   27.30    0.78
   4   8   2   29.20    0.74
   4   8   2   28.65    0.77
   4   8   2   28.11    0.80
  -4  -8  -2   26.63    0.80
  -4  -8  -2   28.11    0.78
   3   8   2  199.27    3.22
   3   8   2  186.14    3.44
   3   8   2  193.15    3.21
   3   8   2  200.09    3.34
  -3  -8  -2  196.45    3.22
  -3  -8  -2  198.00    3.46
   2   8   2    1.22    0.25
   2   8   2    1.10    0.19
   2   8   2    1.10    0.21
   2   8   2    0.62    0.20
  -2  -8  -2    0.70    0.21
  -2  -8  -2    1.00    0.24
  -2  -8  -2    0.83    0.22
   1   8   2    9.52    0.50
   1   8   2    8.53    0.38
   1   8   2    9.70    0.37
  -1  -8  -2    9.38    0.47
  -1  -8  -2    9.62    0.41
  -1  -8  -2   10.18    0.50
   0   8   2    0.18    0.24
   0   8   2    0.36    0.17
   0  -8  -2    0.28    0.20
   0  -8  -2    0.29    0.18
   0  -8  -2    0.39    0.24
  -1   8   2   15.20    0.68
  -1   8   2   14.70    0.45
  -1   8   2   14.69    0.46
   1  -8  -2   14.48    0.66
   1  -8  -2   14.61    0.47
   1  -8  -2   15.16    0.65
  -2   8   2    5.23    0.32
  -2   8   2    5.49    0.33
   2  -8  -2    5.37    0.37
   2  -8  -2    5.18    0.53
   2  -8  -2    6.41    0.57
   3  -8  -2    3.98    0.45
   3  -8  -2    3.69    0.46
   4  -8  -2    0.20    0.44
   4  -8  -2   -0.18    0.45
   9   9   2    6.55    0.65
   9   9   2    8.37    0.89
  -9  -9  -2    6.41    0.55
  -9  -9  -2    5.41    0.65
  -9  -9  -2    8.12    0.87
   8   9   2    1.14    0.38
   8   9   2   -0.71    0.40
  -8  -9  -2    0.46    0.34
  -8  -9  -2    0.26    0.38
   7   9   2   39.63    1.16
   7   9   2   39.45    1.11
   7   9   2   39.25    1.14
  -7  -9  -2   39.12    1.06
  -7  -9  -2   38.03    1.12
  -7  -9  -2   39.51    1.17
   6   9   2   16.49    0.74
   6   9   2   15.31    0.70
   6   9   2   15.64    0.65
   6   9   2   14.68    0.63
  -6  -9  -2   16.10    0.76
  -6  -9  -2   15.86    0.65
  -6  -9  -2   15.99    0.65
   5   9   2    0.99    0.31
   5   9   2    0.54    0.19
   5   9   2    1.19    0.31
   5   9   2    1.20    0.22
  -5  -9  -2    1.10    0.30
  -5  -9  -2    1.37    0.25
   4   9   2   12.10    0.58
   4   9   2   13.01    0.55
   4   9   2   12.10    0.57
   4   9   2   10.59    0.47
  -4  -9  -2   11.58    0.58
  -4  -9  -2   13.10    0.56
   3   9   2   29.02    0.86
   3   9   2   29.38    0.75
   3   9   2   28.11    0.83
   3   9   2   27.73    0.78
  -3  -9  -2   27.34    0.83
  -3  -9  -2   28.36    0.80
   2   9   2   47.41    1.01
   2   9   2   47.21    1.13
   2   9   2   45.38    1.01
  -2  -9  -2   46.46    1.16
  -2  -9  -2   46.01    1.12
  -2  -9  -2   47.16    1.04
   1   9   2    3.70    0.36
   1   9   2    4.15    0.34
   1   9   2    4.62    0.50
  -1  -9  -2    4.33    0.46
  -1  -9  -2    4.01    0.39
  -1  -9  -2    3.71    0.38
   0   9   2   11.76    0.46
   0   9   2   12.10    0.65
   0  -9  -2   11.66    0.47
   0  -9  -2   12.02    0.64
   0  -9  -2   12.36    0.61
  -1   9   2   12.34    0.73
  -1   9   2   10.04    0.43
  -1   9   2   11.21    0.45
   1  -9  -2   10.02    0.62
   1  -9  -2   11.65    0.68
   1  -9  -2   11.39    0.48
   2  -9  -2   -0.40    0.30
   2  -9  -2   -0.28    0.34
   2  -9  -2    0.22    0.22
   3  -9  -2    9.64    0.86
   3  -9  -2    9.46    0.80
   8  10   2    3.14    0.50
   8  10   2    3.19    0.56
   8  10   2    3.00    0.47
   8  10   2    3.56    0.57
  -8 -10  -2    3.37    0.46
  -8 -10  -2    4.05    0.59
   7  10   2   15.72    0.72
   7  10   2   16.63    0.84
   7  10   2   15.15    0.76
   7  10   2   15.40    0.86
  -7 -10  -2   16.98    0.87
  -7 -10  -2   15.64    0.75
  -7 -10  -2   16.40    0.75
   6  10   2    0.42    0.32
   6  10   2    0.07    0.26
   6  10   2    0.51    0.37
   6  10   2    0.07    0.23
  -6 -10  -2    0.10    0.26
  -6 -10  -2    0.86    0.36
  -6 -10  -2    0.70    0.31
   5  10   2    5.77    0.42
   5  10   2    5.99    0.55
   5  10   2    6.31    0.46
   5  10   2    5.78    0.58
  -5 -10  -2    6.85    0.47
  -5 -10  -2    6.06    0.59
   4  10   2    0.04    0.23
   4  10   2   -0.20    0.28
   4  10   2    0.40    0.19
   4  10   2    0.08    0.30
  -4 -10  -2   -0.03    0.28
  -4 -10  -2    0.17    0.21
   3  10   2   12.98    0.67
   3  10   2   12.74    0.61
   3  10   2   13.71    0.53
   3  10   2   13.12    0.61
  -3 -10  -2   12.42    0.57
  -3 -10  -2   12.85    0.62
   2  10   2    4.81    0.53
   2  10   2    5.29    0.38
   2  10   2    4.81    0.46
  -2 -10  -2    3.66    0.41
  -2 -10  -2    4.80    0.49
   1  10   2    3.98    0.44
   1  10   2    3.59    0.31
   1  10   2    2.52    0.29
  -1 -10  -2    3.53    0.41
  -1 -10  -2    3.77    0.39
  -1 -10  -2    4.02    0.35
   0  10   2    2.22    0.31
   0  10   2    2.49    0.45
   0  10   2    1.76    0.27
   0 -10  -2    2.12    0.29
   0 -10  -2    2.45    0.38
   0 -10  -2    1.88    0.41
  -1  10   2    5.55    0.46
  -1  10   2    4.91    0.55
  -1  10   2    5.48    0.43
   1 -10  -2    7.03    0.72
   1 -10  -2    5.70    0.47
   1 -10  -2    5.40    0.52
   2 -10  -2    4.57    0.52
   2 -10  -2    3.18    0.38
   2 -10  -2    3.48    0.54
   2 -10  -2    3.22    0.33
   7  11   2    2.13    0.43
   7  11   2    2.76    0.52
   7  11   2    2.08    0.54
   7  11   2    2.59    0.37
  -7 -11  -2    3.05    0.44
  -7 -11  -2    2.83    0.44
  -7 -11  -2    2.14    0.51
   6  11   2   -0.32    0.42
   6  11   2    0.38    0.33
   6  11   2   -0.21    0.36
   6  11   2    0.17    0.26
  -6 -11  -2    0.51    0.41
  -6 -11  -2   -0.21    0.31
  -6 -11  -2   -0.13    0.32
   5  11   2   16.07    0.81
   5  11   2   16.30    0.63
   5  11   2   14.95    0.69
   5  11   2   15.46    0.81
  -5 -11  -2   16.32    0.82
  -5 -11  -2   16.80    0.71
   4  11   2    0.28    0.21
   4  11   2    0.40    0.34
   4  11   2   -0.20    0.27
   4  11   2    0.17    0.36
  -4 -11  -2    0.52    0.27
  -4 -11  -2   -0.04    0.34
   3  11   2   35.43    0.92
   3  11   2   36.78    1.12
   3  11   2   35.24    0.99
  -3 -11  -2   35.01    1.04
  -3 -11  -2   34.75    1.02
   2  11   2    0.15    0.23
   2  11   2    0.52    0.31
   2  11   2   -0.11    0.35
  -2 -11  -2    0.01    0.31
  -2 -11  -2   -0.56    0.26
   1  11   2   12.79    0.85
   1  11   2   13.29    0.59
  -1 -11  -2   10.97    0.65
  -1 -11  -2   12.21    0.75
  -1 -11  -2   12.11    0.64
   0  11   2    7.55    0.69
   0  11   2    6.75    0.57
   0  11   2    8.00    0.53
   0 -11  -2    8.53    0.73
   0 -11  -2    7.03    0.57
   0 -11  -2    7.78    0.63
   6  12   2   18.31    1.06
   6  12   2   15.35    0.83
   6  12   2   16.25    0.98
   6  12   2   18.59    0.74
  -6 -12  -2   19.16    0.87
  -6 -12  -2   18.65    1.04
  -6 -12  -2   18.65    0.89
   5  12   2   12.76    0.90
   5  12   2   12.25    0.73
   5  12   2   13.45    0.63
   5  12   2   12.08    0.88
  -5 -12  -2   14.14    0.74
  -5 -12  -2   12.09    0.86
   4  12   2    7.05    0.66
   4  12   2    6.36    0.53
   4  12   2    6.24    0.56
  -4 -12  -2    6.42    0.58
  -4 -12  -2    6.57    0.59
   3  12   2   15.61    0.81
   3  12   2   14.68    0.65
   3  12   2   15.37    0.93
  -3 -12  -2   14.79    0.83
  -3 -12  -2   13.91    0.72
   2  12   2   -0.19    0.36
   2  12   2    0.29    0.46
   2  12   2   -0.28    0.30
  -2 -12  -2    0.61    0.39
  -2 -12  -2    0.44    0.33
  -1 -12   3   19.81    0.94
  -1 -12   3   22.81    1.06
  -1 -12   3   19.41    1.08
   1  12  -3   21.17    1.04
   1  12  -3   20.21    0.77
   1  12  -3   17.24    0.94
  -2 -12   3    1.30    0.52
  -2 -12   3    1.28    0.41
  -2 -12   3    1.17    0.48
   2  12  -3    1.23    0.32
   2  12  -3    1.17    0.43
   2  12  -3    0.97    0.48
  -3 -12   3   15.42    1.03
  -3 -12   3   14.37    0.96
  -3 -12   3   14.58    0.85
   3  12  -3   13.55    1.00
   3  12  -3   16.06    0.74
   3  12  -3   12.28    0.87
  -4 -12   3    3.61    0.59
  -4 -12   3    2.87    0.52
  -4 -12   3    3.78    0.61
   4  12  -3    2.56    0.46
   4  12  -3    3.59    0.62
   4  12  -3    3.44    0.43
   1 -11   3    1.07    0.35
   1 -11   3    0.35    0.42
   1 -11   3    0.61    0.35
   1 -11   3    0.81    0.40
   1 -11   3    0.06    0.32
  -1  11  -3    1.28    0.31
  -1  11  -3    0.73    0.40
  -1  11  -3    0.46    0.42
   0 -11   3    8.04    0.72
   0 -11   3    7.55    0.62
   0 -11   3    7.96    0.66
   0 -11   3    7.01    0.73
   0 -11   3    7.07    0.54
   0  11  -3    7.50    0.51
   0  11  -3    7.92    0.65
   0  11  -3    8.13    0.74
  -1 -11   3    9.52    0.74
  -1 -11   3    6.96    0.72
  -1 -11   3    8.06    0.64
   1  11  -3    7.55    0.70
   1  11  -3    7.05    0.64
   1  11  -3    7.48    0.52
  -2 -11   3    4.21    0.45
  -2 -11   3    4.35    0.52
  -2 -11   3    4.99    0.53
   2  11  -3    5.04    0.52
   2  11  -3    4.50    0.48
   2  11  -3    6.03    0.49
  -3 -11   3    4.89    0.50
  -3 -11   3    3.82    0.51
  -3 -11   3    5.06    0.53
   3  11  -3    4.45    0.52
   3  11  -3    5.07    0.51
   3  11  -3    3.95    0.41
  -4 -11   3    2.88    0.43
  -4 -11   3    3.03    0.49
  -4 -11   3    2.55    0.43
   4  11  -3    2.40    0.38
   4  11  -3    3.11    0.40
   4  11  -3    2.62    0.50
  -5 -11   3   20.58    1.00
  -5 -11   3   18.97    0.94
  -5 -11   3   20.79    0.94
   5  11  -3   18.54    0.95
   5  11  -3   19.45    1.05
   5  11  -3   18.66    0.88
   5  11  -3   18.65    0.91
  -6 -11   3    0.22    0.47
  -6 -11   3    0.16    0.47
   6  11  -3   -0.21    0.45
   6  11  -3    0.06    0.51
   6  11  -3    0.43    0.44
   6  11  -3    0.60    0.50
   3 -10   3    7.54    0.71
   3 -10   3    6.32    0.59
   3 -10   3    7.49    0.66
   3 -10   3    4.87    0.42
  -3  10  -3    5.77    0.47
  -3  10  -3    6.34    0.55
  -3  10  -3    5.57    0.50
   2 -10   3    0.68    0.31
   2 -10   3    0.78    0.31
   2 -10   3    0.65    0.38
   2 -10   3    1.00    0.29
   2 -10   3    1.27    0.31
  -2  10  -3    1.04    0.39
  -2  10  -3    1.12    0.36
  -2  10  -3    0.55    0.27
   1 -10   3    4.74    0.48
   1 -10   3    4.93    0.52
   1 -10   3    4.96    0.56
   1 -10   3    5.43    0.43
   1 -10   3    3.82    0.34
  -1  10  -3    4.61    0.42
  -1  10  -3    5.15    0.43
  -1  10  -3    4.58    0.46
   0 -10   3   17.50    0.64
   0 -10   3   17.34    0.71
   0 -10   3   16.44    0.78
   0 -10   3   19.15    0.78
   0 -10   3   17.00    0.76
   0  10  -3   17.84    0.63
   0  10  -3   16.89    0.77
   0  10  -3   17.41    0.71
  -1 -10   3    0.19    0.26
  -1 -10   3    0.52    0.33
  -1 -10   3    0.26    0.33
   1  10  -3    0.21    0.20
   1  10  -3    0.31    0.32
   1  10  -3    0.35    0.26
  -2 -10   3    2.70    0.37
  -2 -10   3    2.61    0.39
  -2 -10   3    2.86    0.41
   2  10  -3    2.95    0.32
   2  10  -3    2.74    0.32
   2  10  -3    2.80    0.40
  -3 -10   3    0.85    0.30
  -3 -10   3    0.88    0.35
  -3 -10   3    0.70    0.28
   3  10  -3    0.69    0.34
   3  10  -3    0.89    0.26
   3  10  -3    1.20    0.25
  -4 -10   3   26.68    0.91
  -4 -10   3   25.84    0.93
  -4 -10   3   26.82    0.97
   4  10  -3   27.32    0.93
   4  10  -3   26.98    0.96
   4  10  -3   25.29    0.90
   4  10  -3   25.00    0.87
  -5 -10   3    8.24    0.70
  -5 -10   3    8.50    0.68
  -5 -10   3    9.13    0.63
   5  10  -3    8.98    0.71
   5  10  -3    7.51    0.61
   5  10  -3    9.46    0.76
   5  10  -3    8.16    0.68
  -6 -10   3    2.19    0.38
  -6 -10   3    2.03    0.43
  -6 -10   3    1.40    0.43
   6  10  -3    1.71    0.43
   6  10  -3    1.68    0.45
   6  10  -3    1.58    0.40
   6  10  -3    2.07    0.47
  -7 -10   3    8.95    0.86
   7  10  -3   11.61    0.97
   7  10  -3   10.30    0.95
   7  10  -3   10.87    0.92
   7  10  -3   10.32    0.92
   4  -9   3    5.36    0.59
   4  -9   3    3.52    0.42
   4  -9   3    4.55    0.39
  -4   9  -3    4.16    0.50
  -4   9  -3    4.21    0.40
   3  -9   3    2.17    0.31
   3  -9   3    2.28    0.29
   3  -9   3    2.42    0.42
   3  -9   3    2.43    0.31
  -3   9  -3    2.53    0.35
  -3   9  -3    2.99    0.41
  -3   9  -3    2.62    0.31
   2  -9   3    1.00    0.22
   2  -9   3    0.58    0.28
   2  -9   3    1.10    0.27
   2  -9   3    0.40    0.30
   2  -9   3    1.19    0.26
  -2   9  -3    1.22    0.22
  -2   9  -3    0.37    0.28
  -2   9  -3    0.77    0.31
   1  -9   3   19.44    0.72
   1  -9   3   18.88    0.70
   1  -9   3   18.89    0.67
   1  -9   3   19.56    0.64
   1  -9   3   18.87    0.74
  -1   9  -3   19.51    0.72
  -1   9  -3   19.95    0.64
  -1   9  -3   20.08    0.73
   0  -9   3    3.30    0.37
   0  -9   3    3.48    0.37
   0  -9   3    3.89    0.41
   0  -9   3    3.75    0.39
   0  -9   3    3.21    0.33
   0   9  -3    2.61    0.33
   0   9  -3    2.98    0.30
   0   9  -3    3.84    0.40
  -1  -9   3    2.05    0.33
  -1  -9   3    1.97    0.25
  -1  -9   3    2.34    0.33
  -1  -9   3    2.10    0.33
   1   9  -3    1.54    0.24
   1   9  -3    2.45    0.30
   1   9  -3    2.19    0.33
  -2  -9   3    0.87    0.27
  -2  -9   3    0.67    0.25
  -2  -9   3    0.65    0.28
   2   9  -3    0.82    0.27
   2   9  -3    0.59    0.22
   2   9  -3    0.34    0.20
  -3  -9   3   16.20    0.66
  -3  -9   3   14.40    0.68
  -3  -9   3   15.08    0.67
   3   9  -3   15.10    0.67
   3   9  -3   16.55    0.62
   3   9  -3   14.81    0.65
  -4  -9   3   19.13    0.73
  -4  -9   3   19.58    0.79
  -4  -9   3   19.48    0.73
   4   9  -3   19.35    0.70
   4   9  -3   19.07    0.78
   4   9  -3   16.99    0.74
   4   9  -3   19.11    0.74
  -5  -9   3    1.52    0.38
  -5  -9   3    1.29    0.30
  -5  -9   3    1.39    0.33
   5   9  -3    1.39    0.35
   5   9  -3    1.58    0.28
   5   9  -3    1.77    0.38
   5   9  -3    1.45    0.37
  -6  -9   3    6.69    0.66
  -6  -9   3    8.43    0.61
   6   9  -3    7.98    0.69
   6   9  -3    7.05    0.60
   6   9  -3    8.38    0.73
   6   9  -3    9.24    0.70
  -7  -9   3   -0.23    0.38
  -7  -9   3   -0.05    0.37
   7   9  -3    0.08    0.42
   7   9  -3   -0.02    0.42
   7   9  -3    0.91    0.48
   5  -8   3    3.07    0.37
   5  -8   3    2.58    0.42
  -5   8  -3    3.20    0.47
  -5   8  -3    2.68    0.37
   4  -8   3   12.90    0.56
   4  -8   3   11.23    0.71
   4  -8   3   13.56    0.69
  -4   8  -3   13.01    0.58
  -4   8  -3   12.83    0.70
  -4   8  -3   11.95    0.66
   3  -8   3    6.91    0.48
   3  -8   3    7.03    0.50
   3  -8   3    6.76    0.39
   3  -8   3    6.49    0.57
  -3   8  -3    6.71    0.53
  -3   8  -3    6.56    0.54
  -3   8  -3    6.74    0.43
   2  -8   3    4.47    0.37
   2  -8   3    3.98    0.38
   2  -8   3    4.24    0.43
   2  -8   3    4.54    0.33
   2  -8   3    3.62    0.40
  -2   8  -3    4.60    0.47
  -2   8  -3    4.17    0.35
  -2   8  -3    3.99    0.42
   1  -8   3   19.33    0.69
   1  -8   3   19.37    0.69
   1  -8   3   18.62    0.59
   1  -8   3   18.87    0.68
   1  -8   3   18.99    0.62
  -1   8  -3   19.04    0.61
  -1   8  -3   19.38    0.67
  -1   8  -3   18.69    0.66
   0  -8   3   65.03    1.33
   0  -8   3   64.22    1.42
   0  -8   3   66.39    1.43
   0  -8   3   66.09    1.37
   0  -8   3   65.48    1.39
   0   8  -3   65.45    1.43
   0   8  -3   67.28    1.37
   0   8  -3   64.95    1.34
  -1  -8   3  202.04    3.55
  -1  -8   3  200.04    3.51
  -1  -8   3  201.15    3.38
  -1  -8   3  194.66    3.36
   1   8  -3  200.63    3.51
   1   8  -3  202.19    3.37
   1   8  -3  203.67    3.38
  -2  -8   3    6.23    0.43
  -2  -8   3    5.90    0.47
  -2  -8   3    6.54    0.48
   2   8  -3    6.30    0.46
   2   8  -3    5.32    0.39
   2   8  -3    6.19    0.42
  -3  -8   3   46.24    1.17
  -3  -8   3   44.82    1.09
  -3  -8   3   46.36    1.12
   3   8  -3   46.46    1.11
   3   8  -3   45.08    1.10
   3   8  -3   45.97    1.08
   3   8  -3   46.65    1.12
  -4  -8   3    6.98    0.48
  -4  -8   3    7.79    0.52
  -4  -8   3    7.40    0.47
   4   8  -3    7.64    0.47
   4   8  -3    7.63    0.53
   4   8  -3    7.50    0.52
   4   8  -3    7.76    0.49
  -5  -8   3   11.33    0.61
  -5  -8   3   13.33    0.64
  -5  -8   3   11.65    0.63
   5   8  -3   11.65    0.61
   5   8  -3   11.98    0.67
   5   8  -3   12.14    0.64
   5   8  -3   10.57    0.55
  -6  -8   3    3.51    0.37
  -6  -8   3    3.90    0.43
   6   8  -3    4.58    0.49
   6   8  -3    4.38    0.44
   6   8  -3    4.35    0.42
  -7  -8   3   -0.10    0.35
  -7  -8   3    0.94    0.33
  -7  -8   3    0.96    0.30
   7   8  -3    0.99    0.43
   7   8  -3    1.06    0.36
   7   8  -3    1.05    0.44
  -8  -8   3    0.88    0.54
  -8  -8   3    1.13    0.32
  -8  -8   3    0.86    0.41
   8   8  -3    0.01    0.45
   8   8  -3    1.21    0.61
   8   8  -3    1.68    0.57
   6  -7   3    2.01    0.55
   6  -7   3    0.61    0.35
   6  -7   3   -0.86    0.32
  -6   7  -3    0.66    0.42
  -6   7  -3    1.48    0.37
   5  -7   3   11.85    0.65
   5  -7   3   12.06    0.56
  -5   7  -3   11.66    0.68
  -5   7  -3   12.83    0.58
   4  -7   3    6.95    0.56
   4  -7   3    7.37    0.42
   4  -7   3    9.13    0.54
  -4   7  -3    9.19    0.47
  -4   7  -3    7.51    0.57
  -4   7  -3    8.79    0.54
   3  -7   3    0.31    0.20
   3  -7   3    0.29    0.25
   3  -7   3    0.61    0.17
  -3   7  -3    0.22    0.23
  -3   7  -3    0.48    0.25
  -3   7  -3    0.39    0.18
   2  -7   3   22.68    0.59
   2  -7   3   21.76    0.62
   2  -7   3   21.74    0.71
   2  -7   3   21.25    0.69
   2  -7   3   23.26    0.73
  -2   7  -3   22.02    0.64
  -2   7  -3   21.65    0.68
  -2   7  -3   22.45    0.73
   1  -7   3    0.74    0.16
   1  -7   3    0.52    0.18
   1  -7   3    0.61    0.17
   1  -7   3    0.80    0.22
   1  -7   3    0.76    0.20
  -1   7  -3    0.76    0.22
  -1   7  -3    0.64    0.17
  -1   7  -3    0.40    0.18
   0  -7   3   34.11    0.81
   0  -7   3   34.29    0.85
   0  -7   3   34.13    0.89
   0  -7   3   35.52    0.86
   0  -7   3   34.08    0.87
   0   7  -3   34.52    0.85
   0   7  -3   34.73    0.89
   0   7  -3   35.13    0.83
  -1  -7   3   36.94    0.90
  -1  -7   3   37.17    0.87
  -1  -7   3   37.04    0.90
  -1  -7   3   37.23    0.91
   1   7  -3   36.16    0.92
   1   7  -3   37.40    0.89
   1   7  -3   37.32    0.87
  -2  -7   3   13.18    0.53
  -2  -7   3   13.50    0.53
  -2  -7   3   12.91    0.50
   2   7  -3   13.96    0.54
   2   7  -3   13.05    0.51
   2   7  -3   12.86    0.52
  -3  -7   3   49.50    1.12
  -3  -7   3   50.19    1.18
  -3  -7   3   50.36    1.10
   3   7  -3   50.75    1.13
   3   7  -3   48.86    1.12
   3   7  -3   51.40    1.11
   3   7  -3   50.72    1.15
  -4  -7   3    7.45    0.51
  -4  -7   3    6.43    0.44
  -4  -7   3    5.97    0.45
   4   7  -3    6.96    0.46
   4   7  -3    6.41    0.42
   4   7  -3    5.88    0.42
   4   7  -3    6.81    0.49
  -5  -7   3   26.49    0.79
  -5  -7   3   25.97    0.81
  -5  -7   3   28.61    0.87
   5   7  -3   27.39    0.83
   5   7  -3   27.38    0.80
   5   7  -3   26.51    0.86
  -6  -7   3    4.01    0.38
  -6  -7   3    3.63    0.40
   6   7  -3    4.31    0.46
   6   7  -3    4.43    0.41
   6   7  -3    4.34    0.48
  -7  -7   3    6.64    0.44
  -7  -7   3    6.81    0.54
  -7  -7   3    6.29    0.67
   7   7  -3    6.03    0.60
   7   7  -3    6.44    0.56
   7   7  -3    7.34    0.65
  -8  -7   3    8.44    0.96
  -8  -7   3    9.19    0.66
   8   7  -3   11.17    0.91
   8   7  -3   10.68    0.71
   8   7  -3    9.65    0.97
   7  -6   3    4.97    0.46
  -7   6  -3    4.65    0.49
   6  -6   3    2.79    0.34
   6  -6   3    2.93    0.45
   6  -6   3    2.19    0.34
  -6   6  -3    2.37    0.41
  -6   6  -3    2.73    0.34
   5  -6   3   19.33    0.72
   5  -6   3   17.97    0.60
  -5   6  -3   18.01    0.72
  -5   6  -3   18.49    0.64
   4  -6   3   -0.06    0.16
   4  -6   3   -0.11    0.20
  -4   6  -3   -0.10    0.17
  -4   6  -3    0.10    0.24
  -4   6  -3   -0.14    0.21
   3  -6   3   10.08    0.40
   3  -6   3    9.94    0.32
   3  -6   3    9.60    0.48
   3  -6   3   10.84    0.51
  -3   6  -3   10.42    0.43
  -3   6  -3   10.29    0.51
  -3   6  -3    9.82    0.48
   2  -6   3    6.11    0.31
   2  -6   3    6.16    0.32
   2  -6   3    6.18    0.39
   2  -6   3    6.15    0.38
  -2   6  -3    5.76    0.38
  -2   6  -3    5.52    0.39
  -2   6  -3    6.79    0.35
   1  -6   3    3.53    0.29
   1  -6   3    3.10    0.31
   1  -6   3    3.76    0.33
   1  -6   3    2.75    0.28
   1  -6   3    3.32    0.25
  -1   6  -3    3.12    0.31
  -1   6  -3    3.46    0.28
  -1   6  -3    2.93    0.31
   0  -6   3   32.51    0.76
   0  -6   3   32.30    0.79
   0  -6   3   32.32    0.78
   0  -6   3   32.91    0.81
   0  -6   3   33.43    0.79
   0   6  -3   31.76    0.81
   0   6  -3   32.30    0.75
   0   6  -3   32.11    0.77
  -1  -6   3   23.41    0.62
  -1  -6   3   22.15    0.63
  -1  -6   3   21.67    0.61
  -1  -6   3   21.63    0.62
   1   6  -3   21.85    0.64
   1   6  -3   23.38    0.63
   1   6  -3   21.92    0.61
  -2  -6   3   43.47    0.96
  -2  -6   3   43.19    0.94
  -2  -6   3   43.43    1.00
   2   6  -3   43.44    0.96
   2   6  -3   42.45    0.96
   2   6  -3   43.96    0.99
   2   6  -3   44.22    0.94
  -3  -6   3   23.13    0.67
  -3  -6   3   23.05    0.63
  -3  -6   3   22.90    0.70
   3   6  -3   22.40    0.66
   3   6  -3   22.89    0.66
   3   6  -3   22.78    0.68
   3   6  -3   23.96    0.63
  -4  -6   3   23.01    0.66
  -4  -6   3   23.51    0.69
  -4  -6   3   24.93    0.75
   4   6  -3   21.91    0.67
   4   6  -3   22.83    0.72
   4   6  -3   23.14    0.65
  -5  -6   3   44.44    1.06
  -5  -6   3   44.70    1.14
   5   6  -3   44.30    1.05
   5   6  -3   43.60    1.09
   5   6  -3   45.06    1.04
  -6  -6   3    7.09    0.46
  -6  -6   3    7.40    0.57
   6   6  -3    5.95    0.60
   6   6  -3    6.60    0.54
   6   6  -3    7.19    0.44
  -7  -6   3   37.65    1.00
  -7  -6   3   37.55    1.18
   7   6  -3   36.62    0.98
   7   6  -3   39.41    1.17
   7   6  -3   37.32    1.07
  -8  -6   3    0.49    0.47
  -8  -6   3   -0.69    0.31
   8   6  -3    0.28    0.50
   8   6  -3   -0.23    0.34
   8   6  -3    0.46    0.47
   7  -5   3    1.56    0.31
   7  -5   3    2.31    0.44
   7  -5   3    2.09    0.35
  -7   5  -3    1.99    0.45
  -7   5  -3    2.26    0.35
   6  -5   3    2.85    0.30
   6  -5   3    3.25    0.37
   6  -5   3    2.77    0.39
  -6   5  -3    2.34    0.38
  -6   5  -3    3.25    0.33
   5  -5   3    4.69    0.43
   5  -5   3    3.91    0.33
  -5   5  -3    4.14    0.37
  -5   5  -3    4.44    0.47
   4  -5   3    1.41    0.24
   4  -5   3    1.06    0.18
  -4   5  -3    0.82    0.19
  -4   5  -3    0.97    0.24
  -4   5  -3    1.03    0.20
   3  -5   3   39.52    0.88
   3  -5   3   40.59    0.97
   3  -5   3   41.14    0.92
  -3   5  -3   41.34    0.97
  -3   5  -3   41.34    0.89
  -3   5  -3   39.65    0.90
   2  -5   3    5.84    0.28
   2  -5   3    6.36    0.35
   2  -5   3    5.66    0.36
   2  -5   3    5.97    0.30
  -2   5  -3    6.00    0.34
  -2   5  -3    5.81    0.35
  -2   5  -3    6.34    0.32
   1  -5   3   37.66    0.87
   1  -5   3   37.48    0.82
   1  -5   3   38.02    0.80
   1  -5   3   38.96    0.82
  -1   5  -3   37.36    0.86
  -1   5  -3   38.18    0.83
  -1   5  -3   37.72    0.82
   0  -5   3   25.15    0.62
   0  -5   3   24.78    0.63
   0  -5   3   24.10    0.65
   0  -5   3   25.02    0.63
   0  -5   3   25.41    0.63
   0   5  -3   24.44    0.65
   0   5  -3   25.29    0.63
   0   5  -3   25.04    0.62
  -1  -5   3   27.85    0.66
  -1  -5   3   27.68    0.68
  -1  -5   3   28.67    0.71
  -1  -5   3   28.58    0.68
   1   5  -3   28.28    0.70
   1   5  -3   28.42    0.68
   1   5  -3   27.54    0.67
  -2  -5   3    8.17    0.39
  -2  -5   3    8.36    0.34
  -2  -5   3    8.37    0.38
   2   5  -3    8.09    0.37
   2   5  -3    8.57    0.34
   2   5  -3    8.21    0.39
   2   5  -3    8.76    0.39
  -3  -5   3    6.35    0.38
  -3  -5   3    5.85    0.34
  -3  -5   3    6.04    0.32
   3   5  -3    5.99    0.33
   3   5  -3    5.98    0.36
   3   5  -3    5.78    0.31
  -4  -5   3   37.35    0.88
  -4  -5   3   36.88    0.94
   4   5  -3   38.27    0.85
   4   5  -3   37.67    0.91
   4   5  -3   37.67    0.87
  -5  -5   3    0.24    0.21
  -5  -5   3   -0.53    0.16
   5   5  -3    0.10    0.21
   5   5  -3    0.56    0.16
   5   5  -3    0.06    0.25
  -6  -5   3    7.53    0.56
  -6  -5   3    8.43    0.44
   6   5  -3    8.00    0.51
   6   5  -3    8.09    0.58
   6   5  -3    8.58    0.42
  -7  -5   3   13.67    0.58
  -7  -5   3   13.68    0.77
   7   5  -3   13.91    0.68
   7   5  -3   13.87    0.56
   7   5  -3   14.28    0.80
  -8  -5   3    0.54    0.47
  -8  -5   3    0.63    0.30
   8   5  -3    0.60    0.43
   8   5  -3    0.63    0.50
   8   5  -3   -0.05    0.33
   8  -4   3    6.85    0.75
   8  -4   3    6.45    0.55
   8  -4   3    5.32    0.57
  -8   4  -3    4.79    0.45
  -8   4  -3    5.37    0.56
   7  -4   3    0.30    0.33
   7  -4   3    0.19    0.24
   7  -4   3    0.37    0.31
  -7   4  -3    0.27    0.26
  -7   4  -3    0.69    0.36
   6  -4   3    4.71    0.46
   6  -4   3    4.70    0.34
   6  -4   3    5.06    0.49
  -6   4  -3    5.05    0.50
  -6   4  -3    5.11    0.41
   5  -4   3    5.15    0.43
   5  -4   3    4.87    0.31
   5  -4   3    4.07    0.38
  -5   4  -3    4.62    0.35
  -5   4  -3    4.49    0.42
   4  -4   3   34.04    0.86
   4  -4   3   32.27    0.77
  -4   4  -3   33.16    0.77
  -4   4  -3   32.22    0.79
   3  -4   3   17.79    0.51
   3  -4   3   19.05    0.55
   3  -4   3   18.05    0.56
  -3   4  -3   18.41    0.54
  -3   4  -3   18.25    0.52
  -3   4  -3   18.73    0.56
   2  -4   3   74.55    1.41
   2  -4   3   74.95    1.31
   2  -4   3   73.65    1.34
   2  -4   3   73.35    1.33
  -2   4  -3   76.05    1.32
  -2   4  -3   71.86    1.33
  -2   4  -3   72.39    1.34
  -2   4  -3   73.97    1.41
   1  -4   3  221.21    3.60
   1  -4   3  217.61    3.47
   1  -4   3  229.54    3.64
   1  -4   3  224.94    3.48
  -1   4  -3  217.52    3.63
  -1   4  -3  215.23    3.47
  -1   4  -3  216.44    3.60
  -1   4  -3  214.98    3.47
   0  -4   3    2.99    0.24
   0  -4   3    2.52    0.26
   0  -4   3    2.59    0.25
   0  -4   3    2.70    0.26
   0  -4   3    2.59    0.27
   0   4  -3    2.75    0.25
   0   4  -3    2.80    0.27
   0   4  -3    2.32    0.26
   0   4  -3    2.95    0.29
  -1  -4   3  348.19    5.33
  -1  -4   3  345.98    5.33
  -1  -4   3  348.38    5.67
  -1  -4   3  342.99    5.50
   1   4  -3  344.99    5.67
   1   4  -3  348.20    5.33
   1   4  -3  346.34    5.33
   1   4  -3  336.06    5.49
  -2  -4   3   50.38    1.00
  -2  -4   3   49.60    0.96
  -2  -4   3   51.22    1.07
   2   4  -3   51.18    1.00
   2   4  -3   49.60    0.95
   2   4  -3   49.89    1.07
   2   4  -3   50.08    1.00
  -3  -4   3  172.65    2.86
  -3  -4   3  174.95    2.89
  -3  -4   3  172.91    3.06
   3   4  -3  178.65    2.87
   3   4  -3  171.91    2.86
   3   4  -3  176.67    2.89
  -4  -4   3   13.67    0.46
  -4  -4   3   13.45    0.52
   4   4  -3   13.21    0.50
   4   4  -3   12.81    0.44
   4   4  -3   13.42    0.45
  -5  -4   3    4.73    0.33
  -5  -4   3    5.07    0.43
   5   4  -3    4.56    0.31
   5   4  -3    4.63    0.44
   5   4  -3    4.50    0.37
  -6  -4   3   13.91    0.65
  -6  -4   3   12.98    0.51
   6   4  -3   12.29    0.49
   6   4  -3   12.89    0.65
   6   4  -3   13.25    0.58
  -7  -4   3    2.17    0.26
  -7  -4   3    2.25    0.41
   7   4  -3    2.33    0.25
   7   4  -3    2.64    0.37
   7   4  -3    2.27    0.44
  -8  -4   3    7.14    0.64
  -8  -4   3    7.72    0.52
   8   4  -3    6.53    0.58
   8   4  -3    7.21    0.53
   8   4  -3    6.73    0.61
   8  -3   3    0.38    0.30
   8  -3   3    0.40    0.35
   8  -3   3   -0.25    0.33
  -8   3  -3    0.19    0.40
  -8   3  -3    0.28    0.30
   7  -3   3   17.56    0.71
   7  -3   3   17.36    0.58
   7  -3   3   17.89    0.68
  -7   3  -3   17.59    0.64
  -7   3  -3   17.98    0.74
   6  -3   3    0.68    0.23
   6  -3   3    0.42    0.24
   6  -3   3    0.63    0.16
  -6   3  -3    0.55    0.20
  -6   3  -3    0.70    0.26
   5  -3   3   24.78    0.65
   5  -3   3   24.21    0.66
   5  -3   3   24.92    0.72
  -5   3  -3   24.68    0.67
  -5   3  -3   24.07    0.69
   4  -3   3   37.89    0.82
   4  -3   3   38.19    0.82
   4  -3   3   37.23    0.88
  -4   3  -3   37.17    0.82
  -4   3  -3   36.00    0.83
   3  -3   3    3.14    0.24
   3  -3   3    2.81    0.28
   3  -3   3    3.15    0.28
  -3   3  -3    3.88    0.19
  -3   3  -3    3.05    0.26
  -3   3  -3    3.09    0.27
  -3   3  -3    3.08    0.26
   2  -3   3    3.14    0.26
   2  -3   3    3.23    0.24
   2  -3   3    3.38    0.21
   2  -3   3    3.97    0.28
  -2   3  -3    3.31    0.25
  -2   3  -3    3.57    0.27
  -2   3  -3    3.51    0.26
   1  -3   3   21.89    0.53
   1  -3   3   21.27    0.53
   1  -3   3   22.67    0.51
   1  -3   3   20.84    0.51
  -1   3  -3   22.15    0.51
  -1   3  -3   21.61    0.52
  -1   3  -3   21.64    0.52
  -1   3  -3   21.99    0.53
   0  -3   3   24.55    0.56
   0  -3   3   22.67    0.50
   0  -3   3   23.04    0.53
   0  -3   3   22.78    0.53
   0  -3   3   23.36    0.55
   0   3  -3   23.06    0.53
   0   3  -3   22.39    0.54
   0   3  -3   22.78    0.55
  -1  -3   3  135.50    2.23
  -1  -3   3  137.62    2.38
  -1  -3   3  138.19    2.24
  -1  -3   3  138.49    2.25
   1   3  -3  137.87    2.23
   1   3  -3  139.02    2.24
   1   3  -3  138.37    2.23
   1   3  -3  135.87    2.38
  -2  -3   3  183.53    3.16
  -2  -3   3  185.42    2.98
  -2  -3   3  187.62    2.95
   2   3  -3  179.44    2.94
   2   3  -3  186.77    2.98
   2   3  -3  185.57    3.17
   2   3  -3  185.14    2.95
  -3  -3   3  138.09    2.33
  -3  -3   3  140.35    2.50
   3   3  -3  141.35    2.34
   3   3  -3  144.36    2.34
   3   3  -3  141.23    2.52
   3   3  -3  141.04    2.33
  -4  -3   3    5.49    0.37
  -4  -3   3    5.64    0.31
   4   3  -3    5.55    0.30
   4   3  -3    5.93    0.37
   4   3  -3    5.35    0.30
  -5  -3   3   61.81    1.23
  -5  -3   3   61.22    1.33
   5   3  -3   59.24    1.21
   5   3  -3   62.64    1.23
   5   3  -3   61.89    1.26
  -6  -3   3    0.09    0.27
  -6  -3   3    0.09    0.18
   6   3  -3    0.21    0.24
   6   3  -3    0.18    0.17
  -7  -3   3    9.31    0.48
  -7  -3   3    9.78    0.68
   7   3  -3   10.04    0.47
   7   3  -3   10.50    0.64
  -8  -3   3    7.04    0.81
  -8  -3   3    7.80    0.56
   8   3  -3    8.91    0.80
   8   3  -3    8.01    0.55
   9  -2   3    2.11    0.42
   9  -2   3    1.18    0.43
   9  -2   3    2.20    0.37
  -9   2  -3    2.14    0.38
  -9   2  -3    1.46    0.52
   8  -2   3    4.03    0.43
   8  -2   3    3.93    0.39
   8  -2   3    4.57    0.44
  -8   2  -3    4.74    0.44
  -8   2  -3    3.85    0.48
   7  -2   3   21.18    0.76
   7  -2   3   20.11    0.64
   7  -2   3   21.07    0.65
  -7   2  -3   20.79    0.66
  -7   2  -3   20.34    0.76
   6  -2   3   -0.09    0.15
   6  -2   3    0.07    0.18
   6  -2   3    0.03    0.18
  -6   2  -3    0.09    0.22
  -6   2  -3    0.06    0.17
   5  -2   3   69.95    1.36
   5  -2   3   71.43    1.44
   5  -2   3   73.12    1.33
  -5   2  -3   72.30    1.38
  -5   2  -3   71.48    1.36
   4  -2   3   -0.02    0.10
   4  -2   3   -0.10    0.12
   4  -2   3    0.18    0.14
  -4   2  -3    0.06    0.12
  -4   2  -3    0.01    0.14
   3  -2   3   24.93    0.61
   3  -2   3   24.53    0.58
   3  -2   3   25.92    0.58
  -3   2  -3   25.38    0.59
  -3   2  -3   24.58    0.60
  -3   2  -3   24.43    0.50
  -3   2  -3   24.64    0.61
   2  -2   3   26.77    0.59
   2  -2   3   26.78    0.54
   2  -2   3   26.63    0.58
   2  -2   3   25.24    0.58
  -2   2  -3   26.41    0.58
  -2   2  -3   26.67    0.59
  -2   2  -3   26.15    0.54
  -2   2  -3   26.04    0.58
   1  -2   3    8.72    0.28
   1  -2   3    8.87    0.29
   1  -2   3    8.88    0.29
  -1   2  -3    8.73    0.28
  -1   2  -3    8.64    0.28
  -1   2  -3    8.94    0.29
  -1   2  -3    8.91    0.29
   0  -2   3    0.37    0.10
   0  -2   3    0.35    0.12
   0  -2   3    0.47    0.11
   0  -2   3    0.46    0.08
   0   2  -3    0.50    0.11
   0   2  -3    0.35    0.10
   0   2  -3    0.39    0.11
   0   2  -3    0.43    0.12
  -1  -2   3   43.03    0.89
  -1  -2   3   43.54    0.75
  -1  -2   3   43.90    0.82
  -1  -2   3   44.62    0.82
   1   2  -3   45.46    0.76
   1   2  -3   43.35    0.89
   1   2  -3   44.88    0.82
   1   2  -3   45.04    0.82
  -2  -2   3   98.27    1.53
  -2  -2   3   94.78    1.61
  -2  -2   3   96.70    1.75
   2   2  -3   95.23    1.61
   2   2  -3   96.44    1.75
   2   2  -3   97.15    1.61
   2   2  -3   97.10    1.59
  -3  -2   3   76.09    1.35
  -3  -2   3   76.16    1.47
   3   2  -3   76.79    1.36
   3   2  -3   77.46    1.48
   3   2  -3   78.05    1.36
   3   2  -3   78.58    1.35
  -4  -2   3    6.33    0.31
  -4  -2   3    6.15    0.37
   4   2  -3    6.34    0.36
   4   2  -3    6.18    0.27
   4   2  -3    5.70    0.38
   4   2  -3    6.47    0.31
  -5  -2   3   43.07    1.03
  -5  -2   3   43.48    0.94
   5   2  -3   45.53    0.97
   5   2  -3   43.99    0.93
  -6  -2   3   -0.02    0.19
  -6  -2   3    0.16    0.25
   6   2  -3    0.48    0.26
   6   2  -3    0.62    0.18
  -7  -2   3   38.96    0.97
  -7  -2   3   38.74    1.09
   7   2  -3   37.32    0.93
   7   2  -3   39.65    1.08
  -8  -2   3    0.85    0.43
  -8  -2   3    0.96    0.32
   8   2  -3    0.79    0.32
   8   2  -3    1.23    0.49
   9  -1   3   -0.77    0.31
   9  -1   3    0.61    0.34
   9  -1   3    0.87    0.39
  -9   1  -3   -0.06    0.47
  -9   1  -3    0.26    0.32
   8  -1   3    7.31    0.46
   8  -1   3    7.89    0.51
   8  -1   3    7.66    0.60
  -8   1  -3    7.46    0.68
  -8   1  -3    7.34    0.47
   7  -1   3    4.34    0.34
   7  -1   3    3.54    0.38
   7  -1   3    3.59    0.37
  -7   1  -3    3.86    0.38
  -7   1  -3    4.07    0.37
   6  -1   3    8.57    0.39
   6  -1   3    8.88    0.38
   6  -1   3    8.14    0.45
  -6   1  -3    8.04    0.47
  -6   1  -3    8.41    0.41
   5  -1   3   21.80    0.58
   5  -1   3   21.86    0.55
   5  -1   3   21.86    0.62
  -5   1  -3   22.43    0.60
  -5   1  -3   21.69    0.61
   4  -1   3   16.73    0.45
   4  -1   3   16.56    0.49
   4  -1   3   15.86    0.46
  -4   1  -3   16.82    0.48
  -4   1  -3   16.12    0.48
   3  -1   3  125.67    2.15
   3  -1   3  129.95    2.12
   3  -1   3  132.09    2.10
  -3   1  -3  127.20    2.11
  -3   1  -3  131.84    2.15
  -3   1  -3  128.86    2.12
   2  -1   3    0.00    0.08
   2  -1   3    0.09    0.09
   2  -1   3    0.07    0.09
   2  -1   3    0.13    0.10
  -2   1  -3    0.20    0.09
  -2   1  -3    0.15    0.09
  -2   1  -3    0.01    0.09
  -2   1  -3    0.14    0.10
   1  -1   3   41.23    0.75
   1  -1   3   41.64    0.79
   1  -1   3   41.29    0.74
   1  -1   3   41.70    0.76
   1  -1   3   41.41    0.75
  -1   1  -3   41.04    0.75
  -1   1  -3   41.16    0.79
  -1   1  -3   42.39    0.74
  -1   1  -3   41.80    0.75
  -1  -1   3   44.02    0.78
  -1  -1   3   43.18    0.86
  -1  -1   3   43.56    0.78
  -1  -1   3   44.99    0.75
   1   1  -3   44.00    0.78
   1   1  -3   43.51    0.87
   1   1  -3   43.68    0.78
  -2  -1   3   53.73    0.87
  -2  -1   3   54.84    0.96
  -2  -1   3   54.51    1.06
   2   1  -3   53.72    0.95
   2   1  -3   54.35    1.07
   2   1  -3   53.38    0.96
  -3  -1   3   15.31    0.41
  -3  -1   3   15.12    0.47
   3   1  -3   15.48    0.40
   3   1  -3   15.44    0.48
   3   1  -3   14.70    0.42
  -4  -1   3   34.97    0.74
  -4  -1   3   35.26    0.82
   4   1  -3   34.75    0.73
   4   1  -3   35.58    0.83
  -5  -1   3   29.67    0.70
  -5  -1   3   30.75    0.80
   5   1  -3   29.30    0.69
  -6  -1   3   20.06    0.69
  -6  -1   3   20.26    0.61
   6   1  -3   19.34    0.58
  -7  -1   3    9.65    0.52
  -7  -1   3   10.31    0.64
   7   1  -3    9.30    0.49
  -8  -1   3    0.03    0.34
  -8  -1   3    0.37    0.40
   8   1  -3    0.05    0.34
   9   0   3    2.74    0.34
   9   0   3    2.28    0.33
   9   0   3    3.07    0.44
  -9   0  -3    2.20    0.50
  -9   0  -3    2.83    0.33
   8   0   3    2.64    0.28
   8   0   3    3.62    0.32
   8   0   3    3.53    0.38
  -8   0  -3    3.80    0.44
  -8   0  -3    3.25    0.29
  -8   0  -3    3.39    0.35
   7   0   3    2.24    0.26
   7   0   3    2.35    0.32
   7   0   3    2.13    0.22
  -7   0  -3    2.16    0.26
   6   0   3   34.66    0.75
   6   0   3   33.97    0.86
   6   0   3   33.19    0.80
  -6   0  -3   34.21    0.82
   5   0   3   21.72    0.53
   5   0   3   21.63    0.60
   5   0   3   22.52    0.58
  -5   0  -3   22.13    0.59
   4   0   3   70.36    1.22
   4   0   3   69.13    1.28
   4   0   3   69.10    1.26
  -4   0  -3   69.13    1.22
  -4   0  -3   70.27    1.28
   3   0   3    0.34    0.11
   3   0   3    0.41    0.11
   3   0   3    0.08    0.11
  -3   0  -3    0.15    0.10
  -3   0  -3    0.25    0.12
  -3   0  -3    0.24    0.13
   2   0   3   89.23    1.45
   2   0   3   85.25    1.44
   2   0   3   89.72    1.43
  -2   0  -3   86.61    1.44
  -2   0  -3   89.01    1.42
  -2   0  -3   86.29    1.44
  -2   0  -3   88.00    1.44
   0   0   3  290.52    4.66
   0   0   3  293.46    4.36
   0   0   3  293.98    4.32
   0   0  -3  285.94    4.36
   0   0  -3  282.34    4.66
   0   0  -3  272.65    4.33
   0   0  -3  293.09    4.32
  -1   0   3   54.81    0.90
  -1   0   3   52.77    1.01
  -1   0   3   55.04    0.89
   1   0  -3   53.19    1.02
   1   0  -3   53.80    0.89
   1   0  -3   53.16    0.89
   1   0  -3   55.01    0.89
  -2   0   3   15.20    0.44
  -2   0   3   15.08    0.35
   2   0  -3   14.67    0.35
   2   0  -3   15.30    0.35
   2   0  -3   15.11    0.44
  -3   0   3  126.38    2.03
  -3   0   3  127.30    2.22
   3   0  -3  127.49    2.22
   3   0  -3  127.13    2.03
  -4   0   3   36.67    0.84
  -4   0   3   37.21    0.75
   4   0  -3   37.93    0.86
   4   0  -3   37.14    0.74
  -5   0   3    0.55    0.22
  -5   0   3    0.86    0.18
   5   0  -3    0.54    0.15
  -6   0   3    7.00    0.49
  -6   0   3    7.58    0.42
   6   0  -3    7.49    0.39
  -7   0   3   -0.10    0.26
  -7   0   3    0.06    0.31
   7   0  -3    0.26    0.24
  -8   0   3    2.28    0.40
  -8   0   3    3.12    0.47
   8   0  -3    3.26    0.42
  10   1   3    1.74    0.49
 -10  -1  -3   -0.27    0.37
 -10  -1  -3    0.80    0.39
 -10  -1  -3    1.50    0.59
   9   1   3   10.89    0.56
   9   1   3   11.20    0.55
   9   1   3   10.77    0.72
  -9  -1  -3   11.69    0.67
  -9  -1  -3   10.85    0.58
   8   1   3    5.06    0.39
   8   1   3    4.73    0.41
  -8  -1  -3    6.16    0.54
  -8  -1  -3    5.08    0.43
   7   1   3   36.07    0.88
   7   1   3   36.75    0.79
  -7  -1  -3   35.85    0.90
   6   1   3    2.99    0.28
   6   1   3    3.42    0.27
  -6  -1  -3    3.16    0.30
  -6  -1  -3    2.67    0.26
   5   1   3   59.44    1.15
   5   1   3   59.28    1.08
  -5  -1  -3   58.56    1.08
  -5  -1  -3   59.07    1.15
   4   1   3   19.76    0.52
   4   1   3   20.46    0.49
  -4  -1  -3   20.02    0.49
  -4  -1  -3   20.22    0.53
   3   1   3   80.42    1.33
   3   1   3   77.47    1.34
  -3  -1  -3   77.75    1.34
  -3  -1  -3   78.23    1.33
   2   1   3   26.06    0.53
   2   1   3   27.06    0.55
   2   1   3   26.64    0.54
   2   1   3   27.16    0.46
  -2  -1  -3   26.53    0.54
  -2  -1  -3   26.85    0.54
   1   1   3  134.87    2.13
   1   1   3  134.61    2.17
  -1  -1  -3  134.22    2.13
  -1  -1  -3  136.19    2.17
  -1  -1  -3  135.32    2.08
   0   1   3    3.01    0.17
   0   1   3    3.11    0.12
   0  -1  -3    3.31    0.11
   0  -1  -3    2.86    0.16
   0  -1  -3    3.05    0.11
   0  -1  -3    3.10    0.13
   0  -1  -3    3.17    0.20
  -1   1   3   42.44    0.84
   1  -1  -3   42.33    0.68
   1  -1  -3   42.85    0.84
   1  -1  -3   42.46    0.68
   1  -1  -3   41.83    0.74
  -2   1   3   42.40    0.71
  -2   1   3   42.76    0.86
   2  -1  -3   41.73    0.85
   2  -1  -3   42.91    0.72
   2  -1  -3   42.37    0.73
   2  -1  -3   41.53    0.71
  -3   1   3   15.39    0.45
  -3   1   3   14.59    0.36
   3  -1  -3   15.45    0.36
   3  -1  -3   15.09    0.45
  -4   1   3   24.79    0.63
  -4   1   3   23.82    0.53
   4  -1  -3   23.36    0.62
   4  -1  -3   23.34    0.53
  -5   1   3   24.18    0.60
  -5   1   3   25.25    0.68
   5  -1  -3   24.06    0.59
  -6   1   3    5.80    0.47
  -6   1   3    5.84    0.41
   6  -1  -3    5.51    0.38
  -7   1   3    0.85    0.30
  -7   1   3    0.57    0.32
   7  -1  -3    0.83    0.29
  10   2   3    1.87    0.51
  10   2   3    1.47    0.38
 -10  -2  -3    1.68    0.35
 -10  -2  -3    1.86    0.48
   9   2   3    7.88    0.53
  -9  -2  -3    9.44    0.55
  -9  -2  -3    8.20    0.69
   8   2   3    6.36    0.43
   8   2   3    6.75    0.42
  -8  -2  -3    6.92    0.47
   7   2   3    8.59    0.43
   7   2   3    9.09    0.41
  -7  -2  -3    8.02    0.38
  -7  -2  -3    9.50    0.48
   6   2   3    2.78    0.23
   6   2   3    2.90    0.29
  -6  -2  -3    2.23    0.26
  -6  -2  -3    2.37    0.25
   5   2   3  163.31    2.59
   5   2   3  159.76    2.66
  -5  -2  -3  160.26    2.66
  -5  -2  -3  159.61    2.59
   4   2   3    0.32    0.13
   4   2   3    0.44    0.15
   4   2   3    0.29    0.15
  -4  -2  -3    0.33    0.13
  -4  -2  -3    0.58    0.17
   3   2   3    7.69    0.28
   3   2   3    7.35    0.30
   3   2   3    7.32    0.29
  -3  -2  -3    7.37    0.28
  -3  -2  -3    7.67    0.30
   2   2   3    6.30    0.23
   2   2   3    6.66    0.25
   2   2   3    6.27    0.25
  -2  -2  -3    6.52    0.24
  -2  -2  -3    6.13    0.25
  -2  -2  -3    6.44    0.25
   1   2   3    6.25    0.24
   1   2   3    6.49    0.24
  -1  -2  -3    6.49    0.23
  -1  -2  -3    6.31    0.19
  -1  -2  -3    6.32    0.24
  -1  -2  -3    6.29    0.16
   0  -2  -3   78.77    1.35
   0  -2  -3   78.61    1.31
   0  -2  -3   78.44    1.31
   1  -2  -3    0.65    0.12
   1  -2  -3    0.62    0.13
   1  -2  -3    0.64    0.13
   2  -2  -3    4.92    0.26
   2  -2  -3    5.19    0.22
  -3   2   3   76.38    1.22
  -3   2   3   75.40    1.22
   3  -2  -3   79.05    1.24
   3  -2  -3   75.18    1.26
   3  -2  -3   75.87    1.40
  -4   2   3    1.54    0.17
  -4   2   3    1.36    0.16
   4  -2  -3    1.66    0.17
   4  -2  -3    1.33    0.20
  -5   2   3   42.23    0.84
  -5   2   3   42.74    0.84
   5  -2  -3   42.81    1.10
   5  -2  -3   42.69    0.86
  -6   2   3    0.52    0.22
  -6   2   3    0.39    0.24
   6  -2  -3    0.53    0.30
   6  -2  -3    0.47    0.22
  -7   2   3    7.80    0.55
  -7   2   3    6.99    0.51
   7  -2  -3    7.31    0.53
   7  -2  -3    9.42    0.76
  10   3   3    4.41    0.43
  10   3   3    4.39    0.56
 -10  -3  -3    4.67    0.47
 -10  -3  -3    5.23    0.60
   9   3   3    0.56    0.33
   9   3   3    0.18    0.29
  -9  -3  -3   -0.52    0.36
  -9  -3  -3    0.55    0.30
   8   3   3    0.46    0.25
   8   3   3    0.89    0.26
  -8  -3  -3    0.77    0.25
  -8  -3  -3    0.54    0.21
   7   3   3   23.75    0.73
   7   3   3   23.25    0.70
   7   3   3   23.29    0.62
  -7  -3  -3   23.54    0.62
  -7  -3  -3   23.24    0.72
   6   3   3   35.18    0.76
   6   3   3   35.29    0.85
  -6  -3  -3   35.79    0.86
  -6  -3  -3   35.54    0.76
   5   3   3  123.03    2.22
   5   3   3  122.92    2.05
   5   3   3  122.96    2.11
  -5  -3  -3  122.60    2.05
  -5  -3  -3  125.44    2.13
   4   3   3   25.08    0.63
   4   3   3   24.37    0.60
   4   3   3   24.39    0.57
  -4  -3  -3   24.99    0.62
  -4  -3  -3   24.50    0.58
   3   3   3  121.21    1.98
   3   3   3  121.90    1.99
   3   3   3  121.10    2.09
  -3  -3  -3  119.53    1.99
  -3  -3  -3  124.10    1.98
  -3  -3  -3  116.97    2.08
   2   3   3   22.15    0.47
   2   3   3   22.23    0.43
   2   3   3   22.07    0.53
  -2  -3  -3   22.37    0.52
  -2  -3  -3   21.91    0.48
  -2  -3  -3   21.90    0.53
   1   3   3  157.26    2.61
   1   3   3  158.23    2.49
  -1  -3  -3  159.26    2.41
  -1  -3  -3  155.90    2.51
  -1  -3  -3  154.34    2.60
  -1  -3  -3  157.59    2.49
   0  -3  -3  136.93    2.22
   0  -3  -3  137.10    2.20
   0  -3  -3  134.40    2.29
   1  -3  -3   34.68    0.76
   1  -3  -3   34.75    0.74
   1  -3  -3   35.42    0.71
   1  -3  -3   35.73    0.75
   2  -3  -3   43.13    0.84
   2  -3  -3   44.73    0.95
   2  -3  -3   44.52    0.89
   3  -3  -3   12.56    0.51
   3  -3  -3   12.49    0.40
   3  -3  -3   12.29    0.38
   4  -3  -3   11.86    0.43
   4  -3  -3   11.84    0.34
   4  -3  -3   12.15    0.39
   4  -3  -3   11.96    0.57
  -5   3   3    9.13    0.35
   5  -3  -3    8.31    0.36
   5  -3  -3   10.08    0.60
  -6   3   3    2.39    0.25
  -6   3   3    2.55    0.26
   6  -3  -3    2.57    0.26
   6  -3  -3    2.27    0.39
  10   4   3    5.04    0.56
  10   4   3    3.92    0.47
 -10  -4  -3    3.82    0.61
 -10  -4  -3    4.76    0.48
   9   4   3    2.56    0.36
   9   4   3    2.53    0.40
  -9  -4  -3    1.59    0.36
  -9  -4  -3    2.15    0.30
   8   4   3    9.36    0.54
   8   4   3   10.49    0.54
  -8  -4  -3    8.26    0.57
  -8  -4  -3    9.73    0.47
   7   4   3   13.00    0.56
  -7  -4  -3   12.84    0.48
  -7  -4  -3   12.12    0.55
   6   4   3   79.09    1.59
   6   4   3   78.06    1.52
  -6  -4  -3   79.31    1.53
  -6  -4  -3   79.20    1.44
   5   4   3   28.12    0.73
   5   4   3   28.55    0.71
  -5  -4  -3   28.09    0.67
  -5  -4  -3   27.67    0.71
   4   4   3  132.59    2.35
   4   4   3  134.33    2.24
  -4  -4  -3  136.48    2.25
  -4  -4  -3  136.05    2.37
  -4  -4  -3  132.67    2.23
   3   4   3   47.72    0.91
   3   4   3   47.19    0.98
   3   4   3   47.89    0.88
  -3  -4  -3   46.74    0.91
  -3  -4  -3   48.18    0.99
  -3  -4  -3   46.91    0.93
   2   4   3    0.31    0.12
   2   4   3    0.01    0.13
   2   4   3    0.07    0.11
  -2  -4  -3    0.16    0.14
  -2  -4  -3    0.09    0.12
  -2  -4  -3    0.21    0.13
   1   4   3  523.67    7.95
   1   4   3  519.94    8.16
  -1  -4  -3  517.18    7.68
  -1  -4  -3  500.26    8.15
  -1  -4  -3  518.30    7.95
  -1  -4  -3  504.25    7.82
   0  -4  -3   43.28    0.91
   0  -4  -3   43.59    0.86
   1  -4  -3   30.39    0.68
   1  -4  -3   29.73    0.72
   1  -4  -3   29.94    0.70
   2  -4  -3   25.05    0.68
   2  -4  -3   25.49    0.60
   2  -4  -3   25.17    0.68
   3  -4  -3    1.58    0.19
   3  -4  -3    1.67    0.26
   4  -4  -3   12.35    0.45
   4  -4  -3   13.58    0.62
   4  -4  -3   11.61    0.41
   5  -4  -3    0.28    0.32
   5  -4  -3    0.43    0.22
   6  -4  -3   13.26    0.85
  10   5   3    0.81    0.46
  10   5   3    0.66    0.44
 -10  -5  -3   -0.15    0.40
 -10  -5  -3    0.85    0.33
 -10  -5  -3   -0.13    0.55
   9   5   3   13.76    0.71
   9   5   3   14.77    0.75
  -9  -5  -3   13.68    0.61
  -9  -5  -3   14.07    0.75
   8   5   3   12.42    0.60
   8   5   3   11.90    0.62
  -8  -5  -3   13.43    0.54
  -8  -5  -3   11.62    0.65
   7   5   3    1.84    0.26
   7   5   3    1.78    0.27
  -7  -5  -3    1.62    0.25
  -7  -5  -3    1.30    0.29
   6   5   3   31.54    0.82
   6   5   3   30.40    0.82
  -6  -5  -3   29.84    0.82
  -6  -5  -3   31.04    0.75
   5   5   3   16.75    0.55
   5   5   3   15.60    0.54
  -5  -5  -3   17.22    0.51
  -5  -5  -3   15.63    0.55
  -5  -5  -3   15.69    0.54
   4   5   3    1.19    0.18
   4   5   3    1.22    0.19
  -4  -5  -3    1.02    0.18
  -4  -5  -3    1.33    0.21
  -4  -5  -3    1.11    0.18
   3   5   3    1.58    0.20
   3   5   3    1.57    0.17
   3   5   3    1.63    0.19
  -3  -5  -3    1.55    0.20
  -3  -5  -3    1.48    0.18
  -3  -5  -3    1.26    0.18
   2   5   3    6.25    0.28
   2   5   3    6.57    0.28
   2   5   3    6.27    0.33
  -2  -5  -3    6.43    0.28
  -2  -5  -3    6.32    0.32
  -2  -5  -3    6.57    0.29
  -2  -5  -3    6.45    0.33
   1   5   3    7.10    0.24
   1   5   3    7.42    0.31
   1   5   3    7.27    0.34
  -1  -5  -3    6.86    0.25
  -1  -5  -3    6.60    0.34
  -1  -5  -3    6.88    0.31
   0   5   3   25.18    0.63
   0  -5  -3   25.69    0.62
   0  -5  -3   25.67    0.67
   0  -5  -3   24.84    0.47
   1  -5  -3   15.08    0.51
   1  -5  -3   15.31    0.53
   2  -5  -3    1.29    0.23
   2  -5  -3    1.31    0.19
   2  -5  -3    1.28    0.24
   3  -5  -3    9.51    0.53
   3  -5  -3    8.94    0.36
   3  -5  -3    8.85    0.53
   4  -5  -3    7.75    0.58
   5  -5  -3    5.12    0.48
   5  -5  -3    4.55    0.50
  10   6   3    2.46    0.51
  10   6   3    1.29    0.51
 -10  -6  -3    2.07    0.41
 -10  -6  -3    1.56    0.48
 -10  -6  -3    1.78    0.61
   9   6   3   13.96    0.78
   9   6   3   13.78    0.73
  -9  -6  -3   14.56    0.82
  -9  -6  -3   13.95    0.64
   8   6   3    1.57    0.34
   8   6   3    1.37    0.28
  -8  -6  -3    1.33    0.28
  -8  -6  -3    0.86    0.35
   7   6   3   33.28    0.93
   7   6   3   32.11    0.90
  -7  -6  -3   31.61    0.83
  -7  -6  -3   32.82    0.94
   6   6   3    2.25    0.27
   6   6   3    2.82    0.30
  -6  -6  -3    2.82    0.33
  -6  -6  -3    2.35    0.27
   5   6   3   64.44    1.28
   5   6   3   62.67    1.34
  -5  -6  -3   63.39    1.28
  -5  -6  -3   60.75    1.33
  -5  -6  -3   62.60    1.25
   4   6   3   10.16    0.44
   4   6   3   10.74    0.41
   4   6   3   10.99    0.45
  -4  -6  -3   10.96    0.46
  -4  -6  -3   10.25    0.42
  -4  -6  -3   10.34    0.44
   3   6   3    9.75    0.39
   3   6   3    9.69    0.41
   3   6   3    9.90    0.38
  -3  -6  -3    9.99    0.39
  -3  -6  -3    9.43    0.40
  -3  -6  -3    9.72    0.41
   2   6   3   38.01    0.88
   2   6   3   37.20    0.80
   2   6   3   36.19    0.75
   2   6   3   36.24    0.74
  -2  -6  -3   37.38    0.88
  -2  -6  -3   36.24    0.79
  -2  -6  -3   37.50    0.76
   1   6   3    2.46    0.20
   1   6   3    2.28    0.23
  -1  -6  -3    2.25    0.21
  -1  -6  -3    2.29    0.25
  -1  -6  -3    2.41    0.22
   0   6   3    7.03    0.24
   0   6   3    6.80    0.38
   0   6   3    6.60    0.24
   0  -6  -3    6.72    0.39
   0  -6  -3    6.68    0.38
   0  -6  -3    6.62    0.24
   1  -6  -3    3.79    0.38
   1  -6  -3    3.58    0.37
   2  -6  -3    1.72    0.21
   2  -6  -3    1.39    0.27
   2  -6  -3    1.39    0.27
   3  -6  -3   25.49    0.62
   3  -6  -3   25.03    0.85
   3  -6  -3   26.17    0.87
   4  -6  -3    1.25    0.38
   4  -6  -3    0.47    0.35
   5  -6  -3    8.27    0.64
   5  -6  -3    7.22    0.65
   5  -6  -3    9.99    0.85
  10   7   3    4.09    0.58
  10   7   3    4.34    0.61
 -10  -7  -3    4.96    0.50
 -10  -7  -3    3.96    0.67
 -10  -7  -3    5.54    0.64
   9   7   3   -0.27    0.33
   9   7   3    0.28    0.39
  -9  -7  -3    0.32    0.42
  -9  -7  -3    0.49    0.32
   8   7   3    4.49    0.43
   8   7   3    4.75    0.48
  -8  -7  -3    4.31    0.38
  -8  -7  -3    4.35    0.47
   7   7   3    9.76    0.50
   7   7   3    9.40    0.59
  -7  -7  -3    9.53    0.52
  -7  -7  -3    9.21    0.62
   6   7   3    4.60    0.46
   6   7   3    4.36    0.38
  -6  -7  -3    4.41    0.38
  -6  -7  -3    4.05    0.39
  -6  -7  -3    4.56    0.49
   5   7   3   38.49    1.01
   5   7   3   43.56    0.96
   5   7   3   42.37    0.99
  -5  -7  -3   41.87    0.99
  -5  -7  -3   40.98    1.02
  -5  -7  -3   41.12    0.96
   4   7   3    1.05    0.20
   4   7   3    1.32    0.23
   4   7   3    1.24    0.22
  -4  -7  -3    0.82    0.18
  -4  -7  -3    1.10    0.20
  -4  -7  -3    1.03    0.23
   3   7   3   53.68    1.07
   3   7   3   52.80    1.10
   3   7   3   54.69    1.20
   3   7   3   55.09    1.07
  -3  -7  -3   51.91    1.18
  -3  -7  -3   54.10    1.08
   2   7   3   39.51    0.83
   2   7   3   40.01    0.90
   2   7   3   40.59    0.98
   2   7   3   40.40    0.82
  -2  -7  -3   40.21    0.89
  -2  -7  -3   40.08    0.98
  -2  -7  -3   40.96    0.84
   1   7   3   21.72    0.64
   1   7   3   21.14    0.51
  -1  -7  -3   21.05    0.67
  -1  -7  -3   20.60    0.62
  -1  -7  -3   20.97    0.52
   0   7   3   21.57    0.48
   0   7   3   22.20    0.49
   0   7   3   21.15    0.68
   0  -7  -3   21.00    0.70
   0  -7  -3   21.61    0.67
   0  -7  -3   20.89    0.49
   1  -7  -3    8.85    0.52
   1  -7  -3    9.73    0.54
   2  -7  -3   17.23    0.71
   2  -7  -3   17.46    0.55
   2  -7  -3   16.87    0.71
   3  -7  -3    4.40    0.35
   3  -7  -3    4.47    0.47
   3  -7  -3    3.71    0.44
   4  -7  -3    1.65    0.46
   4  -7  -3    1.76    0.44
   9   8   3    2.17    0.49
   9   8   3    2.59    0.45
  -9  -8  -3    2.04    0.42
  -9  -8  -3    1.30    0.46
   8   8   3    9.90    0.62
   8   8   3   10.63    0.74
  -8  -8  -3    8.37    0.63
  -8  -8  -3    8.61    0.73
   7   8   3    1.12    0.34
   7   8   3    0.61    0.24
  -7  -8  -3    0.80    0.35
  -7  -8  -3    0.65    0.26
   6   8   3   52.92    1.25
   6   8   3   51.46    1.22
   6   8   3   52.81    1.20
  -6  -8  -3   53.45    1.24
  -6  -8  -3   46.31    1.21
  -6  -8  -3   51.89    1.18
   5   8   3    6.98    0.48
   5   8   3    7.43    0.46
   5   8   3    7.22    0.46
  -5  -8  -3    7.81    0.50
  -5  -8  -3    7.01    0.43
  -5  -8  -3    7.88    0.45
   4   8   3   29.18    0.74
   4   8   3   28.79    0.77
   4   8   3   27.73    0.77
   4   8   3   27.86    0.82
  -4  -8  -3   27.05    0.81
  -4  -8  -3   28.04    0.78
  -4  -8  -3   28.06    0.77
   3   8   3  148.31    2.71
   3   8   3  144.52    2.47
   3   8   3  149.03    2.47
   3   8   3  147.86    2.57
  -3  -8  -3  142.33    2.69
  -3  -8  -3  144.01    2.47
   2   8   3    5.23    0.42
   2   8   3    5.50    0.34
   2   8   3    5.95    0.42
   2   8   3    6.00    0.33
  -2  -8  -3    5.44    0.37
  -2  -8  -3    5.99    0.41
  -2  -8  -3    4.93    0.38
   1   8   3   31.56    0.69
   1   8   3   31.19    0.85
  -1  -8  -3   30.80    0.70
  -1  -8  -3   30.63    0.88
  -1  -8  -3   30.86    0.83
   0   8   3    0.97    0.17
   0   8   3    0.97    0.28
   0   8   3    1.32    0.19
   0  -8  -3    0.98    0.18
   0  -8  -3    1.00    0.28
   0  -8  -3    0.77    0.26
   1  -8  -3   21.80    0.79
   1  -8  -3   20.86    0.77
   2  -8  -3   10.37    0.49
   2  -8  -3   10.16    0.66
   2  -8  -3   12.54    0.70
   3  -8  -3   -0.11    0.38
   3  -8  -3    0.28    0.38
   9   9   3    3.28    0.49
   9   9   3    1.88    0.54
  -9  -9  -3    2.32    0.45
  -9  -9  -3    1.35    0.52
   8   9   3   12.20    0.81
   8   9   3   12.19    0.71
  -8  -9  -3   11.51    0.70
  -8  -9  -3   11.42    0.84
   7   9   3   10.48    0.71
   7   9   3   10.26    0.69
   7   9   3    9.56    0.56
  -7  -9  -3   10.03    0.74
  -7  -9  -3    9.53    0.57
  -7  -9  -3   10.92    0.62
   6   9   3   14.04    0.67
   6   9   3   15.30    0.61
   6   9   3   14.42    0.70
  -6  -9  -3   13.84    0.63
  -6  -9  -3   14.48    0.72
  -6  -9  -3   14.69    0.62
   5   9   3    1.50    0.31
   5   9   3    0.96    0.22
   5   9   3    1.02    0.21
   5   9   3    1.37    0.30
  -5  -9  -3    0.94    0.30
  -5  -9  -3    1.19    0.24
  -5  -9  -3    1.25    0.23
   4   9   3    1.84    0.26
   4   9   3    1.70    0.25
   4   9   3    1.73    0.30
   4   9   3    1.88    0.31
  -4  -9  -3    2.16    0.32
  -4  -9  -3    1.79    0.26
  -4  -9  -3    1.55    0.25
   3   9   3    5.90    0.47
   3   9   3    6.04    0.44
   3   9   3    6.46    0.43
   3   9   3    6.14    0.37
  -3  -9  -3    5.98    0.46
  -3  -9  -3    4.64    0.39
   2   9   3   22.95    0.65
   2   9   3   23.38    0.64
   2   9   3   23.53    0.77
  -2  -9  -3   23.53    0.78
  -2  -9  -3   24.38    0.75
  -2  -9  -3   24.09    0.67
   1   9   3   16.53    0.71
   1   9   3   17.90    0.53
  -1  -9  -3   16.24    0.69
  -1  -9  -3   17.14    0.54
  -1  -9  -3   17.82    0.69
   0   9   3    0.20    0.18
   0   9   3    0.49    0.32
   0   9   3   -0.04    0.19
   0  -9  -3    0.07    0.19
   0  -9  -3    0.06    0.27
   0  -9  -3    0.29    0.30
   1  -9  -3    6.32    0.57
   1  -9  -3    5.59    0.51
   1  -9  -3    5.28    0.35
   2  -9  -3    1.61    0.28
   2  -9  -3    1.44    0.37
   2  -9  -3    1.50    0.45
   8  10   3    0.38    0.39
   8  10   3    0.83    0.48
   8  10   3    1.47    0.51
  -8 -10  -3    0.34    0.48
  -8 -10  -3    0.47    0.38
   7  10   3    9.62    0.78
   7  10   3   10.58    0.61
   7  10   3   11.31    0.63
   7  10   3   10.88    0.74
  -7 -10  -3   10.88    0.62
  -7 -10  -3   10.75    0.80
  -7 -10  -3   11.49    0.69
   6  10   3   13.85    0.72
   6  10   3   13.52    0.57
   6  10   3   12.21    0.61
   6  10   3   13.87    0.77
  -6 -10  -3   14.21    0.67
  -6 -10  -3   14.11    0.77
  -6 -10  -3   14.02    0.64
   5  10   3    4.45    0.45
   5  10   3    4.87    0.46
   5  10   3    3.49    0.37
   5  10   3    4.28    0.46
  -5 -10  -3    3.85    0.35
  -5 -10  -3    5.11    0.44
  -5 -10  -3    3.83    0.42
   4  10   3    9.47    0.53
   4  10   3    8.87    0.45
   4  10   3    8.84    0.57
   4  10   3    8.03    0.59
  -4 -10  -3    7.65    0.49
  -4 -10  -3    8.62    0.58
   3  10   3   -0.06    0.20
   3  10   3   -0.28    0.30
   3  10   3   -0.02    0.23
   3  10   3    0.09    0.25
  -3 -10  -3   -0.33    0.21
  -3 -10  -3    0.35    0.28
   2  10   3   35.92    0.88
   2  10   3   38.35    0.88
   2  10   3   35.98    1.05
  -2 -10  -3   34.78    1.04
  -2 -10  -3   37.83    0.92
  -2 -10  -3   36.82    1.02
   1  10   3    2.16    0.31
   1  10   3    2.47    0.42
   1  10   3    2.62    0.28
  -1 -10  -3    2.50    0.30
  -1 -10  -3    2.06    0.39
  -1 -10  -3    2.11    0.37
   0  10   3    5.14    0.54
   0  10   3    4.10    0.42
   0  10   3    4.29    0.38
   0 -10  -3    4.03    0.41
   0 -10  -3    4.56    0.49
   0 -10  -3    4.59    0.47
   1 -10  -3    6.97    0.64
   1 -10  -3    7.48    0.74
   7  11   3    8.93    0.61
   7  11   3    9.65    0.67
   7  11   3    8.88    0.89
   7  11   3    8.68    0.84
  -7 -11  -3   10.65    0.71
  -7 -11  -3   10.46    0.89
  -7 -11  -3    8.08    0.72
   6  11   3    0.89    0.33
   6  11   3   -0.23    0.26
   6  11   3   -0.01    0.42
   6  11   3   -0.26    0.39
  -6 -11  -3    0.35    0.42
  -6 -11  -3    0.11    0.31
  -6 -11  -3    0.51    0.34
   5  11   3    8.08    0.57
   5  11   3    6.17    0.66
   5  11   3    8.40    0.47
   5  11   3    7.39    0.68
  -5 -11  -3    8.80    0.55
  -5 -11  -3    8.37    0.55
  -5 -11  -3    8.27    0.68
   4  11   3    2.77    0.29
   4  11   3    2.31    0.36
   4  11   3    2.66    0.44
   4  11   3    2.35    0.40
  -4 -11  -3    2.35    0.41
  -4 -11  -3    3.06    0.34
   3  11   3   18.59    0.65
   3  11   3   17.24    0.74
   3  11   3   17.99    0.82
  -3 -11  -3   17.81    0.72
  -3 -11  -3   17.83    0.76
   2  11   3    9.29    0.51
   2  11   3    8.81    0.76
  -2 -11  -3    9.62    0.60
  -2 -11  -3    8.20    0.59
   1  11   3    1.35    0.33
   1  11   3    1.16    0.47
   1  11   3    1.16    0.29
  -1 -11  -3    1.42    0.31
  -1 -11  -3    1.05    0.35
  -1 -11  -3    1.20    0.41
   0  11   3    4.01    0.37
   0  11   3    3.24    0.34
   0  11   3    3.69    0.60
   0 -11  -3    4.15    0.49
   0 -11  -3    3.78    0.52
   0 -11  -3    4.11    0.38
   6  12   3    9.87    0.95
   6  12   3   11.37    0.59
   6  12   3    9.56    0.89
  -6 -12  -3   10.76    0.70
  -6 -12  -3   11.00    0.77
  -6 -12  -3   10.49    0.91
   5  12   3    8.12    0.84
   5  12   3    7.69    0.79
   5  12   3    7.60    0.54
   5  12   3    5.82    0.50
  -5 -12  -3    7.39    0.66
  -5 -12  -3    8.15    0.64
  -5 -12  -3    7.68    0.63
   4  12   3   -0.15    0.46
   4  12   3   -0.14    0.40
   4  12   3    0.47    0.29
  -4 -12  -3   -0.08    0.31
  -4 -12  -3    0.39    0.34
  -4 -12  -3    0.41    0.42
   3  12   3   19.24    0.99
   3  12   3   19.79    0.84
   3  12   3   19.73    0.74
  -3 -12  -3   20.27    0.87
  -3 -12  -3   18.15    0.84
  -2 -12   4    0.71    0.51
  -2 -12   4    0.92    0.51
  -2 -12   4   -0.08    0.40
   2  12  -4    0.49    0.36
   2  12  -4    0.82    0.52
  -3 -12   4   22.39    1.01
  -3 -12   4   21.16    1.13
  -3 -12   4   22.22    1.18
   3  12  -4   20.87    0.90
   3  12  -4   21.64    1.17
   1 -11   4    4.44    0.43
   1 -11   4    4.50    0.48
   1 -11   4    4.10    0.38
   1 -11   4    4.99    0.57
   1 -11   4    5.02    0.51
  -1  11  -4    3.67    0.45
  -1  11  -4    5.34    0.52
  -1  11  -4    4.33    0.53
   0 -11   4    0.86    0.45
   0 -11   4    0.93    0.44
   0 -11   4    0.38    0.37
   0 -11   4    1.59    0.31
   0  11  -4    1.08    0.38
   0  11  -4    1.24    0.45
   0  11  -4    0.88    0.27
  -1 -11   4    9.10    0.69
  -1 -11   4    9.58    0.79
  -1 -11   4    9.69    0.77
   1  11  -4    8.70    0.78
   1  11  -4    9.55    0.65
   1  11  -4    9.97    0.59
  -2 -11   4    1.91    0.41
  -2 -11   4    1.94    0.47
  -2 -11   4    1.50    0.43
   2  11  -4    1.68    0.45
   2  11  -4    1.56    0.31
   2  11  -4    0.96    0.34
  -3 -11   4    6.66    0.68
  -3 -11   4    7.36    0.78
  -3 -11   4    7.04    0.76
   3  11  -4    6.14    0.63
   3  11  -4    7.26    0.61
   3  11  -4    6.38    0.58
  -4 -11   4   -0.32    0.44
  -4 -11   4   -0.82    0.39
  -4 -11   4    0.35    0.39
   4  11  -4    0.28    0.37
   4  11  -4   -0.14    0.35
   4  11  -4    0.28    0.48
  -5 -11   4    8.76    0.86
  -5 -11   4    9.35    0.80
  -5 -11   4    8.46    0.82
   5  11  -4    8.58    0.72
   5  11  -4    8.21    0.70
   5  11  -4    9.07    0.82
   3 -10   4    6.60    0.64
   3 -10   4    4.43    0.41
   3 -10   4    5.56    0.50
   3 -10   4    6.84    0.67
  -3  10  -4    4.78    0.51
  -3  10  -4    5.90    0.58
  -3  10  -4    7.29    0.57
   2 -10   4    3.75    0.39
   2 -10   4    4.75    0.42
   2 -10   4    3.91    0.52
   2 -10   4    4.49    0.44
   2 -10   4    3.80    0.35
  -2  10  -4    4.17    0.51
  -2  10  -4    3.98    0.44
  -2  10  -4    4.13    0.36
   1 -10   4   -0.02    0.30
   1 -10   4    0.78    0.26
   1 -10   4   -0.11    0.32
   1 -10   4   -0.26    0.27
   1 -10   4    0.20    0.36
  -1  10  -4    0.10    0.31
  -1  10  -4   -0.25    0.33
  -1  10  -4    0.23    0.23
   0 -10   4    9.87    0.53
   0 -10   4   10.81    0.68
   0 -10   4    9.33    0.58
   0 -10   4   10.69    0.67
   0 -10   4   10.03    0.73
   0  10  -4    9.72    0.66
   0  10  -4   10.11    0.59
   0  10  -4   10.39    0.53
  -1 -10   4    0.62    0.34
  -1 -10   4    0.41    0.29
  -1 -10   4    0.86    0.26
  -1 -10   4    0.99    0.34
   1  10  -4    0.66    0.26
   1  10  -4    0.93    0.36
   1  10  -4    1.02    0.28
  -2 -10   4    0.96    0.34
  -2 -10   4    0.79    0.30
  -2 -10   4    0.55    0.35
   2  10  -4    0.64    0.29
   2  10  -4    0.13    0.33
   2  10  -4    0.72    0.26
  -3 -10   4   11.44    0.74
  -3 -10   4    9.60    0.69
  -3 -10   4   10.50    0.65
   3  10  -4    9.32    0.56
   3  10  -4   10.99    0.66
   3  10  -4   11.22    0.71
  -4 -10   4    4.35    0.46
  -4 -10   4    5.73    0.62
  -4 -10   4    4.03    0.48
   4  10  -4    4.20    0.41
   4  10  -4    4.07    0.51
   4  10  -4    3.53    0.47
  -5 -10   4   21.11    0.96
  -5 -10   4   21.32    0.89
  -5 -10   4   20.92    0.86
   5  10  -4   21.10    0.90
   5  10  -4   18.98    0.95
   5  10  -4   20.25    0.96
   5  10  -4   20.85    0.83
  -6 -10   4    0.04    0.37
  -6 -10   4    0.59    0.42
  -6 -10   4    0.39    0.41
   6  10  -4    0.54    0.47
   6  10  -4    0.80    0.38
   6  10  -4    0.43    0.45
   6  10  -4   -0.44    0.44
   4  -9   4   -0.09    0.31
   4  -9   4    0.37    0.45
   4  -9   4    0.57    0.36
   4  -9   4    0.62    0.35
  -4   9  -4   -0.03    0.41
  -4   9  -4   -0.19    0.42
  -4   9  -4    0.24    0.32
   3  -9   4   10.58    0.50
   3  -9   4   11.08    0.65
   3  -9   4   10.00    0.74
   3  -9   4   10.05    0.51
   3  -9   4   12.41    0.67
  -3   9  -4   11.47    0.69
  -3   9  -4   11.48    0.56
  -3   9  -4   10.78    0.73
   2  -9   4    8.13    0.54
   2  -9   4    8.54    0.54
   2  -9   4    7.71    0.47
   2  -9   4    9.27    0.58
   2  -9   4    8.68    0.65
  -2   9  -4    9.07    0.64
  -2   9  -4    8.74    0.58
  -2   9  -4    8.99    0.48
   1  -9   4   19.95    0.64
   1  -9   4   17.94    0.69
   1  -9   4   18.99    0.77
   1  -9   4   18.76    0.71
   1  -9   4   18.75    0.73
  -1   9  -4   19.68    0.65
  -1   9  -4   18.40    0.75
  -1   9  -4   18.95    0.72
   0  -9   4   31.39    0.95
   0  -9   4   32.42    0.94
   0  -9   4   31.66    0.93
   0  -9   4   32.23    0.87
   0  -9   4   32.89    0.95
   0   9  -4   31.83    0.94
   0   9  -4   32.24    0.95
   0   9  -4   33.32    0.89
  -1  -9   4    0.36    0.23
  -1  -9   4   -0.01    0.26
  -1  -9   4   -0.07    0.26
  -1  -9   4    0.41    0.24
   1   9  -4   -0.30    0.25
   1   9  -4    0.32    0.21
   1   9  -4   -0.13    0.21
  -2  -9   4   44.61    1.15
  -2  -9   4   43.33    1.12
  -2  -9   4   44.16    1.17
   2   9  -4   45.09    1.15
   2   9  -4   46.46    1.14
   2   9  -4   43.49    1.13
  -3  -9   4    0.21    0.25
  -3  -9   4    0.05    0.24
  -3  -9   4    0.30    0.30
   3   9  -4   -0.03    0.23
   3   9  -4   -0.12    0.29
   3   9  -4    0.31    0.27
  -4  -9   4   44.78    1.14
  -4  -9   4   44.77    1.21
  -4  -9   4   45.84    1.22
   4   9  -4   45.14    1.18
   4   9  -4   43.34    1.21
   4   9  -4   44.69    1.19
   4   9  -4   44.00    1.14
  -5  -9   4   14.68    0.73
  -5  -9   4   15.37    0.73
  -5  -9   4   16.87    0.81
   5   9  -4   16.15    0.83
   5   9  -4   15.50    0.74
   5   9  -4   15.50    0.71
   5   9  -4   15.57    0.78
  -6  -9   4    1.87    0.37
  -6  -9   4    2.41    0.42
   6   9  -4    2.82    0.50
   6   9  -4    3.25    0.47
   6   9  -4    2.88    0.40
   6   9  -4    2.80    0.45
  -7  -9   4    4.52    0.55
  -7  -9   4    3.42    0.53
   7   9  -4    5.31    0.70
   7   9  -4    3.45    0.53
   7   9  -4    4.86    0.60
   5  -8   4    0.76    0.33
   5  -8   4   -0.04    0.31
  -5   8  -4    0.51    0.44
  -5   8  -4    0.73    0.31
   4  -8   4    5.34    0.50
   4  -8   4    6.14    0.56
   4  -8   4    4.86    0.43
  -4   8  -4    5.54    0.45
  -4   8  -4    5.24    0.46
  -4   8  -4    4.65    0.48
   3  -8   4    2.14    0.31
   3  -8   4    1.96    0.24
   3  -8   4    2.28    0.28
   3  -8   4    1.74    0.23
   3  -8   4    1.96    0.37
  -3   8  -4    2.17    0.25
  -3   8  -4    1.56    0.37
  -3   8  -4    1.28    0.27
   2  -8   4    1.57    0.27
   2  -8   4    1.47    0.33
   2  -8   4    1.71    0.28
   2  -8   4    1.29    0.26
   2  -8   4    1.47    0.22
  -2   8  -4    1.38    0.24
  -2   8  -4    1.25    0.27
  -2   8  -4    1.66    0.30
   1  -8   4   13.08    0.50
   1  -8   4   12.73    0.56
   1  -8   4   13.13    0.62
   1  -8   4   12.69    0.58
   1  -8   4   12.35    0.54
  -1   8  -4   14.01    0.61
  -1   8  -4   12.84    0.58
  -1   8  -4   11.77    0.51
   0  -8   4    6.24    0.39
   0  -8   4    7.22    0.46
   0  -8   4    6.34    0.50
   0  -8   4    7.13    0.45
   0  -8   4    6.52    0.48
   0   8  -4    6.94    0.46
   0   8  -4    6.26    0.48
   0   8  -4    6.27    0.41
  -1  -8   4   97.68    1.89
  -1  -8   4   99.00    1.92
  -1  -8   4   98.28    1.94
  -1  -8   4  101.43    2.00
   1   8  -4  102.11    1.99
   1   8  -4   98.17    1.91
   1   8  -4  101.42    1.91
  -2  -8   4   32.11    0.92
  -2  -8   4   31.52    0.86
  -2  -8   4   31.05    0.90
   2   8  -4   31.11    0.88
   2   8  -4   32.12    0.90
   2   8  -4   30.16    0.88
  -3  -8   4    4.73    0.43
  -3  -8   4    3.88    0.43
  -3  -8   4    4.51    0.41
   3   8  -4    4.44    0.45
   3   8  -4    5.01    0.44
   3   8  -4    4.44    0.47
  -4  -8   4   12.12    0.58
  -4  -8   4   13.66    0.65
  -4  -8   4   13.53    0.60
   4   8  -4   12.85    0.59
   4   8  -4   13.76    0.62
   4   8  -4   13.57    0.70
   4   8  -4   12.83    0.62
  -5  -8   4    6.51    0.53
  -5  -8   4    6.92    0.53
  -5  -8   4    6.95    0.55
   5   8  -4    6.62    0.56
   5   8  -4    7.46    0.65
   5   8  -4    7.64    0.56
   5   8  -4    7.22    0.53
  -6  -8   4    4.01    0.44
  -6  -8   4    3.51    0.41
   6   8  -4    4.04    0.41
   6   8  -4    4.81    0.54
   6   8  -4    3.97    0.45
  -7  -8   4    2.27    0.34
  -7  -8   4    2.84    0.41
  -7  -8   4    2.05    0.45
   7   8  -4    2.40    0.49
   7   8  -4    2.78    0.42
   7   8  -4    3.22    0.59
   6  -7   4    6.43    0.57
   6  -7   4    8.77    0.70
   6  -7   4    8.39    0.90
  -6   7  -4    6.64    0.60
  -6   7  -4    7.04    0.62
   5  -7   4    5.82    0.44
   5  -7   4    6.39    0.57
  -5   7  -4    5.87    0.46
  -5   7  -4    6.36    0.65
   4  -7   4    4.38    0.43
   4  -7   4    3.79    0.35
   4  -7   4    4.55    0.48
  -4   7  -4    3.79    0.39
  -4   7  -4    4.26    0.42
  -4   7  -4    4.37    0.40
   3  -7   4    2.13    0.34
   3  -7   4    2.20    0.23
   3  -7   4    2.04    0.28
   3  -7   4    2.12    0.22
  -3   7  -4    2.08    0.25
  -3   7  -4    2.09    0.26
  -3   7  -4    2.27    0.33
   2  -7   4    6.28    0.47
   2  -7   4    6.18    0.36
   2  -7   4    6.03    0.43
   2  -7   4    6.31    0.40
   2  -7   4    7.08    0.45
  -2   7  -4    5.92    0.46
  -2   7  -4    5.43    0.37
  -2   7  -4    6.58    0.42
   1  -7   4    1.77    0.21
   1  -7   4    2.00    0.28
   1  -7   4    2.13    0.28
   1  -7   4    2.02    0.27
   1  -7   4    1.97    0.25
  -1   7  -4    2.11    0.29
  -1   7  -4    1.75    0.24
  -1   7  -4    2.12    0.26
   0  -7   4    0.11    0.18
   0  -7   4    0.22    0.17
   0  -7   4    0.10    0.17
   0  -7   4    0.17    0.16
   0  -7   4    0.39    0.22
   0   7  -4    0.09    0.16
   0   7  -4    0.31    0.21
   0   7  -4   -0.02    0.16
  -1  -7   4   16.65    0.60
  -1  -7   4   16.78    0.57
  -1  -7   4   16.05    0.60
  -1  -7   4   17.06    0.57
   1   7  -4   16.93    0.58
   1   7  -4   15.66    0.58
   1   7  -4   16.63    0.60
  -2  -7   4   13.70    0.52
  -2  -7   4   13.26    0.55
  -2  -7   4   14.54    0.58
   2   7  -4   13.51    0.55
   2   7  -4   14.74    0.57
   2   7  -4   13.61    0.56
  -3  -7   4   22.51    0.67
  -3  -7   4   24.08    0.75
  -3  -7   4   22.44    0.72
   3   7  -4   22.77    0.74
   3   7  -4   22.00    0.73
   3   7  -4   22.75    0.72
   3   7  -4   22.97    0.67
  -4  -7   4    1.06    0.25
  -4  -7   4    0.95    0.22
  -4  -7   4    1.01    0.26
   4   7  -4    0.91    0.29
   4   7  -4    0.89    0.23
   4   7  -4    0.84    0.25
   4   7  -4    0.82    0.24
  -5  -7   4   13.42    0.63
  -5  -7   4   14.91    0.63
   5   7  -4   14.91    0.73
   5   7  -4   13.60    0.59
   5   7  -4   13.49    0.60
  -6  -7   4    9.21    0.66
  -6  -7   4    9.85    0.56
   6   7  -4    9.75    0.62
   6   7  -4   10.22    0.74
   6   7  -4   10.08    0.56
  -7  -7   4    0.06    0.30
  -7  -7   4   -0.74    0.38
  -7  -7   4    0.18    0.24
   7   7  -4   -0.40    0.45
   7   7  -4   -0.23    0.38
   7   7  -4    0.16    0.33
   7  -6   4    4.98    0.49
   7  -6   4    4.11    0.43
   7  -6   4    5.90    0.64
  -7   6  -4    4.34    0.57
  -7   6  -4    6.77    0.67
   6  -6   4    0.08    0.30
   6  -6   4   -0.02    0.26
   6  -6   4   -0.47    0.36
  -6   6  -4    0.33    0.27
  -6   6  -4   -0.19    0.36
   5  -6   4    9.04    0.55
   5  -6   4    6.47    0.40
  -5   6  -4    6.95    0.43
  -5   6  -4    7.06    0.58
   4  -6   4   14.92    0.61
   4  -6   4   14.96    0.53
   4  -6   4   14.69    0.65
  -4   6  -4   15.71    0.64
  -4   6  -4   15.52    0.55
  -4   6  -4   13.93    0.59
   3  -6   4   13.15    0.55
   3  -6   4   12.24    0.46
   3  -6   4   12.57    0.56
   3  -6   4   11.96    0.41
  -3   6  -4   13.16    0.50
  -3   6  -4   12.60    0.55
  -3   6  -4   12.78    0.52
   2  -6   4   15.16    0.56
   2  -6   4   14.12    0.55
   2  -6   4   13.95    0.48
   2  -6   4   14.64    0.47
  -2   6  -4   14.13    0.53
  -2   6  -4   14.19    0.50
  -2   6  -4   13.39    0.54
   1  -6   4    1.53    0.23
   1  -6   4    1.28    0.20
   1  -6   4    1.31    0.18
   1  -6   4    1.43    0.22
   1  -6   4    1.56    0.24
  -1   6  -4    1.11    0.19
  -1   6  -4    1.26    0.20
  -1   6  -4    0.98    0.21
   0  -6   4   37.73    0.91
   0  -6   4   37.81    0.88
   0  -6   4   38.13    0.90
   0  -6   4   37.12    0.87
   0  -6   4   38.02    0.89
   0   6  -4   38.98    0.90
   0   6  -4   38.48    0.91
   0   6  -4   38.14    0.88
  -1  -6   4   20.61    0.63
  -1  -6   4   19.74    0.60
  -1  -6   4   19.63    0.57
  -1  -6   4   20.56    0.62
   1   6  -4   19.37    0.60
   1   6  -4   19.52    0.60
   1   6  -4   19.86    0.60
  -2  -6   4    4.31    0.31
  -2  -6   4    4.36    0.33
  -2  -6   4    4.24    0.34
  -2  -6   4    3.70    0.35
   2   6  -4    4.16    0.35
   2   6  -4    4.48    0.34
   2   6  -4    4.35    0.34
  -3  -6   4   37.53    0.85
  -3  -6   4   37.47    0.91
  -3  -6   4   37.48    0.97
   3   6  -4   36.27    0.93
   3   6  -4   38.01    0.93
   3   6  -4   36.44    0.90
   3   6  -4   37.77    0.85
  -4  -6   4   21.00    0.62
  -4  -6   4   22.03    0.69
  -4  -6   4   22.25    0.73
   4   6  -4   18.74    0.65
   4   6  -4   22.58    0.73
   4   6  -4   21.76    0.62
  -5  -6   4   28.78    0.90
  -5  -6   4   24.17    0.77
   5   6  -4   29.92    0.88
   5   6  -4   30.13    0.81
   5   6  -4   29.62    0.79
  -6  -6   4    2.35    0.30
  -6  -6   4    2.70    0.39
   6   6  -4    2.84    0.36
   6   6  -4    2.50    0.27
   6   6  -4    2.62    0.42
  -7  -6   4   12.45    0.60
  -7  -6   4   12.41    0.84
   7   6  -4   11.14    0.58
   7   6  -4   13.39    0.76
   7   6  -4   12.47    0.87
  -8  -6   4    3.41    0.63
  -8  -6   4    4.27    0.40
   8   6  -4    3.37    0.46
   8   6  -4    4.96    0.67
   8   6  -4    5.25    0.61
   7  -5   4    2.41    0.39
   7  -5   4    2.49    0.49
   7  -5   4    2.78    0.33
  -7   5  -4    2.78    0.36
  -7   5  -4    2.50    0.50
   6  -5   4    2.74    0.36
   6  -5   4    2.95    0.35
   6  -5   4    2.52    0.26
  -6   5  -4    2.41    0.38
  -6   5  -4    2.73    0.30
   5  -5   4   18.38    0.70
   5  -5   4   18.75    0.60
   5  -5   4   20.91    0.73
  -5   5  -4   19.23    0.71
  -5   5  -4   20.65    0.63
   4  -5   4    1.40    0.20
   4  -5   4    1.84    0.26
   4  -5   4    1.52    0.28
  -4   5  -4    1.19    0.25
  -4   5  -4    1.68    0.23
  -4   5  -4    1.25    0.22
   3  -5   4   53.85    1.19
   3  -5   4   53.63    1.14
   3  -5   4   52.90    1.10
   3  -5   4   53.12    1.01
  -3   5  -4   53.20    1.17
  -3   5  -4   53.91    1.13
  -3   5  -4   53.12    1.11
   2  -5   4   28.77    0.76
   2  -5   4   28.54    0.70
   2  -5   4   29.35    0.74
   2  -5   4   28.34    0.67
  -2   5  -4   28.97    0.68
  -2   5  -4   28.27    0.74
  -2   5  -4   28.88    0.71
  -2   5  -4   29.37    0.73
   1  -5   4   76.87    1.49
   1  -5   4   79.24    1.46
   1  -5   4   76.71    1.44
   1  -5   4   75.59    1.42
  -1   5  -4   76.76    1.46
  -1   5  -4   77.17    1.48
  -1   5  -4   76.90    1.44
  -1   5  -4   76.04    1.43
   0  -5   4   48.47    1.02
   0  -5   4   48.32    0.97
   0  -5   4   46.77    1.02
   0  -5   4   47.82    0.99
   0  -5   4   47.69    0.99
   0   5  -4   45.76    1.01
   0   5  -4   46.12    1.02
   0   5  -4   47.84    0.99
   0   5  -4   47.27    0.99
  -1  -5   4    3.45    0.29
  -1  -5   4    3.04    0.28
  -1  -5   4    3.12    0.26
  -1  -5   4    3.12    0.29
   1   5  -4    3.29    0.30
   1   5  -4    3.64    0.32
   1   5  -4    3.28    0.27
   1   5  -4    3.15    0.29
  -2  -5   4  136.32    2.31
  -2  -5   4  131.71    2.30
  -2  -5   4  132.21    2.44
  -2  -5   4  133.69    2.28
   2   5  -4  133.93    2.28
   2   5  -4  135.59    2.31
   2   5  -4  134.66    2.46
   2   5  -4  136.35    2.31
   2   5  -4  131.98    2.37
  -3  -5   4    0.10    0.15
  -3  -5   4    0.12    0.15
  -3  -5   4   -0.02    0.14
   3   5  -4   -0.05    0.13
   3   5  -4    0.11    0.14
   3   5  -4    0.13    0.18
  -4  -5   4   51.42    1.21
  -4  -5   4   53.02    1.14
   4   5  -4   52.23    1.12
   4   5  -4   53.26    1.17
   4   5  -4   52.86    1.07
  -5  -5   4   48.96    1.12
  -5  -5   4   50.18    1.24
   5   5  -4   49.58    1.18
   5   5  -4   50.99    1.09
   5   5  -4   49.85    1.10
  -6  -5   4    1.25    0.24
  -6  -5   4    1.22    0.32
   6   5  -4    0.84    0.35
   6   5  -4    1.06    0.30
   6   5  -4    1.47    0.23
  -7  -5   4   11.18    0.83
  -7  -5   4   10.88    0.54
   7   5  -4   10.80    0.68
   7   5  -4    9.86    0.78
   7   5  -4   10.55    0.56
  -8  -5   4    0.97    0.52
  -8  -5   4   -0.43    0.34
   8   5  -4   -0.04    0.53
   8   5  -4    0.54    0.49
   8   5  -4   -0.11    0.38
   8  -4   4    5.24    0.55
   8  -4   4    4.11    0.37
   8  -4   4    3.95    0.49
  -8   4  -4    5.16    0.58
  -8   4  -4    4.73    0.42
   7  -4   4    0.35    0.31
   7  -4   4    0.67    0.35
   7  -4   4    0.40    0.24
  -7   4  -4    0.86    0.36
  -7   4  -4    0.27    0.25
   6  -4   4   -0.29    0.24
   6  -4   4   -0.10    0.25
   6  -4   4    0.00    0.19
  -6   4  -4    0.19    0.28
  -6   4  -4    0.27    0.21
   5  -4   4    4.90    0.42
   5  -4   4    5.06    0.44
   5  -4   4    5.05    0.34
  -5   4  -4    5.08    0.45
  -5   4  -4    5.39    0.36
   4  -4   4   22.26    0.68
   4  -4   4   21.88    0.61
  -4   4  -4   22.35    0.64
  -4   4  -4   21.57    0.67
  -4   4  -4   23.24    0.68
   3  -4   4   76.53    1.34
   3  -4   4   75.22    1.42
   3  -4   4   75.31    1.48
   3  -4   4   74.83    1.40
  -3   4  -4   73.66    1.46
  -3   4  -4   75.29    1.34
  -3   4  -4   74.40    1.41
  -3   4  -4   75.48    1.41
   2  -4   4    0.75    0.17
   2  -4   4    0.53    0.14
   2  -4   4    0.54    0.14
   2  -4   4    0.51    0.16
  -2   4  -4    0.37    0.15
  -2   4  -4    0.36    0.15
  -2   4  -4    0.45    0.15
  -2   4  -4    0.52    0.14
   1  -4   4   21.04    0.58
   1  -4   4   21.06    0.56
   1  -4   4   21.51    0.55
   1  -4   4   20.69    0.57
  -1   4  -4   20.85    0.56
  -1   4  -4   20.43    0.56
  -1   4  -4   20.79    0.57
   0  -4   4    5.80    0.32
   0  -4   4    5.00    0.31
   0  -4   4    5.31    0.27
   0  -4   4    5.24    0.31
   0   4  -4    5.72    0.32
   0   4  -4    5.63    0.34
   0   4  -4    5.90    0.31
   0   4  -4    5.39    0.31
  -1  -4   4  214.81    3.45
  -1  -4   4  212.45    3.41
  -1  -4   4  213.57    3.41
  -1  -4   4  213.18    3.63
   1   4  -4  207.15    3.40
   1   4  -4  213.99    3.41
   1   4  -4  212.04    3.51
   1   4  -4  215.60    3.64
  -2  -4   4  181.43    3.21
  -2  -4   4  183.79    3.00
  -2  -4   4  184.54    3.00
   2   4  -4  184.39    3.00
   2   4  -4  184.83    3.22
   2   4  -4  184.23    3.00
   2   4  -4  185.83    3.00
  -3  -4   4    2.86    0.26
  -3  -4   4    3.09    0.30
   3   4  -4    3.74    0.24
   3   4  -4    3.41    0.32
   3   4  -4    3.19    0.25
   3   4  -4    3.22    0.33
  -4  -4   4   21.56    0.61
  -4  -4   4   22.03    0.50
  -4  -4   4   22.20    0.70
   4   4  -4   21.56    0.61
   4   4  -4   21.49    0.67
   4   4  -4   21.49    0.57
  -5  -4   4    9.59    0.57
  -5  -4   4   11.24    0.47
   5   4  -4   11.50    0.57
   5   4  -4   11.30    0.48
   5   4  -4   11.77    0.45
  -6  -4   4    4.10    0.37
  -6  -4   4    3.53    0.41
   6   4  -4    4.20    0.42
   6   4  -4    4.41    0.46
   6   4  -4    3.53    0.36
  -7  -4   4    5.14    0.52
  -7  -4   4    4.98    0.45
   7   4  -4    4.82    0.51
   7   4  -4    4.04    0.32
   7   4  -4    5.85    0.60
  -8  -4   4    4.94    0.45
  -8  -4   4    4.63    0.63
   8   4  -4    6.40    0.65
   8   4  -4    5.90    0.61
   8   4  -4    7.83    0.83
   8  -3   4    2.42    0.31
   8  -3   4    2.45    0.41
   8  -3   4    2.78    0.39
  -8   3  -4    2.35    0.48
  -8   3  -4    1.50    0.31
   7  -3   4    9.05    0.59
   7  -3   4    9.31    0.59
   7  -3   4    7.55    0.44
  -7   3  -4    8.73    0.64
  -7   3  -4    8.86    0.50
   6  -3   4   38.44    0.94
   6  -3   4   39.23    1.03
   6  -3   4   38.72    0.92
  -6   3  -4   37.69    0.98
  -6   3  -4   37.33    0.93
   5  -3   4   -0.07    0.17
   5  -3   4   -0.05    0.16
   5  -3   4   -0.24    0.13
  -5   3  -4    0.12    0.21
  -5   3  -4    0.01    0.15
   4  -3   4   52.63    1.05
   4  -3   4   51.74    1.05
   4  -3   4   50.50    1.10
  -4   3  -4   51.36    1.06
  -4   3  -4   50.91    1.09
  -4   3  -4   50.91    1.05
  -4   3  -4   49.95    0.93
   3  -3   4   31.97    0.73
   3  -3   4   31.27    0.74
   3  -3   4   31.15    0.72
   3  -3   4   32.29    0.76
  -3   3  -4   31.61    0.73
  -3   3  -4   32.15    0.66
  -3   3  -4   31.52    0.74
  -3   3  -4   31.68    0.73
   2  -3   4   10.45    0.37
   2  -3   4    9.91    0.34
   2  -3   4    9.88    0.39
   2  -3   4    9.94    0.39
  -2   3  -4   10.06    0.39
  -2   3  -4   10.53    0.35
  -2   3  -4    9.96    0.37
  -2   3  -4   10.23    0.38
   1  -3   4    0.64    0.15
   1  -3   4    0.44    0.14
   1  -3   4    0.52    0.15
   1  -3   4    0.64    0.15
  -1   3  -4    0.61    0.16
  -1   3  -4    0.55    0.15
  -1   3  -4    0.71    0.16
  -1   3  -4    0.50    0.14
   0  -3   4   13.93    0.42
   0  -3   4   14.33    0.43
   0  -3   4   13.94    0.36
   0  -3   4   13.87    0.44
   0   3  -4   13.68    0.45
   0   3  -4   14.56    0.43
   0   3  -4   13.49    0.42
  -1  -3   4   52.15    1.01
  -1  -3   4   51.59    1.00
  -1  -3   4   51.86    1.08
  -1  -3   4   52.67    0.92
   1   3  -4   53.79    1.10
   1   3  -4   51.52    1.00
   1   3  -4   52.93    1.00
  -2  -3   4   17.66    0.49
  -2  -3   4   17.36    0.54
   2   3  -4   17.84    0.49
   2   3  -4   17.71    0.39
   2   3  -4   17.74    0.51
   2   3  -4   17.15    0.55
  -3  -3   4   56.13    1.20
  -3  -3   4   58.82    1.11
  -3  -3   4   56.09    0.98
   3   3  -4   55.56    1.10
   3   3  -4   57.11    1.03
   3   3  -4   57.21    1.22
   3   3  -4   57.42    1.12
  -4  -3   4    6.13    0.33
  -4  -3   4    5.90    0.41
   4   3  -4    5.61    0.42
   4   3  -4    6.38    0.31
   4   3  -4    6.29    0.41
   4   3  -4    5.87    0.32
  -5  -3   4    0.96    0.20
  -5  -3   4    1.06    0.26
   5   3  -4    0.97    0.26
   5   3  -4    0.92    0.23
   5   3  -4    1.34    0.17
  -6  -3   4   15.81    0.56
  -6  -3   4   15.18    0.73
   6   3  -4   15.67    0.60
   6   3  -4   15.67    0.68
   6   3  -4   14.76    0.53
  -7  -3   4    0.40    0.37
  -7  -3   4    0.17    0.25
   7   3  -4   -0.02    0.35
   7   3  -4    0.13    0.26
   7   3  -4    0.43    0.40
  -8  -3   4    2.55    0.56
  -8  -3   4    2.67    0.38
   8   3  -4    2.52    0.57
   8   3  -4    2.85    0.54
   8   3  -4    2.81    0.38
   9  -2   4    2.65    0.34
   9  -2   4    3.51    0.47
   9  -2   4    3.05    0.48
  -9   2  -4    3.35    0.57
  -9   2  -4    3.28    0.38
   8  -2   4    0.55    0.26
   8  -2   4   -0.13    0.30
   8  -2   4   -0.10    0.30
  -8   2  -4    0.34    0.27
  -8   2  -4   -0.03    0.37
   7  -2   4   24.19    0.72
   7  -2   4   25.63    0.75
   7  -2   4   24.01    0.82
  -7   2  -4   24.90    0.75
  -7   2  -4   24.82    0.83
   6  -2   4    0.85    0.18
   6  -2   4    1.12    0.24
   6  -2   4    0.70    0.23
  -6   2  -4    1.06    0.21
  -6   2  -4    1.00    0.26
   5  -2   4   20.60    0.63
   5  -2   4   20.56    0.57
   5  -2   4   20.40    0.57
  -5   2  -4   20.55    0.62
  -5   2  -4   20.17    0.46
  -5   2  -4   19.56    0.59
   4  -2   4   39.46    0.85
   4  -2   4   40.59    0.89
   4  -2   4   40.22    0.84
  -4   2  -4   39.48    0.78
  -4   2  -4   39.78    0.87
  -4   2  -4   40.62    0.88
   3  -2   4   51.27    1.01
   3  -2   4   53.45    1.03
   3  -2   4   50.77    1.00
   3  -2   4   52.76    1.03
  -3   2  -4   52.93    1.03
  -3   2  -4   51.00    1.02
  -3   2  -4   52.42    0.98
  -3   2  -4   52.46    1.02
   2  -2   4    7.58    0.32
   2  -2   4    7.38    0.30
   2  -2   4    7.90    0.33
   2  -2   4    7.88    0.32
   2  -2   4    8.05    0.33
  -2   2  -4    7.50    0.33
  -2   2  -4    7.97    0.31
  -2   2  -4    7.73    0.33
  -2   2  -4    7.76    0.31
   1  -2   4    1.31    0.15
   1  -2   4    1.34    0.16
   1  -2   4    1.25    0.15
   1  -2   4    1.23    0.15
   1  -2   4    1.05    0.14
  -1   2  -4    1.54    0.16
  -1   2  -4    1.17    0.16
  -1   2  -4    1.05    0.15
  -1   2  -4    1.29    0.16
   0  -2   4   21.13    0.50
   0  -2   4   20.19    0.48
   0  -2   4   20.87    0.50
   0  -2   4   21.38    0.54
   0  -2   4   20.47    0.41
   0   2  -4   21.08    0.50
   0   2  -4   21.13    0.50
   0   2  -4   21.56    0.55
   0   2  -4   21.37    0.51
  -1  -2   4   55.03    0.97
  -1  -2   4   54.70    1.11
  -1  -2   4   55.41    1.01
  -1  -2   4   55.53    1.01
   1   2  -4   54.77    1.11
   1   2  -4   54.98    1.01
   1   2  -4   54.87    1.01
  -2  -2   4   16.58    0.51
  -2  -2   4   16.90    0.45
  -2  -2   4   16.58    0.39
   2   2  -4   17.11    0.36
   2   2  -4   16.68    0.53
   2   2  -4   16.75    0.44
   2   2  -4   16.52    0.46
  -3  -2   4   95.73    1.49
  -3  -2   4   94.10    1.79
  -3  -2   4   93.51    1.63
   3   2  -4   95.23    1.60
   3   2  -4   94.09    1.64
   3   2  -4   93.79    1.63
   3   2  -4   94.63    1.79
  -4  -2   4    0.13    0.14
  -4  -2   4   -0.20    0.17
   4   2  -4   -0.14    0.18
   4   2  -4    0.11    0.15
   4   2  -4   -0.12    0.11
   4   2  -4   -0.07    0.18
  -5  -2   4   37.56    0.86
  -5  -2   4   37.70    0.98
   5   2  -4   39.44    0.87
   5   2  -4   37.14    0.90
   5   2  -4   36.69    0.85
  -6  -2   4    1.21    0.24
  -6  -2   4    1.23    0.33
   6   2  -4    1.52    0.31
   6   2  -4    1.55    0.23
   6   2  -4    1.82    0.33
  -7  -2   4    9.45    0.53
  -7  -2   4    8.70    0.73
   7   2  -4    9.97    0.52
   7   2  -4    9.83    0.70
   7   2  -4    9.41    0.69
  -8  -2   4    5.68    0.63
  -8  -2   4    6.40    0.63
   8   2  -4    5.93    0.64
   8   2  -4    4.39    0.45
   8   2  -4    6.26    0.63
   9  -1   4   -0.78    0.38
   9  -1   4   -0.05    0.35
   9  -1   4    0.04    0.32
  -9   1  -4    0.32    0.49
  -9   1  -4   -0.34    0.31
   8  -1   4    7.97    0.55
   8  -1   4    8.79    0.63
   8  -1   4    7.65    0.46
  -8   1  -4    7.91    0.50
  -8   1  -4    8.10    0.68
   7  -1   4    3.97    0.34
   7  -1   4    4.42    0.42
   7  -1   4    5.35    0.48
  -7   1  -4    3.79    0.38
  -7   1  -4    4.34    0.40
  -7   1  -4    4.67    0.30
   6  -1   4    0.26    0.19
   6  -1   4   -0.03    0.16
   6  -1   4   -0.04    0.15
  -6   1  -4   -0.02    0.22
  -6   1  -4    0.44    0.18
   5  -1   4   22.36    0.63
   5  -1   4   22.30    0.60
   5  -1   4   22.69    0.59
  -5   1  -4   22.58    0.53
  -5   1  -4   23.02    0.63
  -5   1  -4   22.42    0.64
   4  -1   4    2.46    0.25
   4  -1   4    2.38    0.26
   4  -1   4    2.60    0.25
  -4   1  -4    2.44    0.23
  -4   1  -4    2.78    0.23
  -4   1  -4    2.65    0.26
   3  -1   4  136.32    2.21
   3  -1   4  134.78    2.24
   3  -1   4  135.63    2.22
  -3   1  -4  132.92    2.22
  -3   1  -4  134.37    2.28
  -3   1  -4  136.30    2.22
  -3   1  -4  133.29    2.23
   2  -1   4   68.63    1.21
   2  -1   4   68.46    1.20
   2  -1   4   70.08    1.19
   2  -1   4   69.40    1.21
  -2   1  -4   66.53    1.20
  -2   1  -4   68.79    1.18
  -2   1  -4   66.45    1.21
  -2   1  -4   70.12    1.25
  -2   1  -4   68.55    1.21
   1  -1   4   59.61    1.06
   1  -1   4   61.87    1.14
   1  -1   4   60.64    1.06
   1  -1   4   60.22    1.07
  -1   1  -4   59.88    1.13
  -1   1  -4   59.45    1.06
  -1   1  -4   60.28    1.07
  -1   1  -4   62.70    1.05
  -1   1  -4   59.43    1.06
   0  -1   4  121.54    1.93
   0  -1   4  119.95    1.93
   0  -1   4  120.23    2.10
   0  -1   4  119.06    1.94
   0   1  -4  123.84    1.93
   0   1  -4  121.20    1.94
   0   1  -4  122.45    1.94
   0   1  -4  116.10    2.09
  -1  -1   4    7.82    0.26
  -1  -1   4    7.36    0.27
  -1  -1   4    8.05    0.34
  -1  -1   4    7.39    0.28
   1   1  -4    7.56    0.29
   1   1  -4    7.76    0.27
   1   1  -4    7.43    0.35
  -2  -1   4  287.74    4.48
  -2  -1   4  290.17    4.84
  -2  -1   4  295.64    4.43
   2   1  -4  290.35    4.85
   2   1  -4  289.20    4.48
   2   1  -4  297.34    4.48
   2   1  -4  296.38    4.59
  -3  -1   4    0.18    0.15
  -3  -1   4    0.22    0.11
   3   1  -4    0.26    0.14
   3   1  -4    0.04    0.15
   3   1  -4    0.39    0.13
  -4  -1   4   17.17    0.59
  -4  -1   4   17.92    0.49
   4   1  -4   17.61    0.60
   4   1  -4   16.66    0.48
   4   1  -4   16.98    0.50
  -5  -1   4   16.51    0.64
  -5  -1   4   16.85    0.52
   5   1  -4   16.62    0.57
   5   1  -4   15.95    0.51
   5   1  -4   17.39    0.67
  -6  -1   4   -0.15    0.28
  -6  -1   4    0.24    0.21
   6   1  -4    0.34    0.20
   6   1  -4    0.09    0.28
  -7  -1   4    6.11    0.51
  -7  -1   4    5.32    0.50
   7   1  -4    4.81    0.49
   7   1  -4    7.18    0.66
   9   0   4   -0.10    0.31
   9   0   4    0.76    0.29
   9   0   4    0.33    0.39
  -9   0  -4   -0.10    0.43
  -9   0  -4   -0.29    0.29
  -9   0  -4    0.01    0.29
   8   0   4    9.21    0.47
   8   0   4    9.65    0.53
   8   0   4   10.30    0.63
  -8   0  -4    9.63    0.51
  -8   0  -4   10.12    0.67
   7   0   4    0.33    0.23
   7   0   4    0.50    0.18
   7   0   4    0.39    0.22
  -7   0  -4    0.49    0.26
  -7   0  -4    0.29    0.19
   6   0   4    6.77    0.38
   6   0   4    6.16    0.37
   6   0   4    7.24    0.41
  -6   0  -4    6.00    0.38
  -6   0  -4    6.61    0.43
   5   0   4    7.40    0.36
   5   0   4    7.51    0.35
   5   0   4    7.34    0.33
  -5   0  -4    7.62    0.37
  -5   0  -4    7.57    0.37
  -5   0  -4    7.33    0.33
   4   0   4   84.72    1.51
   4   0   4   84.54    1.50
   4   0   4   86.93    1.49
  -4   0  -4   84.37    1.51
  -4   0  -4   85.66    1.52
  -4   0  -4   83.22    1.48
   3   0   4  124.46    2.09
   3   0   4  128.16    2.09
   3   0   4  126.61    2.08
  -3   0  -4  129.10    2.10
  -3   0  -4  127.14    2.09
  -3   0  -4  128.87    2.10
   2   0   4   95.77    1.54
   2   0   4   97.03    1.60
   2   0   4   94.39    1.58
  -2   0  -4   93.48    1.59
  -2   0  -4   94.61    1.58
  -2   0  -4   94.29    1.68
  -2   0  -4   96.62    1.54
  -2   0  -4   97.50    1.59
   1   0   4  120.03    1.95
   1   0   4  120.04    1.91
   1   0   4  122.90    1.94
   1   0   4  119.25    1.91
  -1   0  -4  122.69    1.92
  -1   0  -4  118.11    1.91
  -1   0  -4  118.94    1.95
  -1   0  -4  124.92    1.91
  -1   0  -4  117.55    2.08
   0   0   4  352.43    5.81
   0   0   4  367.70    5.43
   0   0   4  357.38    5.38
   0   0  -4  351.90    5.81
   0   0  -4  356.65    5.43
   0   0  -4  359.97    5.39
  -1   0   4   52.26    0.90
  -1   0   4   52.28    0.89
  -1   0   4   50.90    1.03
   1   0  -4   52.44    0.89
   1   0  -4   52.21    0.90
   1   0  -4   51.15    0.88
   1   0  -4   51.93    1.04
  -2   0   4    0.26    0.14
  -2   0   4    0.28    0.10
  -2   0   4    0.21    0.10
   2   0  -4    0.22    0.09
   2   0  -4    0.07    0.10
   2   0  -4    0.30    0.10
   2   0  -4    0.36    0.15
  -3   0   4   42.92    0.80
  -3   0   4   42.12    0.93
   3   0  -4   42.28    0.81
   3   0  -4   42.75    0.94
   3   0  -4   43.63    0.80
  -4   0   4   35.52    0.87
  -4   0   4   37.02    0.75
   4   0  -4   36.10    0.74
   4   0  -4   37.01    0.89
   4   0  -4   35.25    0.75
  -5   0   4    1.49    0.21
  -5   0   4    1.69    0.28
   5   0  -4    1.58    0.29
   5   0  -4    1.82    0.20
   5   0  -4    1.69    0.26
  -6   0   4    4.80    0.40
  -6   0   4    4.81    0.40
   6   0  -4    4.55    0.39
   6   0  -4    5.53    0.49
  -7   0   4    1.25    0.39
  -7   0   4    1.18    0.31
   7   0  -4    1.14    0.38
   7   0  -4    1.46    0.30
  10   1   4    0.56    0.49
  10   1   4    0.32    0.39
  10   1   4    0.70    0.40
 -10  -1  -4    0.56    0.38
 -10  -1  -4    1.16    0.57
 -10  -1  -4    0.82    0.42
   9   1   4   14.34    0.65
   9   1   4   15.13    0.80
   9   1   4   14.21    0.66
  -9  -1  -4   14.79    0.75
  -9  -1  -4   15.60    0.67
   8   1   4   20.35    0.67
   8   1   4   21.41    0.65
   8   1   4   20.93    0.78
  -8  -1  -4   20.67    0.72
   7   1   4    5.64    0.40
   7   1   4    5.58    0.38
  -7  -1  -4    6.11    0.44
   6   1   4   70.13    1.28
   6   1   4   67.50    1.35
  -6  -1  -4   67.81    1.27
  -6  -1  -4   68.14    1.36
   5   1   4    5.38    0.32
   5   1   4    5.51    0.30
  -5  -1  -4    5.49    0.33
  -5  -1  -4    4.94    0.29
   4   1   4   90.72    1.61
   4   1   4   94.55    1.59
  -4  -1  -4   91.65    1.59
  -4  -1  -4   92.86    1.62
   3   1   4   28.39    0.55
   3   1   4   28.80    0.63
   3   1   4   29.40    0.63
  -3  -1  -4   28.62    0.63
  -3  -1  -4   28.57    0.63
   2   1   4    0.77    0.12
   2   1   4    0.49    0.11
   2   1   4    0.49    0.12
  -2  -1  -4    0.53    0.12
  -2  -1  -4    0.46    0.11
  -2  -1  -4    0.70    0.12
   1   1   4   85.78    1.43
   1   1   4   86.99    1.42
  -1  -1  -4   84.07    1.42
  -1  -1  -4   84.59    1.41
  -1  -1  -4   83.61    1.53
  -1  -1  -4   84.71    1.37
   0   1   4   12.97    0.35
   0   1   4   12.95    0.29
   0  -1  -4   12.99    0.28
   0  -1  -4   12.66    0.34
   0  -1  -4   12.66    0.28
   0  -1  -4   12.86    0.41
   0  -1  -4   12.64    0.29
  -1   1   4  169.38    2.63
  -1   1   4  171.25    2.55
  -1   1   4  168.79    2.87
   1  -1  -4  165.90    2.63
   1  -1  -4  166.90    2.71
   1  -1  -4  167.68    2.87
   1  -1  -4  170.53    2.56
   1  -1  -4  169.23    2.56
  -2   1   4   22.88    0.43
  -2   1   4   22.73    0.59
   2  -1  -4   22.41    0.47
   2  -1  -4   22.60    0.44
   2  -1  -4   22.01    0.58
   2  -1  -4   22.82    0.44
  -3   1   4   78.46    1.50
  -3   1   4   78.67    1.29
   3  -1  -4   79.29    1.50
   3  -1  -4   79.56    1.30
   3  -1  -4   77.44    1.30
  -4   1   4   28.43    0.74
  -4   1   4   27.75    0.58
   4  -1  -4   28.00    0.74
   4  -1  -4   26.35    0.60
   4  -1  -4   26.77    0.59
  -5   1   4    2.11    0.22
  -5   1   4    2.28    0.30
   5  -1  -4    2.06    0.30
   5  -1  -4    2.12    0.22
   5  -1  -4    2.25    0.25
  -6   1   4    4.85    0.41
  -6   1   4    4.52    0.40
   6  -1  -4    5.06    0.40
   6  -1  -4    4.42    0.46
  -7   1   4    0.04    0.29
  -7   1   4   -0.07    0.31
   7  -1  -4   -0.22    0.31
   7  -1  -4    0.08    0.36
  10   2   4    0.61    0.39
  10   2   4    0.31    0.44
  10   2   4    0.28    0.43
 -10  -2  -4    0.29    0.38
 -10  -2  -4   -0.08    0.46
   9   2   4    5.36    0.52
   9   2   4    5.66    0.54
  -9  -2  -4    6.18    0.55
   8   2   4   -0.34    0.22
   8   2   4    0.12    0.22
  -8  -2  -4    0.22    0.23
   7   2   4   21.58    0.68
   7   2   4   21.97    0.62
  -7  -2  -4   21.31    0.71
  -7  -2  -4   21.59    0.62
   6   2   4   17.39    0.57
   6   2   4   17.90    0.52
  -6  -2  -4   16.87    0.51
  -6  -2  -4   17.99    0.58
   5   2   4   22.35    0.56
   5   2   4   21.93    0.61
   5   2   4   22.19    0.62
  -5  -2  -4   22.36    0.57
  -5  -2  -4   23.10    0.63
   4   2   4  128.64    2.11
   4   2   4  126.67    2.22
   4   2   4  127.68    2.12
  -4  -2  -4  126.01    2.11
  -4  -2  -4  125.17    2.12
   3   2   4   24.40    0.56
   3   2   4   24.08    0.58
   3   2   4   23.55    0.55
  -3  -2  -4   24.34    0.57
  -3  -2  -4   24.46    0.56
   2   2   4   13.08    0.34
   2   2   4   12.83    0.37
   2   2   4   12.81    0.38
  -2  -2  -4   12.85    0.35
  -2  -2  -4   12.76    0.37
  -2  -2  -4   12.59    0.38
   1   2   4   23.92    0.52
   1   2   4   23.12    0.53
  -1  -2  -4   23.22    0.45
  -1  -2  -4   23.85    0.54
  -1  -2  -4   22.90    0.51
  -1  -2  -4   24.14    0.46
   0  -2  -4   32.71    0.73
   0  -2  -4   32.50    0.65
   0  -2  -4   32.03    0.63
   0  -2  -4   32.61    0.66
   1  -2  -4  129.52    2.18
   1  -2  -4  132.61    2.28
   1  -2  -4  129.28    2.10
   2  -2  -4   12.44    0.35
   2  -2  -4   12.05    0.42
   3  -2  -4   60.35    1.19
   3  -2  -4   58.72    1.03
   4  -2  -4    3.18    0.24
   4  -2  -4    2.49    0.23
   4  -2  -4    2.61    0.27
  -5   2   4   12.69    0.41
   5  -2  -4   13.84    0.57
   5  -2  -4   13.22    0.44
   5  -2  -4   13.29    0.42
   6  -2  -4    3.75    0.33
   6  -2  -4    4.48    0.47
   6  -2  -4    4.07    0.39
  10   3   4    3.35    0.49
  10   3   4    3.12    0.43
 -10  -3  -4    2.80    0.42
 -10  -3  -4    2.25    0.55
   9   3   4    1.35    0.32
   9   3   4    0.67    0.30
  -9  -3  -4    1.01    0.32
  -9  -3  -4    0.14    0.27
   8   3   4    3.01    0.32
   8   3   4    3.09    0.34
   8   3   4    3.93    0.39
  -8  -3  -4    3.40    0.38
  -8  -3  -4    3.18    0.31
   7   3   4    5.05    0.39
   7   3   4    5.35    0.43
   7   3   4    5.55    0.41
  -7  -3  -4    4.90    0.43
  -7  -3  -4    4.99    0.38
   6   3   4    0.41    0.19
   6   3   4    0.28    0.17
   6   3   4    0.08    0.15
  -6  -3  -4    0.03    0.17
  -6  -3  -4    0.05    0.16
   5   3   4   78.25    1.45
   5   3   4   78.45    1.41
   5   3   4   78.05    1.51
  -5  -3  -4   75.78    1.40
  -5  -3  -4   77.74    1.46
   4   3   4   20.95    0.57
   4   3   4   20.59    0.53
   4   3   4   20.43    0.55
  -4  -3  -4   20.56    0.54
  -4  -3  -4   20.76    0.56
   3   3   4    6.21    0.30
   3   3   4    5.99    0.30
   3   3   4    6.30    0.32
  -3  -3  -4    6.27    0.31
  -3  -3  -4    6.18    0.31
  -3  -3  -4    6.38    0.31
   2   3   4   10.22    0.36
   2   3   4   10.52    0.36
   2   3   4    9.82    0.30
  -2  -3  -4   10.09    0.33
  -2  -3  -4   10.09    0.36
  -2  -3  -4   10.07    0.36
   1   3   4    1.08    0.16
   1   3   4    1.23    0.12
  -1  -3  -4    1.16    0.16
  -1  -3  -4    1.26    0.11
  -1  -3  -4    1.28    0.11
  -1  -3  -4    1.04    0.16
   0  -3  -4  211.61    3.57
   0  -3  -4  212.82    3.38
   0  -3  -4  211.50    3.35
   0  -3  -4  213.06    3.47
   1  -3  -4   24.61    0.59
   1  -3  -4   24.08    0.59
   1  -3  -4   24.55    0.56
   1  -3  -4   24.58    0.61
   2  -3  -4   24.59    0.62
   2  -3  -4   24.15    0.66
   2  -3  -4   23.99    0.56
   2  -3  -4   24.16    0.63
   3  -3  -4   33.78    0.88
   3  -3  -4   34.46    0.80
   3  -3  -4   33.77    0.71
   4  -3  -4    0.51    0.21
   4  -3  -4    0.81    0.27
   4  -3  -4    1.03    0.19
   5  -3  -4   11.06    0.68
   5  -3  -4   11.42    0.53
   6  -3  -4   -0.59    0.37
  10   4   4    4.70    0.53
  10   4   4    3.68    0.50
 -10  -4  -4    2.94    0.45
 -10  -4  -4    2.78    0.58
   9   4   4    0.56    0.33
   9   4   4    0.31    0.27
  -9  -4  -4   -0.18    0.30
  -9  -4  -4   -0.16    0.27
   8   4   4    1.65    0.30
   8   4   4    1.57    0.24
  -8  -4  -4    1.48    0.29
  -8  -4  -4    1.39    0.34
   7   4   4   -0.16    0.20
   7   4   4    0.22    0.19
  -7  -4  -4   -0.01    0.23
  -7  -4  -4    0.18    0.20
   6   4   4   27.20    0.76
   6   4   4   26.79    0.75
  -6  -4  -4   27.94    0.76
  -6  -4  -4   27.47    0.70
   5   4   4   78.39    1.47
   5   4   4   78.20    1.54
  -5  -4  -4   78.44    1.44
  -5  -4  -4   79.27    1.48
   4   4   4    1.12    0.19
   4   4   4    0.93    0.17
  -4  -4  -4    1.07    0.20
  -4  -4  -4    1.05    0.18
  -4  -4  -4    1.17    0.18
   3   4   4   17.37    0.40
   3   4   4   17.65    0.52
   3   4   4   16.63    0.46
  -3  -4  -4   17.31    0.47
  -3  -4  -4   17.23    0.51
  -3  -4  -4   18.05    0.50
   2   4   4    1.14    0.17
   2   4   4    1.32    0.13
  -2  -4  -4    0.86    0.16
  -2  -4  -4    1.10    0.18
   1   4   4  221.28    3.69
   1   4   4  232.55    3.39
  -1  -4  -4  218.10    3.69
  -1  -4  -4  219.08    3.55
  -1  -4  -4  227.59    3.39
  -1  -4  -4  221.12    3.53
   0  -4  -4  104.58    1.81
   0  -4  -4  105.95    1.80
   0  -4  -4  105.86    1.88
   1  -4  -4    0.40    0.14
   1  -4  -4    0.43    0.16
   1  -4  -4    0.38    0.16
   1  -4  -4    0.50    0.16
   2  -4  -4    9.09    0.45
   2  -4  -4    8.73    0.38
   2  -4  -4    8.59    0.43
   2  -4  -4    9.01    0.40
   3  -4  -4   38.86    0.98
   3  -4  -4   39.55    0.85
   3  -4  -4   39.50    0.88
   3  -4  -4   38.51    1.00
   4  -4  -4   24.11    0.62
   4  -4  -4   21.08    0.81
   4  -4  -4   23.51    0.65
   5  -4  -4    0.21    0.23
   5  -4  -4    0.21    0.37
  10   5   4    1.98    0.48
  10   5   4    1.79    0.43
 -10  -5  -4    1.10    0.38
 -10  -5  -4    1.72    0.48
   9   5   4   21.27    0.87
   9   5   4   19.95    0.78
  -9  -5  -4   20.19    0.73
  -9  -5  -4   20.43    0.86
   8   5   4   53.91    1.31
   8   5   4   54.62    1.30
  -8  -5  -4   55.21    1.33
  -8  -5  -4   55.29    1.18
   7   5   4    0.67    0.22
   7   5   4    1.33    0.27
  -7  -5  -4    1.51    0.25
  -7  -5  -4    0.92    0.27
   6   5   4   39.30    0.95
   6   5   4   41.14    1.00
  -6  -5  -4   39.09    0.90
  -6  -5  -4   39.28    0.96
   5   5   4    0.36    0.17
   5   5   4    0.20    0.14
  -5  -5  -4    0.06    0.19
  -5  -5  -4    0.03    0.13
  -5  -5  -4    0.16    0.14
   4   5   4   90.78    1.55
   4   5   4   88.70    1.70
   4   5   4   89.24    1.59
  -4  -5  -4   88.18    1.70
  -4  -5  -4   91.15    1.60
  -4  -5  -4   87.24    1.62
   3   5   4   10.42    0.33
   3   5   4    9.89    0.36
   3   5   4   10.32    0.41
  -3  -5  -4   10.37    0.42
  -3  -5  -4   10.38    0.39
  -3  -5  -4    9.99    0.39
   2   5   4    8.39    0.38
   2   5   4    8.26    0.30
  -2  -5  -4    8.34    0.30
  -2  -5  -4    8.31    0.36
  -2  -5  -4    8.32    0.38
  -2  -5  -4    8.34    0.30
   1   5   4    9.06    0.26
   1   5   4    8.69    0.38
   1   5   4    8.71    0.33
   1   5   4    8.72    0.25
  -1  -5  -4    9.16    0.33
  -1  -5  -4    8.23    0.39
  -1  -5  -4    8.71    0.26
  -1  -5  -4    9.10    0.38
   0  -5  -4    4.65    0.30
   0  -5  -4    4.72    0.31
   0  -5  -4    4.55    0.34
   1  -5  -4   76.39    1.45
   1  -5  -4   74.05    1.44
   1  -5  -4   73.30    1.40
   1  -5  -4   74.14    1.49
   2  -5  -4    5.59    0.38
   2  -5  -4    5.58    0.46
   2  -5  -4    5.49    0.45
   2  -5  -4    5.29    0.36
   3  -5  -4    3.45    0.31
   3  -5  -4    4.15    0.43
   3  -5  -4    3.87    0.38
   3  -5  -4    3.27    0.28
   4  -5  -4    8.87    0.50
   4  -5  -4    9.04    0.69
   4  -5  -4    9.62    0.67
   4  -5  -4    8.58    0.45
   5  -5  -4    2.47    0.47
   5  -5  -4    2.34    0.33
   5  -5  -4    2.05    0.47
  10   6   4    0.57    0.43
  10   6   4    1.27    0.51
 -10  -6  -4    1.11    0.40
 -10  -6  -4    0.89    0.47
   9   6   4    7.69    0.70
   9   6   4    8.43    0.59
  -9  -6  -4    9.44    0.61
  -9  -6  -4   10.11    0.77
   8   6   4    0.33    0.24
   8   6   4   -0.35    0.29
  -8  -6  -4    0.05    0.26
  -8  -6  -4   -0.21    0.32
   7   6   4    7.24    0.53
   7   6   4    6.53    0.44
  -7  -6  -4    6.13    0.53
  -7  -6  -4    7.32    0.46
   6   6   4   11.05    0.51
   6   6   4   11.11    0.54
  -6  -6  -4   10.43    0.47
  -6  -6  -4   11.51    0.56
   5   6   4   38.20    0.86
   5   6   4   39.43    0.92
   5   6   4   41.21    0.98
  -5  -6  -4   37.53    0.96
  -5  -6  -4   40.42    0.94
  -5  -6  -4   38.94    0.91
   4   6   4   25.11    0.60
   4   6   4   24.49    0.64
   4   6   4   24.04    0.69
  -4  -6  -4   22.73    0.68
  -4  -6  -4   24.42    0.66
  -4  -6  -4   24.04    0.65
   3   6   4    2.07    0.21
   3   6   4    1.86    0.23
   3   6   4    2.09    0.20
  -3  -6  -4    1.91    0.20
  -3  -6  -4    1.96    0.23
  -3  -6  -4    1.99    0.21
   2   6   4    4.78    0.26
   2   6   4    4.59    0.30
   2   6   4    4.88    0.33
  -2  -6  -4    4.74    0.29
  -2  -6  -4    4.60    0.31
  -2  -6  -4    4.90    0.27
  -2  -6  -4    4.71    0.33
   1   6   4   38.33    0.70
   1   6   4   38.09    0.70
   1   6   4   39.05    0.84
  -1  -6  -4   37.24    0.88
  -1  -6  -4   37.80    0.83
  -1  -6  -4   37.73    0.71
  -1  -6  -4   37.46    0.92
   0  -6  -4   14.60    0.51
   0  -6  -4   13.68    0.54
   0  -6  -4   13.18    0.50
   1  -6  -4   42.48    1.01
   1  -6  -4   42.07    1.05
   1  -6  -4   42.26    0.98
   1  -6  -4   44.48    0.98
   2  -6  -4    3.82    0.41
   2  -6  -4    4.14    0.39
   2  -6  -4    4.23    0.38
   2  -6  -4    4.09    0.39
   3  -6  -4   51.33    1.28
   3  -6  -4   47.33    1.26
   3  -6  -4   50.29    1.06
   3  -6  -4   50.41    1.13
   4  -6  -4    1.90    0.42
   4  -6  -4    1.32    0.33
   4  -6  -4    1.11    0.40
  10   7   4    2.84    0.59
  10   7   4    1.67    0.45
 -10  -7  -4    2.44    0.47
 -10  -7  -4    1.98    0.54
   9   7   4    2.24    0.47
   9   7   4    1.20    0.33
  -9  -7  -4    2.44    0.39
  -9  -7  -4    1.56    0.45
   8   7   4    1.57    0.29
   8   7   4    1.15    0.36
  -8  -7  -4    1.10    0.28
  -8  -7  -4    1.14    0.38
   7   7   4   16.86    0.66
   7   7   4   16.65    0.71
  -7  -7  -4   17.71    0.75
  -7  -7  -4   15.86    0.65
   6   7   4   -0.18    0.22
   6   7   4    0.27    0.23
   6   7   4    0.19    0.24
  -6  -7  -4   -0.05    0.25
  -6  -7  -4   -0.03    0.19
  -6  -7  -4    0.09    0.17
   5   7   4   26.74    0.71
   5   7   4   27.70    0.77
   5   7   4   27.28    0.79
  -5  -7  -4   26.31    0.78
  -5  -7  -4   27.16    0.76
  -5  -7  -4   27.68    0.79
   4   7   4   65.67    1.41
   4   7   4   66.61    1.30
   4   7   4   65.29    1.27
  -4  -7  -4   66.23    1.30
  -4  -7  -4   65.59    1.40
  -4  -7  -4   65.68    1.34
   3   7   4    8.89    0.36
   3   7   4    8.10    0.38
   3   7   4    8.54    0.39
   3   7   4    8.44    0.44
  -3  -7  -4    7.98    0.40
  -3  -7  -4    8.17    0.43
  -3  -7  -4    8.29    0.41
   2   7   4   43.99    1.04
   2   7   4   44.26    0.95
   2   7   4   42.27    0.85
  -2  -7  -4   42.17    0.86
  -2  -7  -4   42.75    1.04
  -2  -7  -4   42.86    0.93
  -2  -7  -4   42.00    0.98
   1   7   4    0.57    0.21
   1   7   4    0.63    0.15
   1   7   4    0.43    0.13
  -1  -7  -4    0.04    0.17
  -1  -7  -4    0.56    0.22
  -1  -7  -4    0.25    0.21
  -1  -7  -4    0.52    0.14
   0  -7  -4   34.96    0.96
   0  -7  -4   35.06    0.89
   1  -7  -4   19.83    0.73
   1  -7  -4   19.91    0.71
   1  -7  -4   20.78    0.66
   2  -7  -4   15.29    0.63
   2  -7  -4   15.55    0.71
   2  -7  -4   15.09    0.58
   2  -7  -4   14.50    0.71
   3  -7  -4    9.42    0.73
   3  -7  -4   10.60    0.73
   3  -7  -4    9.13    0.48
   3  -7  -4   10.74    0.63
   4  -7  -4    1.25    0.50
   4  -7  -4    0.76    0.49
   9   8   4    0.59    0.39
   9   8   4    0.24    0.46
  -9  -8  -4    0.28    0.48
  -9  -8  -4   -0.08    0.36
   8   8   4    9.35    0.72
   8   8   4   10.30    0.60
  -8  -8  -4    9.91    0.77
  -8  -8  -4    8.55    0.65
   7   8   4    1.01    0.32
   7   8   4    1.60    0.34
   7   8   4    1.39    0.28
  -7  -8  -4    0.77    0.35
  -7  -8  -4    1.24    0.30
   6   8   4    9.85    0.60
   6   8   4    8.99    0.52
   6   8   4   10.13    0.54
  -6  -8  -4    9.38    0.51
  -6  -8  -4    9.45    0.52
  -6  -8  -4    8.94    0.59
   5   8   4   50.78    1.20
   5   8   4   50.99    1.15
   5   8   4   49.25    1.10
  -5  -8  -4   49.22    1.15
  -5  -8  -4   49.87    1.21
  -5  -8  -4   50.30    1.15
   4   8   4    3.30    0.36
   4   8   4    3.55    0.32
   4   8   4    4.34    0.32
   4   8   4    3.34    0.31
  -4  -8  -4    4.59    0.36
  -4  -8  -4    3.37    0.36
  -4  -8  -4    3.82    0.34
   3   8   4    3.90    0.37
   3   8   4    3.71    0.31
   3   8   4    4.48    0.40
   3   8   4    4.03    0.36
  -3  -8  -4    4.47    0.39
  -3  -8  -4    4.68    0.35
  -3  -8  -4    4.14    0.39
   2   8   4   13.46    0.54
   2   8   4   13.42    0.44
  -2  -8  -4   14.28    0.54
  -2  -8  -4   12.59    0.57
  -2  -8  -4   12.24    0.54
  -2  -8  -4   13.66    0.46
   1   8   4    6.26    0.30
   1   8   4    6.95    0.47
   1   8   4    6.54    0.33
  -1  -8  -4    6.28    0.33
  -1  -8  -4    6.45    0.47
  -1  -8  -4    6.54    0.46
   0  -8  -4    3.77    0.38
   0  -8  -4    3.53    0.36
   1  -8  -4    3.30    0.39
   1  -8  -4    3.88    0.36
   1  -8  -4    3.51    0.43
   2  -8  -4   11.62    0.75
   2  -8  -4   10.11    0.65
   2  -8  -4   12.01    0.73
   2  -8  -4   11.00    0.54
   3  -8  -4    0.11    0.44
   3  -8  -4    0.99    0.40
   3  -8  -4    0.02    0.42
   9   9   4    3.89    0.60
   9   9   4    3.56    0.46
  -9  -9  -4    3.47    0.48
  -9  -9  -4    3.15    0.55
   8   9   4   18.23    0.91
   8   9   4   16.47    0.87
   8   9   4   18.25    0.74
  -8  -9  -4   16.26    0.78
  -8  -9  -4   17.01    0.95
   7   9   4    2.90    0.39
   7   9   4    2.52    0.44
   7   9   4    2.28    0.29
  -7  -9  -4    2.55    0.36
  -7  -9  -4    2.22    0.43
  -7  -9  -4    2.07    0.29
   6   9   4   12.42    0.60
   6   9   4   13.09    0.69
   6   9   4   13.24    0.64
  -6  -9  -4   13.55    0.70
  -6  -9  -4   12.76    0.58
  -6  -9  -4   13.01    0.61
   5   9   4    0.82    0.22
   5   9   4    0.74    0.22
   5   9   4    1.18    0.30
   5   9   4    0.89    0.27
  -5  -9  -4    0.89    0.22
  -5  -9  -4    0.97    0.23
  -5  -9  -4    0.75    0.31
   4   9   4    0.15    0.23
   4   9   4    0.06    0.24
   4   9   4   -0.06    0.21
   4   9   4    0.47    0.19
  -4  -9  -4    0.42    0.25
  -4  -9  -4    0.13    0.19
  -4  -9  -4   -0.28    0.20
   3   9   4   10.35    0.43
   3   9   4   11.95    0.55
   3   9   4   10.54    0.50
   3   9   4   10.54    0.55
  -3  -9  -4   11.42    0.53
  -3  -9  -4   10.17    0.49
  -3  -9  -4   10.52    0.55
   2   9   4    2.95    0.27
   2   9   4    2.63    0.34
  -2  -9  -4    2.96    0.32
  -2  -9  -4    2.88    0.35
  -2  -9  -4    3.11    0.33
  -2  -9  -4    3.16    0.28
   1   9   4    6.84    0.38
   1   9   4    5.54    0.55
  -1  -9  -4    6.32    0.52
  -1  -9  -4    6.16    0.37
  -1  -9  -4    6.38    0.52
   0  -9  -4   16.34    0.74
   0  -9  -4   15.81    0.73
   1  -9  -4    5.34    0.53
   1  -9  -4    4.98    0.55
   1  -9  -4    5.83    0.54
   2  -9  -4    3.83    0.51
   2  -9  -4    3.85    0.39
   2  -9  -4    4.84    0.57
   2  -9  -4    4.74    0.56
   8  10   4    2.16    0.51
   8  10   4    2.45    0.39
   8  10   4    2.69    0.55
  -8 -10  -4    2.43    0.54
  -8 -10  -4    2.09    0.44
   7  10   4    8.08    0.77
   7  10   4    7.92    0.68
   7  10   4    7.35    0.57
  -7 -10  -4    7.85    0.56
  -7 -10  -4    7.06    0.62
  -7 -10  -4    6.81    0.60
   6  10   4    6.66    0.56
   6  10   4    5.46    0.52
   6  10   4    5.63    0.45
   6  10   4    5.90    0.59
  -6 -10  -4    5.81    0.51
  -6 -10  -4    5.73    0.50
  -6 -10  -4    6.32    0.55
   5  10   4    3.43    0.34
   5  10   4    3.00    0.31
   5  10   4    2.77    0.38
   5  10   4    2.10    0.37
  -5 -10  -4    3.75    0.43
  -5 -10  -4    2.93    0.33
  -5 -10  -4    2.96    0.31
   4  10   4   16.96    0.69
   4  10   4   17.35    0.73
   4  10   4   17.17    0.69
   4  10   4   17.27    0.61
  -4 -10  -4   17.63    0.66
  -4 -10  -4   17.80    0.72
  -4 -10  -4   16.50    0.69
   3  10   4    2.88    0.35
   3  10   4    2.26    0.38
   3  10   4    2.60    0.29
  -3 -10  -4    2.83    0.34
  -3 -10  -4    2.56    0.31
  -3 -10  -4    2.56    0.34
   2  10   4    5.63    0.50
   2  10   4    5.53    0.40
  -2 -10  -4    4.69    0.46
  -2 -10  -4    4.82    0.42
  -2 -10  -4    5.16    0.44
  -2 -10  -4    5.34    0.47
   1  10   4   10.88    0.49
   1  10   4   10.17    0.45
   1  10   4    9.79    0.71
  -1 -10  -4    9.22    0.66
  -1 -10  -4   11.04    0.67
  -1 -10  -4   10.27    0.48
   0 -10  -4   -0.19    0.34
   0 -10  -4   -0.35    0.37
   7  11   4   10.11    0.70
   7  11   4   13.47    0.96
   7  11   4   13.48    0.65
   7  11   4   12.76    0.84
  -7 -11  -4   13.63    0.81
  -7 -11  -4   14.21    0.94
  -7 -11  -4   14.02    0.73
   6  11   4    1.31    0.28
   6  11   4    1.57    0.45
   6  11   4    1.88    0.36
   6  11   4    1.35    0.46
  -6 -11  -4    1.25    0.45
  -6 -11  -4    1.28    0.33
  -6 -11  -4    1.26    0.33
   5  11   4    6.84    0.54
   5  11   4    6.86    0.48
   5  11   4    6.71    0.57
   5  11   4    6.85    0.68
  -5 -11  -4    8.34    0.55
  -5 -11  -4    7.72    0.70
  -5 -11  -4    6.61    0.55
   4  11   4    6.01    0.48
   4  11   4    4.99    0.46
   4  11   4    5.60    0.52
   4  11   4    6.55    0.58
  -4 -11  -4    6.07    0.50
  -4 -11  -4    5.69    0.51
  -4 -11  -4    5.40    0.53
   3  11   4    2.61    0.47
   3  11   4    2.64    0.36
   3  11   4    2.38    0.32
  -3 -11  -4    2.27    0.38
  -3 -11  -4    2.64    0.30
  -3 -11  -4    3.09    0.37
   2  11   4   17.28    0.88
   2  11   4   18.16    0.69
   2  11   4   18.20    0.64
  -2 -11  -4   17.20    0.77
  -2 -11  -4   17.21    0.66
  -2 -11  -4   16.97    0.80
   1  11   4    1.88    0.55
   1  11   4    1.69    0.34
   1  11   4    2.12    0.30
  -1 -11  -4    2.52    0.43
  -1 -11  -4    1.36    0.43
  -1 -11  -4    2.31    0.33
  -1 -11  -4    1.55    0.41
   5  12   4    7.53    0.80
   5  12   4    8.41    0.86
   5  12   4    9.60    0.60
  -5 -12  -4    8.08    0.84
  -5 -12  -4   10.19    0.67
  -5 -12  -4    7.64    0.65
   4  12   4   -0.06    0.39
   4  12   4    0.02    0.32
   4  12   4   -0.44    0.48
  -4 -12  -4    0.64    0.37
  -4 -12  -4    0.63    0.34
  -4 -12  -4    0.84    0.45
   1 -11   5   13.03    0.85
   1 -11   5   12.23    0.89
   1 -11   5   11.03    0.66
   1 -11   5   13.25    0.98
   1 -11   5   11.26    0.74
  -1  11  -5   10.52    0.88
  -1  11  -5   12.25    0.87
  -1  11  -5   12.62    0.67
   0 -11   5    1.35    0.47
   0 -11   5    1.82    0.49
   0 -11   5    1.12    0.36
   0 -11   5    1.01    0.42
   0  11  -5    1.28    0.33
   0  11  -5    0.68    0.40
   0  11  -5    0.47    0.47
  -1 -11   5    2.77    0.53
  -1 -11   5    3.28    0.51
  -1 -11   5    2.53    0.45
   1  11  -5    1.87    0.38
   1  11  -5    3.12    0.41
   1  11  -5    3.17    0.53
  -2 -11   5    0.58    0.41
  -2 -11   5   -0.09    0.36
  -2 -11   5    0.27    0.44
   2  11  -5    0.79    0.35
   2  11  -5   -0.38    0.36
   2  11  -5    0.04    0.43
  -3 -11   5    6.78    0.70
  -3 -11   5    6.56    0.62
  -3 -11   5    5.66    0.63
   3  11  -5    5.80    0.61
   3  11  -5    4.69    0.47
   3  11  -5    5.93    0.57
  -4 -11   5    5.33    0.57
  -4 -11   5    5.37    0.62
  -4 -11   5    7.78    0.79
   4  11  -5    4.59    0.43
   4  11  -5    5.73    0.65
   4  11  -5    5.26    0.57
   3 -10   5    0.25    0.49
   3 -10   5    0.25    0.39
   3 -10   5   -0.13    0.33
   3 -10   5    0.43    0.36
  -3  10  -5    1.32    0.52
  -3  10  -5    0.45    0.32
   2 -10   5    8.05    0.61
   2 -10   5    9.91    0.70
   2 -10   5    8.93    0.70
   2 -10   5    7.96    0.56
   2 -10   5    9.38    0.83
  -2  10  -5    9.67    0.57
  -2  10  -5    8.24    0.78
  -2  10  -5   10.68    0.71
   1 -10   5    2.33    0.40
   1 -10   5    2.62    0.43
   1 -10   5    2.64    0.31
   1 -10   5    2.46    0.33
   1 -10   5    2.53    0.47
  -1  10  -5    2.21    0.35
  -1  10  -5    2.88    0.45
  -1  10  -5    2.39    0.32
   0 -10   5    1.88    0.42
   0 -10   5    2.57    0.42
   0 -10   5    2.15    0.41
   0 -10   5    2.68    0.36
   0  10  -5    2.48    0.32
   0  10  -5    1.83    0.34
   0  10  -5    1.65    0.39
  -1 -10   5    5.45    0.59
  -1 -10   5    5.23    0.53
  -1 -10   5    5.95    0.64
  -1 -10   5    6.30    0.56
   1  10  -5    4.46    0.44
   1  10  -5    4.92    0.46
   1  10  -5    4.42    0.49
  -2 -10   5    6.17    0.67
  -2 -10   5    6.16    0.67
  -2 -10   5    5.88    0.59
   2  10  -5    6.48    0.65
   2  10  -5    6.03    0.59
   2  10  -5    5.53    0.47
  -3 -10   5    7.77    0.62
  -3 -10   5    5.84    0.65
  -3 -10   5    7.95    0.71
   3  10  -5    5.68    0.53
   3  10  -5    5.82    0.54
   3  10  -5    5.09    0.52
  -4 -10   5    2.60    0.44
  -4 -10   5    2.50    0.38
  -4 -10   5    2.68    0.48
   4  10  -5    2.54    0.47
   4  10  -5    2.79    0.40
   4  10  -5    1.32    0.47
  -5 -10   5   14.81    0.78
  -5 -10   5   15.95    0.86
  -5 -10   5   14.45    0.88
   5  10  -5   14.15    0.82
   5  10  -5   14.69    0.93
   5  10  -5   16.08    0.93
   4  -9   5    0.04    0.35
   4  -9   5    0.27    0.36
   4  -9   5    0.72    0.32
   4  -9   5    0.13    0.44
  -4   9  -5   -0.43    0.40
  -4   9  -5    0.06    0.31
  -4   9  -5   -0.26    0.46
   3  -9   5    4.92    0.43
   3  -9   5    5.19    0.55
   3  -9   5    4.33    0.50
   3  -9   5    4.65    0.48
   3  -9   5    5.32    0.59
  -3   9  -5    6.26    0.58
  -3   9  -5    5.16    0.48
  -3   9  -5    5.34    0.53
   2  -9   5    8.59    0.49
   2  -9   5    9.64    0.55
   2  -9   5    9.89    0.61
   2  -9   5    8.69    0.60
   2  -9   5    8.30    0.70
  -2   9  -5    8.58    0.68
  -2   9  -5    6.69    0.57
  -2   9  -5    9.03    0.51
   1  -9   5    5.23    0.57
   1  -9   5    5.28    0.47
   1  -9   5    4.69    0.42
   1  -9   5    5.03    0.43
   1  -9   5    4.65    0.47
  -1   9  -5    5.08    0.46
  -1   9  -5    4.63    0.47
  -1   9  -5    4.89    0.42
   0  -9   5   20.27    0.72
   0  -9   5   21.26    0.79
   0  -9   5   19.37    0.79
   0  -9   5   19.26    0.80
   0   9  -5   18.88    0.72
   0   9  -5   19.87    0.78
   0   9  -5   19.86    0.74
  -1  -9   5   15.38    0.72
  -1  -9   5   14.67    0.67
  -1  -9   5   14.97    0.73
  -1  -9   5   15.07    0.66
   1   9  -5   15.63    0.70
   1   9  -5   15.59    0.68
   1   9  -5   15.28    0.65
  -2  -9   5    7.74    0.54
  -2  -9   5    7.16    0.57
  -2  -9   5    7.01    0.61
   2   9  -5    7.59    0.52
   2   9  -5    7.49    0.55
   2   9  -5    8.60    0.61
  -3  -9   5    6.18    0.52
  -3  -9   5    5.90    0.52
  -3  -9   5    5.56    0.53
   3   9  -5    6.00    0.49
   3   9  -5    6.74    0.63
   3   9  -5    5.45    0.48
  -4  -9   5   11.97    0.73
  -4  -9   5   11.71    0.68
  -4  -9   5   11.61    0.64
   4   9  -5   12.32    0.78
   4   9  -5   10.71    0.64
   4   9  -5   12.29    0.73
  -5  -9   5    7.10    0.66
  -5  -9   5    6.45    0.64
  -5  -9   5    6.94    0.64
   5   9  -5    7.25    0.63
   5   9  -5    6.99    0.69
   5   9  -5    7.54    0.65
   5   9  -5    6.76    0.62
  -6  -9   5    0.90    0.41
  -6  -9   5    0.23    0.40
   6   9  -5    0.59    0.43
   6   9  -5   -0.33    0.38
   6   9  -5    0.87    0.44
   6   9  -5    0.54    0.51
   5  -8   5    3.63    0.45
   5  -8   5    3.49    0.35
  -5   8  -5    2.76    0.53
  -5   8  -5    3.13    0.35
   4  -8   5    0.63    0.27
   4  -8   5    0.50    0.40
   4  -8   5    0.48    0.31
  -4   8  -5    0.44    0.32
  -4   8  -5    0.05    0.25
  -4   8  -5   -0.02    0.38
   3  -8   5    5.12    0.50
   3  -8   5    5.26    0.51
   3  -8   5    5.90    0.52
   3  -8   5    4.97    0.43
   3  -8   5    4.98    0.41
  -3   8  -5    5.76    0.44
  -3   8  -5    3.83    0.35
  -3   8  -5    5.38    0.48
   2  -8   5   -0.05    0.19
   2  -8   5    0.24    0.23
   2  -8   5   -0.23    0.22
   2  -8   5   -0.04    0.23
   2  -8   5   -0.05    0.27
  -2   8  -5    0.59    0.24
  -2   8  -5   -0.22    0.28
  -2   8  -5   -0.39    0.21
   1  -8   5   49.44    1.21
   1  -8   5   50.90    1.22
   1  -8   5   49.80    1.18
   1  -8   5   48.72    1.14
   1  -8   5   49.55    1.22
  -1   8  -5   51.13    1.18
  -1   8  -5   50.16    1.21
  -1   8  -5   50.75    1.21
   0  -8   5   10.85    0.54
   0  -8   5   10.97    0.55
   0  -8   5   10.65    0.60
   0  -8   5   10.86    0.59
   0   8  -5   10.94    0.56
   0   8  -5   10.57    0.53
   0   8  -5   10.94    0.59
  -1  -8   5   11.96    0.58
  -1  -8   5   11.86    0.60
  -1  -8   5   12.26    0.60
  -1  -8   5   11.37    0.56
   1   8  -5   12.09    0.58
   1   8  -5   10.59    0.58
   1   8  -5   12.12    0.54
  -2  -8   5   24.13    0.80
  -2  -8   5   23.52    0.80
  -2  -8   5   23.60    0.73
   2   8  -5   22.98    0.79
   2   8  -5   21.56    0.77
   2   8  -5   23.25    0.75
  -3  -8   5   -0.08    0.24
  -3  -8   5    0.22    0.22
  -3  -8   5    0.00    0.25
   3   8  -5    0.61    0.27
   3   8  -5    0.05    0.27
   3   8  -5   -0.25    0.22
  -4  -8   5    3.35    0.37
  -4  -8   5    3.40    0.37
  -4  -8   5    3.09    0.38
   4   8  -5    3.37    0.43
   4   8  -5    3.14    0.32
   4   8  -5    3.38    0.36
   4   8  -5    2.70    0.36
  -5  -8   5    0.48    0.29
  -5  -8   5    1.25    0.33
   5   8  -5    0.63    0.31
   5   8  -5    0.29    0.31
   5   8  -5    0.87    0.41
   5   8  -5    0.44    0.29
  -6  -8   5    1.89    0.41
  -6  -8   5    2.52    0.38
   6   8  -5    3.04    0.44
   6   8  -5    2.81    0.39
   6   8  -5    2.96    0.55
  -7  -8   5    0.35    0.38
  -7  -8   5    0.58    0.51
   7   8  -5    0.19    0.49
   7   8  -5    0.40    0.51
   6  -7   5    8.49    0.78
   6  -7   5    8.21    0.57
   6  -7   5    7.41    0.67
  -6   7  -5    7.08    0.65
  -6   7  -5    8.02    0.59
   5  -7   5    1.07    0.30
   5  -7   5    0.69    0.26
   5  -7   5    1.12    0.41
  -5   7  -5    0.38    0.39
  -5   7  -5    0.62    0.24
   4  -7   5   18.96    0.73
   4  -7   5   18.09    0.79
   4  -7   5   17.74    0.63
  -4   7  -5   18.58    0.71
  -4   7  -5   17.79    0.77
  -4   7  -5   17.23    0.64
   3  -7   5    9.12    0.43
   3  -7   5    9.97    0.55
   3  -7   5    8.74    0.44
   3  -7   5    9.63    0.60
  -3   7  -5    8.49    0.58
  -3   7  -5    9.23    0.47
  -3   7  -5    8.59    0.50
   2  -7   5    5.40    0.37
   2  -7   5    5.44    0.43
   2  -7   5    5.71    0.42
   2  -7   5    5.49    0.42
   2  -7   5    5.02    0.50
  -2   7  -5    5.33    0.40
  -2   7  -5    5.50    0.48
  -2   7  -5    5.87    0.41
   1  -7   5   66.25    1.40
   1  -7   5   66.28    1.47
   1  -7   5   68.28    1.44
   1  -7   5   70.02    1.45
   1  -7   5   69.84    1.44
  -1   7  -5   68.81    1.43
  -1   7  -5   69.43    1.47
  -1   7  -5   69.29    1.43
   0  -7   5    6.40    0.46
   0  -7   5    6.50    0.42
   0  -7   5    6.37    0.42
   0  -7   5    5.99    0.44
   0   7  -5    6.28    0.44
   0   7  -5    5.85    0.40
   0   7  -5    6.17    0.45
  -1  -7   5   47.25    1.10
  -1  -7   5   47.43    1.15
  -1  -7   5   48.34    1.12
  -1  -7   5   47.88    1.07
   1   7  -5   47.71    1.11
   1   7  -5   46.97    1.11
   1   7  -5   47.16    1.11
  -2  -7   5    1.86    0.29
  -2  -7   5    1.95    0.26
  -2  -7   5    1.39    0.27
  -2  -7   5    1.36    0.23
   2   7  -5    1.91    0.30
   2   7  -5    1.62    0.24
   2   7  -5    2.04    0.28
  -3  -7   5   14.97    0.56
  -3  -7   5   15.36    0.61
  -3  -7   5   15.70    0.63
   3   7  -5   16.13    0.62
   3   7  -5   16.57    0.62
   3   7  -5   15.24    0.66
  -4  -7   5   14.18    0.56
  -4  -7   5   14.63    0.63
  -4  -7   5   13.25    0.62
   4   7  -5   13.64    0.59
   4   7  -5   13.71    0.55
   4   7  -5   13.49    0.58
   4   7  -5   13.81    0.69
  -5  -7   5    7.58    0.55
  -5  -7   5    7.82    0.51
   5   7  -5    7.60    0.50
   5   7  -5    7.40    0.68
   5   7  -5    8.65    0.53
  -6  -7   5    9.33    0.55
  -6  -7   5    8.70    0.54
  -6  -7   5    8.83    0.72
   6   7  -5    9.23    0.82
   6   7  -5    8.62    0.62
   6   7  -5    8.99    0.58
  -7  -7   5    3.23    0.38
  -7  -7   5    2.57    0.56
   7   7  -5    2.46    0.48
   7   7  -5    3.61    0.60
   7   7  -5    2.66    0.40
   7  -6   5    1.46    0.52
   7  -6   5    1.14    0.38
   7  -6   5    1.15    0.46
  -7   6  -5    0.77    0.52
  -7   6  -5    2.23    0.38
   6  -6   5    5.28    0.49
   6  -6   5    7.41    0.70
   6  -6   5    6.44    0.63
  -6   6  -5    5.28    0.48
  -6   6  -5    5.04    0.52
   5  -6   5    5.32    0.54
   5  -6   5    4.69    0.45
   5  -6   5    4.55    0.40
  -5   6  -5    5.38    0.43
  -5   6  -5    4.77    0.46
   4  -6   5    4.78    0.50
   4  -6   5    4.86    0.35
   4  -6   5    3.71    0.38
  -4   6  -5    4.99    0.52
  -4   6  -5    4.76    0.43
  -4   6  -5    3.62    0.38
   3  -6   5    4.24    0.33
   3  -6   5    4.00    0.34
   3  -6   5    4.47    0.46
   3  -6   5    4.56    0.43
  -3   6  -5    4.36    0.35
  -3   6  -5    5.01    0.47
  -3   6  -5    5.13    0.41
   2  -6   5   43.25    1.02
   2  -6   5   40.44    0.96
   2  -6   5   40.78    1.02
   2  -6   5   43.09    0.96
  -2   6  -5   42.07    1.00
  -2   6  -5   41.65    1.01
  -2   6  -5   42.85    0.98
   1  -6   5    4.16    0.34
   1  -6   5    3.32    0.29
   1  -6   5    2.94    0.32
   1  -6   5    3.89    0.34
   1  -6   5    3.57    0.38
  -1   6  -5    3.34    0.33
  -1   6  -5    3.33    0.28
  -1   6  -5    3.44    0.33
  -1   6  -5    3.34    0.33
   0  -6   5   16.86    0.58
   0  -6   5   14.83    0.54
   0  -6   5   15.34    0.52
   0  -6   5   15.03    0.55
   0   6  -5   15.60    0.57
   0   6  -5   15.73    0.55
   0   6  -5   15.76    0.56
   0   6  -5   15.21    0.55
  -1  -6   5   17.71    0.61
  -1  -6   5   17.49    0.59
  -1  -6   5   17.89    0.60
  -1  -6   5   17.64    0.53
   1   6  -5   17.35    0.62
   1   6  -5   17.45    0.59
   1   6  -5   17.41    0.59
   1   6  -5   17.73    0.60
  -2  -6   5    2.49    0.28
  -2  -6   5    2.09    0.28
  -2  -6   5    2.02    0.26
  -2  -6   5    1.94    0.23
   2   6  -5    2.26    0.26
   2   6  -5    2.36    0.27
   2   6  -5    1.97    0.28
  -3  -6   5   25.28    0.75
  -3  -6   5   25.89    0.66
  -3  -6   5   25.94    0.81
   3   6  -5   23.19    0.71
   3   6  -5   26.01    0.77
   3   6  -5   26.40    0.79
   3   6  -5   25.81    0.65
  -4  -6   5    2.45    0.29
  -4  -6   5    1.94    0.25
   4   6  -5    2.09    0.34
   4   6  -5    2.12    0.24
   4   6  -5    2.25    0.27
  -5  -6   5   21.06    0.62
  -5  -6   5   21.07    0.81
  -5  -6   5   21.55    0.71
   5   6  -5   22.80    0.69
   5   6  -5   21.24    0.68
   5   6  -5   22.18    0.84
  -6  -6   5   18.54    0.68
  -6  -6   5   18.66    0.88
   6   6  -5   20.07    0.90
   6   6  -5   18.99    0.71
   6   6  -5   20.26    0.68
  -7  -6   5    0.49    0.47
  -7  -6   5   -0.52    0.30
   7   6  -5    0.47    0.50
   7   6  -5   -0.75    0.34
   7   6  -5    0.57    0.41
   7  -5   5    1.68    0.32
   7  -5   5    2.33    0.48
   7  -5   5    1.76    0.40
  -7   5  -5    1.72    0.32
  -7   5  -5    2.48    0.50
   6  -5   5    0.48    0.32
   6  -5   5    0.34    0.24
   6  -5   5    0.52    0.31
  -6   5  -5    0.75    0.37
  -6   5  -5    0.44    0.23
   5  -5   5    1.32    0.28
   5  -5   5    1.60    0.21
   5  -5   5    1.76    0.29
  -5   5  -5    1.30    0.32
  -5   5  -5    1.67    0.25
   4  -5   5   12.63    0.58
   4  -5   5   12.16    0.58
   4  -5   5   13.30    0.57
   4  -5   5   12.32    0.48
  -4   5  -5   13.07    0.57
  -4   5  -5   12.90    0.57
  -4   5  -5   12.14    0.50
   3  -5   5    4.95    0.38
   3  -5   5    4.19    0.40
   3  -5   5    4.50    0.33
   3  -5   5    4.59    0.33
  -3   5  -5    4.82    0.34
  -3   5  -5    5.01    0.42
  -3   5  -5    5.34    0.35
  -3   5  -5    4.78    0.38
   2  -5   5   51.98    1.12
   2  -5   5   51.77    1.10
   2  -5   5   51.49    1.15
   2  -5   5   53.18    1.09
  -2   5  -5   53.07    1.14
  -2   5  -5   53.52    1.10
  -2   5  -5   52.40    1.11
  -2   5  -5   53.96    1.13
   1  -5   5    2.38    0.25
   1  -5   5    2.50    0.25
   1  -5   5    2.45    0.24
   1  -5   5    2.31    0.26
  -1   5  -5    2.46    0.26
  -1   5  -5    2.67    0.26
  -1   5  -5    2.83    0.30
  -1   5  -5    2.92    0.29
   0  -5   5   75.62    1.44
   0  -5   5   76.20    1.51
   0  -5   5   73.78    1.40
   0  -5   5   74.48    1.44
   0   5  -5   77.08    1.45
   0   5  -5   75.12    1.48
   0   5  -5   76.88    1.45
   0   5  -5   76.96    1.51
  -1  -5   5    1.53    0.19
  -1  -5   5    1.38    0.22
  -1  -5   5    1.69    0.23
  -1  -5   5    1.57    0.21
   1   5  -5    1.36    0.22
   1   5  -5    1.65    0.22
   1   5  -5    1.80    0.21
   1   5  -5    1.76    0.24
  -2  -5   5   37.29    0.94
  -2  -5   5   37.78    0.90
  -2  -5   5   36.55    0.78
  -2  -5   5   37.59    0.88
   2   5  -5   38.04    0.87
   2   5  -5   38.05    0.95
   2   5  -5   37.95    0.90
   2   5  -5   38.78    0.92
  -3  -5   5   18.24    0.58
  -3  -5   5   18.30    0.64
   3   5  -5   17.42    0.56
   3   5  -5   17.67    0.63
   3   5  -5   17.44    0.64
   3   5  -5   18.52    0.50
  -4  -5   5   24.18    0.61
  -4  -5   5   23.51    0.78
  -4  -5   5   23.39    0.70
   4   5  -5   24.50    0.78
   4   5  -5   23.70    0.61
   4   5  -5   22.38    0.66
  -5  -5   5   36.90    0.76
  -5  -5   5   38.93    1.08
  -5  -5   5   36.96    0.94
   5   5  -5   38.05    1.03
   5   5  -5   38.57    0.89
   5   5  -5   37.43    0.93
  -6  -5   5    3.98    0.41
  -6  -5   5    3.68    0.44
   6   5  -5    4.88    0.53
   6   5  -5    4.72    0.43
   6   5  -5    5.15    0.52
  -7  -5   5    5.87    0.53
  -7  -5   5    5.42    0.62
   7   5  -5    7.65    0.68
   7   5  -5    6.51    0.56
   7   5  -5    8.33    0.85
   8  -4   5    2.31    0.34
   8  -4   5    2.33    0.51
   8  -4   5    2.70    0.45
  -8   4  -5    2.49    0.53
  -8   4  -5    2.25    0.36
   7  -4   5    4.79    0.44
   7  -4   5    4.20    0.44
   7  -4   5    4.56    0.47
  -7   4  -5    4.83    0.47
  -7   4  -5    4.28    0.49
   6  -4   5    0.69    0.28
   6  -4   5    0.92    0.31
   6  -4   5    1.04    0.22
  -6   4  -5    0.33    0.23
  -6   4  -5    0.93    0.34
   5  -4   5    6.33    0.48
   5  -4   5    5.12    0.35
   5  -4   5    6.26    0.46
  -5   4  -5    6.12    0.39
  -5   4  -5    6.06    0.49
   4  -4   5    2.00    0.23
   4  -4   5    1.49    0.24
   4  -4   5    1.88    0.24
   4  -4   5    1.41    0.26
  -4   4  -5    1.86    0.24
  -4   4  -5    1.79    0.28
  -4   4  -5    2.30    0.26
  -4   4  -5    2.12    0.26
   3  -4   5  100.67    1.87
   3  -4   5  100.34    1.81
   3  -4   5   98.93    1.82
   3  -4   5  100.27    1.79
   3  -4   5  100.15    1.81
  -3   4  -5   99.59    1.79
  -3   4  -5  101.26    1.86
  -3   4  -5   99.09    1.81
  -3   4  -5  100.06    1.81
   2  -4   5   80.02    1.49
   2  -4   5   78.03    1.47
   2  -4   5   79.89    1.52
   2  -4   5   81.45    1.49
  -2   4  -5   78.19    1.48
  -2   4  -5   79.20    1.48
  -2   4  -5   79.61    1.49
  -2   4  -5   78.88    1.50
   1  -4   5   95.49    1.70
   1  -4   5   94.49    1.74
   1  -4   5   95.38    1.76
   1  -4   5   94.60    1.70
  -1   4  -5   94.88    1.76
  -1   4  -5   95.81    1.73
  -1   4  -5   95.82    1.71
  -1   4  -5   93.89    1.70
   0  -4   5    5.36    0.33
   0  -4   5    4.59    0.26
   0  -4   5    5.37    0.31
   0  -4   5    5.23    0.33
   0   4  -5    5.00    0.31
   0   4  -5    5.28    0.33
   0   4  -5    5.00    0.30
   0   4  -5    4.95    0.34
  -1  -4   5   84.66    1.46
  -1  -4   5   83.88    1.64
  -1  -4   5   84.77    1.55
  -1  -4   5   86.33    1.55
   1   4  -5   84.03    1.58
   1   4  -5   84.39    1.54
   1   4  -5   84.20    1.65
   1   4  -5   83.56    1.54
  -2  -4   5   57.62    1.15
  -2  -4   5   58.86    1.25
  -2  -4   5   56.98    1.04
  -2  -4   5   58.46    1.17
   2   4  -5   57.19    1.25
   2   4  -5   57.31    1.16
   2   4  -5   58.36    1.15
  -3  -4   5    1.43    0.20
  -3  -4   5    1.25    0.21
  -3  -4   5    1.63    0.19
   3   4  -5    1.25    0.17
   3   4  -5    1.37    0.25
   3   4  -5    1.46    0.19
   3   4  -5    0.95    0.22
  -4  -4   5    0.42    0.16
  -4  -4   5    0.35    0.18
  -4  -4   5    0.62    0.23
   4   4  -5    0.21    0.24
   4   4  -5    0.07    0.21
   4   4  -5    0.39    0.17
   4   4  -5    0.47    0.17
  -5  -4   5   10.77    0.61
  -5  -4   5   10.75    0.47
   5   4  -5   10.77    0.60
   5   4  -5   10.19    0.48
   5   4  -5   10.79    0.45
  -6  -4   5    5.42    0.51
  -6  -4   5    5.08    0.42
   6   4  -5    5.73    0.41
   6   4  -5    5.64    0.51
   6   4  -5    4.73    0.49
  -7  -4   5    2.84    0.36
  -7  -4   5    3.29    0.55
   7   4  -5    2.81    0.51
   7   4  -5    2.70    0.33
   7   4  -5    2.99    0.43
   8  -3   5    3.71    0.33
   8  -3   5    4.59    0.48
   8  -3   5    5.20    0.54
  -8   3  -5    4.55    0.56
  -8   3  -5    3.93    0.39
   7  -3   5    9.69    0.65
   7  -3   5    9.02    0.47
   7  -3   5   10.91    0.64
  -7   3  -5    9.69    0.69
  -7   3  -5   10.78    0.55
   6  -3   5   38.09    0.96
   6  -3   5   38.17    0.92
   6  -3   5   38.19    1.02
  -6   3  -5   37.04    1.00
  -6   3  -5   36.01    0.93
   5  -3   5   -0.13    0.19
   5  -3   5    0.08    0.19
   5  -3   5   -0.22    0.14
  -5   3  -5    0.01    0.22
  -5   3  -5    0.14    0.18
  -5   3  -5    0.10    0.14
   4  -3   5    4.57    0.32
   4  -3   5    5.22    0.36
   4  -3   5    5.14    0.35
  -4   3  -5    5.47    0.29
  -4   3  -5    5.10    0.34
  -4   3  -5    4.79    0.38
  -4   3  -5    4.96    0.35
   3  -3   5   46.89    0.99
   3  -3   5   46.54    0.99
   3  -3   5   46.54    0.96
   3  -3   5   45.66    0.97
  -3   3  -5   45.94    0.98
  -3   3  -5   46.56    0.98
  -3   3  -5   45.83    0.99
  -3   3  -5   45.36    0.93
   2  -3   5   20.91    0.57
   2  -3   5   20.35    0.57
   2  -3   5   20.76    0.56
   2  -3   5   20.98    0.55
   2  -3   5   20.50    0.56
  -2   3  -5   21.13    0.56
  -2   3  -5   20.60    0.56
  -2   3  -5   19.46    0.56
  -2   3  -5   20.85    0.56
   1  -3   5   43.52    0.92
   1  -3   5   42.37    0.89
   1  -3   5   43.08    0.88
   1  -3   5   42.64    0.89
   1  -3   5   42.68    0.89
  -1   3  -5   42.72    0.93
  -1   3  -5   42.97    0.89
  -1   3  -5   42.70    0.89
  -1   3  -5   43.11    0.90
   0  -3   5    7.07    0.33
   0  -3   5    7.08    0.35
   0  -3   5    7.25    0.35
   0  -3   5    7.56    0.32
   0  -3   5    6.77    0.25
   0   3  -5    7.51    0.34
   0   3  -5    7.22    0.35
   0   3  -5    7.16    0.32
   0   3  -5    7.34    0.37
  -1  -3   5   89.99    1.71
  -1  -3   5   89.65    1.58
  -1  -3   5   87.98    1.53
  -1  -3   5   88.93    1.58
  -1  -3   5   88.51    1.47
   1   3  -5   91.19    1.58
   1   3  -5   87.97    1.57
   1   3  -5   89.10    1.71
  -2  -3   5   60.68    1.16
  -2  -3   5   60.71    1.28
  -2  -3   5   59.40    1.09
   2   3  -5   61.90    1.18
   2   3  -5   60.21    1.28
   2   3  -5   62.00    1.17
  -3  -3   5   28.29    0.59
  -3  -3   5   28.59    0.78
  -3  -3   5   28.24    0.69
   3   3  -5   28.19    0.79
   3   3  -5   28.44    0.58
   3   3  -5   27.29    0.67
   3   3  -5   27.80    0.72
  -4  -3   5   19.85    0.58
  -4  -3   5   20.57    0.70
   4   3  -5   18.19    0.55
   4   3  -5   19.39    0.70
   4   3  -5   20.40    0.64
   4   3  -5   20.06    0.52
  -5  -3   5    0.01    0.26
  -5  -3   5    0.33    0.19
   5   3  -5    0.16    0.26
   5   3  -5    0.25    0.22
   5   3  -5    0.51    0.20
  -6  -3   5   12.64    0.73
  -6  -3   5   11.98    0.55
   6   3  -5   11.80    0.57
   6   3  -5   12.18    0.53
   6   3  -5   11.83    0.69
  -7  -3   5    1.09    0.45
  -7  -3   5    1.61    0.32
   7   3  -5    1.22    0.33
   7   3  -5    1.00    0.39
   7   3  -5    1.81    0.47
   9  -2   5    2.64    0.49
   9  -2   5    3.46    0.52
   9  -2   5    0.93    0.36
  -9   2  -5    2.48    0.60
  -9   2  -5    1.51    0.37
   8  -2   5    0.59    0.26
   8  -2   5    0.93    0.36
   8  -2   5    1.22    0.35
  -8   2  -5    1.60    0.42
  -8   2  -5    0.74    0.27
   7  -2   5    4.09    0.36
   7  -2   5    4.51    0.50
   7  -2   5    4.66    0.39
  -7   2  -5    4.66    0.44
  -7   2  -5    5.38    0.44
   6  -2   5    4.13    0.42
   6  -2   5    3.31    0.33
   6  -2   5    3.03    0.29
  -6   2  -5    3.48    0.37
  -6   2  -5    2.80    0.27
  -6   2  -5    3.04    0.33
   5  -2   5    0.63    0.17
   5  -2   5    0.87    0.21
   5  -2   5    0.65    0.20
  -5   2  -5    0.93    0.23
  -5   2  -5    0.54    0.17
  -5   2  -5    0.54    0.15
   4  -2   5   31.61    0.74
   4  -2   5   31.56    0.76
   4  -2   5   31.52    0.76
  -4   2  -5   31.77    0.70
  -4   2  -5   31.24    0.76
  -4   2  -5   32.63    0.78
  -4   2  -5   32.53    0.76
   3  -2   5   17.04    0.50
   3  -2   5   17.00    0.49
   3  -2   5   16.63    0.51
   3  -2   5   16.33    0.48
  -3   2  -5   16.97    0.48
  -3   2  -5   16.13    0.50
  -3   2  -5   16.94    0.51
  -3   2  -5   16.71    0.48
   2  -2   5   36.24    0.78
   2  -2   5   35.11    0.78
   2  -2   5   34.78    0.77
   2  -2   5   35.95    0.76
  -2   2  -5   35.85    0.79
  -2   2  -5   35.45    0.74
  -2   2  -5   36.58    0.78
  -2   2  -5   35.06    0.77
   1  -2   5   54.38    1.03
   1  -2   5   53.64    1.09
   1  -2   5   53.57    1.03
   1  -2   5   54.14    1.03
  -1   2  -5   55.43    1.03
  -1   2  -5   54.05    1.02
  -1   2  -5   54.07    1.09
  -1   2  -5   54.59    1.03
   0  -2   5   19.04    0.55
   0  -2   5   19.18    0.49
   0  -2   5   18.93    0.50
   0  -2   5   18.60    0.49
   0   2  -5   19.76    0.57
   0   2  -5   19.31    0.49
   0   2  -5   19.36    0.50
   0   2  -5   19.10    0.50
  -1  -2   5  145.27    2.34
  -1  -2   5  140.77    2.33
  -1  -2   5  143.59    2.54
  -1  -2   5  143.83    2.31
   1   2  -5  144.04    2.55
   1   2  -5  141.88    2.34
   1   2  -5  144.33    2.34
  -2  -2   5    1.64    0.21
  -2  -2   5    1.34    0.17
  -2  -2   5    1.62    0.16
   2   2  -5    1.50    0.16
   2   2  -5    1.75    0.22
   2   2  -5    1.35    0.19
  -3  -2   5   67.19    1.26
  -3  -2   5   68.59    1.42
  -3  -2   5   70.28    1.15
   3   2  -5   68.09    1.28
   3   2  -5   68.08    1.26
   3   2  -5   68.68    1.18
   3   2  -5   69.08    1.44
  -4  -2   5   16.53    0.52
  -4  -2   5   16.90    0.64
   4   2  -5   16.70    0.47
   4   2  -5   17.36    0.64
   4   2  -5   17.25    0.57
   4   2  -5   16.69    0.51
  -5  -2   5   22.22    0.64
  -5  -2   5   20.66    0.78
   5   2  -5   23.62    0.72
   5   2  -5   22.32    0.63
   5   2  -5   23.26    0.83
   5   2  -5   22.39    0.64
  -6  -2   5   17.71    0.63
  -6  -2   5   17.93    0.80
   6   2  -5   18.71    0.73
   6   2  -5   17.84    0.62
   6   2  -5   18.18    0.68
  -7  -2   5    1.23    0.46
  -7  -2   5    0.82    0.33
   7   2  -5    1.10    0.32
   7   2  -5    1.46    0.45
   7   2  -5    1.70    0.43
   9  -1   5    1.92    0.42
   9  -1   5    1.20    0.44
   9  -1   5    1.73    0.33
  -9   1  -5    1.55    0.53
  -9   1  -5    1.92    0.35
   8  -1   5    0.51    0.30
   8  -1   5    0.66    0.33
   8  -1   5    0.02    0.24
  -8   1  -5    0.31    0.20
  -8   1  -5    0.23    0.37
  -8   1  -5    0.38    0.25
   7  -1   5   16.26    0.62
   7  -1   5   17.23    0.60
   7  -1   5   17.43    0.69
  -7   1  -5   17.17    0.71
  -7   1  -5   16.74    0.51
  -7   1  -5   16.62    0.63
   6  -1   5    3.30    0.32
   6  -1   5    3.42    0.36
   6  -1   5    3.56    0.33
  -6   1  -5    3.24    0.30
  -6   1  -5    3.77    0.38
  -6   1  -5    3.72    0.35
   5  -1   5    8.87    0.41
   5  -1   5    8.72    0.39
   5  -1   5    8.46    0.39
  -5   1  -5    8.78    0.42
  -5   1  -5    8.80    0.37
  -5   1  -5    9.07    0.43
   4  -1   5   30.27    0.70
   4  -1   5   30.90    0.71
   4  -1   5   30.55    0.73
  -4   1  -5   30.56    0.70
  -4   1  -5   30.92    0.73
  -4   1  -5   30.10    0.73
   3  -1   5   14.02    0.40
   3  -1   5   13.47    0.44
   3  -1   5   13.87    0.45
  -3   1  -5   14.20    0.45
  -3   1  -5   13.44    0.44
  -3   1  -5   14.61    0.44
  -3   1  -5   13.76    0.40
  -3   1  -5   13.86    0.46
   2  -1   5  354.74    5.40
   2  -1   5  349.97    5.39
   2  -1   5  346.67    5.48
   2  -1   5  354.13    5.42
  -2   1  -5  356.52    5.40
  -2   1  -5  344.02    5.73
  -2   1  -5  351.26    5.47
  -2   1  -5  349.91    5.39
   1  -1   5   14.86    0.42
   1  -1   5   15.12    0.42
   1  -1   5   15.13    0.46
   1  -1   5   14.51    0.43
  -1   1  -5   15.30    0.43
  -1   1  -5   14.98    0.38
  -1   1  -5   15.05    0.42
   0  -1   5   99.26    1.65
   0  -1   5   99.25    1.81
   0  -1   5   98.16    1.64
   0  -1   5   99.04    1.64
   0   1  -5   98.12    1.66
   0   1  -5  100.13    1.65
   0   1  -5   98.07    1.81
   0   1  -5   98.82    1.64
  -1  -1   5   13.10    0.45
  -1  -1   5   12.69    0.36
  -1  -1   5   12.14    0.37
  -1  -1   5   12.74    0.36
   1   1  -5   12.75    0.36
   1   1  -5   12.51    0.38
   1   1  -5   13.17    0.46
  -2  -1   5   62.11    1.06
  -2  -1   5   61.95    1.26
  -2  -1   5   60.68    1.10
   2   1  -5   62.35    1.11
   2   1  -5   60.74    1.27
   2   1  -5   61.92    1.11
  -3  -1   5   35.70    0.74
  -3  -1   5   34.69    0.87
   3   1  -5   34.46    0.88
   3   1  -5   35.32    0.69
   3   1  -5   35.92    0.74
  -4  -1   5    2.64    0.30
  -4  -1   5    2.79    0.24
   4   1  -5    2.48    0.30
   4   1  -5    2.58    0.23
  -5  -1   5   30.03    0.74
  -5  -1   5   29.83    0.90
   5   1  -5   29.44    0.72
   5   1  -5   29.76    0.90
  -6  -1   5    4.44    0.45
  -6  -1   5    3.74    0.43
   6   1  -5    5.04    0.55
   6   1  -5    5.21    0.43
  -7  -1   5    3.81    0.40
  -7  -1   5    3.45    0.49
   7   1  -5    3.76    0.40
   7   1  -5    5.09    0.54
   9   0   5    1.03    0.37
   9   0   5    0.88    0.30
   9   0   5    1.06    0.43
  -9   0  -5    0.31    0.45
  -9   0  -5    0.89    0.30
   8   0   5   17.71    0.76
   8   0   5   18.40    0.68
   8   0   5   17.23    0.65
  -8   0  -5   17.67    0.81
  -8   0  -5   17.00    0.68
   7   0   5    4.88    0.43
   7   0   5    5.17    0.40
   7   0   5    5.56    0.47
  -7   0  -5    4.13    0.43
  -7   0  -5    5.08    0.52
   6   0   5    0.21    0.17
   6   0   5   -0.16    0.17
   6   0   5    0.04    0.19
  -6   0  -5    0.32    0.19
  -6   0  -5    0.13    0.20
   5   0   5    0.59    0.16
   5   0   5    0.27    0.14
   5   0   5    0.33    0.16
  -5   0  -5    0.32    0.17
  -5   0  -5    0.40    0.17
  -5   0  -5    0.36    0.18
   4   0   5    3.89    0.25
   4   0   5    4.30    0.30
   4   0   5    4.06    0.27
  -4   0  -5    4.18    0.32
  -4   0  -5    4.00    0.28
  -4   0  -5    4.00    0.29
   3   0   5  287.03    4.48
   3   0   5  288.55    4.47
   3   0   5  285.67    4.45
  -3   0  -5  283.71    4.47
  -3   0  -5  284.36    4.45
  -3   0  -5  287.79    4.45
  -3   0  -5  284.26    4.72
   2   0   5  217.41    3.42
   2   0   5  217.80    3.42
   2   0   5  217.68    3.41
   2   0   5  218.59    3.45
  -2   0  -5  220.53    3.42
  -2   0  -5  218.15    3.41
  -2   0  -5  212.40    3.45
  -2   0  -5  219.91    3.67
  -2   0  -5  223.30    3.42
   1   0   5   12.84    0.30
   1   0   5   12.61    0.36
   1   0   5   12.88    0.39
   1   0   5   12.67    0.36
  -1   0  -5   13.11    0.37
  -1   0  -5   13.00    0.36
  -1   0  -5   13.07    0.44
  -1   0  -5   12.37    0.39
  -1   0  -5   13.19    0.31
   0   0   5   90.91    1.70
   0   0   5   94.72    1.56
   0   0   5   91.43    1.51
   0   0  -5   93.78    1.52
   0   0  -5   91.18    1.55
   0   0  -5   92.26    1.71
  -1   0   5    6.10    0.24
  -1   0   5    6.01    0.26
  -1   0   5    6.22    0.34
   1   0  -5    6.30    0.33
   1   0  -5    6.19    0.24
   1   0  -5    6.02    0.25
   1   0  -5    6.16    0.25
  -2   0   5   23.10    0.49
  -2   0   5   22.79    0.49
  -2   0   5   22.90    0.63
   2   0  -5   22.32    0.50
   2   0  -5   22.25    0.48
   2   0  -5   22.67    0.50
   2   0  -5   23.03    0.64
  -3   0   5    0.07    0.18
  -3   0   5    0.02    0.12
   3   0  -5   -0.19    0.16
   3   0  -5    0.11    0.12
   3   0  -5    0.11    0.14
  -4   0   5    7.37    0.47
  -4   0   5    6.93    0.33
   4   0  -5    7.90    0.50
   4   0  -5    6.94    0.33
   4   0  -5    7.29    0.36
  -5   0   5    0.17    0.19
  -5   0   5    0.25    0.27
   5   0  -5    0.23    0.22
   5   0  -5    0.45    0.19
   5   0  -5   -0.06    0.29
  -6   0   5    1.57    0.28
  -6   0   5    1.75    0.40
   6   0  -5    1.65    0.32
   6   0  -5    1.84    0.28
  -7   0   5    1.82    0.51
  -7   0   5    1.71    0.35
   7   0  -5    2.09    0.42
   7   0  -5    2.56    0.37
  10   1   5    3.47    0.43
  10   1   5    3.05    0.56
  10   1   5    3.29    0.47
 -10  -1  -5    3.68    0.64
 -10  -1  -5    2.75    0.43
 -10  -1  -5    3.54    0.51
   9   1   5    3.63    0.41
   9   1   5    3.44    0.39
   9   1   5    4.33    0.48
  -9  -1  -5    3.09    0.38
  -9  -1  -5    3.89    0.50
   8   1   5    8.63    0.59
   8   1   5    8.49    0.52
   8   1   5    8.57    0.52
  -8  -1  -5    8.36    0.63
  -8  -1  -5    9.42    0.58
   7   1   5    1.27    0.26
   7   1   5    1.14    0.25
   7   1   5    1.01    0.23
  -7  -1  -5    1.21    0.25
  -7  -1  -5    1.20    0.27
   6   1   5   28.98    0.77
   6   1   5   30.22    0.75
   6   1   5   29.12    0.72
  -6  -1  -5   30.21    0.79
  -6  -1  -5   29.02    0.72
   5   1   5   13.79    0.45
   5   1   5   13.74    0.49
   5   1   5   13.74    0.43
  -5  -1  -5   13.98    0.46
  -5  -1  -5   13.72    0.51
   4   1   5    3.18    0.29
   4   1   5    3.50    0.23
   4   1   5    3.97    0.27
  -4  -1  -5    3.59    0.27
  -4  -1  -5    3.98    0.32
  -4  -1  -5    3.64    0.26
   3   1   5   15.37    0.44
   3   1   5   14.75    0.44
   3   1   5   14.44    0.33
   3   1   5   14.70    0.44
  -3  -1  -5   14.61    0.43
  -3  -1  -5   14.67    0.44
  -3  -1  -5   14.62    0.45
   2   1   5    0.25    0.12
   2   1   5    0.21    0.12
   2   1   5    0.29    0.13
  -2  -1  -5    0.25    0.15
  -2  -1  -5    0.26    0.12
  -2  -1  -5    0.31    0.13
  -2  -1  -5    0.24    0.13
   1   1   5   95.88    1.65
   1   1   5  100.61    1.62
  -1  -1  -5   96.93    1.78
  -1  -1  -5   97.56    1.58
  -1  -1  -5   96.08    1.65
  -1  -1  -5   98.14    1.62
   0   1   5    8.28    0.32
   0   1   5    8.49    0.25
   0  -1  -5    8.51    0.25
   0  -1  -5    8.23    0.31
   0  -1  -5    8.16    0.24
   0  -1  -5    9.00    0.38
   0  -1  -5    8.55    0.25
  -1   1   5   39.46    0.68
  -1   1   5   40.28    0.77
  -1   1   5   39.79    0.89
   1  -1  -5   40.02    0.73
   1  -1  -5   40.67    0.69
   1  -1  -5   39.11    0.76
   1  -1  -5   39.27    0.89
   1  -1  -5   39.32    0.69
  -2   1   5   54.99    0.90
  -2   1   5   55.35    1.14
   2  -1  -5   53.07    0.91
   2  -1  -5   53.54    0.96
   2  -1  -5   53.69    0.99
   2  -1  -5   53.93    1.13
   2  -1  -5   54.46    0.91
  -3   1   5    4.21    0.39
  -3   1   5    4.10    0.23
   3  -1  -5    4.14    0.22
   3  -1  -5    4.56    0.38
   3  -1  -5    4.02    0.23
   3  -1  -5    3.97    0.23
  -4   1   5   25.10    0.75
  -4   1   5   24.70    0.54
   4  -1  -5   24.82    0.74
   4  -1  -5   24.04    0.56
   4  -1  -5   24.03    0.56
  -5   1   5    3.89    0.32
  -5   1   5    3.66    0.38
   5  -1  -5    3.87    0.38
   5  -1  -5    3.60    0.37
   5  -1  -5    4.19    0.34
  -6   1   5    3.80    0.40
   6  -1  -5    3.44    0.34
   6  -1  -5    3.75    0.31
  10   2   5    0.32    0.39
  10   2   5    1.09    0.42
  10   2   5    0.81    0.46
  10   2   5    0.18    0.40
 -10  -2  -5   -0.18    0.39
   9   2   5    2.34    0.37
   9   2   5    3.13    0.38
   9   2   5    3.19    0.42
   9   2   5    2.52    0.35
  -9  -2  -5    2.05    0.37
   8   2   5    5.47    0.48
   8   2   5    5.63    0.49
  -8  -2  -5    4.98    0.51
  -8  -2  -5    5.14    0.45
   7   2   5   24.79    0.70
   7   2   5   24.43    0.75
  -7  -2  -5   24.79    0.69
  -7  -2  -5   25.03    0.77
   6   2   5    6.25    0.36
   6   2   5    7.19    0.41
   6   2   5    6.44    0.38
  -6  -2  -5    7.04    0.37
  -6  -2  -5    6.15    0.42
   5   2   5    0.26    0.14
   5   2   5    0.37    0.15
   5   2   5    0.26    0.17
  -5  -2  -5    0.24    0.15
  -5  -2  -5    0.44    0.18
   4   2   5   35.68    0.80
   4   2   5   35.10    0.77
   4   2   5   35.50    0.78
   4   2   5   33.84    0.65
  -4  -2  -5   34.90    0.78
  -4  -2  -5   34.40    0.77
   3   2   5    0.11    0.13
   3   2   5    0.31    0.14
   3   2   5    0.24    0.14
  -3  -2  -5    0.31    0.15
  -3  -2  -5    0.46    0.14
   2   2   5   17.22    0.42
   2   2   5   16.66    0.45
   2   2   5   17.30    0.47
  -2  -2  -5   16.63    0.43
  -2  -2  -5   16.47    0.44
  -2  -2  -5   16.73    0.41
  -2  -2  -5   16.77    0.47
   1   2   5   18.44    0.49
   1   2   5   18.23    0.45
  -1  -2  -5   17.89    0.40
  -1  -2  -5   17.77    0.54
  -1  -2  -5   17.84    0.44
  -1  -2  -5   18.01    0.49
  -1  -2  -5   18.62    0.40
   0   2   5    3.09    0.24
   0  -2  -5    2.76    0.14
   0  -2  -5    2.88    0.28
   0  -2  -5    2.78    0.20
   0  -2  -5    3.05    0.24
   1  -2  -5   53.82    1.11
   1  -2  -5   53.00    0.99
   1  -2  -5   53.66    1.00
   2  -2  -5    9.15    0.36
   2  -2  -5    9.02    0.34
   2  -2  -5    9.74    0.43
   3  -2  -5   29.68    0.63
   3  -2  -5   29.95    0.79
   4  -2  -5   31.53    0.85
   5  -2  -5    8.65    0.60
   6  -2  -5    7.21    0.78
  10   3   5    0.64    0.43
  10   3   5    0.92    0.37
 -10  -3  -5    0.46    0.40
   9   3   5    4.75    0.51
   9   3   5    5.07    0.44
   9   3   5    5.15    0.49
  -9  -3  -5    5.39    0.50
  -9  -3  -5    5.68    0.60
   8   3   5    8.90    0.55
   8   3   5    9.39    0.54
   8   3   5    8.70    0.52
  -8  -3  -5    9.96    0.62
  -8  -3  -5    9.27    0.51
   7   3   5    7.56    0.48
   7   3   5    7.94    0.46
   7   3   5    7.19    0.43
  -7  -3  -5    7.05    0.50
  -7  -3  -5    7.17    0.43
   6   3   5   14.98    0.51
   6   3   5   14.18    0.55
   6   3   5   14.28    0.53
  -6  -3  -5   15.01    0.51
  -6  -3  -5   14.84    0.57
   5   3   5   21.19    0.62
   5   3   5   22.01    0.59
   5   3   5   21.50    0.62
  -5  -3  -5   22.34    0.60
  -5  -3  -5   22.11    0.63
   4   3   5   39.08    0.83
   4   3   5   38.15    0.86
   4   3   5   38.93    0.84
  -4  -3  -5   39.86    0.85
  -4  -3  -5   39.03    0.84
   3   3   5    4.62    0.30
   3   3   5    4.53    0.29
   3   3   5    4.33    0.28
  -3  -3  -5    4.19    0.29
  -3  -3  -5    4.59    0.28
  -3  -3  -5    4.75    0.29
   2   3   5  163.24    2.66
   2   3   5  164.24    2.72
  -2  -3  -5  162.87    2.66
  -2  -3  -5  158.56    2.71
   1   3   5    3.36    0.25
   1   3   5    3.79    0.18
  -1  -3  -5    3.37    0.18
  -1  -3  -5    3.65    0.27
  -1  -3  -5    3.81    0.19
  -1  -3  -5    4.06    0.26
  -1  -3  -5    3.96    0.18
   0  -3  -5  131.90    2.24
   0  -3  -5  131.88    2.35
   0  -3  -5  131.98    2.18
   0  -3  -5  131.82    2.19
   1  -3  -5   26.28    0.68
   1  -3  -5   25.67    0.64
   1  -3  -5   25.71    0.63
   1  -3  -5   26.37    0.61
   2  -3  -5   25.86    0.67
   2  -3  -5   24.95    0.69
   2  -3  -5   25.56    0.62
   2  -3  -5   25.61    0.71
   3  -3  -5   14.86    0.57
   3  -3  -5   15.59    0.63
   3  -3  -5   15.43    0.46
   3  -3  -5   15.29    0.56
   4  -3  -5    0.46    0.30
   4  -3  -5    1.05    0.19
   4  -3  -5    0.51    0.26
   5  -3  -5   10.94    0.62
   5  -3  -5   10.10    0.74
  10   4   5    6.51    0.64
  10   4   5    4.15    0.53
 -10  -4  -5    4.41    0.54
 -10  -4  -5    4.55    0.46
   9   4   5    1.53    0.37
   9   4   5    1.59    0.30
  -9  -4  -5    1.34    0.38
  -9  -4  -5    1.35    0.33
   8   4   5    5.25    0.44
   8   4   5    5.19    0.53
   8   4   5    5.00    0.50
  -8  -4  -5    4.63    0.44
  -8  -4  -5    4.21    0.46
   7   4   5   15.91    0.60
   7   4   5   16.37    0.65
   7   4   5   16.36    0.60
  -7  -4  -5   16.63    0.59
  -7  -4  -5   17.27    0.67
   6   4   5    4.20    0.39
   6   4   5    4.71    0.35
   6   4   5    4.16    0.35
  -6  -4  -5    4.84    0.43
  -6  -4  -5    4.89    0.35
   5   4   5   57.73    1.22
   5   4   5   57.70    1.17
   5   4   5   59.17    1.17
  -5  -4  -5   57.42    1.17
  -5  -4  -5   58.09    1.18
   4   4   5   54.33    0.95
   4   4   5   54.10    1.09
   4   4   5   53.81    1.06
   4   4   5   53.60    1.13
  -4  -4  -5   56.27    1.08
  -4  -4  -5   53.31    1.14
  -4  -4  -5   53.60    1.09
   3   4   5   37.93    0.85
   3   4   5   37.84    0.77
  -3  -4  -5   37.93    0.85
  -3  -4  -5   38.58    0.78
  -3  -4  -5   37.01    0.83
   2   4   5   42.87    0.91
  -2  -4  -5   42.42    0.90
  -2  -4  -5   42.87    0.91
  -2  -4  -5   42.62    0.79
   1   4   5    3.04    0.26
  -1  -4  -5    2.86    0.17
  -1  -4  -5    2.65    0.25
  -1  -4  -5    2.64    0.20
  -1  -4  -5    2.81    0.27
   0  -4  -5   95.57    1.73
   0  -4  -5   93.78    1.65
   0  -4  -5   95.09    1.79
   0  -4  -5   95.26    1.68
   1  -4  -5    0.93    0.20
   1  -4  -5    0.93    0.19
   1  -4  -5    1.02    0.21
   1  -4  -5    0.77    0.18
   2  -4  -5    2.05    0.24
   2  -4  -5    2.29    0.29
   2  -4  -5    1.85    0.26
   2  -4  -5    2.14    0.26
   3  -4  -5    0.13    0.24
   3  -4  -5    0.13    0.23
   3  -4  -5    0.11    0.25
   3  -4  -5    0.15    0.20
   4  -4  -5   18.09    0.58
   4  -4  -5   18.46    0.67
   4  -4  -5   19.25    0.75
   4  -4  -5   18.83    0.81
   5  -4  -5    5.43    0.51
   5  -4  -5    4.94    0.56
   5  -4  -5    5.59    0.57
  10   5   5    9.20    0.84
  10   5   5    7.60    0.69
 -10  -5  -5    8.14    0.69
 -10  -5  -5    7.80    0.79
   9   5   5    3.30    0.35
   9   5   5    3.68    0.48
  -9  -5  -5    4.23    0.50
  -9  -5  -5    3.57    0.41
   8   5   5   29.09    0.90
   8   5   5   31.13    0.97
  -8  -5  -5   30.39    0.98
  -8  -5  -5   30.59    0.86
   7   5   5    1.44    0.25
   7   5   5    1.74    0.30
  -7  -5  -5    1.54    0.26
  -7  -5  -5    1.72    0.32
   6   5   5    7.42    0.47
   6   5   5    7.42    0.42
  -6  -5  -5    8.74    0.44
  -6  -5  -5    7.73    0.50
   5   5   5    0.23    0.16
   5   5   5    0.15    0.19
  -5  -5  -5    0.38    0.17
  -5  -5  -5    0.22    0.17
  -5  -5  -5    0.62    0.21
   4   5   5   21.70    0.59
   4   5   5   23.12    0.66
   4   5   5   21.80    0.50
  -4  -5  -5   21.53    0.64
  -4  -5  -5   21.95    0.61
  -4  -5  -5   21.77    0.61
   3   5   5   20.32    0.45
   3   5   5   20.19    0.52
   3   5   5   20.69    0.61
  -3  -5  -5   20.34    0.54
  -3  -5  -5   19.68    0.58
  -3  -5  -5   21.27    0.60
   2   5   5   11.83    0.45
   2   5   5   11.49    0.34
  -2  -5  -5   10.26    0.34
  -2  -5  -5   10.81    0.33
  -2  -5  -5   10.73    0.44
  -2  -5  -5   10.76    0.42
  -1  -5  -5   43.91    0.97
  -1  -5  -5   42.97    0.75
  -1  -5  -5   43.60    0.95
  -1  -5  -5   43.56    0.86
   0  -5  -5   18.69    0.59
   0  -5  -5   19.10    0.61
   0  -5  -5   18.91    0.54
   0  -5  -5   18.33    0.57
   1  -5  -5    0.78    0.21
   1  -5  -5    0.64    0.21
   1  -5  -5    0.78    0.22
   1  -5  -5    0.81    0.22
   2  -5  -5   77.24    1.48
   2  -5  -5   77.90    1.55
   2  -5  -5   78.86    1.60
   2  -5  -5   76.99    1.60
   3  -5  -5    0.16    0.24
   3  -5  -5    0.60    0.31
   3  -5  -5    0.06    0.28
   3  -5  -5    0.25    0.23
   4  -5  -5   11.04    0.78
   4  -5  -5   10.51    0.57
   4  -5  -5   10.13    0.73
   4  -5  -5   10.81    0.56
  10   6   5    0.43    0.42
  10   6   5    1.12    0.52
 -10  -6  -5    0.68    0.49
 -10  -6  -5   -0.05    0.38
   9   6   5    1.09    0.43
   9   6   5    1.45    0.31
  -9  -6  -5    0.92    0.41
  -9  -6  -5    1.66    0.36
   8   6   5    3.58    0.44
   8   6   5    3.40    0.36
  -8  -6  -5    4.08    0.37
  -8  -6  -5    3.57    0.46
   7   6   5    2.48    0.35
   7   6   5    1.74    0.26
  -7  -6  -5    2.23    0.36
  -7  -6  -5    2.22    0.30
   6   6   5   11.77    0.53
   6   6   5   11.70    0.55
  -6  -6  -5   10.43    0.51
  -6  -6  -5   11.58    0.57
   5   6   5    0.13    0.17
   5   6   5   -0.12    0.19
   5   6   5   -0.02    0.17
  -5  -6  -5    0.04    0.17
  -5  -6  -5   -0.09    0.16
  -5  -6  -5   -0.03    0.21
   4   6   5   33.73    0.71
   4   6   5   34.11    0.87
   4   6   5   33.04    0.78
  -4  -6  -5   32.65    0.82
  -4  -6  -5   35.05    0.81
  -4  -6  -5   33.47    0.87
   3   6   5    5.68    0.32
   3   6   5    6.27    0.30
   3   6   5    5.35    0.38
  -3  -6  -5    5.97    0.36
  -3  -6  -5    6.18    0.34
  -3  -6  -5    5.80    0.38
   2   6   5    6.43    0.32
   2   6   5    7.06    0.29
   2   6   5    6.80    0.30
   2   6   5    6.86    0.41
  -2  -6  -5    6.39    0.39
  -2  -6  -5    6.52    0.38
  -2  -6  -5    6.90    0.30
  -2  -6  -5    7.03    0.33
  -1  -6  -5    7.47    0.43
  -1  -6  -5    6.92    0.25
  -1  -6  -5    7.36    0.41
  -1  -6  -5    7.69    0.37
   0  -6  -5    1.86    0.28
   0  -6  -5    2.12    0.27
   0  -6  -5    1.94    0.25
   1  -6  -5   22.17    0.71
   1  -6  -5   22.27    0.70
   1  -6  -5   21.56    0.69
   1  -6  -5   22.41    0.75
   2  -6  -5    4.28    0.41
   2  -6  -5    3.46    0.33
   2  -6  -5    3.17    0.38
   2  -6  -5    3.18    0.35
   3  -6  -5    1.73    0.39
   3  -6  -5    2.19    0.35
   3  -6  -5    1.79    0.39
   3  -6  -5    2.00    0.31
   4  -6  -5    9.32    0.65
   4  -6  -5    9.59    0.83
   4  -6  -5    8.85    0.57
   4  -6  -5    9.01    0.88
  10   7   5    1.02    0.54
  10   7   5    0.65    0.44
 -10  -7  -5    0.93    0.44
 -10  -7  -5    0.82    0.53
   9   7   5    6.67    0.63
   9   7   5    6.08    0.58
  -9  -7  -5    6.83    0.63
  -9  -7  -5    7.25    0.65
   8   7   5   -0.38    0.35
   8   7   5   -0.27    0.26
  -8  -7  -5    0.31    0.37
  -8  -7  -5    0.08    0.30
   7   7   5    6.25    0.46
   7   7   5    5.81    0.54
  -7  -7  -5    6.17    0.60
  -7  -7  -5    5.07    0.50
   6   7   5    6.50    0.44
   6   7   5    7.29    0.50
   6   7   5    6.39    0.44
  -6  -7  -5    6.05    0.43
  -6  -7  -5    6.86    0.54
  -6  -7  -5    6.67    0.44
   5   7   5   28.37    0.72
   5   7   5   29.61    0.85
   5   7   5   29.40    0.79
  -5  -7  -5   29.18    0.84
  -5  -7  -5   29.09    0.82
  -5  -7  -5   29.60    0.81
   4   7   5   22.87    0.63
   4   7   5   22.41    0.60
   4   7   5   19.48    0.69
  -4  -7  -5   22.40    0.67
  -4  -7  -5   23.47    0.69
  -4  -7  -5   21.94    0.71
   3   7   5    1.39    0.25
   3   7   5    1.22    0.21
   3   7   5    1.20    0.20
  -3  -7  -5    1.33    0.21
  -3  -7  -5    1.27    0.21
  -3  -7  -5    1.35    0.25
   2   7   5   32.40    0.67
   2   7   5   31.50    0.88
   2   7   5   33.04    0.69
   2   7   5   32.01    0.76
  -2  -7  -5   31.10    0.84
  -2  -7  -5   31.23    0.75
  -2  -7  -5   31.36    0.87
  -2  -7  -5   31.36    0.68
  -1  -7  -5    2.59    0.28
  -1  -7  -5    2.47    0.31
  -1  -7  -5    2.43    0.30
   0  -7  -5   19.67    0.73
   0  -7  -5   19.73    0.69
   0  -7  -5   20.13    0.67
   1  -7  -5    4.78    0.48
   1  -7  -5    4.64    0.42
   1  -7  -5    4.51    0.47
   1  -7  -5    4.46    0.44
   2  -7  -5    0.15    0.28
   2  -7  -5   -0.14    0.25
   2  -7  -5    0.01    0.30
   2  -7  -5    0.33    0.32
   3  -7  -5    8.18    0.77
   3  -7  -5    8.01    0.67
   3  -7  -5    8.22    0.57
   3  -7  -5    7.31    0.78
   9   8   5    2.06    0.51
   9   8   5    2.16    0.38
  -9  -8  -5    2.11    0.42
  -9  -8  -5    2.55    0.57
   8   8   5    2.36    0.45
   8   8   5    2.30    0.36
  -8  -8  -5    2.29    0.49
  -8  -8  -5    2.34    0.38
   7   8   5   12.77    0.62
   7   8   5   13.14    0.64
   7   8   5   13.64    0.72
  -7  -8  -5   13.02    0.75
  -7  -8  -5   12.75    0.63
   6   8   5    1.61    0.28
   6   8   5    1.85    0.29
   6   8   5    1.56    0.30
  -6  -8  -5    1.87    0.36
  -6  -8  -5    1.83    0.26
  -6  -8  -5    1.48    0.25
   5   8   5   24.84    0.76
   5   8   5   25.31    0.80
   5   8   5   24.84    0.70
  -5  -8  -5   26.35    0.80
  -5  -8  -5   25.14    0.81
  -5  -8  -5   24.97    0.76
   4   8   5   60.29    1.23
   4   8   5   60.98    1.22
   4   8   5   61.96    1.40
  -4  -8  -5   60.78    1.25
  -4  -8  -5   58.31    1.31
  -4  -8  -5   60.75    1.39
   3   8   5    0.97    0.24
   3   8   5    1.07    0.19
   3   8   5    1.10    0.24
  -3  -8  -5    0.79    0.25
  -3  -8  -5    1.14    0.20
   2   8   5    9.19    0.40
   2   8   5    9.05    0.37
   2   8   5    8.77    0.47
  -2  -8  -5    8.95    0.49
  -2  -8  -5    8.73    0.51
  -2  -8  -5    8.91    0.47
  -2  -8  -5    8.85    0.38
  -1  -8  -5    1.04    0.25
  -1  -8  -5    1.47    0.17
  -1  -8  -5    1.90    0.33
  -1  -8  -5    1.51    0.29
   0  -8  -5   17.80    0.77
   0  -8  -5   17.57    0.72
   0  -8  -5   17.33    0.70
   1  -8  -5    0.83    0.35
   1  -8  -5    1.25    0.34
   1  -8  -5    0.70    0.32
   1  -8  -5    0.34    0.36
   2  -8  -5    4.27    0.54
   2  -8  -5    3.94    0.41
   2  -8  -5    4.37    0.51
   2  -8  -5    3.83    0.46
   9   9   5    0.86    0.50
   9   9   5    0.08    0.51
   9   9   5    1.90    0.43
  -9  -9  -5    1.17    0.43
  -9  -9  -5    1.39    0.55
   8   9   5   21.94    0.92
   8   9   5   21.93    0.98
   8   9   5   21.60    0.85
  -8  -9  -5   23.46    1.03
  -8  -9  -5   21.74    0.89
   7   9   5    9.96    0.65
   7   9   5   11.11    0.72
   7   9   5    8.21    0.57
  -7  -9  -5    8.86    0.56
  -7  -9  -5   10.07    0.78
  -7  -9  -5    9.13    0.62
   6   9   5    5.89    0.59
   6   9   5    4.42    0.39
   6   9   5    4.62    0.45
  -6  -9  -5    4.40    0.44
  -6  -9  -5    4.48    0.45
  -6  -9  -5    4.08    0.44
   5   9   5    1.23    0.31
   5   9   5    0.80    0.27
   5   9   5    1.35    0.27
  -5  -9  -5    1.23    0.33
  -5  -9  -5    1.75    0.27
  -5  -9  -5    1.03    0.25
   4   9   5   27.81    0.74
   4   9   5   26.59    0.78
   4   9   5   27.19    0.77
   4   9   5   28.15    0.89
  -4  -9  -5   27.91    0.81
  -4  -9  -5   28.35    0.80
  -4  -9  -5   25.93    0.86
   3   9   5   35.48    1.03
   3   9   5   35.21    0.92
   3   9   5   36.71    0.83
  -3  -9  -5   37.42    1.05
  -3  -9  -5   36.33    0.98
   2   9   5    4.00    0.39
   2   9   5    3.61    0.36
   2   9   5    3.70    0.33
  -2  -9  -5    4.33    0.48
  -2  -9  -5    3.67    0.37
  -2  -9  -5    3.73    0.36
  -2  -9  -5    4.20    0.46
  -1  -9  -5   17.49    0.72
  -1  -9  -5   17.25    0.71
  -1  -9  -5   17.72    0.78
   0  -9  -5    5.85    0.63
   0  -9  -5    5.82    0.58
   0  -9  -5    5.72    0.55
   1  -9  -5    0.43    0.40
   1  -9  -5    0.22    0.38
   1  -9  -5    0.19    0.34
   1  -9  -5    0.61    0.40
   8  10   5    6.70    0.61
   8  10   5    6.47    0.67
   8  10   5    5.48    0.47
  -8 -10  -5    6.94    0.69
  -8 -10  -5    7.92    0.74
   7  10   5    0.81    0.44
   7  10   5    0.14    0.37
   7  10   5    0.52    0.33
  -7 -10  -5    0.50    0.32
  -7 -10  -5    0.97    0.44
  -7 -10  -5    0.83    0.33
   6  10   5    2.32    0.34
   6  10   5    3.23    0.42
   6  10   5    2.75    0.29
   6  10   5    3.25    0.44
  -6 -10  -5    2.46    0.35
  -6 -10  -5    2.84    0.44
  -6 -10  -5    1.97    0.32
   5  10   5    0.05    0.27
   5  10   5    0.53    0.31
   5  10   5    0.12    0.31
   5  10   5    0.05    0.21
  -5 -10  -5    0.07    0.24
  -5 -10  -5    0.48    0.35
  -5 -10  -5    0.44    0.27
   4  10   5    3.66    0.40
   4  10   5    3.20    0.41
   4  10   5    3.71    0.33
   4  10   5    3.78    0.39
  -4 -10  -5    3.67    0.39
  -4 -10  -5    3.71    0.34
  -4 -10  -5    3.18    0.40
   3  10   5    7.40    0.45
   3  10   5    7.22    0.62
  -3 -10  -5    6.25    0.53
  -3 -10  -5    7.61    0.53
  -3 -10  -5    6.41    0.56
   2  10   5    3.11    0.43
   2  10   5    2.91    0.30
   2  10   5    3.15    0.28
  -2 -10  -5    3.45    0.40
  -2 -10  -5    3.39    0.44
  -2 -10  -5    3.09    0.31
  -2 -10  -5    3.19    0.41
  -1 -10  -5    2.18    0.41
  -1 -10  -5    3.42    0.41
  -1 -10  -5    3.37    0.44
   0 -10  -5    1.06    0.42
   0 -10  -5    1.17    0.45
   0 -10  -5    1.84    0.40
   7  11   5    0.09    0.46
   7  11   5    2.39    0.53
   7  11   5   -0.13    0.39
   7  11   5    0.79    0.31
  -7 -11  -5    1.02    0.40
  -7 -11  -5    0.85    0.38
  -7 -11  -5    0.97    0.51
   6  11   5    5.28    0.55
   6  11   5    5.08    0.50
   6  11   5    6.63    0.62
   6  11   5    5.86    0.57
  -6 -11  -5    5.49    0.58
  -6 -11  -5    5.16    0.48
  -6 -11  -5    6.03    0.58
   5  11   5   -0.27    0.34
   5  11   5    0.28    0.41
   5  11   5   -0.07    0.39
   5  11   5   -0.55    0.25
  -5 -11  -5    0.39    0.34
  -5 -11  -5   -0.24    0.29
  -5 -11  -5    0.04    0.38
   4  11   5   17.15    0.68
   4  11   5   17.14    0.84
   4  11   5   16.87    0.74
   4  11   5   16.03    0.81
  -4 -11  -5   17.20    0.83
  -4 -11  -5   16.90    0.78
  -4 -11  -5   16.94    0.73
   3  11   5    1.18    0.44
   3  11   5    0.71    0.29
  -3 -11  -5    1.08    0.37
  -3 -11  -5    0.84    0.32
  -3 -11  -5    0.73    0.33
   2  11   5   10.00    0.86
   2  11   5   11.13    0.54
   2  11   5    9.91    0.56
  -2 -11  -5    9.73    0.56
  -2 -11  -5   11.92    0.73
  -2 -11  -5   10.94    0.75
   0 -11   6    1.31    0.42
   0 -11   6    2.45    0.56
   0 -11   6    2.85    0.50
   0 -11   6    2.33    0.56
   0  11  -6    2.32    0.46
   0  11  -6    1.89    0.51
   0  11  -6    2.00    0.42
  -1 -11   6    5.83    0.59
  -1 -11   6    5.25    0.64
  -1 -11   6    5.01    0.64
  -1 -11   6    4.88    0.56
   1  11  -6    6.27    0.64
   1  11  -6    5.00    0.51
   1  11  -6    5.27    0.48
  -2 -11   6    0.63    0.49
  -2 -11   6    0.99    0.48
  -2 -11   6    0.87    0.43
   2  11  -6    0.40    0.48
   2  11  -6    0.94    0.40
   2  11  -6    0.97    0.46
  -3 -11   6    3.60    0.55
  -3 -11   6    4.02    0.59
  -3 -11   6    4.47    0.54
   3  11  -6    4.48    0.56
   3  11  -6    4.04    0.61
   2 -10   6    4.78    0.41
   2 -10   6    4.25    0.42
   2 -10   6    4.99    0.54
   2 -10   6    5.54    0.53
   2 -10   6    5.43    0.61
  -2  10  -6    4.09    0.46
  -2  10  -6    6.54    0.58
  -2  10  -6    4.11    0.57
   1 -10   6    7.42    0.63
   1 -10   6    8.42    0.64
   1 -10   6    9.49    0.82
   1 -10   6    8.74    0.78
   1 -10   6    8.06    0.69
  -1  10  -6    7.74    0.76
  -1  10  -6    7.88    0.65
  -1  10  -6    6.92    0.59
   0 -10   6    1.67    0.41
   0 -10   6    1.26    0.36
   0 -10   6    1.43    0.44
   0 -10   6    1.36    0.42
   0  10  -6    1.13    0.40
   0  10  -6    1.37    0.33
   0  10  -6    1.55    0.34
  -1 -10   6    4.59    0.47
  -1 -10   6    4.71    0.48
  -1 -10   6    4.61    0.55
  -1 -10   6    4.83    0.54
   1  10  -6    4.81    0.54
   1  10  -6    4.29    0.39
   1  10  -6    4.65    0.50
  -2 -10   6    0.22    0.38
  -2 -10   6    0.82    0.40
  -2 -10   6    0.94    0.35
   2  10  -6    0.82    0.36
   2  10  -6    0.45    0.39
   2  10  -6    0.66    0.31
  -3 -10   6   13.76    0.77
  -3 -10   6   15.78    0.87
  -3 -10   6   14.18    0.86
   3  10  -6   15.49    0.72
   3  10  -6   14.38    0.86
   3  10  -6   14.50    0.89
  -4 -10   6    4.82    0.51
  -4 -10   6    5.74    0.61
  -4 -10   6    6.66    0.71
   4  10  -6    7.26    0.63
   4  10  -6    4.47    0.57
   4  10  -6    6.56    0.64
   4  -9   6    1.15    0.41
   4  -9   6    2.71    0.45
   4  -9   6    1.68    0.54
   4  -9   6    1.92    0.35
  -4   9  -6    1.29    0.54
  -4   9  -6    1.85    0.36
  -4   9  -6    1.58    0.46
   3  -9   6    1.27    0.31
   3  -9   6    1.25    0.47
   3  -9   6    1.02    0.36
   3  -9   6    2.14    0.33
   3  -9   6    1.51    0.35
  -3   9  -6    2.00    0.40
  -3   9  -6    1.47    0.29
  -3   9  -6    1.55    0.46
   2  -9   6    7.54    0.54
   2  -9   6    9.02    0.66
   2  -9   6    8.50    0.75
   2  -9   6    7.75    0.58
   2  -9   6    8.46    0.65
  -2   9  -6    8.84    0.55
  -2   9  -6    7.42    0.59
  -2   9  -6    8.53    0.72
   1  -9   6    1.87    0.32
   1  -9   6    1.75    0.38
   1  -9   6    1.88    0.30
   1  -9   6    2.37    0.43
   1  -9   6    1.68    0.36
  -1   9  -6    1.77    0.31
  -1   9  -6    1.88    0.42
  -1   9  -6    2.32    0.31
   0  -9   6    6.87    0.66
   0  -9   6    8.88    0.58
   0  -9   6    6.13    0.63
   0  -9   6    7.10    0.59
   0   9  -6    7.57    0.53
   0   9  -6    7.83    0.58
   0   9  -6    7.29    0.62
  -1  -9   6    0.43    0.32
  -1  -9   6    1.19    0.35
  -1  -9   6    0.72    0.31
  -1  -9   6    0.69    0.31
   1   9  -6    0.79    0.29
   1   9  -6    0.72    0.30
   1   9  -6    0.53    0.31
  -2  -9   6   11.57    0.71
  -2  -9   6   11.87    0.71
  -2  -9   6   12.34    0.63
   2   9  -6   12.83    0.60
   2   9  -6   11.53    0.71
   2   9  -6   12.37    0.72
  -3  -9   6   10.09    0.70
  -3  -9   6    8.82    0.65
  -3  -9   6    8.80    0.60
   3   9  -6    9.57    0.57
   3   9  -6    9.65    0.69
   3   9  -6    9.85    0.71
  -4  -9   6    1.52    0.39
  -4  -9   6    1.66    0.34
  -4  -9   6    0.99    0.35
   4   9  -6    1.36    0.33
   4   9  -6    0.95    0.38
   4   9  -6    1.19    0.44
  -5  -9   6    7.40    0.74
  -5  -9   6    7.15    0.70
   5   9  -6    6.89    0.71
   5   9  -6    6.30    0.65
   5   9  -6    6.68    0.58
   5  -8   6    5.99    0.60
   5  -8   6    6.52    0.64
   5  -8   6    8.61    0.77
  -5   8  -6    7.42    0.58
  -5   8  -6    7.02    0.77
  -5   8  -6    6.94    0.67
   4  -8   6    1.00    0.42
   4  -8   6    1.06    0.28
   4  -8   6    1.02    0.33
  -4   8  -6   -0.01    0.27
  -4   8  -6    0.79    0.44
  -4   8  -6    0.62    0.38
   3  -8   6    2.62    0.38
   3  -8   6    1.76    0.42
   3  -8   6    2.17    0.29
   3  -8   6    1.97    0.33
   3  -8   6    2.07    0.34
  -3   8  -6    1.79    0.42
  -3   8  -6    1.44    0.32
  -3   8  -6    1.95    0.27
   2  -8   6    3.98    0.39
   2  -8   6    4.37    0.47
   2  -8   6    3.78    0.39
   2  -8   6    3.42    0.39
   2  -8   6    4.28    0.43
  -2   8  -6    2.60    0.34
  -2   8  -6    4.03    0.45
  -2   8  -6    3.55    0.37
   1  -8   6   28.16    0.88
   1  -8   6   25.31    0.81
   1  -8   6   25.68    0.84
   1  -8   6   26.70    0.85
   1  -8   6   26.68    0.90
  -1   8  -6   25.92    0.88
  -1   8  -6   26.77    0.85
  -1   8  -6   26.38    0.85
   0  -8   6   99.04    1.95
   0  -8   6  100.39    2.03
   0  -8   6   99.45    1.98
   0  -8   6   99.29    1.95
   0   8  -6   92.83    1.93
   0   8  -6  100.01    1.97
   0   8  -6   99.30    2.00
  -1  -8   6    1.43    0.28
  -1  -8   6    1.31    0.28
  -1  -8   6    1.25    0.31
  -1  -8   6    1.87    0.33
   1   8  -6    1.37    0.32
   1   8  -6    1.23    0.28
   1   8  -6    1.34    0.32
  -2  -8   6   12.23    0.67
  -2  -8   6   12.31    0.57
  -2  -8   6   12.68    0.66
  -2  -8   6   12.60    0.64
   2   8  -6   13.41    0.65
   2   8  -6   13.50    0.68
   2   8  -6   11.76    0.58
  -3  -8   6    5.02    0.48
  -3  -8   6    4.39    0.43
  -3  -8   6    4.72    0.49
   3   8  -6    5.43    0.54
   3   8  -6    5.64    0.60
   3   8  -6    4.77    0.42
  -4  -8   6    7.18    0.59
  -4  -8   6    7.69    0.54
  -4  -8   6    6.69    0.59
   4   8  -6    7.71    0.70
   4   8  -6    8.36    0.58
   4   8  -6    8.10    0.59
  -5  -8   6    3.70    0.40
  -5  -8   6    4.43    0.45
   5   8  -6    4.72    0.44
   5   8  -6    4.43    0.45
   5   8  -6    5.00    0.57
   5   8  -6    4.19    0.41
  -6  -8   6    0.23    0.36
  -6  -8   6    0.82    0.40
  -6  -8   6    0.38    0.44
   6   8  -6    1.08    0.41
   6   8  -6    0.38    0.54
   6   8  -6    0.55    0.41
   6  -7   6    3.82    0.49
   6  -7   6    3.39    0.39
   6  -7   6    4.25    0.58
  -6   7  -6    4.18    0.39
  -6   7  -6    3.98    0.59
   5  -7   6    2.51    0.45
   5  -7   6    2.68    0.40
   5  -7   6    2.69    0.30
  -5   7  -6    1.94    0.30
  -5   7  -6    2.57    0.41
  -5   7  -6    2.12    0.47
   4  -7   6    5.08    0.53
   4  -7   6    3.37    0.44
   4  -7   6    3.13    0.31
  -4   7  -6    3.61    0.46
  -4   7  -6    3.94    0.39
  -4   7  -6    2.96    0.32
   3  -7   6    2.72    0.39
   3  -7   6    2.61    0.29
   3  -7   6    2.68    0.35
   3  -7   6    2.62    0.31
  -3   7  -6    3.15    0.40
  -3   7  -6    3.19    0.34
  -3   7  -6    3.07    0.35
   2  -7   6    0.33    0.20
   2  -7   6    0.10    0.19
   2  -7   6    0.46    0.28
   2  -7   6    0.13    0.21
   2  -7   6    0.17    0.24
  -2   7  -6    0.06    0.22
  -2   7  -6   -0.08    0.21
  -2   7  -6    0.02    0.27
   1  -7   6    8.78    0.49
   1  -7   6    9.38    0.49
   1  -7   6    8.60    0.53
   1  -7   6    8.37    0.54
   1  -7   6    8.77    0.50
  -1   7  -6    8.72    0.54
  -1   7  -6    8.89    0.51
  -1   7  -6    8.25    0.52
   0  -7   6    1.79    0.30
   0  -7   6    2.20    0.31
   0  -7   6    2.12    0.28
   0  -7   6    2.16    0.32
   0   7  -6    1.76    0.29
   0   7  -6    1.66    0.28
   0   7  -6    1.76    0.25
  -1  -7   6    5.42    0.46
  -1  -7   6    5.92    0.47
  -1  -7   6    5.88    0.47
  -1  -7   6    5.01    0.39
   1   7  -6    4.44    0.41
   1   7  -6    4.69    0.43
   1   7  -6    5.12    0.46
  -2  -7   6    8.82    0.54
  -2  -7   6    8.57    0.58
  -2  -7   6    8.69    0.44
  -2  -7   6    8.22    0.50
   2   7  -6    9.92    0.53
   2   7  -6    9.70    0.57
   2   7  -6    9.72    0.51
  -3  -7   6    2.45    0.29
  -3  -7   6    2.30    0.33
  -3  -7   6    2.65    0.28
   3   7  -6    2.64    0.33
   3   7  -6    2.65    0.32
   3   7  -6    2.60    0.38
  -4  -7   6   18.73    0.70
  -4  -7   6   17.74    0.74
   4   7  -6   19.97    0.76
   4   7  -6   18.13    0.81
   4   7  -6   18.34    0.69
  -5  -7   6    1.76    0.35
  -5  -7   6    2.36    0.34
  -5  -7   6    2.32    0.33
   5   7  -6    2.35    0.34
   5   7  -6    2.70    0.47
   5   7  -6    2.02    0.32
  -6  -7   6    8.72    0.84
  -6  -7   6    7.94    0.57
  -6  -7   6    8.56    0.59
   6   7  -6    8.73    0.63
   6   7  -6    8.39    0.72
   6   7  -6    9.34    0.64
   7  -6   6    0.81    0.44
   7  -6   6    0.86    0.57
  -7   6  -6    0.62    0.36
  -7   6  -6   -0.39    0.54
   6  -6   6    8.54    0.78
   6  -6   6    7.48    0.71
   6  -6   6    7.10    0.53
  -6   6  -6    7.50    0.77
  -6   6  -6    9.36    0.57
   5  -6   6    0.34    0.24
   5  -6   6    0.58    0.30
   5  -6   6    0.68    0.33
  -5   6  -6    0.21    0.22
  -5   6  -6    0.45    0.36
  -5   6  -6    0.56    0.29
   4  -6   6    8.53    0.62
   4  -6   6    8.93    0.46
   4  -6   6    8.64    0.53
   4  -6   6    8.09    0.55
  -4   6  -6    8.62    0.60
  -4   6  -6    8.10    0.55
  -4   6  -6    7.29    0.47
   3  -6   6    0.42    0.27
   3  -6   6    0.40    0.23
   3  -6   6    0.39    0.21
   3  -6   6    0.01    0.18
  -3   6  -6    0.28    0.23
  -3   6  -6    0.10    0.21
  -3   6  -6    0.47    0.27
  -3   6  -6    0.09    0.21
   2  -6   6    6.64    0.44
   2  -6   6    6.92    0.49
   2  -6   6    6.76    0.44
   2  -6   6    6.94    0.45
  -2   6  -6    6.78    0.45
  -2   6  -6    6.72    0.48
  -2   6  -6    6.40    0.47
  -2   6  -6    6.16    0.44
   1  -6   6   18.87    0.61
   1  -6   6   18.66    0.66
   1  -6   6   18.76    0.66
   1  -6   6   18.21    0.65
   1  -6   6   19.34    0.65
  -1   6  -6   18.76    0.65
  -1   6  -6   19.51    0.67
  -1   6  -6   19.42    0.67
  -1   6  -6   18.41    0.65
   0  -6   6    0.43    0.21
   0  -6   6    0.33    0.21
   0  -6   6    0.49    0.19
   0  -6   6    0.58    0.22
   0   6  -6    0.51    0.24
   0   6  -6    0.68    0.20
   0   6  -6    0.57    0.23
   0   6  -6    0.71    0.22
  -1  -6   6   17.20    0.62
  -1  -6   6   15.97    0.52
  -1  -6   6   16.29    0.59
  -1  -6   6   16.76    0.63
   1   6  -6   17.09    0.63
   1   6  -6   16.20    0.59
   1   6  -6   17.12    0.62
   1   6  -6   17.08    0.64
  -2  -6   6    0.26    0.24
  -2  -6   6    0.04    0.16
  -2  -6   6    0.43    0.19
  -2  -6   6    0.15    0.20
   2   6  -6    0.33    0.24
   2   6  -6    0.62    0.21
   2   6  -6    0.46    0.19
   2   6  -6    0.54    0.22
  -3  -6   6   15.05    0.63
  -3  -6   6   14.67    0.49
  -3  -6   6   14.49    0.58
   3   6  -6   14.83    0.56
   3   6  -6   14.75    0.62
   3   6  -6   15.77    0.65
   3   6  -6   14.59    0.64
  -4  -6   6   21.92    0.66
  -4  -6   6   21.68    0.72
  -4  -6   6   23.02    0.78
   4   6  -6   21.04    0.67
   4   6  -6   21.17    0.61
   4   6  -6   21.77    0.82
  -5  -6   6   11.78    0.69
  -5  -6   6   11.10    0.52
  -5  -6   6   11.48    0.54
   5   6  -6    9.49    0.52
   5   6  -6   11.17    0.76
   5   6  -6   11.54    0.52
  -6  -6   6   19.16    0.71
  -6  -6   6   17.28    0.95
   6   6  -6   17.79    0.70
   6   6  -6   17.94    0.96
   6   6  -6   16.75    0.69
   7  -5   6    0.57    0.31
   7  -5   6    0.98    0.42
   7  -5   6    0.96    0.44
  -7   5  -6    1.11    0.48
  -7   5  -6    1.26    0.33
   6  -5   6    2.24    0.39
   6  -5   6    1.83    0.25
   6  -5   6    2.77    0.37
  -6   5  -6    2.71    0.31
  -6   5  -6    2.23    0.42
   5  -5   6    6.70    0.42
   5  -5   6    6.50    0.54
   5  -5   6    7.42    0.54
  -5   5  -6    7.11    0.54
  -5   5  -6    5.75    0.55
  -5   5  -6    6.79    0.46
  -5   5  -6    7.16    0.40
   4  -5   6   15.53    0.65
   4  -5   6   15.13    0.66
   4  -5   6   14.72    0.56
   4  -5   6   15.41    0.61
  -4   5  -6   14.42    0.63
  -4   5  -6   15.73    0.52
  -4   5  -6   13.86    0.57
  -4   5  -6   14.98    0.64
   3  -5   6    0.26    0.22
   3  -5   6    0.26    0.20
   3  -5   6    0.42    0.18
   3  -5   6    0.38    0.19
   3  -5   6    0.14    0.20
  -3   5  -6    0.10    0.20
  -3   5  -6    0.22    0.22
  -3   5  -6    0.25    0.20
  -3   5  -6    0.17    0.19
   2  -5   6   52.78    1.16
   2  -5   6   53.76    1.14
   2  -5   6   52.42    1.14
   2  -5   6   52.31    1.17
  -2   5  -6   52.18    1.15
  -2   5  -6   52.14    1.16
  -2   5  -6   52.19    1.15
  -2   5  -6   52.81    1.14
   1  -5   6    2.78    0.29
   1  -5   6    3.12    0.29
   1  -5   6    2.84    0.28
   1  -5   6    2.99    0.34
   1  -5   6    3.33    0.34
  -1   5  -6    2.59    0.28
  -1   5  -6    3.05    0.29
  -1   5  -6    2.95    0.29
  -1   5  -6    2.65    0.27
   0  -5   6   56.86    1.24
   0  -5   6   55.82    1.10
   0  -5   6   57.50    1.19
   0  -5   6   56.00    1.19
   0   5  -6   55.78    1.18
   0   5  -6   55.88    1.20
   0   5  -6   56.87    1.25
   0   5  -6   56.44    1.19
  -1  -5   6    1.16    0.17
  -1  -5   6    1.35    0.25
  -1  -5   6    0.87    0.19
  -1  -5   6    1.22    0.20
   1   5  -6    1.06    0.21
   1   5  -6    1.15    0.24
   1   5  -6    1.33    0.25
   1   5  -6    1.30    0.20
  -2  -5   6    8.07    0.47
  -2  -5   6    8.60    0.34
  -2  -5   6    8.61    0.50
  -2  -5   6    9.32    0.44
  -2  -5   6    8.58    0.43
   2   5  -6    9.15    0.41
   2   5  -6    9.40    0.49
   2   5  -6    9.17    0.47
   2   5  -6    9.33    0.49
  -3  -5   6   23.67    0.64
  -3  -5   6   23.69    0.70
  -3  -5   6   23.80    0.75
   3   5  -6   22.30    0.74
   3   5  -6   24.08    0.67
   3   5  -6   23.42    0.78
  -4  -5   6    1.87    0.29
  -4  -5   6    2.34    0.26
  -4  -5   6    1.93    0.27
   4   5  -6    1.91    0.32
   4   5  -6    1.62    0.25
   4   5  -6    1.90    0.35
   4   5  -6    1.92    0.22
  -5  -5   6    3.13    0.30
  -5  -5   6    2.93    0.26
  -5  -5   6    2.96    0.39
   5   5  -6    3.48    0.43
   5   5  -6    3.47    0.31
   5   5  -6    2.61    0.29
  -6  -5   6    7.43    0.50
  -6  -5   6    5.44    0.56
   6   5  -6    6.14    0.58
   6   5  -6    6.27    0.55
   6   5  -6    6.30    0.50
  -7  -5   6    1.18    0.56
  -7  -5   6    0.57    0.35
   7   5  -6    1.61    0.45
   7   5  -6    0.14    0.44
   7   5  -6    1.54    0.57
   8  -4   6    0.36    0.35
   8  -4   6    0.13    0.47
   8  -4   6    0.37    0.45
  -8   4  -6   -0.14    0.34
  -8   4  -6    0.09    0.52
   7  -4   6    3.67    0.32
   7  -4   6    3.87    0.49
   7  -4   6    3.52    0.45
  -7   4  -6    4.11    0.48
  -7   4  -6    3.73    0.35
   6  -4   6    5.73    0.49
   6  -4   6    6.52    0.57
   6  -4   6    6.52    0.44
  -6   4  -6    6.75    0.61
  -6   4  -6    6.20    0.45
   5  -4   6   23.72    0.72
   5  -4   6   25.55    0.80
   5  -4   6   24.74    0.76
  -5   4  -6   24.81    0.82
  -5   4  -6   24.36    0.74
  -5   4  -6   23.82    0.62
   4  -4   6    3.06    0.33
   4  -4   6    4.09    0.36
   4  -4   6    2.89    0.31
   4  -4   6    3.26    0.31
  -4   4  -6    3.41    0.32
  -4   4  -6    2.86    0.31
  -4   4  -6    2.97    0.32
  -4   4  -6    3.03    0.33
   3  -4   6   35.75    0.89
   3  -4   6   36.51    0.86
   3  -4   6   35.04    0.88
   3  -4   6   35.06    0.83
   3  -4   6   35.43    0.87
  -3   4  -6   34.53    0.87
  -3   4  -6   36.08    0.88
  -3   4  -6   34.55    0.88
  -3   4  -6   36.92    0.84
   2  -4   6   62.57    1.27
   2  -4   6   63.06    1.26
   2  -4   6   62.53    1.27
   2  -4   6   63.29    1.26
   2  -4   6   61.21    1.27
  -2   4  -6   63.26    1.27
  -2   4  -6   63.55    1.27
  -2   4  -6   63.63    1.27
  -2   4  -6   62.77    1.28
   1  -4   6   11.64    0.46
   1  -4   6   11.31    0.43
   1  -4   6   12.04    0.46
   1  -4   6   11.04    0.45
  -1   4  -6   11.55    0.46
  -1   4  -6   11.87    0.45
  -1   4  -6   11.25    0.47
  -1   4  -6   11.77    0.45
   0  -4   6  127.74    2.19
   0  -4   6  127.10    2.15
   0  -4   6  128.57    2.22
   0  -4   6  129.56    2.22
   0  -4   6  129.42    2.36
   0   4  -6  129.09    2.26
   0   4  -6  127.28    2.36
   0   4  -6  127.91    2.22
   0   4  -6  126.54    2.21
  -1  -4   6   16.66    0.56
  -1  -4   6   16.23    0.40
  -1  -4   6   16.23    0.55
  -1  -4   6   16.04    0.51
  -1  -4   6   16.58    0.50
   1   4  -6   16.41    0.56
   1   4  -6   15.88    0.56
   1   4  -6   15.28    0.54
   1   4  -6   16.01    0.49
  -2  -4   6   52.28    1.11
  -2  -4   6   50.21    1.08
  -2  -4   6   51.02    1.18
  -2  -4   6   51.06    1.02
   2   4  -6   51.88    1.10
   2   4  -6   51.27    1.07
   2   4  -6   51.72    1.20
  -3  -4   6   13.92    0.46
  -3  -4   6   14.30    0.51
  -3  -4   6   13.87    0.58
   3   4  -6   13.65    0.59
   3   4  -6   13.65    0.36
   3   4  -6   14.14    0.57
   3   4  -6   13.40    0.49
  -4  -4   6    0.51    0.19
  -4  -4   6    0.65    0.19
  -4  -4   6    0.51    0.25
   4   4  -6    0.56    0.18
   4   4  -6    0.44    0.29
   4   4  -6    0.03    0.17
   4   4  -6    0.79    0.27
  -5  -4   6    9.20    0.48
  -5  -4   6    9.07    0.65
   5   4  -6   10.08    0.46
   5   4  -6    9.31    0.65
   5   4  -6    9.39    0.45
  -6  -4   6    0.69    0.43
  -6  -4   6    0.88    0.26
   6   4  -6    0.75    0.32
   6   4  -6    0.76    0.41
   6   4  -6    0.96    0.29
  -7  -4   6    9.43    0.63
  -7  -4   6    7.89    0.73
   7   4  -6   10.42    0.75
   7   4  -6    9.25    0.67
   7   4  -6   10.69    0.94
   8  -3   6    5.61    0.57
   8  -3   6    3.62    0.34
   8  -3   6    5.18    0.51
  -8   3  -6    4.72    0.56
   7  -3   6    1.23    0.25
   7  -3   6    1.52    0.37
   7  -3   6    1.22    0.34
  -7   3  -6    1.00    0.38
  -7   3  -6    1.31    0.26
   6  -3   6   11.47    0.61
   6  -3   6   10.36    0.49
   6  -3   6   10.98    0.59
  -6   3  -6   10.88    0.42
  -6   3  -6   10.41    0.63
  -6   3  -6   10.23    0.54
   5  -3   6   13.77    0.56
   5  -3   6   13.27    0.57
   5  -3   6   13.50    0.53
  -5   3  -6   13.46    0.47
  -5   3  -6   13.87    0.56
  -5   3  -6   13.82    0.61
   4  -3   6    0.77    0.20
   4  -3   6    0.60    0.22
   4  -3   6    0.56    0.18
   4  -3   6    0.84    0.21
  -4   3  -6    0.42    0.22
  -4   3  -6    0.72    0.21
  -4   3  -6    0.80    0.19
  -4   3  -6    0.63    0.21
   3  -3   6    0.78    0.18
   3  -3   6    1.48    0.20
   3  -3   6    1.15    0.21
   3  -3   6    1.26    0.21
  -3   3  -6    1.16    0.19
  -3   3  -6    0.79    0.19
  -3   3  -6    1.08    0.21
  -3   3  -6    0.89    0.20
   2  -3   6    3.56    0.28
   2  -3   6    3.13    0.29
   2  -3   6    3.11    0.30
   2  -3   6    3.32    0.29
   2  -3   6    3.31    0.30
  -2   3  -6    3.69    0.29
  -2   3  -6    3.32    0.32
  -2   3  -6    4.01    0.31
  -2   3  -6    3.44    0.29
   1  -3   6   29.55    0.71
   1  -3   6   30.32    0.75
   1  -3   6   29.58    0.73
   1  -3   6   29.97    0.71
  -1   3  -6   29.50    0.72
  -1   3  -6   30.15    0.71
  -1   3  -6   30.17    0.76
  -1   3  -6   29.24    0.71
   0  -3   6    2.35    0.26
   0  -3   6    2.17    0.22
   0  -3   6    2.08    0.22
   0  -3   6    2.50    0.26
   0  -3   6    2.35    0.17
   0   3  -6    2.26    0.22
   0   3  -6    2.79    0.28
   0   3  -6    2.18    0.23
   0   3  -6    2.12    0.22
  -1  -3   6   26.76    0.74
  -1  -3   6   27.00    0.64
  -1  -3   6   26.68    0.68
  -1  -3   6   26.64    0.65
   1   3  -6   26.76    0.68
   1   3  -6   26.63    0.74
   1   3  -6   26.93    0.65
  -2  -3   6   48.42    0.99
  -2  -3   6   47.57    1.11
  -2  -3   6   47.80    0.94
   2   3  -6   48.32    1.12
   2   3  -6   47.74    1.01
   2   3  -6   47.01    0.98
  -3  -3   6    0.69    0.17
  -3  -3   6    0.63    0.23
  -3  -3   6    0.96    0.18
   3   3  -6    0.79    0.15
   3   3  -6    0.86    0.23
   3   3  -6    0.57    0.23
  -4  -3   6   26.42    0.84
  -4  -3   6   26.51    0.71
   4   3  -6   25.64    0.77
   4   3  -6   25.40    0.86
   4   3  -6   26.13    0.69
   4   3  -6   26.64    0.58
  -5  -3   6    0.62    0.32
  -5  -3   6    0.90    0.23
   5   3  -6    0.63    0.23
   5   3  -6    0.54    0.22
   5   3  -6    1.04    0.33
   5   3  -6    0.73    0.34
  -6  -3   6    3.44    0.48
  -6  -3   6    4.31    0.46
   6   3  -6    4.19    0.47
   6   3  -6    3.86    0.33
   6   3  -6    3.33    0.37
  -7  -3   6    9.18    0.67
  -7  -3   6   10.48    1.02
   7   3  -6    9.30    0.71
   7   3  -6   10.81    0.92
   7   3  -6    9.58    0.73
   9  -2   6    1.97    0.51
   9  -2   6    1.23    0.48
   9  -2   6    1.12    0.37
  -9   2  -6    1.92    0.57
  -9   2  -6    0.62    0.36
   8  -2   6    7.39    0.71
   8  -2   6    5.40    0.50
   8  -2   6    6.46    0.64
  -8   2  -6    5.71    0.53
  -8   2  -6    6.37    0.58
   7  -2   6    0.07    0.22
   7  -2   6   -0.18    0.28
   7  -2   6    0.29    0.29
  -7   2  -6    0.02    0.31
  -7   2  -6    0.69    0.26
  -7   2  -6    0.19    0.19
   6  -2   6   23.16    0.73
   6  -2   6   24.58    0.77
   6  -2   6   23.69    0.73
  -6   2  -6   24.08    0.75
  -6   2  -6   24.00    0.79
  -6   2  -6   23.25    0.62
   5  -2   6   -0.03    0.16
   5  -2   6    0.19    0.17
   5  -2   6    0.31    0.20
  -5   2  -6    0.22    0.18
  -5   2  -6    0.32    0.17
  -5   2  -6    0.40    0.21
   4  -2   6   10.17    0.42
   4  -2   6    9.12    0.41
   4  -2   6    9.22    0.40
  -4   2  -6    9.81    0.41
  -4   2  -6    9.70    0.44
  -4   2  -6    9.16    0.44
  -4   2  -6    9.68    0.40
   3  -2   6   33.64    0.76
   3  -2   6   34.50    0.80
   3  -2   6   34.34    0.79
   3  -2   6   34.97    0.81
  -3   2  -6   34.41    0.76
  -3   2  -6   33.30    0.79
  -3   2  -6   34.50    0.81
  -3   2  -6   35.45    0.80
   2  -2   6   44.42    0.90
   2  -2   6   44.23    0.93
   2  -2   6   45.11    0.97
   2  -2   6   44.69    0.93
   2  -2   6   44.53    0.93
  -2   2  -6   44.99    0.93
  -2   2  -6   43.96    0.94
  -2   2  -6   45.91    0.90
  -2   2  -6   45.25    0.98
   1  -2   6    0.53    0.14
   1  -2   6    0.56    0.15
   1  -2   6    0.33    0.15
   1  -2   6    0.42    0.15
  -1   2  -6    0.50    0.13
  -1   2  -6    0.42    0.14
  -1   2  -6    0.20    0.15
  -1   2  -6    0.35    0.15
   0  -2   6    0.01    0.13
   0  -2   6    0.07    0.14
   0  -2   6    0.17    0.15
   0  -2   6   -0.01    0.11
   0   2  -6    0.16    0.14
   0   2  -6    0.02    0.15
   0   2  -6    0.08    0.11
   0   2  -6    0.02    0.13
  -1  -2   6   28.32    0.65
  -1  -2   6   28.71    0.74
  -1  -2   6   27.57    0.66
  -1  -2   6   28.17    0.64
   1   2  -6   27.47    0.66
   1   2  -6   27.44    0.74
   1   2  -6   27.59    0.64
  -2  -2   6    5.36    0.30
  -2  -2   6    5.26    0.30
  -2  -2   6    5.32    0.37
   2   2  -6    5.69    0.36
   2   2  -6    5.28    0.27
   2   2  -6    6.09    0.41
  -3  -2   6    3.81    0.27
  -3  -2   6    3.74    0.30
  -3  -2   6    3.56    0.40
   3   2  -6    3.75    0.37
   3   2  -6    4.11    0.42
   3   2  -6    3.93    0.29
  -4  -2   6    6.66    0.39
  -4  -2   6    7.00    0.54
   4   2  -6    7.08    0.48
   4   2  -6    6.99    0.53
   4   2  -6    6.80    0.37
  -5  -2   6    1.08    0.24
  -5  -2   6    0.69    0.32
   5   2  -6    0.77    0.22
   5   2  -6    0.14    0.22
   5   2  -6    0.55    0.30
   5   2  -6    0.59    0.33
  -6  -2   6   18.27    0.91
  -6  -2   6   19.02    0.69
   6   2  -6   18.42    0.68
   6   2  -6   19.04    0.70
   6   2  -6   19.78    0.80
   9  -1   6    2.46    0.36
   9  -1   6    3.42    0.50
   9  -1   6    2.26    0.46
  -9   1  -6    1.64    0.35
  -9   1  -6    2.31    0.54
   8  -1   6    0.71    0.26
   8  -1   6    0.55    0.32
   8  -1   6    0.87    0.34
  -8   1  -6    0.66    0.24
  -8   1  -6    0.10    0.38
  -8   1  -6   -0.05    0.28
   7  -1   6    5.22    0.49
   7  -1   6    4.57    0.43
   7  -1   6    6.17    0.51
  -7   1  -6    5.27    0.40
  -7   1  -6    6.00    0.57
  -7   1  -6    5.25    0.49
   6  -1   6    3.06    0.31
   6  -1   6    2.86    0.29
   6  -1   6    3.31    0.32
  -6   1  -6    3.39    0.34
  -6   1  -6    2.89    0.27
  -6   1  -6    3.00    0.32
   5  -1   6    0.14    0.16
   5  -1   6    0.04    0.17
   5  -1   6    0.26    0.18
  -5   1  -6    0.22    0.17
  -5   1  -6    0.02    0.17
  -5   1  -6    0.12    0.16
   4  -1   6   47.91    1.00
   4  -1   6   47.50    1.02
   4  -1   6   48.23    0.97
  -4   1  -6   48.94    1.02
  -4   1  -6   49.19    1.03
  -4   1  -6   46.90    1.02
   3  -1   6    1.21    0.16
   3  -1   6    1.14    0.19
   3  -1   6    0.98    0.18
   3  -1   6    1.23    0.19
  -3   1  -6    0.61    0.15
  -3   1  -6    1.13    0.19
  -3   1  -6    1.05    0.19
  -3   1  -6    1.14    0.15
  -3   1  -6    0.88    0.17
   2  -1   6   34.50    0.69
   2  -1   6   33.72    0.74
   2  -1   6   33.41    0.75
   2  -1   6   33.65    0.76
  -2   1  -6   33.03    0.80
  -2   1  -6   33.76    0.68
  -2   1  -6   31.99    0.75
  -2   1  -6   34.32    0.74
  -2   1  -6   33.67    0.75
   1  -1   6   61.66    1.15
   1  -1   6   61.22    1.24
   1  -1   6   59.83    1.13
   1  -1   6   59.78    1.12
  -1   1  -6   60.43    1.24
  -1   1  -6   62.01    1.10
  -1   1  -6   60.97    1.13
  -1   1  -6   62.33    1.14
  -1   1  -6   59.75    1.14
   0  -1   6   67.85    1.38
   0  -1   6   68.41    1.23
   0  -1   6   68.86    1.22
   0  -1   6   70.16    1.25
   0   1  -6   68.15    1.23
   0   1  -6   69.08    1.39
   0   1  -6   70.94    1.24
   0   1  -6   67.55    1.24
  -1  -1   6    8.48    0.34
  -1  -1   6    8.91    0.40
  -1  -1   6    8.38    0.34
  -1  -1   6    8.67    0.32
   1   1  -6    8.73    0.42
   1   1  -6    8.33    0.34
   1   1  -6    8.84    0.31
  -2  -1   6    3.28    0.27
  -2  -1   6    3.72    0.34
  -2  -1   6    3.79    0.26
   2   1  -6    3.81    0.25
   2   1  -6    3.87    0.30
   2   1  -6    3.82    0.36
  -3  -1   6   12.90    0.36
  -3  -1   6   12.65    0.43
  -3  -1   6   12.85    0.56
   3   1  -6   13.18    0.58
   3   1  -6   13.01    0.43
  -4  -1   6    0.58    0.27
  -4  -1   6    0.44    0.19
   4   1  -6    0.56    0.28
   4   1  -6    0.75    0.19
   4   1  -6    0.58    0.26
   4   1  -6    0.89    0.19
  -5  -1   6    3.75    0.39
  -5  -1   6    3.97    0.42
   5   1  -6    4.14    0.36
   5   1  -6    4.19    0.43
   5   1  -6    4.02    0.38
   5   1  -6    3.55    0.43
  -6  -1   6    5.38    0.50
  -6  -1   6    4.55    0.52
   6   1  -6    4.41    0.47
   6   1  -6    4.67    0.44
   6   1  -6    5.65    0.60
   9   0   6    1.15    0.40
   9   0   6    0.50    0.33
   9   0   6    0.57    0.44
  -9   0  -6    1.23    0.31
  -9   0  -6    0.89    0.45
  -9   0  -6    1.05    0.35
   8   0   6    2.20    0.32
   8   0   6    3.01    0.39
   8   0   6    2.48    0.36
  -8   0  -6    2.00    0.34
  -8   0  -6    2.90    0.46
   7   0   6   22.00    0.74
   7   0   6   23.67    0.75
   7   0   6   23.18    0.72
  -7   0  -6   23.21    0.79
  -7   0  -6   23.23    0.80
   6   0   6    0.23    0.19
   6   0   6    0.09    0.20
   6   0   6   -0.02    0.19
  -6   0  -6    0.41    0.22
  -6   0  -6   -0.17    0.20
   5   0   6   35.65    0.83
   5   0   6   34.96    0.85
   5   0   6   36.53    0.79
  -5   0  -6   34.39    0.83
  -5   0  -6   36.29    0.83
  -5   0  -6   35.36    0.85
  -5   0  -6   36.39    0.87
   4   0   6    6.06    0.31
   4   0   6    6.09    0.29
   4   0   6    6.11    0.36
  -4   0  -6    6.57    0.37
  -4   0  -6    6.68    0.37
  -4   0  -6    6.33    0.34
  -4   0  -6    5.85    0.32
   3   0   6  157.34    2.51
   3   0   6  157.63    2.57
  -3   0  -6  157.43    2.51
  -3   0  -6  154.16    2.56
  -3   0  -6  155.90    2.73
  -3   0  -6  156.09    2.57
   2   0   6  625.61    9.51
   2   0   6  611.53    9.44
   2   0   6  625.20    9.45
   2   0   6  636.70    9.80
  -2   0  -6  637.07    9.60
  -2   0  -6  614.41    9.51
  -2   0  -6  625.14    9.45
  -2   0  -6  627.84    9.45
  -2   0  -6  631.52   10.11
   1   0   6    0.12    0.12
   1   0   6    0.10    0.11
   1   0   6    0.08    0.13
   1   0   6    0.09    0.09
  -1   0  -6    0.14    0.13
  -1   0  -6    0.11    0.11
  -1   0  -6    0.08    0.12
  -1   0  -6    0.09    0.11
  -1   0  -6    0.23    0.14
   0   0   6   30.36    0.62
   0   0   6   30.57    0.76
   0   0   6   30.64    0.67
   0   0  -6   30.33    0.77
   0   0  -6   30.53    0.63
   0   0  -6   30.50    0.67
  -1   0   6    1.40    0.17
  -1   0   6    1.41    0.15
  -1   0   6    1.33    0.21
   1   0  -6    1.12    0.19
   1   0  -6    1.25    0.14
   1   0  -6    1.29    0.15
   1   0  -6    1.42    0.17
  -2   0   6  115.82    1.89
  -2   0   6  117.37    2.18
  -2   0   6  118.94    1.88
   2   0  -6  115.43    2.17
   2   0  -6  114.10    1.89
   2   0  -6  115.19    1.89
   2   0  -6  114.00    1.89
  -3   0   6    3.86    0.27
  -3   0   6    4.21    0.44
   3   0  -6    3.63    0.34
   3   0  -6    3.71    0.29
   3   0  -6    3.64    0.27
  -4   0   6    0.06    0.16
  -4   0   6   -0.06    0.27
   4   0  -6    0.01    0.17
   4   0  -6    0.05    0.25
   4   0  -6    0.10    0.19
  -5   0   6    3.06    0.41
  -5   0   6    2.83    0.28
   5   0  -6    2.88    0.40
   5   0  -6    3.55    0.35
   5   0  -6    2.61    0.30
  -6   0   6    0.11    0.44
  -6   0   6   -0.29    0.26
   6   0  -6    0.19    0.32
   6   0  -6   -0.11    0.28
  10   1   6    3.53    0.53
  10   1   6    4.69    0.60
  10   1   6    3.81    0.48
 -10  -1  -6    3.88    0.67
 -10  -1  -6    3.17    0.48
   9   1   6    2.26    0.41
   9   1   6    2.31    0.40
   9   1   6    2.19    0.36
  -9  -1  -6    1.83    0.35
  -9  -1  -6    2.15    0.48
   8   1   6   18.12    0.73
   8   1   6   18.99    0.71
   8   1   6   18.28    0.73
  -8  -1  -6   17.41    0.79
  -8  -1  -6   17.08    0.74
   7   1   6    0.58    0.24
   7   1   6    0.34    0.24
   7   1   6    0.31    0.23
  -7  -1  -6    0.74    0.27
  -7  -1  -6    0.26    0.23
  -7  -1  -6    0.36    0.22
   6   1   6   16.19    0.52
   6   1   6   16.90    0.60
   6   1   6   15.14    0.54
  -6  -1  -6   15.91    0.55
  -6  -1  -6   16.11    0.58
  -6  -1  -6   15.91    0.60
   5   1   6   28.52    0.74
   5   1   6   28.22    0.71
   5   1   6   27.88    0.64
  -5  -1  -6   28.20    0.71
  -5  -1  -6   27.46    0.72
  -5  -1  -6   28.70    0.76
   4   1   6    3.57    0.30
   4   1   6    3.60    0.26
   4   1   6    3.89    0.22
   4   1   6    3.92    0.30
  -4  -1  -6    3.70    0.27
  -4  -1  -6    3.95    0.27
  -4  -1  -6    3.73    0.33
   3   1   6   12.19    0.43
   3   1   6   11.70    0.41
   3   1   6   12.10    0.40
  -3  -1  -6   12.31    0.43
  -3  -1  -6   11.21    0.46
  -3  -1  -6   12.03    0.42
  -3  -1  -6   12.11    0.40
   2   1   6   35.08    0.76
   2   1   6   32.66    0.70
   2   1   6   34.53    0.70
  -2  -1  -6   34.17    0.82
  -2  -1  -6   33.52    0.75
  -2  -1  -6   34.20    0.70
  -2  -1  -6   34.64    0.72
   1   1   6   26.25    0.63
   1   1   6   26.63    0.54
  -1  -1  -6   26.73    0.70
  -1  -1  -6   26.81    0.56
  -1  -1  -6   25.89    0.62
   0   1   6   30.85    0.68
   0   1   6   31.49    0.60
   0  -1  -6   31.12    0.78
   0  -1  -6   30.92    0.61
   0  -1  -6   31.38    0.61
   0  -1  -6   31.84    0.69
  -1   1   6   47.96    0.83
  -1   1   6   49.41    0.94
   1  -1  -6   48.83    0.93
   1  -1  -6   49.00    0.85
   1  -1  -6   48.10    0.85
   1  -1  -6   48.03    0.86
   1  -1  -6   48.74    1.08
  -2   1   6   17.67    0.39
  -2   1   6   18.00    0.61
   2  -1  -6   17.54    0.41
   2  -1  -6   17.02    0.46
   2  -1  -6   18.45    0.60
   2  -1  -6   17.65    0.40
   2  -1  -6   17.43    0.44
  -3   1   6    1.70    0.30
   3  -1  -6    1.72    0.17
   3  -1  -6    1.74    0.28
   3  -1  -6    1.89    0.16
   3  -1  -6    1.73    0.21
   3  -1  -6    1.46    0.18
  -4   1   6   10.73    0.60
   4  -1  -6    9.91    0.38
   4  -1  -6    9.78    0.59
   4  -1  -6   10.49    0.37
   5  -1  -6    6.86    0.41
   5  -1  -6    6.72    0.39
   5  -1  -6    7.51    0.65
   6  -1  -6    1.90    0.30
   6  -1  -6    1.90    0.32
  10   2   6    1.25    0.45
  10   2   6    1.26    0.50
  10   2   6    1.84    0.41
  10   2   6    1.27    0.45
 -10  -2  -6    1.63    0.47
 -10  -2  -6    2.61    0.59
   9   2   6    2.91    0.41
   9   2   6    3.76    0.46
   9   2   6    2.93    0.35
   9   2   6    2.82    0.42
  -9  -2  -6    2.79    0.43
   8   2   6    2.70    0.36
   8   2   6    3.03    0.32
   8   2   6    2.44    0.36
   8   2   6    3.08    0.35
  -8  -2  -6    3.06    0.40
  -8  -2  -6    3.09    0.34
   7   2   6    1.14    0.26
   7   2   6    1.29    0.23
   7   2   6    1.05    0.28
   7   2   6    1.56    0.26
  -7  -2  -6    1.15    0.24
  -7  -2  -6    0.81    0.29
   6   2   6   27.63    0.78
   6   2   6   28.04    0.74
   6   2   6   28.07    0.68
   6   2   6   27.81    0.78
  -6  -2  -6   28.00    0.79
  -6  -2  -6   26.97    0.73
   5   2   6   16.94    0.52
   5   2   6   16.87    0.55
   5   2   6   16.25    0.43
   5   2   6   16.53    0.55
  -5  -2  -6   15.81    0.56
  -5  -2  -6   16.13    0.52
   4   2   6    3.66    0.30
   4   2   6    3.43    0.27
   4   2   6    3.64    0.29
  -4  -2  -6    3.74    0.33
  -4  -2  -6    3.21    0.27
  -4  -2  -6    3.57    0.25
   3   2   6   45.66    0.91
   3   2   6   45.03    0.93
   3   2   6   46.00    0.95
  -3  -2  -6   45.56    0.91
  -3  -2  -6   45.06    0.90
  -3  -2  -6   46.96    0.96
   2   2   6   -0.06    0.11
   2   2   6    0.13    0.12
   2   2   6    0.07    0.13
  -2  -2  -6   -0.07    0.13
  -2  -2  -6    0.18    0.13
  -2  -2  -6    0.11    0.10
  -2  -2  -6    0.04    0.13
  -2  -2  -6    0.07    0.12
   1   2   6  103.44    1.78
   1   2   6  105.33    1.76
  -1  -2  -6  102.46    1.66
  -1  -2  -6  102.65    1.75
  -1  -2  -6  102.32    1.65
  -1  -2  -6  101.18    1.78
  -1  -2  -6  103.30    1.67
  -1  -2  -6  104.88    1.94
   0   2   6    2.78    0.26
   0  -2  -6    2.60    0.26
   0  -2  -6    2.77    0.25
   0  -2  -6    2.84    0.16
   0  -2  -6    2.83    0.21
   0  -2  -6    2.41    0.17
   1  -2  -6   49.03    0.94
   1  -2  -6   50.31    1.10
   1  -2  -6   48.89    0.96
   2  -2  -6   13.36    0.54
   2  -2  -6   12.72    0.42
   2  -2  -6   12.51    0.43
   3  -2  -6    2.82    0.23
   3  -2  -6    2.68    0.31
   3  -2  -6    2.78    0.27
   4  -2  -6   16.36    0.61
   4  -2  -6   15.99    0.69
   5  -2  -6    0.81    0.39
   5  -2  -6    1.11    0.36
  10   3   6    0.39    0.46
  10   3   6   -0.12    0.43
  10   3   6   -0.31    0.42
  10   3   6   -0.04    0.41
 -10  -3  -6    0.85    0.45
   9   3   6    0.93    0.37
   9   3   6    1.13    0.36
   9   3   6    0.48    0.29
  -9  -3  -6    0.91    0.30
  -9  -3  -6    1.40    0.40
   8   3   6    2.67    0.31
   8   3   6    2.62    0.37
   8   3   6    3.29    0.36
  -8  -3  -6    2.77    0.35
  -8  -3  -6    3.46    0.44
   7   3   6   11.13    0.55
   7   3   6   11.58    0.52
   7   3   6   11.90    0.59
  -7  -3  -6   10.91    0.53
  -7  -3  -6   12.35    0.62
   6   3   6   26.96    0.77
   6   3   6   27.88    0.75
   6   3   6   27.82    0.78
  -6  -3  -6   27.07    0.73
  -6  -3  -6   27.01    0.79
   5   3   6   14.71    0.52
   5   3   6   15.41    0.52
   5   3   6   15.45    0.53
  -5  -3  -6   15.10    0.54
  -5  -3  -6   14.85    0.51
   4   3   6   69.81    1.32
   4   3   6   72.03    1.39
   4   3   6   72.49    1.37
  -4  -3  -6   72.01    1.33
  -4  -3  -6   70.76    1.36
   3   3   6    4.58    0.29
   3   3   6    4.98    0.31
   3   3   6    4.89    0.29
  -3  -3  -6    4.56    0.30
  -3  -3  -6    4.50    0.30
  -3  -3  -6    4.55    0.30
   2   3   6   70.93    1.34
   2   3   6   71.24    1.33
  -2  -3  -6   71.77    1.23
  -2  -3  -6   72.30    1.23
  -2  -3  -6   71.57    1.35
  -2  -3  -6   71.32    1.33
   1   3   6   82.12    1.47
   1   3   6   82.44    1.31
  -1  -3  -6   81.73    1.32
  -1  -3  -6   79.90    1.48
  -1  -3  -6   82.28    1.32
  -1  -3  -6   78.90    1.34
  -1  -3  -6   81.23    1.46
  -1  -3  -6   81.06    1.60
   0  -3  -6   34.81    0.75
   0  -3  -6   35.06    0.86
   0  -3  -6   35.38    0.78
   0  -3  -6   34.36    0.72
   1  -3  -6   22.34    0.61
   1  -3  -6   22.24    0.67
   1  -3  -6   22.37    0.59
   1  -3  -6   22.55    0.59
   2  -3  -6    1.18    0.21
   2  -3  -6    1.34    0.26
   2  -3  -6    1.41    0.26
   2  -3  -6    1.12    0.22
   3  -3  -6    1.76    0.34
   3  -3  -6    1.75    0.23
   3  -3  -6    1.35    0.28
   3  -3  -6    1.72    0.28
   4  -3  -6    1.11    0.32
   4  -3  -6    1.39    0.34
   4  -3  -6    1.30    0.38
   5  -3  -6    0.38    0.38
   5  -3  -6    0.99    0.44
   5  -3  -6    0.79    0.42
  10   4   6    2.77    0.43
  10   4   6    3.47    0.53
 -10  -4  -6    1.96    0.43
 -10  -4  -6    1.65    0.48
   9   4   6    3.48    0.42
   9   4   6    2.70    0.34
   9   4   6    3.05    0.44
  -9  -4  -6    3.26    0.39
  -9  -4  -6    3.18    0.47
   8   4   6   15.45    0.72
   8   4   6   16.65    0.64
   8   4   6   16.93    0.68
  -8  -4  -6   17.28    0.77
  -8  -4  -6   16.14    0.65
   7   4   6   17.79    0.70
   7   4   6   18.45    0.66
   7   4   6   18.37    0.65
  -7  -4  -6   18.33    0.64
  -7  -4  -6   19.14    0.73
   6   4   6    2.66    0.31
   6   4   6    2.51    0.27
   6   4   6    2.05    0.27
  -6  -4  -6    3.39    0.35
  -6  -4  -6    2.56    0.32
   5   4   6   47.44    1.03
   5   4   6   47.58    1.03
   5   4   6   46.55    1.07
  -5  -4  -6   47.26    1.04
  -5  -4  -6   48.46    1.05
   4   4   6    9.54    0.41
   4   4   6   10.12    0.42
   4   4   6   10.16    0.44
  -4  -4  -6   10.35    0.44
  -4  -4  -6   10.12    0.41
  -4  -4  -6   10.64    0.44
   3   4   6   12.93    0.47
   3   4   6   12.97    0.45
   3   4   6   12.27    0.40
  -3  -4  -6   12.12    0.45
  -3  -4  -6   13.33    0.43
  -3  -4  -6   12.50    0.45
   2   4   6  127.25    2.22
  -2  -4  -6  123.83    2.02
  -2  -4  -6  126.20    2.21
  -2  -4  -6  125.64    2.18
   1   4   6   15.84    0.51
  -1  -4  -6   15.24    0.52
  -1  -4  -6   16.25    0.50
  -1  -4  -6   16.00    0.34
  -1  -4  -6   16.13    0.57
  -1  -4  -6   15.17    0.40
   0  -4  -6   39.58    0.88
   0  -4  -6   38.29    0.86
   0  -4  -6   38.08    0.94
   0  -4  -6   39.33    0.82
   1  -4  -6   -0.11    0.19
   1  -4  -6    0.12    0.18
   1  -4  -6    0.12    0.19
   1  -4  -6    0.05    0.19
   2  -4  -6   10.56    0.53
   2  -4  -6   10.07    0.48
   2  -4  -6   11.17    0.52
   2  -4  -6   11.16    0.55
   3  -4  -6    1.10    0.31
   3  -4  -6    0.86    0.30
   3  -4  -6    1.24    0.26
   3  -4  -6    0.90    0.32
   4  -4  -6    0.96    0.37
   4  -4  -6    0.26    0.40
   4  -4  -6    0.72    0.32
   4  -4  -6    1.02    0.27
  10   5   6    7.34    0.70
  10   5   6    6.44    0.64
 -10  -5  -6    7.76    0.70
 -10  -5  -6    6.21    0.63
   9   5   6    2.04    0.42
   9   5   6    2.16    0.33
  -9  -5  -6    2.83    0.47
  -9  -5  -6    2.58    0.42
   8   5   6    0.28    0.25
   8   5   6    0.50    0.33
  -8  -5  -6    0.57    0.36
  -8  -5  -6    0.35    0.29
   7   5   6    3.35    0.34
   7   5   6    2.86    0.36
  -7  -5  -6    2.80    0.31
  -7  -5  -6    3.25    0.39
   6   5   6    3.13    0.33
   6   5   6    3.42    0.34
  -6  -5  -6    3.36    0.35
  -6  -5  -6    3.10    0.31
   5   5   6    4.98    0.27
   5   5   6    4.43    0.39
   5   5   6    4.40    0.39
  -5  -5  -6    4.65    0.33
  -5  -5  -6    4.57    0.42
   4   5   6    2.94    0.29
   4   5   6    2.51    0.25
  -4  -5  -6    2.68    0.27
  -4  -5  -6    2.42    0.26
  -4  -5  -6    2.79    0.27
   3   5   6    7.66    0.33
   3   5   6    8.36    0.42
  -3  -5  -6    8.64    0.42
  -3  -5  -6    8.19    0.38
  -3  -5  -6    8.35    0.37
   2   5   6    4.84    0.27
   2   5   6    5.42    0.38
  -2  -5  -6    4.97    0.36
  -2  -5  -6    4.84    0.35
  -2  -5  -6    5.26    0.24
  -2  -5  -6    4.75    0.26
  -1  -5  -6   43.50    0.99
  -1  -5  -6   44.23    0.87
  -1  -5  -6   45.37    1.00
   0  -5  -6   24.00    0.74
   0  -5  -6   24.07    0.64
   0  -5  -6   24.32    0.70
   0  -5  -6   24.19    0.71
   1  -5  -6    9.84    0.51
   1  -5  -6    9.87    0.51
   1  -5  -6   10.41    0.49
   1  -5  -6    9.79    0.53
   2  -5  -6    9.20    0.58
   2  -5  -6    9.46    0.55
   2  -5  -6    8.92    0.50
   2  -5  -6    8.94    0.54
   3  -5  -6   -0.12    0.27
   3  -5  -6    0.33    0.27
   3  -5  -6   -0.03    0.31
   3  -5  -6    0.88    0.35
   4  -5  -6    4.75    0.53
   4  -5  -6    4.43    0.44
   4  -5  -6    4.25    0.40
   4  -5  -6    5.14    0.59
  10   6   6    4.42    0.62
  10   6   6    4.14    0.46
 -10  -6  -6    4.39    0.54
 -10  -6  -6    3.49    0.59
   9   6   6   -0.10    0.33
   9   6   6    0.39    0.43
  -9  -6  -6    0.64    0.35
  -9  -6  -6   -0.43    0.40
   8   6   6    8.78    0.54
   8   6   6    9.60    0.71
  -8  -6  -6   10.83    0.61
  -8  -6  -6    8.59    0.71
   7   6   6    0.01    0.23
   7   6   6    0.18    0.29
  -7  -6  -6   -0.06    0.30
  -7  -6  -6    0.31    0.24
   6   6   6   23.44    0.75
   6   6   6   23.79    0.62
   6   6   6   23.50    0.76
  -6  -6  -6   22.78    0.77
  -6  -6  -6   23.72    0.73
   5   6   6   19.72    0.69
   5   6   6   20.66    0.52
   5   6   6   19.22    0.64
  -5  -6  -6   20.10    0.68
  -5  -6  -6   20.95    0.68
  -5  -6  -6   20.03    0.65
   4   6   6    6.55    0.39
   4   6   6    5.99    0.28
   4   6   6    6.19    0.42
  -4  -6  -6    6.19    0.38
  -4  -6  -6    5.78    0.41
  -4  -6  -6    6.23    0.42
   3   6   6   31.31    0.85
   3   6   6   31.80    0.64
  -3  -6  -6   30.94    0.81
  -3  -6  -6   31.29    0.84
   2   6   6    0.42    0.20
   2   6   6    0.49    0.16
  -2  -6  -6    0.59    0.21
  -2  -6  -6    0.67    0.22
  -2  -6  -6    0.25    0.15
  -2  -6  -6    0.43    0.14
  -1  -6  -6   41.04    0.87
  -1  -6  -6   40.14    0.97
  -1  -6  -6   40.91    1.00
   0  -6  -6    3.99    0.36
   0  -6  -6    3.69    0.34
   0  -6  -6    3.94    0.39
   0  -6  -6    4.20    0.44
   1  -6  -6   19.84    0.69
   1  -6  -6   20.98    0.75
   1  -6  -6   20.93    0.72
   1  -6  -6   20.74    0.71
   2  -6  -6   10.66    0.58
   2  -6  -6   10.78    0.64
   2  -6  -6   10.67    0.60
   2  -6  -6   11.21    0.66
   3  -6  -6   -0.08    0.40
   3  -6  -6    0.13    0.37
   3  -6  -6    0.27    0.32
   3  -6  -6    0.09    0.32
  10   7   6   -0.34    0.48
  10   7   6   -1.03    0.54
 -10  -7  -6   -0.43    0.43
 -10  -7  -6    0.42    0.55
   9   7   6    4.27    0.56
   9   7   6    3.33    0.41
  -9  -7  -6    4.61    0.50
  -9  -7  -6    4.31    0.58
   8   7   6    0.37    0.37
   8   7   6    1.03    0.28
  -8  -7  -6    0.11    0.41
  -8  -7  -6    0.42    0.31
   7   7   6    1.46    0.29
   7   7   6    0.79    0.25
   7   7   6    0.50    0.32
  -7  -7  -6    0.87    0.25
  -7  -7  -6    1.63    0.37
   6   7   6   23.74    0.65
   6   7   6   23.09    0.78
   6   7   6   24.06    0.80
  -6  -7  -6   23.22    0.79
  -6  -7  -6   24.34    0.77
  -6  -7  -6   23.69    0.82
   5   7   6    0.68    0.22
   5   7   6   -0.13    0.23
   5   7   6    0.29    0.19
  -5  -7  -6    0.20    0.25
  -5  -7  -6    0.23    0.19
  -5  -7  -6   -0.15    0.20
   4   7   6   17.29    0.49
   4   7   6   17.80    0.58
   4   7   6   18.00    0.66
  -4  -7  -6   18.26    0.61
  -4  -7  -6   17.71    0.61
  -4  -7  -6   16.85    0.65
   3   7   6   31.75    0.71
   3   7   6   29.80    0.89
  -3  -7  -6   32.34    0.74
  -3  -7  -6   32.68    0.86
  -3  -7  -6   32.54    0.91
   2   7   6    8.51    0.34
   2   7   6    7.42    0.50
   2   7   6    8.27    0.31
  -2  -7  -6    8.70    0.34
  -2  -7  -6    8.02    0.41
  -2  -7  -6    8.09    0.49
  -2  -7  -6    8.34    0.48
  -1  -7  -6   39.59    0.91
  -1  -7  -6   39.15    1.04
  -1  -7  -6   38.98    1.00
   0  -7  -6   11.35    0.63
   0  -7  -6   12.06    0.61
   0  -7  -6   11.62    0.60
   0  -7  -6   11.71    0.57
   1  -7  -6   16.57    0.76
   1  -7  -6   16.90    0.72
   1  -7  -6   16.83    0.70
   1  -7  -6   16.51    0.72
   2  -7  -6    1.05    0.34
   2  -7  -6    0.73    0.35
   2  -7  -6    1.09    0.39
   2  -7  -6    1.10    0.40
   9   8   6    2.67    0.58
   9   8   6    1.67    0.42
  -9  -8  -6    2.97    0.46
  -9  -8  -6    3.24    0.58
   8   8   6   -0.51    0.37
   8   8   6   -0.38    0.30
   8   8   6    0.13    0.33
  -8  -8  -6    0.35    0.41
  -8  -8  -6    0.19    0.31
   7   8   6   18.16    0.68
   7   8   6   18.31    0.82
   7   8   6   18.39    0.73
  -7  -8  -6   18.01    0.85
  -7  -8  -6   19.44    0.76
   6   8   6    0.70    0.25
   6   8   6    0.92    0.26
   6   8   6    0.58    0.30
  -6  -8  -6    1.19    0.26
  -6  -8  -6    1.10    0.33
  -6  -8  -6    0.81    0.24
   5   8   6   11.24    0.56
   5   8   6   10.63    0.59
   5   8   6   11.93    0.50
  -5  -8  -6   12.00    0.61
  -5  -8  -6   12.19    0.60
  -5  -8  -6   12.47    0.54
   4   8   6   37.21    1.03
   4   8   6   36.65    0.84
   4   8   6   36.52    0.89
  -4  -8  -6   37.80    1.02
  -4  -8  -6   35.49    0.95
  -4  -8  -6   37.48    0.91
   3   8   6    3.67    0.39
   3   8   6    3.93    0.38
   3   8   6    4.09    0.33
  -3  -8  -6    4.03    0.36
  -3  -8  -6    4.38    0.42
  -3  -8  -6    4.43    0.46
   2   8   6   13.04    0.40
   2   8   6   12.94    0.42
  -2  -8  -6   12.56    0.54
  -2  -8  -6   12.51    0.63
  -2  -8  -6   12.65    0.43
  -2  -8  -6   12.72    0.60
  -1  -8  -6    0.28    0.26
  -1  -8  -6   -0.34    0.25
  -1  -8  -6   -0.10    0.26
   0  -8  -6   19.28    0.81
   0  -8  -6   20.10    0.79
   0  -8  -6   19.17    0.76
   0  -8  -6   19.24    0.79
   1  -8  -6    3.16    0.46
   1  -8  -6    3.89    0.45
   1  -8  -6    3.55    0.42
   1  -8  -6    3.09    0.44
   9   9   6    0.34    0.55
   9   9   6    0.67    0.49
   9   9   6    1.33    0.45
  -9  -9  -6    0.71    0.45
  -9  -9  -6    1.57    0.61
   8   9   6    2.14    0.44
   8   9   6    3.17    0.42
   8   9   6    2.08    0.51
  -8  -9  -6    3.17    0.55
  -8  -9  -6    2.89    0.44
   7   9   6    1.35    0.33
   7   9   6    2.06    0.36
   7   9   6    1.64    0.42
  -7  -9  -6    1.65    0.31
  -7  -9  -6    2.11    0.35
  -7  -9  -6    2.02    0.44
   6   9   6   -0.07    0.27
   6   9   6    0.16    0.27
   6   9   6   -0.37    0.31
  -6  -9  -6    0.19    0.35
  -6  -9  -6    0.26    0.24
  -6  -9  -6    0.13    0.27
   5   9   6    0.16    0.29
   5   9   6    0.45    0.29
   5   9   6    0.39    0.27
  -5  -9  -6    0.58    0.33
  -5  -9  -6    0.16    0.25
  -5  -9  -6    0.31    0.23
   4   9   6    8.38    0.59
   4   9   6    8.03    0.50
   4   9   6    8.73    0.47
   4   9   6    8.29    0.50
  -4  -9  -6    8.19    0.51
  -4  -9  -6    8.24    0.58
  -4  -9  -6    9.08    0.53
   3   9   6    5.64    0.49
   3   9   6    6.80    0.47
   3   9   6    5.71    0.59
   3   9   6    5.99    0.39
  -3  -9  -6    5.72    0.56
  -3  -9  -6    6.19    0.50
  -3  -9  -6    5.34    0.42
   2   9   6   15.46    0.48
  -2  -9  -6   16.11    0.51
  -2  -9  -6   16.21    0.76
  -2  -9  -6   15.92    0.65
  -2  -9  -6   15.40    0.69
  -1  -9  -6    0.62    0.32
  -1  -9  -6    0.66    0.34
  -1  -9  -6    0.56    0.34
   0  -9  -6    3.52    0.49
   0  -9  -6    3.48    0.45
   0  -9  -6    3.72    0.48
   0  -9  -6    3.41    0.45
   8  10   6    5.00    0.64
   8  10   6    4.48    0.53
   8  10   6    4.48    0.46
  -8 -10  -6    4.80    0.67
  -8 -10  -6    4.95    0.55
   7  10   6    2.27    0.49
   7  10   6    2.34    0.43
   7  10   6    1.93    0.39
  -7 -10  -6    2.19    0.37
  -7 -10  -6    2.05    0.38
  -7 -10  -6    2.70    0.53
   6  10   6    4.25    0.37
   6  10   6    5.42    0.59
   6  10   6    4.74    0.44
   6  10   6    4.49    0.50
  -6 -10  -6    4.23    0.51
  -6 -10  -6    4.49    0.43
  -6 -10  -6    4.47    0.42
   5  10   6    2.76    0.39
   5  10   6    2.15    0.30
   5  10   6    2.14    0.39
   5  10   6    2.98    0.39
  -5 -10  -6    2.09    0.36
  -5 -10  -6    2.74    0.31
  -5 -10  -6    2.93    0.42
   4  10   6    0.09    0.34
   4  10   6    0.23    0.32
   4  10   6   -0.05    0.23
   4  10   6   -0.37    0.25
  -4 -10  -6    0.47    0.27
  -4 -10  -6    0.05    0.30
  -4 -10  -6    0.00    0.29
   3  10   6   19.59    0.66
   3  10   6   16.93    0.75
   3  10   6   18.29    0.60
  -3 -10  -6   17.30    0.63
  -3 -10  -6   17.38    0.77
  -3 -10  -6   19.19    0.84
  -2 -10  -6    2.17    0.42
  -2 -10  -6    1.80    0.27
  -2 -10  -6    1.79    0.35
  -2 -10  -6    1.83    0.38
  -1 -10  -6    8.25    0.73
  -1 -10  -6    8.82    0.76
  -1 -10  -6    8.05    0.72
   6  11   6    5.03    0.54
   6  11   6    5.32    0.54
   6  11   6    5.24    0.55
   6  11   6    4.66    0.50
  -6 -11  -6    5.41    0.46
  -6 -11  -6    5.46    0.58
  -6 -11  -6    5.01    0.50
   5  11   6   -0.10    0.28
   5  11   6   -0.49    0.36
   5  11   6    0.52    0.41
   5  11   6    0.25    0.40
  -5 -11  -6   -0.37    0.39
  -5 -11  -6   -0.38    0.38
  -5 -11  -6    0.21    0.33
   4  11   6    7.04    0.56
   4  11   6    7.07    0.73
  -4 -11  -6    7.64    0.62
  -4 -11  -6    6.42    0.60
   3  11   6    7.42    0.52
   3  11   6    7.53    0.78
   3  11   6    8.58    0.62
  -3 -11  -6    6.83    0.67
  -3 -11  -6    7.20    0.58
  -3 -11  -6    8.38    0.78
   2 -10   7    1.27    0.54
   2 -10   7    0.83    0.38
   2 -10   7    1.70    0.48
   2 -10   7    0.81    0.41
   2 -10   7    1.29    0.46
  -2  10  -7    0.48    0.52
  -2  10  -7    1.74    0.39
  -2  10  -7    0.27    0.43
   1 -10   7    2.00    0.45
   1 -10   7    2.75    0.54
   1 -10   7    2.09    0.51
  -1  10  -7    1.87    0.38
  -1  10  -7    1.58    0.41
  -1  10  -7    1.92    0.50
   0 -10   7    0.05    0.36
   0 -10   7   -0.07    0.45
   0 -10   7    0.15    0.39
   0 -10   7   -0.54    0.43
   0  10  -7   -0.17    0.43
   0  10  -7   -0.17    0.38
   0  10  -7    0.10    0.38
  -1 -10   7    0.52    0.45
  -1 -10   7    0.64    0.46
  -1 -10   7    1.32    0.46
  -1 -10   7    0.80    0.38
   1  10  -7    1.45    0.43
   1  10  -7    0.47    0.44
   1  10  -7   -0.34    0.37
  -2 -10   7    2.10    0.48
  -2 -10   7    3.14    0.45
  -2 -10   7    2.39    0.49
   2  10  -7    2.28    0.48
   2  10  -7    1.99    0.40
   2  10  -7    1.76    0.51
  -3 -10   7    1.65    0.46
  -3 -10   7    2.17    0.45
  -3 -10   7    1.46    0.47
   3  10  -7    1.38    0.50
   3  10  -7    1.58    0.51
   3  10  -7    1.27    0.41
   3  -9   7    0.15    0.34
   3  -9   7    0.56    0.38
   3  -9   7   -0.29    0.35
   3  -9   7    0.04    0.40
   3  -9   7    0.02    0.47
  -3   9  -7    0.04    0.44
  -3   9  -7    0.58    0.42
  -3   9  -7    0.07    0.31
   2  -9   7    8.76    0.68
   2  -9   7   11.28    0.69
   2  -9   7    8.44    0.62
   2  -9   7    9.97    0.73
   2  -9   7    9.16    0.80
  -2   9  -7    9.28    0.70
  -2   9  -7    9.23    0.63
  -2   9  -7    8.67    0.78
   1  -9   7    5.47    0.54
   1  -9   7    5.59    0.57
   1  -9   7    5.07    0.53
   1  -9   7    6.19    0.60
  -1   9  -7    5.24    0.52
  -1   9  -7    5.95    0.58
  -1   9  -7    4.72    0.46
   0  -9   7    2.82    0.47
   0  -9   7    3.62    0.47
   0  -9   7    3.05    0.43
   0  -9   7    3.26    0.42
   0   9  -7    3.38    0.44
   0   9  -7    2.83    0.38
   0   9  -7    3.32    0.44
  -1  -9   7   13.01    0.80
  -1  -9   7   13.51    0.68
  -1  -9   7   13.70    0.78
  -1  -9   7   12.54    0.80
   1   9  -7   13.64    0.77
   1   9  -7   11.32    0.73
  -2  -9   7    1.90    0.36
  -2  -9   7    2.00    0.41
  -2  -9   7    2.04    0.38
   2   9  -7    2.05    0.42
   2   9  -7    1.98    0.34
   2   9  -7    1.82    0.39
  -3  -9   7   13.76    0.81
  -3  -9   7   15.27    0.83
  -3  -9   7   14.13    0.71
   3   9  -7   13.09    0.85
   3   9  -7   13.25    0.75
   3   9  -7   14.69    0.83
  -4  -9   7    5.84    0.52
  -4  -9   7    5.49    0.51
  -4  -9   7    8.42    0.72
   4   9  -7    6.54    0.65
   4   9  -7    5.57    0.53
   4   9  -7    5.11    0.51
   5  -8   7    7.71    0.64
   5  -8   7    5.54    0.57
   5  -8   7    4.42    0.58
  -5   8  -7    4.98    0.43
  -5   8  -7    4.13    0.57
  -5   8  -7    5.38    0.67
   4  -8   7    0.24    0.32
   4  -8   7    0.73    0.46
   4  -8   7    0.58    0.38
   4  -8   7   -0.86    0.33
  -4   8  -7   -0.23    0.30
  -4   8  -7   -0.03    0.44
  -4   8  -7    0.39    0.41
   3  -8   7    8.36    0.77
   3  -8   7    8.26    0.65
   3  -8   7    8.30    0.56
   3  -8   7    8.46    0.63
   3  -8   7    7.65    0.60
  -3   8  -7    7.70    0.59
  -3   8  -7    7.57    0.65
  -3   8  -7    7.25    0.71
   2  -8   7    2.65    0.34
   2  -8   7    1.47    0.33
   2  -8   7    2.74    0.37
   2  -8   7    2.74    0.39
   2  -8   7    2.77    0.45
  -2   8  -7    2.07    0.41
  -2   8  -7    1.95    0.33
  -2   8  -7    2.46    0.34
   1  -8   7   14.32    0.73
   1  -8   7   14.08    0.64
   1  -8   7   12.70    0.65
   1  -8   7   13.03    0.74
  -1   8  -7   14.89    0.68
  -1   8  -7   13.37    0.68
  -1   8  -7   12.47    0.70
   0  -8   7   35.91    0.98
   0  -8   7   34.84    1.07
   0  -8   7   36.08    1.05
   0  -8   7   35.77    1.06
   0   8  -7   36.71    1.07
   0   8  -7   35.38    1.03
   0   8  -7   35.58    1.04
  -1  -8   7    2.49    0.40
  -1  -8   7    1.73    0.35
  -1  -8   7    2.49    0.37
  -1  -8   7    2.15    0.32
   1   8  -7    1.64    0.32
   1   8  -7    1.87    0.36
   1   8  -7    2.32    0.40
  -2  -8   7    1.62    0.33
  -2  -8   7    1.20    0.29
  -2  -8   7    1.57    0.30
   2   8  -7    1.17    0.29
   2   8  -7    1.35    0.36
   2   8  -7    1.47    0.33
  -3  -8   7    2.24    0.32
  -3  -8   7    2.29    0.34
  -3  -8   7    1.65    0.33
   3   8  -7    2.50    0.44
   3   8  -7    2.19    0.37
   3   8  -7    2.38    0.35
  -4  -8   7    3.54    0.41
  -4  -8   7    4.13    0.44
  -4  -8   7    3.90    0.47
   4   8  -7    3.62    0.44
   4   8  -7    3.90    0.51
   4   8  -7    3.96    0.41
  -5  -8   7    5.98    0.62
  -5  -8   7    5.89    0.52
  -5  -8   7    8.40    0.74
   5   8  -7    5.83    0.66
   5   8  -7    5.91    0.47
   5   8  -7    5.90    0.58
   6  -7   7    0.98    0.41
   6  -7   7    2.26    0.47
   6  -7   7    2.17    0.56
  -6   7  -7    1.64    0.60
  -6   7  -7    1.96    0.38
   5  -7   7    6.48    0.70
   5  -7   7    6.36    0.56
   5  -7   7    7.03    0.73
  -5   7  -7    6.07    0.54
  -5   7  -7    5.90    0.61
  -5   7  -7    4.78    0.51
   4  -7   7    0.12    0.30
   4  -7   7   -0.12    0.27
   4  -7   7    0.53    0.38
   4  -7   7    0.26    0.30
  -4   7  -7    0.33    0.37
  -4   7  -7    0.27    0.27
  -4   7  -7   -0.53    0.31
   3  -7   7    9.71    0.58
   3  -7   7    8.89    0.57
   3  -7   7    9.26    0.66
   3  -7   7    8.27    0.55
   3  -7   7    9.83    0.53
  -3   7  -7    8.51    0.58
  -3   7  -7    8.50    0.65
  -3   7  -7    8.56    0.59
   2  -7   7    0.41    0.28
   2  -7   7    0.81    0.29
   2  -7   7    1.03    0.27
   2  -7   7    0.67    0.32
   2  -7   7    1.09    0.28
  -2   7  -7    0.63    0.29
  -2   7  -7    0.72    0.26
  -2   7  -7    0.28    0.30
  -2   7  -7    1.11    0.30
   1  -7   7    1.03    0.31
   1  -7   7    1.37    0.28
   1  -7   7    1.63    0.33
   1  -7   7    0.71    0.27
  -1   7  -7    1.87    0.33
  -1   7  -7    1.08    0.29
  -1   7  -7    1.24    0.31
  -1   7  -7    1.68    0.30
   0  -7   7    3.43    0.39
   0  -7   7    3.68    0.38
   0  -7   7    3.79    0.35
   0  -7   7    3.96    0.41
   0   7  -7    3.55    0.40
   0   7  -7    3.63    0.36
   0   7  -7    3.40    0.38
   0   7  -7    3.68    0.36
  -1  -7   7   -0.05    0.22
  -1  -7   7   -0.03    0.23
  -1  -7   7    0.08    0.28
  -1  -7   7    0.30    0.23
   1   7  -7    0.13    0.24
   1   7  -7    0.17    0.25
   1   7  -7   -0.05    0.22
   1   7  -7    0.16    0.28
  -2  -7   7    6.08    0.50
  -2  -7   7    5.36    0.40
  -2  -7   7    5.47    0.57
  -2  -7   7    6.05    0.49
   2   7  -7    5.41    0.48
   2   7  -7    6.20    0.53
   2   7  -7    6.39    0.47
   2   7  -7    5.87    0.58
  -3  -7   7    1.99    0.28
  -3  -7   7    1.71    0.28
  -3  -7   7    2.29    0.37
  -3  -7   7    2.07    0.32
   3   7  -7    2.72    0.43
   3   7  -7    2.58    0.37
   3   7  -7    1.75    0.29
  -4  -7   7   15.65    0.69
  -4  -7   7   14.40    0.64
  -4  -7   7   14.44    0.72
   4   7  -7   14.67    0.65
   4   7  -7   15.31    0.86
   4   7  -7   16.22    0.79
  -5  -7   7    6.00    0.53
  -5  -7   7    5.76    0.61
  -5  -7   7    6.09    0.55
   5   7  -7    6.81    0.63
   5   7  -7    6.52    0.58
   6  -6   7    4.27    0.49
   6  -6   7    3.72    0.50
   6  -6   7    3.21    0.35
  -6   6  -7    3.30    0.36
  -6   6  -7    3.51    0.52
   5  -6   7    8.76    0.63
   5  -6   7    8.23    0.66
   5  -6   7    7.21    0.55
  -5   6  -7    9.05    0.55
  -5   6  -7    9.04    0.72
  -5   6  -7    8.02    0.67
   4  -6   7    9.72    0.56
   4  -6   7    9.78    0.53
   4  -6   7   10.86    0.70
   4  -6   7   10.56    0.64
  -4   6  -7   10.11    0.55
  -4   6  -7   10.24    0.68
  -4   6  -7    9.16    0.61
  -4   6  -7   10.23    0.58
   3  -6   7   11.61    0.66
   3  -6   7   11.86    0.59
   3  -6   7   13.12    0.62
   3  -6   7   12.47    0.58
   3  -6   7   12.44    0.55
  -3   6  -7   14.42    0.62
  -3   6  -7   12.11    0.61
  -3   6  -7   12.85    0.65
  -3   6  -7   13.05    0.62
   2  -6   7    1.71    0.25
   2  -6   7    1.82    0.29
   2  -6   7    1.94    0.28
   2  -6   7    1.49    0.28
   2  -6   7    1.43    0.30
  -2   6  -7    1.54    0.29
  -2   6  -7    1.93    0.32
  -2   6  -7    1.58    0.29
  -2   6  -7    1.78    0.30
   1  -6   7   38.09    0.99
   1  -6   7   37.05    0.98
   1  -6   7   37.44    0.91
   1  -6   7   38.25    0.96
   1  -6   7   37.65    1.00
  -1   6  -7   39.23    1.03
  -1   6  -7   38.77    0.99
  -1   6  -7   38.56    0.99
  -1   6  -7   35.95    0.98
   0  -6   7    1.10    0.28
   0  -6   7    0.82    0.22
   0  -6   7    0.80    0.25
   0  -6   7    0.57    0.24
   0  -6   7    0.47    0.23
   0   6  -7    0.63    0.24
   0   6  -7    0.81    0.26
   0   6  -7    0.94    0.26
   0   6  -7    0.67    0.22
  -1  -6   7    5.49    0.45
  -1  -6   7    5.28    0.35
  -1  -6   7    5.58    0.51
  -1  -6   7    5.90    0.46
  -1  -6   7    5.65    0.44
   1   6  -7    5.05    0.41
   1   6  -7    5.57    0.48
   1   6  -7    5.31    0.49
   1   6  -7    6.36    0.48
  -2  -6   7    9.52    0.40
  -2  -6   7    8.36    0.48
  -2  -6   7    9.50    0.53
  -2  -6   7   10.26    0.52
  -2  -6   7    9.58    0.60
   2   6  -7   10.07    0.59
   2   6  -7   10.66    0.58
   2   6  -7    9.93    0.48
   2   6  -7    8.27    0.51
  -3  -6   7    8.41    0.56
  -3  -6   7    9.37    0.53
  -3  -6   7    8.90    0.49
   3   6  -7   10.07    0.56
   3   6  -7    9.27    0.48
   3   6  -7    9.67    0.61
   3   6  -7    9.31    0.63
  -4  -6   7   22.17    0.71
  -4  -6   7   20.49    0.81
  -4  -6   7   22.02    0.73
   4   6  -7   22.67    0.89
   4   6  -7   21.17    0.69
  -5  -6   7    0.41    0.30
  -5  -6   7    0.33    0.37
  -5  -6   7    0.30    0.27
   5   6  -7    0.17    0.41
   5   6  -7    0.28    0.25
   5   6  -7   -0.16    0.30
  -6  -6   7    8.30    0.59
  -6  -6   7    7.04    0.65
   6   6  -7    9.37    0.95
   6   6  -7    7.62    0.64
   7  -5   7    0.16    0.43
   7  -5   7    0.36    0.48
   7  -5   7    0.61    0.33
  -7   5  -7    0.84    0.34
  -7   5  -7    0.50    0.51
   6  -5   7    8.66    0.70
   6  -5   7    8.00    0.55
   6  -5   7    7.37    0.69
  -6   5  -7   10.07    0.56
  -6   5  -7    8.52    0.76
   5  -5   7    1.98    0.35
   5  -5   7    1.87    0.30
   5  -5   7    2.24    0.33
  -5   5  -7    2.22    0.33
  -5   5  -7    2.00    0.38
  -5   5  -7    2.00    0.28
  -5   5  -7    1.58    0.34
   4  -5   7   21.83    0.71
   4  -5   7   21.80    0.77
   4  -5   7   21.42    0.80
   4  -5   7   21.65    0.72
  -4   5  -7   20.87    0.75
  -4   5  -7   21.23    0.74
  -4   5  -7   22.54    0.70
  -4   5  -7   21.73    0.76
   3  -5   7    4.49    0.42
   3  -5   7    5.39    0.41
   3  -5   7    5.44    0.43
   3  -5   7    4.94    0.46
   3  -5   7    4.49    0.48
  -3   5  -7    5.85    0.49
  -3   5  -7    6.72    0.50
  -3   5  -7    5.13    0.44
  -3   5  -7    5.27    0.47
   2  -5   7   36.74    0.94
   2  -5   7   35.91    0.93
   2  -5   7   36.03    0.90
   2  -5   7   35.74    0.93
   2  -5   7   36.16    0.94
  -2   5  -7   35.71    0.93
  -2   5  -7   36.73    0.94
  -2   5  -7   36.94    0.94
  -2   5  -7   36.03    0.93
   1  -5   7   12.99    0.56
   1  -5   7   12.32    0.52
   1  -5   7   12.07    0.54
   1  -5   7   12.01    0.50
   1  -5   7   11.63    0.45
  -1   5  -7   12.21    0.56
  -1   5  -7   12.27    0.55
  -1   5  -7   11.58    0.52
  -1   5  -7   12.03    0.52
   0  -5   7    3.75    0.36
   0  -5   7    4.26    0.30
   0  -5   7    4.33    0.41
   0  -5   7    4.02    0.41
   0  -5   7    3.89    0.38
   0   5  -7    4.19    0.41
   0   5  -7    4.48    0.43
   0   5  -7    5.03    0.38
   0   5  -7    3.45    0.38
  -1  -5   7   20.73    0.68
  -1  -5   7   20.39    0.64
  -1  -5   7   20.02    0.51
  -1  -5   7   20.78    0.64
  -1  -5   7   20.20    0.69
   1   5  -7   19.32    0.61
   1   5  -7   19.42    0.70
   1   5  -7   20.89    0.70
   1   5  -7   20.51    0.69
  -2  -5   7    0.07    0.21
  -2  -5   7    0.25    0.18
  -2  -5   7    0.01    0.19
  -2  -5   7   -0.17    0.24
   2   5  -7    0.09    0.16
   2   5  -7   -0.13    0.24
   2   5  -7   -0.06    0.22
   2   5  -7    0.01    0.20
  -3  -5   7   18.32    0.63
  -3  -5   7   18.98    0.61
  -3  -5   7   17.83    0.68
   3   5  -7   18.34    0.61
   3   5  -7   17.56    0.71
   3   5  -7   18.57    0.71
  -4  -5   7   20.97    0.69
  -4  -5   7   22.03    0.81
  -4  -5   7   20.64    0.64
   4   5  -7   21.78    0.84
   4   5  -7   20.76    0.67
   4   5  -7   20.59    0.82
  -5  -5   7    1.80    0.27
  -5  -5   7    2.00    0.41
   5   5  -7    1.18    0.41
   5   5  -7    2.79    0.29
  -6  -5   7    2.29    0.36
  -6  -5   7    1.61    0.55
   6   5  -7    2.27    0.53
   6   5  -7    2.50    0.37
   8  -4   7   -0.11    0.38
   8  -4   7   -0.25    0.49
   8  -4   7   -0.34    0.49
  -8   4  -7    0.65    0.39
  -8   4  -7   -0.39    0.53
   7  -4   7    0.17    0.40
   7  -4   7    0.28    0.39
   7  -4   7    0.45    0.31
  -7   4  -7    0.13    0.40
  -7   4  -7    0.61    0.29
   6  -4   7    1.46    0.35
   6  -4   7    1.32    0.29
   6  -4   7    1.46    0.34
  -6   4  -7    1.81    0.37
  -6   4  -7    1.22    0.28
  -6   4  -7    1.55    0.25
   5  -4   7   14.08    0.61
   5  -4   7   15.07    0.68
   5  -4   7   14.43    0.61
  -5   4  -7   14.44    0.56
  -5   4  -7   14.16    0.63
  -5   4  -7   15.43    0.67
  -5   4  -7   14.83    0.67
   4  -4   7   14.38    0.54
   4  -4   7   14.51    0.58
   4  -4   7   14.72    0.62
   4  -4   7   14.55    0.62
  -4   4  -7   14.12    0.60
  -4   4  -7   15.01    0.57
  -4   4  -7   13.19    0.61
  -4   4  -7   13.36    0.58
   3  -4   7    1.51    0.26
   3  -4   7    1.41    0.26
   3  -4   7    1.27    0.25
   3  -4   7    1.02    0.21
   3  -4   7    1.62    0.24
  -3   4  -7    1.50    0.24
  -3   4  -7    1.86    0.26
  -3   4  -7    1.66    0.26
  -3   4  -7    1.44    0.26
   2  -4   7   12.87    0.52
   2  -4   7   13.42    0.54
   2  -4   7   13.21    0.53
   2  -4   7   12.88    0.52
   2  -4   7   14.16    0.51
  -2   4  -7   13.04    0.51
  -2   4  -7   13.30    0.55
  -2   4  -7   12.95    0.53
  -2   4  -7   13.28    0.52
   1  -4   7   12.76    0.52
   1  -4   7   12.42    0.50
   1  -4   7   14.08    0.54
   1  -4   7   12.36    0.48
   1  -4   7   12.28    0.40
  -1   4  -7   13.37    0.50
  -1   4  -7   12.53    0.53
  -1   4  -7   13.13    0.54
  -1   4  -7   12.62    0.50
   0  -4   7   55.66    1.16
   0  -4   7   56.56    1.18
   0  -4   7   57.58    1.26
   0  -4   7   56.50    1.04
   0  -4   7   57.16    1.20
   0   4  -7   57.53    1.21
   0   4  -7   57.80    1.28
   0   4  -7   57.09    1.20
   0   4  -7   56.89    1.17
  -1  -4   7   19.73    0.60
  -1  -4   7   20.43    0.67
  -1  -4   7   19.87    0.60
  -1  -4   7   21.06    0.67
   1   4  -7   19.38    0.65
   1   4  -7   20.47    0.67
   1   4  -7   19.26    0.66
   1   4  -7   19.85    0.58
  -2  -4   7   -0.13    0.15
  -2  -4   7   -0.07    0.19
  -2  -4   7   -0.11    0.18
   2   4  -7    0.07    0.16
   2   4  -7    0.07    0.23
   2   4  -7   -0.01    0.18
  -3  -4   7    3.80    0.43
  -3  -4   7    3.91    0.35
  -3  -4   7    4.12    0.37
   3   4  -7    3.63    0.31
   3   4  -7    4.15    0.43
   3   4  -7    3.65    0.36
  -4  -4   7   14.45    0.56
  -4  -4   7   13.82    0.49
  -4  -4   7   13.95    0.70
   4   4  -7   14.79    0.69
   4   4  -7   13.45    0.71
   4   4  -7   14.14    0.53
  -5  -4   7    2.89    0.46
  -5  -4   7    2.33    0.30
   5   4  -7    2.89    0.32
   5   4  -7    2.84    0.44
   5   4  -7    2.51    0.45
  -6  -4   7    1.01    0.47
  -6  -4   7    1.16    0.33
   6   4  -7    0.97    0.50
   6   4  -7    0.41    0.34
   8  -3   7    3.77    0.50
   8  -3   7    2.86    0.46
   8  -3   7    2.37    0.37
  -8   3  -7    2.48    0.54
  -8   3  -7    3.55    0.41
   7  -3   7   18.23    0.71
   7  -3   7   19.60    0.81
   7  -3   7   18.30    0.84
  -7   3  -7   20.05    0.77
  -7   3  -7   17.49    0.58
  -7   3  -7   19.18    0.89
   6  -3   7   -0.29    0.21
   6  -3   7    0.32    0.26
   6  -3   7   -0.09    0.27
  -6   3  -7   -0.02    0.21
  -6   3  -7    0.09    0.30
  -6   3  -7   -0.14    0.23
   5  -3   7   20.67    0.70
   5  -3   7   21.53    0.72
   5  -3   7   18.33    0.66
  -5   3  -7   21.38    0.75
  -5   3  -7   21.36    0.64
  -5   3  -7   19.95    0.71
   4  -3   7    5.12    0.35
   4  -3   7    4.54    0.41
   4  -3   7    4.89    0.39
   4  -3   7    5.73    0.41
  -4   3  -7    5.56    0.44
  -4   3  -7    5.13    0.40
  -4   3  -7    4.83    0.39
  -4   3  -7    4.97    0.42
   3  -3   7   20.39    0.61
   3  -3   7   20.39    0.61
   3  -3   7   20.88    0.64
   3  -3   7   20.29    0.64
  -3   3  -7   19.71    0.64
  -3   3  -7   19.74    0.59
  -3   3  -7   19.72    0.62
  -3   3  -7   20.38    0.63
   2  -3   7    0.67    0.16
   2  -3   7    0.59    0.17
   2  -3   7    0.47    0.18
   2  -3   7    0.20    0.18
   2  -3   7    0.74    0.19
  -2   3  -7    0.48    0.19
  -2   3  -7    0.69    0.17
  -2   3  -7    0.71    0.18
  -2   3  -7    0.68    0.20
   1  -3   7   12.42    0.49
   1  -3   7   12.20    0.49
   1  -3   7   11.82    0.44
   1  -3   7   12.23    0.45
  -1   3  -7   12.51    0.48
  -1   3  -7   12.20    0.50
  -1   3  -7   12.43    0.44
  -1   3  -7   12.67    0.45
   0  -3   7    7.37    0.41
   0  -3   7    7.43    0.38
   0  -3   7    7.85    0.36
   0  -3   7    7.15    0.39
   0   3  -7    7.04    0.41
   0   3  -7    7.67    0.34
   0   3  -7    7.11    0.41
   0   3  -7    7.49    0.39
  -1  -3   7    0.10    0.14
  -1  -3   7    0.05    0.17
  -1  -3   7   -0.03    0.15
  -1  -3   7   -0.01    0.17
   1   3  -7   -0.14    0.19
   1   3  -7    0.06    0.14
   1   3  -7   -0.27    0.15
  -2  -3   7   23.30    0.63
  -2  -3   7   23.58    0.74
  -2  -3   7   23.36    0.61
   2   3  -7   20.68    0.59
   2   3  -7   23.05    0.75
   2   3  -7   23.83    0.69
  -3  -3   7    3.43    0.34
  -3  -3   7    3.91    0.34
  -3  -3   7    3.12    0.33
   3   3  -7    3.21    0.29
   3   3  -7    4.27    0.36
   3   3  -7    3.36    0.37
  -4  -3   7    2.43    0.27
  -4  -3   7    2.75    0.36
   4   3  -7    1.92    0.33
   4   3  -7    2.64    0.28
   4   3  -7    2.43    0.36
  -5  -3   7    5.28    0.54
  -5  -3   7    5.05    0.46
   5   3  -7    5.40    0.48
   5   3  -7    5.72    0.46
   5   3  -7    6.03    0.56
  -6  -3   7    0.50    0.50
  -6  -3   7    1.25    0.33
   6   3  -7    0.97    0.47
   6   3  -7    1.22    0.35
   9  -2   7    0.73    0.48
   9  -2   7   -0.28    0.40
   9  -2   7    0.18    0.49
  -9   2  -7    0.92    0.57
  -9   2  -7   -0.21    0.41
   8  -2   7    6.54    0.71
   8  -2   7    6.95    0.57
   8  -2   7    4.87    0.50
  -8   2  -7    6.40    0.46
  -8   2  -7    6.07    0.57
  -8   2  -7    6.31    0.63
   7  -2   7    0.46    0.28
   7  -2   7    0.25    0.25
   7  -2   7    0.05    0.30
  -7   2  -7   -0.04    0.23
  -7   2  -7    0.57    0.29
  -7   2  -7    0.20    0.33
   6  -2   7   13.62    0.62
   6  -2   7   14.22    0.59
   6  -2   7   13.03    0.58
  -6   2  -7   13.81    0.53
  -6   2  -7   13.01    0.65
  -6   2  -7   13.20    0.63
   5  -2   7   11.17    0.49
   5  -2   7   11.28    0.51
   5  -2   7   11.09    0.51
  -5   2  -7   10.28    0.53
  -5   2  -7   11.03    0.53
  -5   2  -7   10.99    0.49
   4  -2   7   13.83    0.54
   4  -2   7   13.81    0.50
   4  -2   7   14.77    0.51
  -4   2  -7   13.79    0.50
  -4   2  -7   14.50    0.56
  -4   2  -7   14.90    0.53
  -4   2  -7   14.59    0.55
   3  -2   7   41.46    0.93
   3  -2   7   40.26    0.92
   3  -2   7   39.86    0.87
   3  -2   7   41.25    0.93
  -3   2  -7   39.59    0.86
  -3   2  -7   41.33    0.94
  -3   2  -7   40.71    0.92
  -3   2  -7   40.03    0.94
   2  -2   7    1.67    0.19
   2  -2   7    1.36    0.18
   2  -2   7    1.57    0.21
   2  -2   7    1.45    0.22
  -2   2  -7    1.72    0.20
  -2   2  -7    1.86    0.24
  -2   2  -7    1.75    0.23
  -2   2  -7    1.49    0.19
   1  -2   7   55.13    1.19
   1  -2   7   56.88    1.11
   1  -2   7   55.85    1.11
   1  -2   7   54.37    1.09
  -1   2  -7   54.46    1.09
  -1   2  -7   54.87    1.20
  -1   2  -7   54.08    1.07
  -1   2  -7   55.53    1.11
   0  -2   7    3.41    0.33
   0  -2   7    3.97    0.31
   0  -2   7    3.62    0.27
   0  -2   7    4.07    0.32
   0   2  -7    4.03    0.33
   0   2  -7    3.81    0.32
   0   2  -7    3.42    0.33
   0   2  -7    3.79    0.26
  -1  -2   7   11.49    0.44
  -1  -2   7   11.39    0.48
  -1  -2   7   10.99    0.44
  -1  -2   7   11.06    0.40
   1   2  -7   11.36    0.39
   1   2  -7   11.16    0.45
   1   2  -7   11.14    0.49
  -2  -2   7   62.66    1.16
  -2  -2   7   62.95    1.20
  -2  -2   7   61.81    1.38
   2   2  -7   61.52    1.22
   2   2  -7   62.00    1.20
   2   2  -7   61.46    1.39
  -3  -2   7    5.48    0.33
  -3  -2   7    5.69    0.49
  -3  -2   7    5.33    0.35
   3   2  -7    4.86    0.35
   3   2  -7    5.24    0.49
   3   2  -7    5.67    0.44
  -4  -2   7   31.49    1.00
  -4  -2   7   31.25    0.79
   4   2  -7   30.85    0.78
   4   2  -7   31.60    0.85
   4   2  -7   31.81    0.99
  -5  -2   7    0.11    0.25
  -5  -2   7   -0.05    0.35
   5   2  -7    0.06    0.25
   5   2  -7   -0.34    0.37
   5   2  -7   -0.62    0.29
  -6  -2   7    8.82    0.64
  -6  -2   7    7.60    0.68
   6   2  -7    8.96    0.74
   6   2  -7    8.97    0.63
   9  -1   7    1.87    0.40
   9  -1   7    2.30    0.49
   9  -1   7    2.14    0.47
  -9   1  -7    1.84    0.55
  -9   1  -7    1.21    0.40
  -9   1  -7    1.73    0.34
   8  -1   7    1.78    0.32
   8  -1   7    2.41    0.42
   8  -1   7    1.79    0.38
  -8   1  -7    1.77    0.37
  -8   1  -7    2.31    0.32
  -8   1  -7    2.47    0.44
   7  -1   7    0.13    0.27
   7  -1   7    0.53    0.25
   7  -1   7    0.06    0.26
  -7   1  -7    0.31    0.23
  -7   1  -7    0.04    0.30
  -7   1  -7    0.29    0.27
   6  -1   7    9.48    0.50
   6  -1   7   10.45    0.53
   6  -1   7    9.33    0.49
  -6   1  -7    9.74    0.55
  -6   1  -7   10.64    0.49
  -6   1  -7    9.18    0.54
   5  -1   7    0.57    0.21
   5  -1   7    0.58    0.19
   5  -1   7    0.38    0.17
  -5   1  -7    0.81    0.22
  -5   1  -7    0.81    0.20
  -5   1  -7    0.66    0.23
   4  -1   7   56.85    1.11
   4  -1   7   57.07    1.17
   4  -1   7   57.88    1.19
  -4   1  -7   57.10    1.18
  -4   1  -7   57.11    1.10
  -4   1  -7   58.28    1.21
  -4   1  -7   56.04    1.19
   3  -1   7   50.86    1.05
   3  -1   7   49.24    0.97
   3  -1   7   51.79    1.06
   3  -1   7   50.42    1.04
  -3   1  -7   51.05    1.07
  -3   1  -7   50.21    1.06
  -3   1  -7   48.72    1.09
  -3   1  -7   51.05    1.04
  -3   1  -7   51.03    0.96
   2  -1   7   74.25    1.39
   2  -1   7   74.97    1.41
   2  -1   7   75.31    1.39
  -2   1  -7   77.14    1.51
  -2   1  -7   75.85    1.40
  -2   1  -7   73.75    1.41
  -2   1  -7   75.35    1.39
  -2   1  -7   75.02    1.32
   1  -1   7   25.87    0.65
   1  -1   7   25.33    0.70
   1  -1   7   25.41    0.61
   1  -1   7   25.27    0.63
  -1   1  -7   25.34    0.61
  -1   1  -7   25.29    0.64
  -1   1  -7   25.39    0.58
  -1   1  -7   25.44    0.63
  -1   1  -7   24.36    0.70
   0  -1   7    0.60    0.18
   0  -1   7    0.04    0.14
   0  -1   7    0.29    0.13
   0  -1   7   -0.15    0.14
   0   1  -7    0.09    0.16
   0   1  -7    0.19    0.11
   0   1  -7    0.04    0.14
   0   1  -7    0.08    0.14
  -1  -1   7   74.57    1.36
  -1  -1   7   76.45    1.57
  -1  -1   7   76.83    1.36
  -1  -1   7   75.66    1.37
   1   1  -7   74.95    1.36
   1   1  -7   77.33    1.58
   1   1  -7   76.43    1.37
  -2  -1   7    1.56    0.21
  -2  -1   7    1.45    0.26
  -2  -1   7    1.50    0.20
   2   1  -7    1.64    0.19
   2   1  -7    1.91    0.27
  -3  -1   7   16.88    0.46
  -3  -1   7   16.97    0.69
  -3  -1   7   17.05    0.51
   3   1  -7   16.32    0.51
   3   1  -7   15.80    0.55
   3   1  -7   16.27    0.69
  -4  -1   7    5.77    0.41
  -4  -1   7    6.79    0.61
   4   1  -7    7.25    0.41
   4   1  -7    6.44    0.45
   4   1  -7    6.93    0.62
  -5  -1   7    0.29    0.24
  -5  -1   7    0.01    0.38
   5   1  -7    0.07    0.38
   5   1  -7   -0.07    0.24
   5   1  -7   -0.10    0.25
   5   1  -7    0.27    0.30
  -6  -1   7    5.31    0.41
  -6  -1   7    4.79    0.64
   6   1  -7    5.04    0.41
   6   1  -7    5.40    0.48
   6   1  -7    5.60    0.61
   9   0   7    2.11    0.42
   9   0   7    2.56    0.46
   9   0   7    2.81    0.49
  -9   0  -7    2.08    0.41
  -9   0  -7    2.00    0.37
  -9   0  -7    3.09    0.55
   8   0   7    0.39    0.33
   8   0   7    0.74    0.31
   8   0   7    0.52    0.31
  -8   0  -7    0.11    0.32
  -8   0  -7    0.41    0.36
  -8   0  -7    0.22    0.26
   7   0   7    3.98    0.37
   7   0   7    4.24    0.41
   7   0   7    3.86    0.37
  -7   0  -7    4.46    0.42
  -7   0  -7    4.45    0.44
  -7   0  -7    3.78    0.39
   6   0   7    0.81    0.23
   6   0   7    0.69    0.24
   6   0   7    0.35    0.21
  -6   0  -7    0.44    0.23
  -6   0  -7    0.36    0.24
  -6   0  -7    0.63    0.25
  -6   0  -7    0.41    0.21
   5   0   7   16.61    0.59
   5   0   7   16.63    0.56
   5   0   7   16.24    0.50
  -5   0  -7   16.09    0.57
  -5   0  -7   15.94    0.60
  -5   0  -7   15.79    0.56
  -5   0  -7   16.10    0.54
   4   0   7   46.63    0.99
   4   0   7   45.25    0.88
   4   0   7   44.18    0.98
  -4   0  -7   46.94    1.01
  -4   0  -7   44.58    0.98
  -4   0  -7   45.00    1.03
  -4   0  -7   44.98    0.97
   3   0   7   16.07    0.40
   3   0   7   15.80    0.50
   3   0   7   16.47    0.48
   3   0   7   15.22    0.51
  -3   0  -7   15.40    0.50
  -3   0  -7   16.07    0.52
  -3   0  -7   16.05    0.39
  -3   0  -7   16.65    0.54
  -3   0  -7   16.03    0.49
   2   0   7   39.75    0.83
   2   0   7   39.51    0.85
   2   0   7   40.67    0.78
   2   0   7   41.70    0.89
  -2   0  -7   40.88    0.89
  -2   0  -7   40.69    0.86
  -2   0  -7   40.59    0.95
  -2   0  -7   40.09    0.74
  -2   0  -7   41.19    0.85
   1   0   7   14.85    0.42
   1   0   7   14.38    0.47
   1   0   7   13.64    0.43
  -1   0  -7   15.03    0.39
  -1   0  -7   14.78    0.52
  -1   0  -7   14.38    0.41
  -1   0  -7   14.23    0.45
  -1   0  -7   13.63    0.46
   0   0   7    1.61    0.22
   0   0   7    1.18    0.15
   0   0   7    1.56    0.21
   0   0   7    1.12    0.16
   0   0  -7    1.38    0.19
   0   0  -7    1.14    0.20
   0   0  -7    1.38    0.16
  -1   0   7    1.18    0.16
  -1   0   7    1.26    0.20
  -1   0   7    1.12    0.22
   1   0  -7    1.20    0.22
   1   0  -7    1.03    0.17
   1   0  -7    0.90    0.14
   1   0  -7    0.97    0.18
  -2   0   7    9.47    0.52
  -2   0   7    9.35    0.35
  -2   0   7    9.50    0.39
   2   0  -7    8.97    0.51
   2   0  -7    8.87    0.37
   2   0  -7    8.74    0.35
   2   0  -7    8.59    0.36
  -3   0   7   17.53    0.48
  -3   0   7   17.20    0.72
   3   0  -7   15.89    0.47
   3   0  -7   16.50    0.71
   3   0  -7   17.76    0.50
  -4   0   7    0.60    0.33
  -4   0   7    0.70    0.20
   4   0  -7    0.71    0.20
   4   0  -7    0.52    0.21
   4   0  -7    0.97    0.23
   4   0  -7    0.34    0.30
  -5   0   7    2.76    0.48
  -5   0   7    2.96    0.28
   5   0  -7    2.87    0.34
   5   0  -7    3.34    0.36
   5   0  -7    3.29    0.30
   5   0  -7    2.59    0.46
  10   1   7    4.30    0.57
  10   1   7    2.57    0.52
  10   1   7    4.06    0.62
 -10  -1  -7    3.66    0.67
 -10  -1  -7    3.25    0.55
   9   1   7    4.63    0.48
   9   1   7    4.39    0.51
   9   1   7    4.92    0.52
  -9  -1  -7    4.60    0.50
  -9  -1  -7    4.58    0.54
   8   1   7    2.57    0.38
   8   1   7    2.97    0.38
   8   1   7    2.80    0.38
  -8  -1  -7    2.55    0.41
  -8  -1  -7    2.32    0.37
   7   1   7   16.31    0.61
   7   1   7   14.52    0.62
   7   1   7   15.31    0.67
  -7  -1  -7   15.83    0.68
  -7  -1  -7   14.84    0.66
  -7  -1  -7   15.83    0.61
   6   1   7    0.68    0.25
   6   1   7    1.06    0.21
   6   1   7    0.90    0.22
  -6  -1  -7    1.26    0.26
  -6  -1  -7    0.84    0.22
  -6  -1  -7    0.74    0.27
   5   1   7    9.77    0.36
   5   1   7   10.46    0.48
   5   1   7   10.24    0.47
   5   1   7   10.33    0.44
  -5  -1  -7   10.72    0.51
  -5  -1  -7   10.45    0.44
  -5  -1  -7   10.60    0.44
   4   1   7   18.92    0.43
   4   1   7   18.95    0.56
   4   1   7   19.25    0.57
   4   1   7   19.35    0.59
  -4  -1  -7   19.02    0.54
  -4  -1  -7   19.27    0.61
  -4  -1  -7   18.84    0.59
   3   1   7    5.92    0.34
   3   1   7    6.07    0.33
   3   1   7    5.93    0.32
  -3  -1  -7    6.40    0.33
  -3  -1  -7    6.28    0.37
  -3  -1  -7    6.55    0.36
  -3  -1  -7    6.49    0.31
   2   1   7    3.30    0.27
   2   1   7    3.35    0.24
   2   1   7    3.24    0.27
  -2  -1  -7    3.28    0.29
  -2  -1  -7    3.42    0.22
  -2  -1  -7    3.32    0.29
  -2  -1  -7    3.07    0.27
   1   1   7    0.62    0.11
   1   1   7    0.62    0.16
  -1  -1  -7    0.60    0.18
  -1  -1  -7    0.75    0.13
  -1  -1  -7    0.53    0.17
   0   1   7   23.99    0.52
   0   1   7   24.97    0.62
   0  -1  -7   23.11    0.71
   0  -1  -7   24.18    0.62
   0  -1  -7   23.72    0.52
   0  -1  -7   23.98    0.53
  -1   1   7   14.71    0.48
  -1   1   7   14.96    0.37
   1  -1  -7   14.19    0.38
   1  -1  -7   14.72    0.58
   1  -1  -7   14.46    0.46
   1  -1  -7   14.04    0.38
   2  -1  -7   31.74    0.63
   2  -1  -7   31.53    0.71
   2  -1  -7   32.11    0.91
   2  -1  -7   32.07    0.63
   3  -1  -7    9.26    0.58
   3  -1  -7    8.64    0.36
   3  -1  -7    8.37    0.36
   4  -1  -7    0.64    0.35
   4  -1  -7    1.35    0.26
   5  -1  -7    3.19    0.48
   5  -1  -7    3.07    0.37
  10   2   7   -0.52    0.46
  10   2   7    0.86    0.49
  10   2   7    0.74    0.48
  10   2   7    0.83    0.43
 -10  -2  -7    0.43    0.47
 -10  -2  -7    0.83    0.56
   9   2   7    0.66    0.37
   9   2   7    0.91    0.32
   9   2   7    0.64    0.38
   9   2   7    0.68    0.39
  -9  -2  -7    0.81    0.43
  -9  -2  -7    0.80    0.42
  -9  -2  -7    0.63    0.36
   8   2   7    8.98    0.58
   8   2   7    7.81    0.63
   8   2   7    7.98    0.58
   8   2   7    8.96    0.54
  -8  -2  -7    8.06    0.55
  -8  -2  -7    9.26    0.64
  -8  -2  -7    9.27    0.66
   7   2   7    0.84    0.23
   7   2   7    0.78    0.25
   7   2   7   -0.18    0.26
   7   2   7    0.90    0.24
  -7  -2  -7    0.57    0.24
  -7  -2  -7    0.58    0.25
  -7  -2  -7    0.23    0.28
   6   2   7    7.54    0.37
   6   2   7    8.39    0.48
   6   2   7    8.01    0.50
   6   2   7    8.10    0.44
  -6  -2  -7    7.93    0.44
  -6  -2  -7    9.07    0.44
  -6  -2  -7    8.02    0.50
   5   2   7   32.90    0.82
   5   2   7   31.87    0.79
   5   2   7   32.61    0.82
   5   2   7   30.86    0.64
  -5  -2  -7   31.86    0.83
  -5  -2  -7   31.98    0.80
  -5  -2  -7   32.03    0.78
   4   2   7   15.79    0.52
   4   2   7   15.75    0.52
   4   2   7   15.50    0.51
  -4  -2  -7   16.38    0.55
  -4  -2  -7   15.29    0.52
  -4  -2  -7   16.25    0.49
   3   2   7   40.36    0.86
   3   2   7   42.04    0.88
   3   2   7   42.37    0.92
  -3  -2  -7   40.13    0.91
  -3  -2  -7   42.04    0.99
  -3  -2  -7   42.13    0.88
  -3  -2  -7   41.33    0.85
   2   2   7    8.97    0.33
   2   2   7    9.29    0.35
   2   2   7    9.34    0.40
  -2  -2  -7    9.32    0.36
  -2  -2  -7    9.35    0.33
  -2  -2  -7    9.76    0.44
  -2  -2  -7    9.01    0.40
   1   2   7   12.44    0.45
   1   2   7   12.70    0.37
  -1  -2  -7   12.09    0.34
  -1  -2  -7   12.53    0.45
  -1  -2  -7   12.50    0.50
  -1  -2  -7   12.43    0.36
  -1  -2  -7   12.27    0.36
   0   2   7   19.02    0.41
   0   2   7   19.68    0.57
   0  -2  -7   19.12    0.43
   0  -2  -7   19.10    0.56
   0  -2  -7   19.20    0.42
   0  -2  -7   19.11    0.46
   0  -2  -7   19.08    0.64
   1  -2  -7   13.35    0.46
   1  -2  -7   12.48    0.39
   1  -2  -7   13.16    0.56
   2  -2  -7   18.24    0.54
   2  -2  -7   18.26    0.69
   2  -2  -7   18.68    0.52
   3  -2  -7    0.18    0.20
   3  -2  -7   -0.01    0.25
   3  -2  -7   -0.32    0.18
   4  -2  -7    6.69    0.51
   4  -2  -7    7.15    0.67
   5  -2  -7    1.89    0.47
   5  -2  -7    1.33    0.47
   5  -2  -7    1.79    0.41
  10   3   7   -0.25    0.45
  10   3   7    0.27    0.41
  10   3   7   -0.04    0.47
  10   3   7    1.22    0.53
 -10  -3  -7    0.23    0.48
 -10  -3  -7   -0.29    0.40
   9   3   7    2.65    0.45
   9   3   7    2.91    0.42
   9   3   7    3.20    0.40
   9   3   7    3.62    0.45
  -9  -3  -7    3.32    0.44
  -9  -3  -7    2.70    0.45
   8   3   7    2.34    0.33
   8   3   7    2.30    0.30
   8   3   7    2.08    0.37
   8   3   7    2.55    0.36
  -8  -3  -7    2.18    0.38
  -8  -3  -7    2.06    0.33
   7   3   7    1.96    0.25
   7   3   7    1.68    0.25
   7   3   7    1.83    0.28
   7   3   7    1.62    0.32
  -7  -3  -7    1.86    0.34
  -7  -3  -7    0.92    0.24
   6   3   7   21.06    0.54
   6   3   7   22.93    0.69
   6   3   7   22.84    0.73
   6   3   7   22.05    0.72
  -6  -3  -7   22.38    0.72
  -6  -3  -7   22.40    0.69
   5   3   7    7.43    0.45
   5   3   7    6.75    0.38
   5   3   7    7.25    0.42
  -5  -3  -7    7.26    0.38
  -5  -3  -7    8.08    0.46
   4   3   7   40.11    0.88
   4   3   7   39.17    0.91
   4   3   7   41.36    0.93
  -4  -3  -7   40.23    0.89
  -4  -3  -7   38.96    0.91
  -4  -3  -7   39.83    0.85
   3   3   7    3.51    0.29
   3   3   7    3.58    0.32
   3   3   7    3.32    0.28
  -3  -3  -7    3.75    0.31
  -3  -3  -7    3.45    0.24
  -3  -3  -7    3.52    0.30
   2   3   7   17.53    0.51
   2   3   7   16.93    0.54
  -2  -3  -7   17.60    0.50
  -2  -3  -7   17.11    0.44
  -2  -3  -7   17.38    0.46
  -2  -3  -7   17.45    0.60
  -2  -3  -7   17.53    0.55
   1   3   7   54.09    1.10
   1   3   7   53.13    0.91
  -1  -3  -7   52.59    0.92
  -1  -3  -7   53.24    0.93
  -1  -3  -7   52.95    1.10
  -1  -3  -7   52.55    1.20
  -1  -3  -7   53.12    1.04
  -1  -3  -7   52.96    0.92
   0  -3  -7    1.24    0.19
   0  -3  -7    1.00    0.20
   0  -3  -7    0.81    0.18
   0  -3  -7    1.31    0.24
   1  -3  -7   12.39    0.45
   1  -3  -7   13.45    0.51
   1  -3  -7   13.03    0.48
   1  -3  -7   12.74    0.58
   2  -3  -7    7.12    0.43
   2  -3  -7    6.81    0.43
   2  -3  -7    7.83    0.51
   2  -3  -7    7.94    0.53
   3  -3  -7    2.67    0.37
   3  -3  -7    3.26    0.33
   3  -3  -7    3.06    0.40
   3  -3  -7    2.94    0.30
   4  -3  -7    5.57    0.55
   4  -3  -7    5.74    0.59
   4  -3  -7    5.46    0.50
  10   4   7    0.22    0.44
  10   4   7    0.50    0.50
  10   4   7   -0.29    0.43
  10   4   7   -0.54    0.39
 -10  -4  -7   -0.68    0.38
 -10  -4  -7   -0.52    0.48
   9   4   7    2.50    0.40
   9   4   7    1.66    0.29
   9   4   7    1.99    0.47
  -9  -4  -7    1.77    0.45
  -9  -4  -7    1.58    0.37
   8   4   7    0.17    0.28
   8   4   7    0.36    0.24
   8   4   7   -0.26    0.31
  -8  -4  -7    0.38    0.35
  -8  -4  -7    0.08    0.29
   7   4   7   11.98    0.57
   7   4   7   11.16    0.62
   7   4   7   11.36    0.55
  -7  -4  -7   11.23    0.55
  -7  -4  -7   10.30    0.63
   6   4   7   21.27    0.71
   6   4   7   22.07    0.73
   6   4   7   21.59    0.68
  -6  -4  -7   22.43    0.76
  -6  -4  -7   22.69    0.70
   5   4   7    0.54    0.16
   5   4   7    0.53    0.22
   5   4   7    0.33    0.20
  -5  -4  -7    0.58    0.23
  -5  -4  -7    0.48    0.16
   4   4   7   33.07    0.78
   4   4   7   33.77    0.85
   4   4   7   33.74    0.84
  -4  -4  -7   33.18    0.80
  -4  -4  -7   33.53    0.84
   3   4   7    4.03    0.32
   3   4   7    4.11    0.30
   3   4   7    4.10    0.35
  -3  -4  -7    4.19    0.27
  -3  -4  -7    4.18    0.34
  -3  -4  -7    3.99    0.32
  -3  -4  -7    3.83    0.32
   2   4   7   75.90    1.28
   2   4   7   76.61    1.45
  -2  -4  -7   72.95    1.45
  -2  -4  -7   73.71    1.28
  -2  -4  -7   73.93    1.28
  -2  -4  -7   75.78    1.44
  -1  -4  -7   19.41    0.57
  -1  -4  -7   18.71    0.46
  -1  -4  -7   18.96    0.66
  -1  -4  -7   19.29    0.60
   0  -4  -7    0.54    0.23
   0  -4  -7    0.44    0.19
   0  -4  -7    0.39    0.20
   0  -4  -7    0.51    0.19
   1  -4  -7    3.92    0.38
   1  -4  -7    3.95    0.40
   1  -4  -7    4.01    0.39
   1  -4  -7    3.64    0.33
   2  -4  -7   27.69    0.80
   2  -4  -7   27.99    0.87
   2  -4  -7   28.48    0.85
   2  -4  -7   28.06    0.76
   3  -4  -7   13.09    0.75
   3  -4  -7   13.18    0.71
   3  -4  -7   14.75    0.59
   3  -4  -7   14.91    0.66
   4  -4  -7    1.25    0.43
   4  -4  -7    1.53    0.51
   4  -4  -7    1.43    0.43
  10   5   7    9.38    0.96
  10   5   7    8.59    0.71
 -10  -5  -7   10.29    0.92
 -10  -5  -7    8.83    0.75
   9   5   7   18.66    0.77
   9   5   7   19.79    0.96
  -9  -5  -7   20.66    0.83
  -9  -5  -7   21.12    0.99
   8   5   7    0.04    0.26
   8   5   7   -0.60    0.32
  -8  -5  -7    0.18    0.36
  -8  -5  -7   -0.13    0.27
   7   5   7    4.89    0.48
   7   5   7    4.57    0.45
   7   5   7    4.33    0.43
  -7  -5  -7    4.47    0.44
  -7  -5  -7    4.44    0.46
   6   5   7    0.87    0.22
   6   5   7    0.46    0.24
   6   5   7    0.41    0.25
  -6  -5  -7    0.56    0.28
  -6  -5  -7    0.28    0.19
   5   5   7   41.36    0.98
   5   5   7   42.91    1.05
  -5  -5  -7   43.27    1.00
  -5  -5  -7   41.55    1.00
   4   5   7    5.31    0.38
   4   5   7    5.83    0.43
  -4  -5  -7    5.21    0.39
  -4  -5  -7    5.63    0.41
  -4  -5  -7    5.31    0.36
   3   5   7    6.11    0.41
  -3  -5  -7    5.84    0.38
  -3  -5  -7    5.94    0.40
   2   5   7    1.12    0.23
   2   5   7    1.27    0.17
  -2  -5  -7    1.17    0.16
  -2  -5  -7    0.85    0.21
  -2  -5  -7    1.25    0.17
  -2  -5  -7    1.10    0.24
  -1  -5  -7    0.56    0.21
  -1  -5  -7    0.84    0.18
  -1  -5  -7    0.81    0.22
  -1  -5  -7    0.76    0.24
   0  -5  -7   30.66    0.82
   0  -5  -7   29.94    0.89
   0  -5  -7   30.91    0.83
   0  -5  -7   29.86    0.74
   1  -5  -7    3.69    0.38
   1  -5  -7    4.38    0.46
   1  -5  -7    5.11    0.47
   1  -5  -7    4.28    0.45
   2  -5  -7    0.07    0.27
   2  -5  -7    0.18    0.31
   2  -5  -7   -0.02    0.29
   2  -5  -7    0.15    0.28
   3  -5  -7    7.84    0.69
   3  -5  -7    5.76    0.66
   3  -5  -7    7.98    0.77
   3  -5  -7    7.32    0.59
  10   6   7    2.20    0.44
  10   6   7    1.63    0.58
 -10  -6  -7    0.72    0.49
 -10  -6  -7    0.98    0.57
   9   6   7    2.11    0.50
   9   6   7    1.21    0.35
  -9  -6  -7    1.67    0.41
  -9  -6  -7    0.68    0.48
   8   6   7    1.80    0.32
   8   6   7    1.77    0.42
  -8  -6  -7    2.24    0.37
  -8  -6  -7    2.02    0.44
   7   6   7    1.53    0.30
   7   6   7    1.63    0.36
  -7  -6  -7    2.13    0.38
  -7  -6  -7    2.19    0.30
   6   6   7    9.36    0.55
   6   6   7    9.71    0.38
   6   6   7   10.67    0.57
  -6  -6  -7   10.14    0.60
  -6  -6  -7    8.95    0.50
   5   6   7   12.61    0.59
   5   6   7   11.69    0.54
  -5  -6  -7   12.43    0.51
  -5  -6  -7   11.00    0.56
  -5  -6  -7   11.47    0.56
   4   6   7   -0.02    0.19
   4   6   7    0.12    0.23
  -4  -6  -7    0.10    0.23
  -4  -6  -7    0.05    0.20
  -4  -6  -7   -0.15    0.17
   3   6   7    7.54    0.48
  -3  -6  -7    7.66    0.48
  -3  -6  -7    6.98    0.37
  -3  -6  -7    7.81    0.45
   2   6   7    2.10    0.31
  -2  -6  -7    2.34    0.28
  -2  -6  -7    2.34    0.24
  -2  -6  -7    2.20    0.20
  -2  -6  -7    2.34    0.31
  -2  -6  -7    2.43    0.20
  -1  -6  -7    7.18    0.55
  -1  -6  -7    7.30    0.48
  -1  -6  -7    7.46    0.49
  -1  -6  -7    7.60    0.40
   0  -6  -7   10.43    0.56
   0  -6  -7    9.97    0.56
   0  -6  -7   11.04    0.61
   0  -6  -7   10.41    0.51
   1  -6  -7    0.30    0.29
   1  -6  -7    0.30    0.29
   1  -6  -7    0.22    0.31
   1  -6  -7    0.73    0.30
   2  -6  -7   13.46    0.73
   2  -6  -7   13.01    0.70
   2  -6  -7   13.76    0.76
   2  -6  -7   15.52    0.78
   9   7   7    0.07    0.48
   9   7   7    0.00    0.38
  -9  -7  -7   -0.33    0.37
  -9  -7  -7   -0.55    0.49
   8   7   7    4.30    0.52
   8   7   7    3.61    0.42
  -8  -7  -7    3.50    0.51
  -8  -7  -7    3.61    0.41
   7   7   7    0.37    0.25
   7   7   7   -0.10    0.34
   7   7   7    0.00    0.26
  -7  -7  -7   -0.16    0.35
  -7  -7  -7    0.17    0.25
   6   7   7   14.47    0.49
   6   7   7   16.57    0.68
   6   7   7   14.84    0.67
  -6  -7  -7   14.59    0.66
  -6  -7  -7   14.95    0.61
  -6  -7  -7   15.04    0.71
   5   7   7   23.34    0.72
   5   7   7   23.54    0.81
  -5  -7  -7   22.05    0.73
  -5  -7  -7   23.72    0.79
  -5  -7  -7   24.75    0.77
   4   7   7   22.52    0.79
   4   7   7   22.67    0.66
  -4  -7  -7   23.00    0.68
  -4  -7  -7   22.09    0.77
  -4  -7  -7   22.66    0.72
   3   7   7    5.19    0.50
   3   7   7    5.31    0.39
  -3  -7  -7    5.34    0.44
  -3  -7  -7    5.63    0.49
  -3  -7  -7    5.16    0.36
  -2  -7  -7    2.58    0.33
  -2  -7  -7    3.44    0.27
  -2  -7  -7    3.30    0.35
  -2  -7  -7    3.08    0.37
  -1  -7  -7   16.95    0.59
  -1  -7  -7   15.90    0.68
  -1  -7  -7   14.70    0.66
  -1  -7  -7   15.10    0.72
   0  -7  -7    0.04    0.29
   0  -7  -7   -0.01    0.28
   0  -7  -7    0.41    0.29
   0  -7  -7    0.04    0.30
   1  -7  -7    5.03    0.47
   1  -7  -7    5.17    0.47
   1  -7  -7    4.82    0.52
   1  -7  -7    4.57    0.46
   2  -7  -7    1.13    0.44
   2  -7  -7    0.59    0.39
   2  -7  -7    1.08    0.46
   2  -7  -7    0.85    0.42
   9   8   7    4.64    0.52
   9   8   7    5.13    0.68
   9   8   7    6.72    0.70
  -9  -8  -7    6.05    0.70
  -9  -8  -7    5.06    0.54
   8   8   7    0.55    0.36
   8   8   7   -0.02    0.44
   8   8   7    0.51    0.33
  -8  -8  -7   -0.33    0.32
  -8  -8  -7    0.13    0.43
   7   8   7    6.33    0.57
   7   8   7    4.31    0.48
   7   8   7    5.19    0.53
  -7  -8  -7    5.48    0.53
  -7  -8  -7    5.82    0.54
   6   8   7   21.14    0.62
   6   8   7   20.24    0.79
   6   8   7   21.94    0.81
  -6  -8  -7   22.19    0.85
  -6  -8  -7   20.70    0.74
  -6  -8  -7   21.62    0.81
   5   8   7    6.90    0.52
   5   8   7    6.98    0.40
   5   8   7    6.96    0.54
  -5  -8  -7    6.40    0.52
  -5  -8  -7    6.80    0.58
  -5  -8  -7    7.15    0.46
   4   8   7    3.46    0.28
   4   8   7    3.38    0.41
  -4  -8  -7    3.26    0.37
  -4  -8  -7    3.69    0.34
  -4  -8  -7    3.40    0.35
   3   8   7   -0.03    0.22
   3   8   7    0.02    0.18
   3   8   7    0.54    0.30
  -3  -8  -7    0.12    0.22
  -3  -8  -7    0.22    0.29
  -3  -8  -7    0.37    0.21
  -2  -8  -7   10.15    0.51
  -2  -8  -7   10.37    0.59
  -2  -8  -7   10.82    0.63
  -1  -8  -7    0.32    0.30
  -1  -8  -7   -0.16    0.32
  -1  -8  -7    0.04    0.28
  -1  -8  -7    0.40    0.31
   0  -8  -7    5.47    0.50
   0  -8  -7    7.05    0.67
   0  -8  -7    6.68    0.63
   0  -8  -7    6.97    0.63
   1  -8  -7    3.07    0.48
   1  -8  -7    2.99    0.51
   1  -8  -7    2.57    0.51
   1  -8  -7    2.81    0.47
   8   9   7    1.24    0.40
   8   9   7    0.73    0.40
   8   9   7    0.87    0.49
  -8  -9  -7    1.21    0.55
  -8  -9  -7    1.24    0.39
   7   9   7    2.76    0.37
   7   9   7    3.04    0.40
   7   9   7    2.28    0.46
  -7  -9  -7    3.49    0.44
  -7  -9  -7    2.54    0.49
  -7  -9  -7    2.87    0.42
   6   9   7   -0.15    0.28
   6   9   7   -0.09    0.31
   6   9   7   -0.39    0.33
  -6  -9  -7    0.04    0.26
  -6  -9  -7    0.22    0.30
  -6  -9  -7   -0.20    0.37
   5   9   7    3.87    0.45
   5   9   7    3.80    0.41
   5   9   7    3.77    0.34
  -5  -9  -7    2.87    0.31
  -5  -9  -7    3.58    0.46
  -5  -9  -7    3.96    0.42
   4   9   7    7.52    0.47
   4   9   7    7.60    0.49
   4   9   7    8.46    0.67
  -4  -9  -7    8.37    0.62
  -4  -9  -7    7.05    0.50
   3   9   7    5.06    0.45
   3   9   7    5.43    0.39
  -3  -9  -7    5.61    0.44
  -3  -9  -7    5.82    0.55
  -3  -9  -7    5.06    0.50
  -2  -9  -7    9.09    0.57
  -2  -9  -7    9.47    0.70
  -2  -9  -7    8.85    0.63
  -1  -9  -7    4.07    0.49
  -1  -9  -7    2.95    0.47
  -1  -9  -7    3.33    0.41
  -1  -9  -7    3.83    0.48
   7  10   7    4.35    0.49
   7  10   7    4.81    0.47
   7  10   7    4.77    0.58
  -7 -10  -7    5.09    0.54
  -7 -10  -7    4.40    0.60
  -7 -10  -7    4.64    0.47
   6  10   7    2.02    0.36
   6  10   7    1.34    0.45
   6  10   7    2.25    0.47
  -6 -10  -7    1.87    0.45
  -6 -10  -7    2.15    0.41
  -6 -10  -7    1.81    0.33
   5  10   7   13.23    0.62
   5  10   7   12.80    0.71
   5  10   7   14.22    0.83
   5  10   7   13.33    0.65
  -5 -10  -7   12.32    0.65
  -5 -10  -7   13.65    0.74
  -5 -10  -7   13.14    0.77
   4  10   7    0.54    0.42
   4  10   7    0.46    0.33
   4  10   7    1.12    0.29
   4  10   7    0.49    0.37
  -4 -10  -7    0.84    0.37
  -4 -10  -7    0.62    0.31
  -4 -10  -7    1.11    0.31
   3  10   7    6.53    0.51
   3  10   7    6.66    0.44
  -3 -10  -7    6.00    0.49
  -3 -10  -7    7.57    0.73
  -3 -10  -7    6.25    0.62
  -2 -10  -7    4.95    0.55
  -2 -10  -7    3.86    0.50
   1 -10   8    1.46    0.50
   1 -10   8    2.12    0.58
   1 -10   8    0.68    0.51
   1 -10   8    1.71    0.57
  -1  10  -8    0.90    0.48
  -1  10  -8    1.53    0.53
  -1  10  -8    1.06    0.48
   0 -10   8    3.49    0.61
   0 -10   8    3.84    0.62
   0 -10   8    3.04    0.55
   0 -10   8    3.18    0.51
   0  10  -8    3.26    0.57
   0  10  -8    4.25    0.56
   0  10  -8    3.62    0.52
  -1 -10   8    8.92    0.74
  -1 -10   8    7.47    0.73
  -1 -10   8    9.84    0.99
  -1 -10   8    8.31    0.72
   1  10  -8    7.29    0.68
   1  10  -8    7.42    0.63
   1  10  -8    7.65    0.67
  -2 -10   8    4.53    0.62
  -2 -10   8    5.77    0.61
  -2 -10   8    5.88    0.53
   2  10  -8    5.15    0.65
   2  10  -8    4.07    0.53
   2  10  -8    5.19    0.62
   3  -9   8    1.69    0.43
   3  -9   8    0.71    0.43
   3  -9   8    1.70    0.55
   3  -9   8    1.64    0.44
   3  -9   8    1.34    0.48
   3  -9   8    1.25    0.46
  -3   9  -8    1.67    0.54
  -3   9  -8    1.59    0.50
  -3   9  -8    1.57    0.41
   2  -9   8    2.52    0.38
   2  -9   8    1.54    0.43
   2  -9   8    1.96    0.42
   2  -9   8    2.39    0.53
   2  -9   8    2.79    0.49
  -2   9  -8    2.43    0.43
  -2   9  -8    2.13    0.44
  -2   9  -8    1.76    0.49
   1  -9   8    8.97    0.74
   1  -9   8    8.94    0.82
   1  -9   8    7.70    0.80
   1  -9   8    8.07    0.69
  -1   9  -8    6.90    0.60
  -1   9  -8    5.78    0.55
  -1   9  -8    6.89    0.69
   0  -9   8    3.73    0.46
   0  -9   8    3.39    0.50
   0  -9   8    3.06    0.50
   0  -9   8    3.76    0.52
   0   9  -8    3.65    0.48
   0   9  -8    3.75    0.51
   0   9  -8    3.37    0.48
  -1  -9   8    9.81    0.82
  -1  -9   8    9.35    0.77
  -1  -9   8   10.79    0.66
  -1  -9   8   10.38    0.86
   1   9  -8    9.98    0.77
   1   9  -8    9.53    0.74
   1   9  -8    9.71    0.83
  -2  -9   8    1.37    0.41
  -2  -9   8    1.97    0.46
  -2  -9   8    1.20    0.36
   2   9  -8    0.94    0.40
   2   9  -8    1.93    0.46
   2   9  -8    1.55    0.49
  -3  -9   8    7.02    0.64
  -3  -9   8    5.73    0.64
  -3  -9   8    6.95    0.59
  -3  -9   8    5.72    0.56
   3   9  -8    6.43    0.62
   3   9  -8    7.55    0.77
   3   9  -8    7.42    0.67
   4  -8   8    1.87    0.43
   4  -8   8    1.80    0.41
   4  -8   8    2.29    0.51
   4  -8   8    1.04    0.38
  -4   8  -8    1.56    0.51
  -4   8  -8    1.15    0.38
  -4   8  -8    1.57    0.49
   3  -8   8    1.12    0.33
   3  -8   8    1.02    0.39
   3  -8   8    0.68    0.38
   3  -8   8    1.02    0.37
   3  -8   8    0.37    0.41
   3  -8   8    0.48    0.36
  -3   8  -8    0.25    0.39
  -3   8  -8    0.34    0.44
  -3   8  -8    0.76    0.36
   2  -8   8    9.01    0.72
   2  -8   8    8.35    0.69
   2  -8   8    8.28    0.75
   2  -8   8    7.29    0.63
   2  -8   8   10.66    0.59
   2  -8   8    8.12    0.66
  -2   8  -8    9.41    0.70
  -2   8  -8    9.46    0.72
  -2   8  -8    8.04    0.68
   1  -8   8   11.17    0.74
   1  -8   8   10.43    0.64
   1  -8   8   10.15    0.62
   1  -8   8    9.80    0.72
   1  -8   8   10.88    0.74
  -1   8  -8   10.15    0.72
  -1   8  -8    8.41    0.67
  -1   8  -8   11.33    0.71
   0  -8   8    1.84    0.38
   0  -8   8    1.86    0.37
   0  -8   8    2.27    0.44
   0  -8   8    2.52    0.35
   0  -8   8    2.07    0.42
   0   8  -8    2.33    0.43
   0   8  -8    1.37    0.35
   0   8  -8    1.93    0.38
  -1  -8   8   12.43    0.71
  -1  -8   8   12.10    0.74
  -1  -8   8   13.30    0.76
  -1  -8   8   11.90    0.59
  -1  -8   8   13.28    0.80
   1   8  -8   11.98    0.69
   1   8  -8   11.79    0.70
   1   8  -8   13.37    0.79
  -2  -8   8    0.41    0.39
  -2  -8   8    0.25    0.30
  -2  -8   8   -0.15    0.32
  -2  -8   8   -0.10    0.27
   2   8  -8   -0.04    0.33
   2   8  -8    0.62    0.33
   2   8  -8    0.12    0.39
  -3  -8   8    1.70    0.44
  -3  -8   8    2.53    0.34
  -3  -8   8    2.85    0.39
  -3  -8   8    2.62    0.37
   3   8  -8    3.22    0.52
   3   8  -8    2.49    0.39
   3   8  -8    2.39    0.42
  -4  -8   8    0.64    0.42
  -4  -8   8    0.19    0.34
  -4  -8   8    0.69    0.45
   4   8  -8    0.93    0.40
   4   8  -8    1.83    0.54
   4   8  -8    1.17    0.45
   5  -7   8    8.03    0.83
   5  -7   8    7.30    0.71
   5  -7   8    8.60    0.69
   5  -7   8    8.97    0.80
  -5   7  -8    9.35    0.93
  -5   7  -8    8.55    0.67
  -5   7  -8    9.22    0.88
   4  -7   8   -0.10    0.34
   4  -7   8    0.55    0.41
   4  -7   8    0.49    0.33
   4  -7   8    0.62    0.32
  -4   7  -8    0.87    0.42
  -4   7  -8    0.63    0.41
  -4   7  -8    0.13    0.31
   3  -7   8    1.67    0.37
   3  -7   8    2.15    0.34
   3  -7   8    1.23    0.38
   3  -7   8    1.13    0.30
   3  -7   8    0.82    0.34
  -3   7  -8    1.24    0.35
  -3   7  -8    1.03    0.36
  -3   7  -8    0.40    0.35
  -3   7  -8    1.33    0.39
   2  -7   8    9.22    0.63
   2  -7   8   10.22    0.57
   2  -7   8   10.49    0.55
   2  -7   8   11.42    0.67
   2  -7   8   10.10    0.67
   2  -7   8   10.97    0.69
  -2   7  -8    9.99    0.65
  -2   7  -8   10.08    0.67
  -2   7  -8   10.18    0.66
  -2   7  -8   10.07    0.67
   1  -7   8    0.05    0.28
   1  -7   8    0.22    0.32
   1  -7   8    0.14    0.25
   1  -7   8    0.25    0.25
   1  -7   8   -0.14    0.28
  -1   7  -8   -0.08    0.30
  -1   7  -8    0.14    0.29
  -1   7  -8    0.46    0.30
  -1   7  -8    0.33    0.29
   0  -7   8   17.24    0.61
   0  -7   8   17.08    0.71
   0  -7   8   16.75    0.76
   0  -7   8   17.94    0.72
   0  -7   8   17.08    0.76
   0   7  -8   16.74    0.74
   0   7  -8   16.74    0.71
   0   7  -8   16.15    0.75
   0   7  -8   17.89    0.80
  -1  -7   8    0.13    0.31
  -1  -7   8   -0.18    0.26
  -1  -7   8    0.07    0.23
  -1  -7   8    0.18    0.34
  -1  -7   8    0.25    0.26
   1   7  -8   -0.07    0.28
   1   7  -8    0.18    0.31
   1   7  -8   -0.19    0.26
   1   7  -8    0.91    0.27
  -2  -7   8    9.09    0.57
  -2  -7   8    8.19    0.46
  -2  -7   8    8.52    0.64
  -2  -7   8    8.10    0.55
   2   7  -8    9.72    0.72
   2   7  -8    8.28    0.54
   2   7  -8    9.65    0.66
   2   7  -8    8.74    0.59
  -3  -7   8   10.69    0.68
  -3  -7   8   11.80    0.67
  -3  -7   8   10.15    0.58
   3   7  -8   12.35    0.78
   3   7  -8   10.88    0.79
   3   7  -8   11.02    0.65
   3   7  -8   10.36    0.61
  -4  -7   8    4.86    0.42
  -4  -7   8    5.07    0.47
  -4  -7   8    4.67    0.48
   4   7  -8    4.58    0.40
   4   7  -8    5.25    0.58
   4   7  -8    5.01    0.58
  -5  -7   8    8.83    0.74
  -5  -7   8    8.31    0.64
   5   7  -8    9.46    0.98
   5   7  -8    7.22    0.69
   6  -6   8    2.51    0.49
   6  -6   8    2.20    0.39
   6  -6   8    2.44    0.51
  -6   6  -8    2.49    0.56
  -6   6  -8    2.47    0.38
   5  -6   8    1.11    0.33
   5  -6   8    0.57    0.42
   5  -6   8    1.13    0.33
   5  -6   8    0.87    0.39
  -5   6  -8    0.80    0.40
  -5   6  -8    0.52    0.31
  -5   6  -8    1.11    0.35
  -5   6  -8    1.52    0.44
   4  -6   8    0.57    0.33
   4  -6   8    0.79    0.36
   4  -6   8    0.49    0.26
   4  -6   8    0.65    0.30
  -4   6  -8    0.58    0.34
  -4   6  -8    1.04    0.37
  -4   6  -8    0.69    0.33
  -4   6  -8    0.81    0.32
   3  -6   8    6.05    0.48
   3  -6   8    6.03    0.55
   3  -6   8    5.18    0.49
   3  -6   8    5.92    0.55
   3  -6   8    5.03    0.53
  -3   6  -8    5.28    0.56
  -3   6  -8    5.44    0.55
  -3   6  -8    6.69    0.59
  -3   6  -8    4.92    0.55
   2  -6   8   -0.05    0.27
   2  -6   8    0.22    0.20
   2  -6   8    0.01    0.26
   2  -6   8    0.32    0.29
   2  -6   8    0.19    0.22
   2  -6   8    0.14    0.26
  -2   6  -8   -0.01    0.27
  -2   6  -8    0.35    0.29
  -2   6  -8   -0.08    0.27
  -2   6  -8    0.30    0.27
   1  -6   8    5.31    0.46
   1  -6   8    4.08    0.39
   1  -6   8    4.31    0.41
   1  -6   8    4.78    0.50
   1  -6   8    4.26    0.40
  -1   6  -8    4.66    0.44
  -1   6  -8    5.04    0.52
  -1   6  -8    4.68    0.47
  -1   6  -8    4.32    0.42
   0  -6   8    4.14    0.37
   0  -6   8    4.02    0.41
   0  -6   8    3.42    0.36
   0  -6   8    3.60    0.36
   0  -6   8    4.17    0.40
   0   6  -8    3.69    0.42
   0   6  -8    3.57    0.37
   0   6  -8    3.64    0.37
   0   6  -8    4.41    0.42
  -1  -6   8    0.51    0.28
  -1  -6   8    0.23    0.30
  -1  -6   8    0.42    0.18
  -1  -6   8    0.02    0.23
  -1  -6   8    0.44    0.24
   1   6  -8    0.11    0.22
   1   6  -8   -0.01    0.28
   1   6  -8    0.30    0.22
   1   6  -8    0.39    0.30
  -2  -6   8    9.40    0.55
  -2  -6   8    8.51    0.66
  -2  -6   8    8.26    0.57
  -2  -6   8   10.12    0.51
   2   6  -8    9.86    0.65
   2   6  -8   10.08    0.48
   2   6  -8    9.10    0.65
   2   6  -8    9.28    0.56
  -3  -6   8    0.76    0.28
  -3  -6   8    0.96    0.23
  -3  -6   8    0.98    0.32
   3   6  -8    0.54    0.27
   3   6  -8    0.66    0.36
   3   6  -8    0.63    0.25
   3   6  -8    0.40    0.37
  -4  -6   8   18.40    0.74
  -4  -6   8   20.01    0.72
  -4  -6   8   18.61    0.85
   4   6  -8   18.68    0.70
   4   6  -8   18.21    0.92
   4   6  -8   19.28    0.85
  -5  -6   8    5.65    0.44
  -5  -6   8    5.24    0.56
  -5  -6   8    4.46    0.55
   5   6  -8    6.36    0.64
   5   6  -8    4.73    0.41
   7  -5   8    0.85    0.38
   7  -5   8    0.70    0.51
   7  -5   8    0.66    0.48
  -7   5  -8   -0.03    0.52
  -7   5  -8    0.70    0.39
   6  -5   8    2.96    0.40
   6  -5   8    3.12    0.44
   6  -5   8    2.69    0.46
  -6   5  -8    2.89    0.37
  -6   5  -8    2.35    0.47
  -6   5  -8    2.80    0.35
   5  -5   8    0.47    0.29
   5  -5   8    0.58    0.30
   5  -5   8    0.36    0.31
  -5   5  -8    0.54    0.36
  -5   5  -8    0.12    0.27
  -5   5  -8    0.55    0.28
  -5   5  -8    0.18    0.34
   4  -5   8    8.80    0.62
   4  -5   8    7.29    0.56
   4  -5   8    7.13    0.57
   4  -5   8    8.41    0.46
  -4   5  -8    6.75    0.55
  -4   5  -8    7.28    0.61
  -4   5  -8    8.13    0.59
  -4   5  -8    7.80    0.55
   3  -5   8    5.01    0.49
   3  -5   8    5.10    0.51
   3  -5   8    4.62    0.48
   3  -5   8    5.00    0.50
   3  -5   8    5.80    0.43
  -3   5  -8    4.02    0.38
  -3   5  -8    4.31    0.41
  -3   5  -8    5.03    0.51
  -3   5  -8    5.68    0.50
   2  -5   8    1.72    0.25
   2  -5   8    1.52    0.30
   2  -5   8    1.74    0.29
   2  -5   8    1.51    0.29
  -2   5  -8    1.57    0.27
  -2   5  -8    1.62    0.31
  -2   5  -8    1.62    0.30
  -2   5  -8    1.96    0.31
   1  -5   8   32.99    0.93
   1  -5   8   31.75    0.76
   1  -5   8   32.39    0.88
   1  -5   8   32.63    0.89
   1  -5   8   32.67    0.93
  -1   5  -8   31.50    0.93
  -1   5  -8   33.34    0.93
  -1   5  -8   32.93    0.91
  -1   5  -8   32.82    0.88
   0  -5   8    0.22    0.25
   0  -5   8    0.53    0.25
   0  -5   8    0.30    0.20
   0  -5   8   -0.18    0.20
   0  -5   8    0.46    0.18
   0   5  -8    0.19    0.24
   0   5  -8    0.16    0.27
   0   5  -8    0.10    0.21
   0   5  -8    0.60    0.21
  -1  -5   8   19.56    0.68
  -1  -5   8   19.54    0.69
  -1  -5   8   19.50    0.73
  -1  -5   8   18.42    0.64
   1   5  -8   20.31    0.73
   1   5  -8   19.43    0.62
   1   5  -8   19.82    0.74
   1   5  -8   19.86    0.73
  -2  -5   8    5.55    0.48
  -2  -5   8    4.71    0.48
  -2  -5   8    5.41    0.40
   2   5  -8    4.88    0.44
   2   5  -8    5.04    0.45
   2   5  -8    4.42    0.37
   2   5  -8    5.92    0.57
  -3  -5   8   11.26    0.58
  -3  -5   8   11.32    0.63
  -3  -5   8   11.05    0.52
   3   5  -8   11.78    0.52
   3   5  -8   11.37    0.68
   3   5  -8   11.47    0.62
  -4  -5   8   20.40    0.91
  -4  -5   8   21.54    0.70
  -4  -5   8   21.36    0.71
   4   5  -8   21.55    0.90
   4   5  -8   22.44    0.70
   4   5  -8   21.78    0.90
  -5  -5   8    0.59    0.46
  -5  -5   8    0.07    0.31
   5   5  -8    0.69    0.34
   5   5  -8    0.17    0.46
   8  -4   8    1.31    0.45
   8  -4   8    1.39    0.55
  -8   4  -8    1.68    0.62
  -8   4  -8    1.61    0.46
   7  -4   8    1.43    0.36
   7  -4   8    1.73    0.45
   7  -4   8    2.05    0.45
  -7   4  -8    1.43    0.36
  -7   4  -8    1.45    0.31
  -7   4  -8    1.36    0.49
   6  -4   8    5.31    0.46
   6  -4   8    5.19    0.49
   6  -4   8    6.76    0.57
  -6   4  -8    5.72    0.52
  -6   4  -8    5.45    0.52
  -6   4  -8    6.31    0.56
   5  -4   8    7.70    0.54
   5  -4   8    8.83    0.62
   5  -4   8    9.66    0.54
  -5   4  -8    8.57    0.61
  -5   4  -8    8.75    0.63
  -5   4  -8    8.59    0.58
  -5   4  -8    9.76    0.54
   4  -4   8   17.67    0.69
   4  -4   8   19.48    0.64
   4  -4   8   17.84    0.70
   4  -4   8   20.18    0.73
  -4   4  -8   18.66    0.70
  -4   4  -8   18.14    0.73
  -4   4  -8   19.42    0.72
  -4   4  -8   19.39    0.68
   3  -4   8   10.12    0.54
   3  -4   8    9.29    0.53
   3  -4   8   10.74    0.55
   3  -4   8   11.01    0.56
  -3   4  -8   11.11    0.58
  -3   4  -8    9.93    0.54
  -3   4  -8   10.83    0.53
  -3   4  -8   10.09    0.52
   2  -4   8   21.88    0.73
   2  -4   8   22.17    0.68
   2  -4   8   21.55    0.70
   2  -4   8   22.06    0.73
  -2   4  -8   22.97    0.70
  -2   4  -8   22.00    0.70
  -2   4  -8   21.93    0.73
  -2   4  -8   22.22    0.73
   1  -4   8    4.14    0.38
   1  -4   8    3.39    0.34
   1  -4   8    3.12    0.28
   1  -4   8    3.21    0.34
   1  -4   8    3.78    0.35
  -1   4  -8    3.54    0.33
  -1   4  -8    3.19    0.34
  -1   4  -8    2.67    0.31
  -1   4  -8    3.11    0.32
   0  -4   8   19.36    0.67
   0  -4   8   20.21    0.68
   0  -4   8   18.93    0.62
   0  -4   8   19.63    0.65
   0   4  -8   20.34    0.68
   0   4  -8   19.99    0.70
   0   4  -8   20.28    0.60
   0   4  -8   20.38    0.71
  -1  -4   8   17.32    0.66
  -1  -4   8   17.37    0.59
  -1  -4   8   17.64    0.62
  -1  -4   8   17.91    0.67
   1   4  -8   17.96    0.66
   1   4  -8   17.70    0.69
   1   4  -8   18.30    0.68
   1   4  -8   17.13    0.56
  -2  -4   8    6.10    0.37
  -2  -4   8    6.45    0.46
  -2  -4   8    6.16    0.45
   2   4  -8    5.15    0.46
   2   4  -8    5.68    0.36
   2   4  -8    6.22    0.51
  -3  -4   8    0.98    0.22
  -3  -4   8    1.20    0.28
  -3  -4   8    1.03    0.27
   3   4  -8    0.70    0.28
   3   4  -8    0.61    0.20
   3   4  -8    0.41    0.31
  -4  -4   8    2.53    0.29
  -4  -4   8    2.52    0.41
  -4  -4   8    1.75    0.30
   4   4  -8    1.93    0.37
   4   4  -8    2.48    0.28
   4   4  -8    2.60    0.43
  -5  -4   8    9.65    0.88
  -5  -4   8    9.26    0.58
   5   4  -8    9.54    0.86
   5   4  -8   10.19    0.61
   5   4  -8   10.07    0.82
   8  -3   8    3.30    0.41
   8  -3   8    3.65    0.53
   8  -3   8    2.30    0.50
  -8   3  -8    5.05    0.52
  -8   3  -8    3.15    0.34
  -8   3  -8    3.20    0.58
   7  -3   8   16.55    0.79
   7  -3   8   17.35    0.83
   7  -3   8   15.13    0.74
  -7   3  -8   17.03    0.64
  -7   3  -8   17.55    0.80
  -7   3  -8   17.17    0.87
   6  -3   8   -0.45    0.25
   6  -3   8   -0.07    0.30
   6  -3   8   -0.20    0.25
  -6   3  -8    0.43    0.28
  -6   3  -8   -0.23    0.25
  -6   3  -8   -0.06    0.32
   5  -3   8    4.96    0.49
   5  -3   8    4.31    0.46
   5  -3   8    4.59    0.41
  -5   3  -8    4.99    0.50
  -5   3  -8    3.94    0.45
  -5   3  -8    4.92    0.44
  -5   3  -8    4.87    0.43
   4  -3   8    1.10    0.27
   4  -3   8    1.10    0.25
   4  -3   8    0.93    0.26
   4  -3   8    1.30    0.21
  -4   3  -8    0.69    0.27
  -4   3  -8    1.30    0.26
  -4   3  -8    1.29    0.27
  -4   3  -8    1.11    0.26
   3  -3   8    5.32    0.43
   3  -3   8    5.17    0.42
   3  -3   8    5.05    0.35
   3  -3   8    5.45    0.40
  -3   3  -8    5.30    0.44
  -3   3  -8    5.18    0.39
  -3   3  -8    4.49    0.44
  -3   3  -8    5.03    0.39
   2  -3   8    7.43    0.40
   2  -3   8    7.60    0.47
   2  -3   8    7.61    0.42
   2  -3   8    7.49    0.46
  -2   3  -8    7.45    0.41
  -2   3  -8    8.03    0.46
  -2   3  -8    7.88    0.41
  -2   3  -8    7.71    0.47
   1  -3   8    0.49    0.18
   1  -3   8    0.14    0.11
   1  -3   8    0.07    0.21
   1  -3   8    0.20    0.17
   1  -3   8    0.20    0.16
  -1   3  -8    0.05    0.20
  -1   3  -8    0.39    0.16
  -1   3  -8    0.37    0.20
  -1   3  -8    0.14    0.18
   0  -3   8   16.28    0.53
   0  -3   8   15.70    0.59
   0  -3   8   13.71    0.57
   0  -3   8   15.92    0.57
   0   3  -8   16.17    0.58
   0   3  -8   16.12    0.60
   0   3  -8   16.37    0.61
   0   3  -8   15.41    0.51
  -1  -3   8   24.86    0.68
  -1  -3   8   23.90    0.73
  -1  -3   8   24.01    0.76
  -1  -3   8   24.76    0.69
   1   3  -8   23.87    0.78
   1   3  -8   24.12    0.65
   1   3  -8   24.87    0.74
   1   3  -8   23.96    0.74
  -2  -3   8    4.72    0.44
  -2  -3   8    4.31    0.35
  -2  -3   8    3.74    0.40
   2   3  -8    3.69    0.36
   2   3  -8    4.35    0.32
   2   3  -8    4.66    0.45
  -3  -3   8   32.91    0.83
  -3  -3   8   32.91    0.78
  -3  -3   8   33.55    1.01
   3   3  -8   34.01    1.04
   3   3  -8   32.61    0.83
   3   3  -8   34.69    0.93
  -4  -3   8   -0.19    0.35
  -4  -3   8    0.00    0.22
   4   3  -8    0.26    0.33
   4   3  -8   -0.10    0.25
   4   3  -8    0.35    0.33
  -5  -3   8   11.29    0.88
  -5  -3   8   10.95    0.62
   5   3  -8   11.84    0.78
   5   3  -8   12.12    0.89
   5   3  -8   11.04    0.62
   9  -2   8   -0.37    0.52
   9  -2   8   -0.81    0.44
   9  -2   8    0.55    0.53
  -9   2  -8   -0.85    0.43
  -9   2  -8   -0.05    0.63
  -9   2  -8   -0.36    0.32
   8  -2   8    0.08    0.34
   8  -2   8   -0.05    0.39
   8  -2   8    0.01    0.40
  -8   2  -8    0.11    0.30
  -8   2  -8    0.80    0.39
  -8   2  -8    0.17    0.45
   7  -2   8    1.78    0.37
   7  -2   8    1.77    0.35
   7  -2   8    2.62    0.37
  -7   2  -8    2.22    0.39
  -7   2  -8    2.45    0.34
  -7   2  -8    2.37    0.39
   6  -2   8    0.73    0.25
   6  -2   8    1.16    0.29
   6  -2   8    1.45    0.30
  -6   2  -8    1.16    0.27
  -6   2  -8    1.38    0.31
  -6   2  -8    1.40    0.34
   5  -2   8    8.42    0.49
   5  -2   8    7.85    0.50
   5  -2   8    7.99    0.43
  -5   2  -8    8.86    0.52
  -5   2  -8    7.83    0.51
  -5   2  -8    8.07    0.50
   4  -2   8    0.00    0.21
   4  -2   8    0.11    0.20
   4  -2   8    0.17    0.18
  -4   2  -8    0.09    0.18
  -4   2  -8   -0.07    0.20
  -4   2  -8   -0.18    0.22
  -4   2  -8    0.14    0.20
   3  -2   8    5.85    0.36
   3  -2   8    6.28    0.37
   3  -2   8    6.49    0.44
   3  -2   8    7.21    0.39
  -3   2  -8    6.15    0.36
  -3   2  -8    6.01    0.43
  -3   2  -8    6.84    0.38
  -3   2  -8    6.78    0.45
   2  -2   8    7.52    0.44
   2  -2   8    7.51    0.40
   2  -2   8    7.13    0.42
   2  -2   8    7.25    0.37
  -2   2  -8    7.40    0.43
  -2   2  -8    7.67    0.36
  -2   2  -8    7.32    0.38
  -2   2  -8    6.85    0.45
   1  -2   8   13.69    0.47
   1  -2   8   13.81    0.50
   1  -2   8   13.70    0.52
   1  -2   8   13.42    0.52
  -1   2  -8   14.06    0.48
  -1   2  -8   13.89    0.47
  -1   2  -8   12.93    0.53
  -1   2  -8   13.82    0.53
   0  -2   8    9.21    0.44
   0  -2   8    8.46    0.47
   0  -2   8    8.25    0.45
   0  -2   8    9.03    0.39
   0   2  -8    9.18    0.47
   0   2  -8    8.92    0.45
   0   2  -8    9.53    0.46
   0   2  -8    9.53    0.36
  -1  -2   8    2.04    0.22
  -1  -2   8    1.93    0.24
  -1  -2   8    1.89    0.26
  -1  -2   8    1.61    0.25
   1   2  -8    2.11    0.27
   1   2  -8    1.95    0.20
   1   2  -8    1.79    0.28
  -2  -2   8   17.53    0.56
  -2  -2   8   18.07    0.68
  -2  -2   8   18.01    0.56
   2   2  -8   17.50    0.55
   2   2  -8   16.66    0.70
   2   2  -8   17.65    0.62
  -3  -2   8    5.98    0.56
  -3  -2   8    5.45    0.41
  -3  -2   8    6.48    0.39
   3   2  -8    6.25    0.49
   3   2  -8    6.12    0.40
   3   2  -8    5.08    0.54
  -4  -2   8   10.11    0.74
  -4  -2   8   11.21    0.52
   4   2  -8   11.30    0.53
   4   2  -8   10.98    0.61
   4   2  -8   11.06    0.75
  -5  -2   8    7.71    0.55
  -5  -2   8    6.66    0.64
   5   2  -8    6.60    0.64
   5   2  -8    6.45    0.57
   9  -1   8    0.05    0.45
   9  -1   8    0.88    0.50
   9  -1   8   -0.63    0.40
  -9   1  -8   -0.08    0.41
  -9   1  -8   -0.31    0.36
  -9   1  -8    0.89    0.56
   8  -1   8    6.10    0.63
   8  -1   8    7.88    0.69
   8  -1   8    8.87    0.74
  -8   1  -8    9.61    0.72
  -8   1  -8    8.81    0.79
  -8   1  -8    8.33    0.60
   7  -1   8    0.03    0.26
   7  -1   8   -0.34    0.29
   7  -1   8    0.18    0.29
  -7   1  -8    0.08    0.31
  -7   1  -8   -0.19    0.25
  -7   1  -8    0.25    0.33
   6  -1   8   14.14    0.63
   6  -1   8   13.89    0.59
   6  -1   8   13.65    0.59
  -6   1  -8   14.20    0.60
  -6   1  -8   13.50    0.62
  -6   1  -8   13.98    0.67
   5  -1   8    0.12    0.20
   5  -1   8    0.37    0.23
   5  -1   8    0.06    0.18
  -5   1  -8   -0.08    0.20
  -5   1  -8    0.48    0.24
  -5   1  -8    0.38    0.23
   4  -1   8   15.27    0.49
   4  -1   8   14.42    0.55
   4  -1   8   15.75    0.59
  -4   1  -8   15.97    0.50
  -4   1  -8   15.35    0.58
  -4   1  -8   16.34    0.56
  -4   1  -8   15.77    0.60
   3  -1   8   47.43    1.04
   3  -1   8   49.90    1.08
   3  -1   8   49.35    1.08
  -3   1  -8   50.33    1.15
  -3   1  -8   50.59    1.09
  -3   1  -8   50.38    1.05
  -3   1  -8   48.27    0.96
  -3   1  -8   49.48    1.08
   2  -1   8   21.02    0.58
   2  -1   8   21.47    0.62
   2  -1   8   20.95    0.50
   2  -1   8   20.81    0.62
  -2   1  -8   21.34    0.62
  -2   1  -8   20.63    0.66
  -2   1  -8   20.33    0.52
  -2   1  -8   19.95    0.62
  -2   1  -8   20.76    0.58
   1  -1   8   12.75    0.43
   1  -1   8   12.43    0.48
   1  -1   8   11.81    0.51
   1  -1   8   11.90    0.47
  -1   1  -8   12.33    0.52
  -1   1  -8   11.58    0.47
  -1   1  -8   12.19    0.42
  -1   1  -8   12.83    0.42
  -1   1  -8   12.45    0.48
   0  -1   8    1.12    0.21
   0  -1   8    0.73    0.17
   0  -1   8    0.88    0.22
   0  -1   8    0.88    0.20
   0   1  -8    1.01    0.21
   0   1  -8    1.06    0.22
   0   1  -8    1.13    0.16
  -1  -1   8    9.55    0.39
  -1  -1   8    8.75    0.44
  -1  -1   8    9.23    0.50
  -1  -1   8    8.82    0.43
   1   1  -8    8.75    0.37
   1   1  -8    9.03    0.52
   1   1  -8    8.96    0.43
  -2  -1   8    5.78    0.35
  -2  -1   8    5.84    0.51
  -2  -1   8    6.60    0.40
   2   1  -8    6.85    0.51
   2   1  -8    6.76    0.35
  -3  -1   8    2.29    0.36
  -3  -1   8    2.34    0.27
  -3  -1   8    2.47    0.26
   3   1  -8    2.37    0.27
   3   1  -8    1.77    0.38
   3   1  -8    2.24    0.29
  -4  -1   8    9.16    0.48
  -4  -1   8   10.78    0.77
   4   1  -8    8.74    0.48
   4   1  -8    8.66    0.74
   4   1  -8    8.39    0.52
  -5  -1   8   -0.14    0.51
  -5  -1   8    0.59    0.30
   5   1  -8   -0.06    0.45
   5   1  -8   -0.04    0.30
   5   1  -8    0.46    0.35
   9   0   8    6.49    0.59
   9   0   8    5.76    0.58
   9   0   8    5.00    0.56
  -9   0  -8    5.65    0.59
  -9   0  -8    5.44    0.47
  -9   0  -8    4.96    0.62
   8   0   8    1.97    0.40
   8   0   8    2.13    0.39
   8   0   8    1.67    0.37
  -8   0  -8    2.36    0.44
  -8   0  -8    2.37    0.36
  -8   0  -8    2.02    0.43
   7   0   8    3.26    0.38
   7   0   8    3.63    0.40
   7   0   8    3.78    0.37
  -7   0  -8    3.74    0.45
  -7   0  -8    3.68    0.41
  -7   0  -8    3.81    0.38
   6   0   8    1.24    0.24
   6   0   8    1.05    0.28
   6   0   8    1.16    0.25
  -6   0  -8    1.15    0.27
  -6   0  -8    1.05    0.30
  -6   0  -8    1.10    0.26
  -6   0  -8    1.19    0.25
   5   0   8    7.13    0.36
   5   0   8    7.46    0.48
   5   0   8    6.31    0.38
  -5   0  -8    6.81    0.47
  -5   0  -8    7.07    0.51
  -5   0  -8    7.84    0.43
  -5   0  -8    7.67    0.40
   4   0   8   57.67    1.20
   4   0   8   55.66    1.03
   4   0   8   55.56    1.19
  -4   0  -8   54.60    1.17
  -4   0  -8   55.99    1.24
  -4   0  -8   55.71    1.19
  -4   0  -8   55.74    1.16
   3   0   8   22.09    0.58
   3   0   8   22.33    0.65
   3   0   8   22.62    0.64
  -3   0  -8   22.63    0.61
  -3   0  -8   22.07    0.65
  -3   0  -8   21.73    0.63
  -3   0  -8   22.23    0.68
  -3   0  -8   21.11    0.48
   2   0   8    0.93    0.16
   2   0   8    1.37    0.22
   2   0   8    1.33    0.16
   2   0   8    1.45    0.20
  -2   0  -8    1.15    0.15
  -2   0  -8    1.02    0.17
  -2   0  -8    1.34    0.16
  -2   0  -8    1.04    0.22
  -2   0  -8    1.12    0.22
   1   0   8    1.25    0.21
   1   0   8    1.17    0.20
   1   0   8    1.30    0.17
  -1   0  -8    1.57    0.22
  -1   0  -8    1.08    0.21
  -1   0  -8    1.38    0.18
  -1   0  -8    1.22    0.17
  -1   0  -8    1.00    0.21
   0   0   8    3.00    0.27
   0   0   8    2.97    0.27
   0   0  -8    2.58    0.28
   0   0  -8    3.07    0.25
   0   0  -8    3.01    0.27
  -1   0   8    6.91    0.48
  -1   0   8    5.96    0.32
  -1   0   8    5.89    0.40
   1   0  -8    5.59    0.34
   1   0  -8    5.72    0.37
   1   0  -8    6.47    0.47
   1   0  -8    5.82    0.30
  -2   0   8    0.02    0.25
  -2   0   8    0.30    0.17
  -2   0   8    0.15    0.20
   2   0  -8    0.17    0.17
   2   0  -8    0.24    0.18
   2   0  -8    0.38    0.24
  -3   0   8    4.83    0.34
  -3   0   8    4.65    0.44
   3   0  -8    5.54    0.35
   3   0  -8    5.02    0.46
   3   0  -8    5.21    0.38
  -4   0   8    0.09    0.39
  -4   0   8    0.02    0.21
   4   0  -8    0.15    0.37
   4   0  -8   -0.21    0.22
   4   0  -8   -0.05    0.24
   5   0  -8    3.61    0.57
   5   0  -8    2.43    0.32
   5   0  -8    3.27    0.36
   9   1   8    2.33    0.46
   9   1   8    2.67    0.44
   9   1   8    1.57    0.44
  -9  -1  -8    1.78    0.46
  -9  -1  -8    1.78    0.49
  -9  -1  -8    1.59    0.40
   8   1   8   -0.22    0.32
   8   1   8    0.16    0.33
   8   1   8    0.09    0.30
  -8  -1  -8   -0.48    0.27
  -8  -1  -8   -0.68    0.35
  -8  -1  -8   -0.31    0.33
   7   1   8   26.94    0.90
   7   1   8   27.95    0.78
   7   1   8   28.81    0.86
  -7  -1  -8   27.72    0.83
  -7  -1  -8   28.00    0.87
  -7  -1  -8   29.18    0.90
  -7  -1  -8   29.00    0.95
   6   1   8    1.68    0.29
   6   1   8    2.06    0.28
   6   1   8    1.82    0.30
   6   1   8    1.81    0.23
  -6  -1  -8    1.77    0.26
  -6  -1  -8    1.65    0.33
  -6  -1  -8    1.72    0.26
  -6  -1  -8    1.69    0.29
   5   1   8    6.59    0.43
   5   1   8    6.60    0.31
   5   1   8    6.41    0.46
   5   1   8    6.30    0.38
  -5  -1  -8    6.21    0.45
  -5  -1  -8    6.59    0.48
  -5  -1  -8    6.56    0.38
  -5  -1  -8    6.68    0.37
   4   1   8    7.71    0.44
   4   1   8    7.56    0.41
   4   1   8    8.45    0.42
  -4  -1  -8    8.08    0.37
  -4  -1  -8    8.35    0.45
  -4  -1  -8    7.63    0.39
  -4  -1  -8    8.62    0.47
   3   1   8   24.05    0.67
   3   1   8   23.17    0.64
   3   1   8   24.59    0.61
  -3  -1  -8   23.60    0.66
  -3  -1  -8   22.63    0.60
  -3  -1  -8   24.59    0.66
  -3  -1  -8   23.42    0.71
   2   1   8   36.59    0.86
   2   1   8   37.05    0.74
   2   1   8   34.61    0.79
  -2  -1  -8   35.73    0.92
  -2  -1  -8   36.36    0.81
  -2  -1  -8   35.64    0.78
  -2  -1  -8   35.70    0.86
   1   1   8    1.57    0.24
  -1  -1  -8    1.01    0.22
  -1  -1  -8    1.37    0.17
  -1  -1  -8    1.44    0.24
   0   1   8   17.99    0.58
   0   1   8   18.14    0.48
   0  -1  -8   17.54    0.46
   0  -1  -8   17.95    0.57
   0  -1  -8   17.26    0.65
   0  -1  -8   17.11    0.48
  -1   1   8   21.79    0.50
  -1   1   8   21.80    0.63
   1  -1  -8   20.77    0.74
   1  -1  -8   21.64    0.62
   1  -1  -8   21.84    0.52
   1  -1  -8   20.80    0.51
   2  -1  -8    1.94    0.34
   2  -1  -8    2.31    0.26
   2  -1  -8    2.77    0.26
   2  -1  -8    2.14    0.21
   3  -1  -8   19.04    0.82
   4  -1  -8    0.99    0.42
  10   2   8    0.59    0.53
  10   2   8    0.35    0.51
  10   2   8   -0.82    0.49
  10   2   8    0.89    0.43
 -10  -2  -8    0.82    0.59
 -10  -2  -8    0.26    0.52
   9   2   8    3.36    0.52
   9   2   8    2.96    0.45
   9   2   8    2.68    0.41
   9   2   8    3.02    0.45
  -9  -2  -8    3.56    0.51
  -9  -2  -8    2.71    0.42
  -9  -2  -8    2.92    0.50
   8   2   8    8.71    0.66
   8   2   8    8.26    0.58
   8   2   8    7.38    0.62
   8   2   8    8.20    0.56
  -8  -2  -8    7.61    0.67
  -8  -2  -8    7.43    0.57
  -8  -2  -8    7.63    0.62
   7   2   8    6.39    0.49
   7   2   8    5.76    0.50
   7   2   8    6.01    0.56
   7   2   8    6.35    0.43
  -7  -2  -8    5.34    0.49
  -7  -2  -8    5.42    0.46
  -7  -2  -8    5.35    0.48
   6   2   8   -0.12    0.22
   6   2   8    0.14    0.16
   6   2   8    0.28    0.25
   6   2   8   -0.29    0.19
  -6  -2  -8    0.43    0.20
  -6  -2  -8    0.34    0.22
  -6  -2  -8    0.42    0.27
   5   2   8   20.98    0.68
   5   2   8   21.06    0.67
   5   2   8   18.91    0.62
  -5  -2  -8   22.06    0.71
  -5  -2  -8   21.02    0.61
  -5  -2  -8   21.10    0.65
   4   2   8   -0.02    0.18
   4   2   8    0.18    0.16
   4   2   8    0.54    0.19
  -4  -2  -8    0.58    0.22
  -4  -2  -8    0.00    0.15
  -4  -2  -8    0.49    0.15
  -4  -2  -8    0.39    0.18
   3   2   8   31.74    0.80
   3   2   8   32.13    0.76
   3   2   8   30.83    0.74
  -3  -2  -8   31.52    0.86
  -3  -2  -8   30.27    0.79
  -3  -2  -8   31.38    0.71
  -3  -2  -8   31.85    0.76
   2   2   8    2.77    0.28
   2   2   8    2.66    0.28
   2   2   8    2.45    0.22
  -2  -2  -8    2.67    0.27
  -2  -2  -8    2.88    0.31
  -2  -2  -8    2.41    0.26
  -2  -2  -8    2.28    0.24
   1   2   8    9.10    0.35
   1   2   8    9.33    0.44
  -1  -2  -8    9.23    0.44
  -1  -2  -8    8.24    0.47
  -1  -2  -8    9.07    0.35
  -1  -2  -8    8.35    0.32
   0   2   8   11.13    0.34
   0   2   8   11.39    0.49
   0  -2  -8   10.58    0.55
   0  -2  -8   10.84    0.35
   0  -2  -8   11.51    0.48
   0  -2  -8   10.84    0.35
   0  -2  -8   11.83    0.34
   1  -2  -8    2.32    0.32
   1  -2  -8    2.16    0.27
   2  -2  -8   16.44    0.57
   2  -2  -8   16.78    0.50
   2  -2  -8   17.22    0.74
   3  -2  -8   10.57    0.68
   3  -2  -8    8.90    0.46
   3  -2  -8   10.07    0.48
   4  -2  -8    3.55    0.51
   4  -2  -8    2.48    0.48
   4  -2  -8    3.29    0.36
  10   3   8    0.85    0.47
  10   3   8    1.00    0.51
  10   3   8    1.38    0.56
  10   3   8    0.73    0.48
 -10  -3  -8    0.07    0.46
 -10  -3  -8    1.10    0.55
 -10  -3  -8    0.71    0.53
   9   3   8    1.54    0.39
   9   3   8    1.56    0.42
   9   3   8    1.64    0.34
   9   3   8    1.61    0.45
  -9  -3  -8    1.39    0.47
  -9  -3  -8    2.48    0.43
  -9  -3  -8    1.48    0.39
   8   3   8    5.38    0.52
   8   3   8    5.21    0.49
   8   3   8    4.82    0.44
   8   3   8    4.96    0.47
  -8  -3  -8    5.37    0.53
  -8  -3  -8    5.47    0.53
  -8  -3  -8    6.93    0.59
   7   3   8    2.08    0.36
   7   3   8    1.86    0.29
   7   3   8    2.09    0.30
   7   3   8    2.15    0.25
  -7  -3  -8    2.48    0.30
  -7  -3  -8    2.18    0.32
  -7  -3  -8    1.97    0.37
   6   3   8    6.97    0.30
   6   3   8    7.87    0.46
   6   3   8    7.66    0.50
   6   3   8    8.45    0.54
  -6  -3  -8    7.62    0.39
  -6  -3  -8    7.93    0.54
  -6  -3  -8    6.99    0.44
   5   3   8   14.97    0.58
   5   3   8   14.87    0.58
   5   3   8   13.96    0.53
  -5  -3  -8   13.22    0.49
  -5  -3  -8   13.54    0.53
  -5  -3  -8   15.17    0.60
   4   3   8    7.17    0.43
   4   3   8    6.68    0.40
   4   3   8    6.37    0.41
  -4  -3  -8    6.87    0.39
  -4  -3  -8    6.82    0.34
  -4  -3  -8    6.67    0.43
   3   3   8   56.96    1.16
   3   3   8   57.41    1.19
   3   3   8   53.30    1.08
  -3  -3  -8   54.70    1.07
  -3  -3  -8   55.65    1.28
  -3  -3  -8   55.01    1.19
  -3  -3  -8   55.23    1.10
   2   3   8    6.97    0.42
   2   3   8    7.95    0.39
  -2  -3  -8    6.91    0.37
  -2  -3  -8    6.89    0.31
  -2  -3  -8    6.89    0.33
  -2  -3  -8    7.36    0.42
  -2  -3  -8    6.77    0.44
   1   3   8   23.15    0.50
   1   3   8   24.13    0.70
  -1  -3  -8   23.65    0.52
  -1  -3  -8   23.08    0.52
  -1  -3  -8   23.25    0.60
  -1  -3  -8   22.75    0.76
  -1  -3  -8   22.82    0.69
  -1  -3  -8   23.75    0.51
   0  -3  -8    4.25    0.40
   0  -3  -8    4.18    0.33
   0  -3  -8    4.35    0.45
   0  -3  -8    4.09    0.32
   1  -3  -8    9.72    0.49
   1  -3  -8    9.76    0.43
   1  -3  -8   10.10    0.50
   1  -3  -8   10.07    0.60
   2  -3  -8    1.03    0.26
   2  -3  -8    0.95    0.24
   2  -3  -8    0.95    0.33
   2  -3  -8    0.96    0.32
   3  -3  -8    0.02    0.28
   3  -3  -8    0.34    0.35
   3  -3  -8    0.32    0.36
   3  -3  -8   -0.19    0.26
  10   4   8    1.10    0.55
  10   4   8   -0.19    0.47
  10   4   8    0.47    0.45
  10   4   8    0.76    0.48
 -10  -4  -8    1.67    0.58
 -10  -4  -8    0.40    0.45
   9   4   8    2.61    0.45
   9   4   8    2.08    0.38
   9   4   8    1.96    0.46
   9   4   8    2.35    0.39
  -9  -4  -8    2.04    0.41
  -9  -4  -8    2.60    0.50
   8   4   8    5.79    0.58
   8   4   8    5.01    0.46
   8   4   8    5.41    0.53
   8   4   8    4.95    0.52
  -8  -4  -8    4.85    0.45
  -8  -4  -8    5.57    0.53
   7   4   8    3.67    0.41
   7   4   8    4.36    0.33
   7   4   8    4.06    0.38
   7   4   8    3.67    0.38
  -7  -4  -8    4.05    0.44
  -7  -4  -8    3.18    0.34
   6   4   8   15.57    0.66
   6   4   8   15.58    0.58
   6   4   8   15.24    0.64
  -6  -4  -8   15.01    0.59
  -6  -4  -8   16.19    0.67
   5   4   8    4.22    0.36
   5   4   8    4.45    0.44
   5   4   8    4.71    0.38
  -5  -4  -8    4.70    0.37
  -5  -4  -8    4.12    0.31
  -5  -4  -8    4.27    0.37
   4   4   8   20.71    0.65
   4   4   8   21.86    0.69
   4   4   8   20.14    0.62
  -4  -4  -8   20.00    0.57
  -4  -4  -8   21.35    0.66
  -4  -4  -8   20.74    0.65
   3   4   8    2.63    0.29
   3   4   8    2.46    0.27
  -3  -4  -8    3.09    0.27
  -3  -4  -8    2.58    0.28
  -3  -4  -8    2.79    0.29
   2   4   8    2.65    0.28
   2   4   8    3.02    0.28
  -2  -4  -8    3.20    0.34
  -2  -4  -8    3.06    0.32
  -2  -4  -8    2.44    0.25
  -2  -4  -8    3.17    0.30
  -2  -4  -8    2.89    0.27
  -1  -4  -8    7.07    0.30
  -1  -4  -8    6.91    0.46
  -1  -4  -8    7.58    0.42
  -1  -4  -8    7.90    0.51
   0  -4  -8    0.25    0.20
   0  -4  -8    0.30    0.25
   0  -4  -8   -0.23    0.22
   0  -4  -8   -0.04    0.20
   1  -4  -8    3.00    0.37
   1  -4  -8    3.75    0.36
   1  -4  -8    3.24    0.33
   1  -4  -8    3.73    0.35
   2  -4  -8    0.36    0.29
   2  -4  -8    0.24    0.29
   2  -4  -8    0.63    0.33
   2  -4  -8    0.06    0.33
   3  -4  -8    7.38    0.58
   3  -4  -8    6.61    0.73
   3  -4  -8    7.20    0.67
   3  -4  -8    6.47    0.55
  10   5   8    1.12    0.60
  10   5   8    1.41    0.50
  10   5   8   -0.21    0.43
 -10  -5  -8    2.03    0.60
 -10  -5  -8    1.41    0.48
   9   5   8    9.99    0.87
   9   5   8    7.83    0.70
   9   5   8   10.11    0.78
   9   5   8    9.70    0.65
  -9  -5  -8   10.39    0.86
  -9  -5  -8    8.22    0.71
   8   5   8   -0.26    0.24
   8   5   8    0.01    0.37
   8   5   8    0.44    0.32
   8   5   8    0.24    0.31
  -8  -5  -8    0.40    0.29
  -8  -5  -8    0.39    0.41
   7   5   8    3.31    0.35
   7   5   8    3.81    0.44
   7   5   8    3.69    0.32
   7   5   8    3.65    0.38
  -7  -5  -8    4.07    0.44
  -7  -5  -8    4.54    0.46
   6   5   8    0.02    0.18
   6   5   8    0.14    0.25
   6   5   8    0.08    0.26
  -6  -5  -8   -0.09    0.20
  -6  -5  -8   -0.22    0.28
   5   5   8   15.36    0.61
   5   5   8   15.23    0.66
   5   5   8   15.22    0.60
  -5  -5  -8   15.23    0.62
  -5  -5  -8   15.71    0.59
   4   5   8   17.19    0.64
   4   5   8   15.86    0.56
  -4  -5  -8   17.21    0.61
  -4  -5  -8   17.59    0.60
  -4  -5  -8   16.80    0.63
  -4  -5  -8   16.87    0.52
   3   5   8    3.66    0.35
  -3  -5  -8    3.25    0.30
  -3  -5  -8    3.56    0.40
  -3  -5  -8    3.06    0.31
  -3  -5  -8    3.71    0.32
   2   5   8   18.08    0.63
   2   5   8   18.27    0.46
  -2  -5  -8   17.95    0.46
  -2  -5  -8   19.17    0.64
  -2  -5  -8   18.63    0.66
  -2  -5  -8   18.51    0.71
  -2  -5  -8   18.49    0.47
  -1  -5  -8    1.02    0.25
  -1  -5  -8    0.65    0.19
  -1  -5  -8    0.68    0.26
  -1  -5  -8    0.68    0.26
   0  -5  -8    6.73    0.44
   0  -5  -8    6.47    0.51
   0  -5  -8    7.06    0.48
   0  -5  -8    6.45    0.57
   1  -5  -8   22.57    0.76
   1  -5  -8   23.00    0.78
   1  -5  -8   22.18    0.85
   1  -5  -8   23.02    0.76
   2  -5  -8   -0.42    0.34
   2  -5  -8   -0.31    0.34
   2  -5  -8    0.28    0.32
   2  -5  -8    0.48    0.38
  10   6   8   -0.13    0.57
 -10  -6  -8   -0.07    0.60
 -10  -6  -8   -0.55    0.49
   9   6   8    1.07    0.50
   9   6   8    0.96    0.39
  -9  -6  -8    1.03    0.41
  -9  -6  -8    0.75    0.51
   8   6   8    1.37    0.34
   8   6   8    1.89    0.43
  -8  -6  -8    1.90    0.47
  -8  -6  -8    1.94    0.38
   7   6   8    6.48    0.63
   7   6   8    6.25    0.38
   7   6   8    7.50    0.58
  -7  -6  -8    6.90    0.52
  -7  -6  -8    6.65    0.66
   6   6   8    1.06    0.32
   6   6   8    1.25    0.32
  -6  -6  -8    0.92    0.24
  -6  -6  -8    0.82    0.33
   5   6   8   27.80    0.88
   5   6   8   27.26    0.78
  -5  -6  -8   26.78    0.86
  -5  -6  -8   27.69    0.81
  -5  -6  -8   28.15    0.82
   4   6   8    1.33    0.31
   4   6   8    1.53    0.26
  -4  -6  -8    1.49    0.29
  -4  -6  -8    0.82    0.22
  -4  -6  -8    1.05    0.26
   3   6   8   17.92    0.69
   3   6   8   17.10    0.53
  -3  -6  -8   16.90    0.65
  -3  -6  -8   17.46    0.67
  -3  -6  -8   17.38    0.52
  -3  -6  -8   16.69    0.52
  -2  -6  -8    4.41    0.45
  -2  -6  -8    4.91    0.45
  -2  -6  -8    4.54    0.27
  -2  -6  -8    4.72    0.46
  -2  -6  -8    5.27    0.28
  -1  -6  -8   11.87    0.47
  -1  -6  -8   11.51    0.61
  -1  -6  -8   10.45    0.64
  -1  -6  -8   12.27    0.61
   0  -6  -8   11.72    0.56
   0  -6  -8   11.30    0.60
   0  -6  -8   11.55    0.69
   0  -6  -8   12.15    0.65
   1  -6  -8    0.13    0.32
   1  -6  -8   -0.13    0.33
   1  -6  -8   -0.29    0.32
   1  -6  -8    0.00    0.31
   2  -6  -8    2.07    0.48
   2  -6  -8    2.21    0.45
   2  -6  -8    2.38    0.47
   2  -6  -8    1.48    0.47
   9   7   8    0.09    0.51
   9   7   8    0.37    0.42
  -9  -7  -8   -0.08    0.52
  -9  -7  -8    0.36    0.43
   8   7   8    2.95    0.48
   8   7   8    3.13    0.42
   8   7   8    3.73    0.36
  -8  -7  -8    3.41    0.42
  -8  -7  -8    4.02    0.54
   7   7   8    2.72    0.39
   7   7   8    1.46    0.38
  -7  -7  -8    1.71    0.43
  -7  -7  -8    2.52    0.34
   6   7   8   10.10    0.62
   6   7   8   10.31    0.67
  -6  -7  -8   10.42    0.54
  -6  -7  -8   10.01    0.66
   5   7   8   15.16    0.63
   5   7   8   15.13    0.72
  -5  -7  -8   14.29    0.67
  -5  -7  -8   15.21    0.67
  -5  -7  -8   14.96    0.60
   4   7   8    0.45    0.29
  -4  -7  -8   -0.36    0.22
  -4  -7  -8   -0.08    0.26
   3   7   8   16.60    0.73
   3   7   8   17.05    0.52
  -3  -7  -8   17.62    0.71
  -3  -7  -8   16.54    0.52
  -3  -7  -8   16.70    0.69
  -3  -7  -8   16.96    0.52
  -2  -7  -8    0.88    0.31
  -2  -7  -8    0.91    0.31
  -2  -7  -8    1.07    0.21
  -1  -7  -8   12.37    0.56
  -1  -7  -8   11.64    0.71
  -1  -7  -8   11.38    0.68
  -1  -7  -8   12.48    0.67
   0  -7  -8    2.57    0.38
   0  -7  -8    2.43    0.41
   0  -7  -8    2.52    0.43
   0  -7  -8    1.86    0.41
   1  -7  -8    0.55    0.41
   1  -7  -8    0.10    0.40
   1  -7  -8    0.37    0.39
   1  -7  -8   -0.06    0.40
   9   8   8    2.27    0.44
   9   8   8    1.64    0.47
   9   8   8    1.37    0.60
  -9  -8  -8    2.12    0.50
  -9  -8  -8    2.30    0.65
   8   8   8    2.18    0.35
   8   8   8    2.80    0.48
   8   8   8    2.08    0.50
  -8  -8  -8    3.39    0.58
  -8  -8  -8    2.35    0.41
   7   8   8    0.00    0.38
   7   8   8    0.46    0.36
  -7  -8  -8    0.19    0.29
  -7  -8  -8   -0.12    0.41
   6   8   8   11.28    0.68
   6   8   8   11.26    0.72
  -6  -8  -8   10.84    0.57
  -6  -8  -8   10.35    0.73
  -6  -8  -8   10.73    0.69
   5   8   8   17.10    0.70
   5   8   8   16.96    0.81
  -5  -8  -8   18.72    0.74
  -5  -8  -8   17.32    0.78
  -5  -8  -8   17.27    0.70
   4   8   8    0.69    0.36
  -4  -8  -8    0.94    0.33
  -4  -8  -8    1.03    0.27
  -4  -8  -8    0.49    0.27
   3   8   8    2.45    0.27
   3   8   8    2.16    0.23
   3   8   8    1.88    0.41
  -3  -8  -8    2.21    0.34
  -3  -8  -8    2.21    0.39
  -3  -8  -8    1.92    0.25
  -2  -8  -8    0.52    0.33
  -2  -8  -8    0.60    0.27
  -2  -8  -8    0.41    0.34
  -1  -8  -8    8.93    0.74
  -1  -8  -8    8.13    0.60
  -1  -8  -8    8.54    0.69
  -1  -8  -8    8.57    0.71
   0  -8  -8    0.06    0.41
   0  -8  -8    0.16    0.42
   0  -8  -8    0.46    0.39
   0  -8  -8    0.35    0.43
   8   9   8    2.07    0.45
   8   9   8    2.11    0.38
   8   9   8    2.02    0.56
  -8  -9  -8    2.08    0.45
  -8  -9  -8    2.43    0.62
   7   9   8    1.22    0.45
   7   9   8    0.55    0.30
   7   9   8    1.14    0.46
  -7  -9  -8    0.57    0.35
  -7  -9  -8    1.59    0.51
   6   9   8   -0.28    0.38
   6   9   8   -0.06    0.37
  -6  -9  -8    0.36    0.40
  -6  -9  -8    0.04    0.35
  -6  -9  -8    0.01    0.29
   5   9   8   18.54    0.74
   5   9   8   19.60    0.93
  -5  -9  -8   18.13    0.85
  -5  -9  -8   18.74    0.78
  -5  -9  -8   18.75    0.75
   4   9   8   14.49    0.84
   4   9   8   15.49    0.65
   4   9   8   14.61    0.57
  -4  -9  -8   15.53    0.70
  -4  -9  -8   15.85    0.81
  -4  -9  -8   14.24    0.61
  -3  -9  -8    0.74    0.26
  -3  -9  -8    0.40    0.38
  -3  -9  -8    0.40    0.34
  -2  -9  -8   10.38    0.79
  -2  -9  -8    8.69    0.73
   6  10   8    0.29    0.42
   6  10   8    0.18    0.31
   6  10   8   -0.19    0.48
  -6 -10  -8   -0.48    0.41
  -6 -10  -8   -0.05    0.43
  -6 -10  -8   -0.55    0.36
   5  10   8    1.68    0.34
   5  10   8    2.08    0.53
  -5 -10  -8    1.57    0.45
  -5 -10  -8    1.45    0.36
  -5 -10  -8    1.78    0.42
   4  10   8    1.50    0.32
   4  10   8    1.57    0.38
   4  10   8    1.78    0.55
  -4 -10  -8    1.80    0.46
  -4 -10  -8    1.36    0.39
  -4 -10  -8    1.35    0.35
   2  -9   9    0.15    0.47
   2  -9   9    0.05    0.42
   2  -9   9   -0.45    0.47
   2  -9   9    0.12    0.51
   2  -9   9   -0.60    0.52
  -2   9  -9    0.64    0.45
  -2   9  -9    0.59    0.53
  -2   9  -9   -0.15    0.52
   1  -9   9    1.41    0.51
   1  -9   9    1.17    0.52
   1  -9   9    2.02    0.46
   1  -9   9    1.59    0.51
   1  -9   9    0.33    0.43
  -1   9  -9    0.52    0.49
  -1   9  -9    0.58    0.47
  -1   9  -9    0.52    0.45
   0  -9   9    0.65    0.44
   0  -9   9    0.85    0.52
   0  -9   9    1.03    0.50
   0  -9   9   -0.11    0.36
   0  -9   9    1.58    0.48
   0   9  -9    0.77    0.49
   0   9  -9    0.38    0.45
   0   9  -9    0.66    0.47
  -1  -9   9    6.69    0.71
  -1  -9   9    7.19    0.71
  -1  -9   9    5.60    0.65
  -1  -9   9    6.69    0.66
  -1  -9   9    6.03    0.58
   1   9  -9    5.26    0.57
   1   9  -9    7.23    0.66
   1   9  -9    6.86    0.68
  -2  -9   9    2.13    0.58
  -2  -9   9    0.96    0.49
  -2  -9   9    1.86    0.45
  -2  -9   9    1.88    0.42
   2   9  -9    2.14    0.52
   2   9  -9    1.68    0.58
   2   9  -9    1.75    0.51
   4  -8   9    2.94    0.60
   4  -8   9    1.97    0.50
   4  -8   9    2.30    0.50
   4  -8   9    3.06    0.53
  -4   8  -9    2.10    0.62
  -4   8  -9    1.34    0.46
  -4   8  -9    1.63    0.60
   3  -8   9   -0.06    0.44
   3  -8   9    0.01    0.42
   3  -8   9   -0.46    0.40
   3  -8   9    0.18    0.36
   3  -8   9    1.31    0.38
   3  -8   9    0.22    0.48
  -3   8  -9    0.75    0.43
  -3   8  -9   -0.31    0.48
  -3   8  -9   -0.40    0.50
   2  -8   9    9.96    0.78
   2  -8   9    8.87    0.67
   2  -8   9    9.33    0.71
   2  -8   9    8.65    0.81
   2  -8   9   10.03    0.81
  -2   8  -9    9.67    0.82
  -2   8  -9    9.71    0.81
  -2   8  -9   10.63    0.82
  -2   8  -9    9.28    0.81
   1  -8   9   25.57    1.05
   1  -8   9   24.59    0.88
   1  -8   9   23.76    0.94
   1  -8   9   25.80    1.02
   1  -8   9   24.19    1.03
  -1   8  -9   25.32    1.05
  -1   8  -9   25.46    1.03
  -1   8  -9   27.85    1.03
  -1   8  -9   25.95    1.04
   0  -8   9   -0.02    0.31
   0  -8   9    1.01    0.38
   0  -8   9    0.65    0.42
   0  -8   9    0.93    0.38
   0  -8   9    0.86    0.42
   0   8  -9    0.16    0.38
   0   8  -9    0.08    0.40
   0   8  -9    0.41    0.42
   0   8  -9    0.17    0.37
  -1  -8   9    6.05    0.56
  -1  -8   9    5.79    0.52
  -1  -8   9    5.78    0.60
  -1  -8   9    6.09    0.56
  -1  -8   9    7.05    0.54
   1   8  -9    6.63    0.68
   1   8  -9    5.60    0.57
   1   8  -9    5.26    0.60
   1   8  -9    5.95    0.65
  -2  -8   9   -0.12    0.30
  -2  -8   9    0.20    0.34
  -2  -8   9   -0.20    0.40
  -2  -8   9    0.12    0.43
   2   8  -9   -0.09    0.46
   2   8  -9    0.47    0.38
   2   8  -9   -0.22    0.44
  -3  -8   9    4.89    0.47
  -3  -8   9    5.19    0.58
  -3  -8   9    4.33    0.48
   3   8  -9    5.21    0.51
   3   8  -9    5.55    0.66
   3   8  -9    5.75    0.65
   5  -7   9    2.35    0.58
   5  -7   9    2.85    0.51
   5  -7   9    2.70    0.50
   5  -7   9    3.12    0.49
  -5   7  -9    3.24    0.60
  -5   7  -9    3.02    0.60
  -5   7  -9    3.72    0.51
   4  -7   9    1.91    0.48
   4  -7   9    0.84    0.42
   4  -7   9    1.27    0.42
   4  -7   9    2.01    0.37
  -4   7  -9    1.80    0.50
  -4   7  -9    1.20    0.40
  -4   7  -9    1.95    0.45
  -4   7  -9    1.33    0.50
   3  -7   9    1.02    0.38
   3  -7   9    1.27    0.41
   3  -7   9    0.49    0.41
   3  -7   9    1.96    0.33
   3  -7   9    1.27    0.36
   3  -7   9    1.20    0.40
  -3   7  -9    2.11    0.43
  -3   7  -9    1.43    0.41
  -3   7  -9    1.39    0.42
  -3   7  -9    0.98    0.41
   2  -7   9    0.52    0.30
   2  -7   9    0.37    0.34
   2  -7   9    0.42    0.36
   2  -7   9    0.75    0.30
   2  -7   9    0.66    0.36
  -2   7  -9    0.68    0.40
  -2   7  -9    0.62    0.39
  -2   7  -9    0.63    0.37
  -2   7  -9    0.28    0.36
   1  -7   9    0.14    0.31
   1  -7   9    0.49    0.28
   1  -7   9    0.34    0.31
   1  -7   9   -0.32    0.35
   1  -7   9    0.16    0.34
  -1   7  -9    0.07    0.33
  -1   7  -9    0.02    0.36
  -1   7  -9    0.44    0.33
  -1   7  -9    0.25    0.35
   0  -7   9    5.84    0.63
   0  -7   9    5.01    0.45
   0  -7   9    5.53    0.46
   0  -7   9    6.29    0.65
   0  -7   9    5.67    0.54
   0   7  -9    5.04    0.50
   0   7  -9    5.12    0.55
   0   7  -9    5.52    0.56
   0   7  -9    4.70    0.50
  -1  -7   9    2.39    0.29
  -1  -7   9    2.80    0.49
  -1  -7   9    2.71    0.37
  -1  -7   9    3.09    0.44
  -1  -7   9    3.17    0.40
   1   7  -9    1.91    0.37
   1   7  -9    1.95    0.33
   1   7  -9    2.83    0.48
   1   7  -9    2.32    0.41
  -2  -7   9    6.49    0.63
  -2  -7   9    5.57    0.48
  -2  -7   9    6.48    0.68
   2   7  -9    6.79    0.58
   2   7  -9    5.30    0.56
   2   7  -9    7.50    0.77
   2   7  -9    5.70    0.60
  -3  -7   9    7.25    0.75
  -3  -7   9    8.00    0.76
  -3  -7   9    7.91    0.57
   3   7  -9    7.96    0.61
   3   7  -9    6.78    0.66
   3   7  -9    7.66    0.68
   3   7  -9    8.88    0.86
  -4  -7   9    1.24    0.35
   4   7  -9    0.15    0.56
   4   7  -9    0.20    0.54
   6  -6   9    0.44    0.46
   6  -6   9    0.24    0.43
   6  -6   9    0.79    0.50
  -6   6  -9    0.00    0.54
  -6   6  -9   -0.02    0.41
  -6   6  -9    0.21    0.39
   5  -6   9    5.89    0.60
   5  -6   9    5.53    0.50
   5  -6   9    5.26    0.55
   5  -6   9    5.42    0.53
  -5   6  -9    4.73    0.49
  -5   6  -9    6.21    0.64
  -5   6  -9    4.58    0.59
  -5   6  -9    5.49    0.60
   4  -6   9    0.07    0.38
   4  -6   9   -0.50    0.33
   4  -6   9    0.28    0.30
   4  -6   9   -0.28    0.33
  -4   6  -9   -0.10    0.38
  -4   6  -9   -0.85    0.32
  -4   6  -9   -0.22    0.36
  -4   6  -9    0.60    0.39
   3  -6   9    3.95    0.46
   3  -6   9    3.92    0.44
   3  -6   9    3.57    0.43
   3  -6   9    4.25    0.37
   3  -6   9    3.56    0.44
  -3   6  -9    2.97    0.41
  -3   6  -9    2.49    0.41
  -3   6  -9    3.61    0.47
  -3   6  -9    3.59    0.47
   2  -6   9    7.09    0.50
   2  -6   9    7.25    0.65
   2  -6   9    7.31    0.63
   2  -6   9    7.22    0.60
   2  -6   9    7.98    0.55
  -2   6  -9    8.14    0.66
  -2   6  -9    7.97    0.67
  -2   6  -9    6.90    0.58
  -2   6  -9    6.92    0.63
   1  -6   9    0.33    0.27
   1  -6   9    0.41    0.23
   1  -6   9    0.31    0.29
   1  -6   9    0.65    0.29
   1  -6   9    0.59    0.34
  -1   6  -9    0.37    0.33
  -1   6  -9    0.16    0.31
  -1   6  -9    0.07    0.30
  -1   6  -9    0.20    0.27
   0  -6   9   13.16    0.68
   0  -6   9   13.04    0.63
   0  -6   9   13.10    0.49
   0  -6   9   13.83    0.74
   0  -6   9   13.65    0.67
   0   6  -9   14.19    0.62
   0   6  -9   13.65    0.71
   0   6  -9   13.47    0.76
   0   6  -9   12.31    0.69
  -1  -6   9    0.89    0.29
  -1  -6   9    1.03    0.38
  -1  -6   9    0.81    0.25
  -1  -6   9    0.64    0.31
   1   6  -9    0.84    0.38
   1   6  -9    1.07    0.37
   1   6  -9    0.87    0.28
   1   6  -9    1.05    0.25
  -2  -6   9   10.00    0.64
  -2  -6   9    9.79    0.67
  -2  -6   9   10.28    0.55
   2   6  -9    9.19    0.77
   2   6  -9    9.15    0.52
   2   6  -9   10.69    0.63
   2   6  -9   10.02    0.77
  -3  -6   9    7.32    0.65
  -3  -6   9    5.92    0.52
  -3  -6   9    6.04    0.49
   3   6  -9    4.92    0.46
   3   6  -9    5.93    0.57
   3   6  -9    6.02    0.57
   3   6  -9    5.45    0.53
  -4  -6   9    6.67    0.53
  -4  -6   9    8.96    0.56
  -4  -6   9    7.42    0.82
   4   6  -9    8.57    0.71
   4   6  -9    7.03    0.60
   4   6  -9    7.10    0.69
   4   6  -9    6.76    0.65
   7  -5   9    0.69    0.49
   7  -5   9   -0.28    0.48
   7  -5   9    0.79    0.48
  -7   5  -9   -0.36    0.55
  -7   5  -9    0.80    0.37
  -7   5  -9    0.69    0.45
   6  -5   9    3.17    0.50
   6  -5   9    2.60    0.42
   6  -5   9    2.93    0.47
  -6   5  -9    2.48    0.38
  -6   5  -9    3.19    0.54
  -6   5  -9    3.08    0.43
   5  -5   9    3.80    0.47
   5  -5   9    4.67    0.49
   5  -5   9    5.67    0.55
  -5   5  -9    3.88    0.42
  -5   5  -9    3.92    0.49
  -5   5  -9    3.33    0.47
  -5   5  -9    3.75    0.46
   4  -5   9    1.23    0.28
   4  -5   9    0.85    0.34
   4  -5   9    0.15    0.31
   4  -5   9    0.69    0.34
  -4   5  -9    1.27    0.35
  -4   5  -9    0.53    0.34
  -4   5  -9    0.65    0.35
  -4   5  -9    0.51    0.31
   3  -5   9    7.87    0.58
   3  -5   9    9.50    0.63
   3  -5   9    8.59    0.62
   3  -5   9    8.64    0.60
   3  -5   9    9.30    0.50
  -3   5  -9    9.73    0.62
  -3   5  -9    9.62    0.62
  -3   5  -9    9.95    0.67
  -3   5  -9    9.06    0.60
   2  -5   9    0.66    0.30
   2  -5   9    0.80    0.29
   2  -5   9    0.27    0.24
   2  -5   9    0.76    0.25
  -2   5  -9    1.12    0.33
  -2   5  -9    0.70    0.29
  -2   5  -9    0.59    0.25
  -2   5  -9    0.86    0.29
   1  -5   9   13.61    0.48
   1  -5   9   15.40    0.64
   1  -5   9   14.61    0.68
   1  -5   9   15.73    0.70
   1  -5   9   13.22    0.62
  -1   5  -9   14.83    0.61
  -1   5  -9   14.35    0.69
  -1   5  -9   15.13    0.72
  -1   5  -9   14.47    0.67
   0  -5   9    1.83    0.28
   0  -5   9    1.70    0.35
   0  -5   9    1.98    0.28
   0  -5   9    1.87    0.33
   0   5  -9    1.74    0.34
   0   5  -9    1.09    0.28
   0   5  -9    2.08    0.38
   0   5  -9    2.34    0.26
  -1  -5   9    6.31    0.42
  -1  -5   9    6.63    0.56
  -1  -5   9    6.38    0.49
  -1  -5   9    6.87    0.62
   1   5  -9    6.88    0.62
   1   5  -9    5.54    0.50
   1   5  -9    7.21    0.62
   1   5  -9    7.27    0.42
  -2  -5   9    5.31    0.42
  -2  -5   9    6.12    0.55
  -2  -5   9    5.68    0.47
   2   5  -9    5.67    0.43
   2   5  -9    6.16    0.67
   2   5  -9    5.45    0.49
   2   5  -9    4.62    0.49
  -3  -5   9    1.55    0.34
  -3  -5   9    1.25    0.35
  -3  -5   9    0.80    0.26
   3   5  -9    1.48    0.27
   3   5  -9    0.72    0.41
   3   5  -9    0.55    0.33
   3   5  -9    1.22    0.41
  -4  -5   9    0.98    0.35
  -4  -5   9    0.69    0.30
  -4  -5   9    1.35    0.44
   4   5  -9    1.26    0.50
   4   5  -9    0.41    0.33
   4   5  -9    0.86    0.40
   7  -4   9    2.80    0.51
   7  -4   9    2.39    0.51
   7  -4   9    3.17    0.48
  -7   4  -9    1.94    0.54
  -7   4  -9    2.26    0.40
  -7   4  -9    2.93    0.46
   6  -4   9    9.32    0.73
   6  -4   9    9.99    0.78
   6  -4   9    9.99    0.65
  -6   4  -9    9.71    0.79
  -6   4  -9    8.98    0.64
  -6   4  -9    8.84    0.68
   5  -4   9    0.37    0.24
   5  -4   9    0.30    0.32
   5  -4   9   -0.18    0.31
  -5   4  -9   -0.43    0.27
  -5   4  -9    0.47    0.31
  -5   4  -9   -0.09    0.32
  -5   4  -9   -0.18    0.30
   4  -4   9   11.26    0.64
   4  -4   9    9.36    0.60
   4  -4   9   11.08    0.63
   4  -4   9   11.02    0.54
  -4   4  -9   11.22    0.61
  -4   4  -9   11.08    0.63
  -4   4  -9   10.53    0.62
  -4   4  -9    9.96    0.65
   3  -4   9    1.87    0.26
   3  -4   9    1.60    0.31
   3  -4   9    1.53    0.30
   3  -4   9    1.71    0.31
   3  -4   9    1.65    0.32
  -3   4  -9    1.82    0.34
  -3   4  -9    1.74    0.32
  -3   4  -9    1.68    0.31
  -3   4  -9    1.81    0.30
   2  -4   9    0.86    0.23
   2  -4   9    1.15    0.26
   2  -4   9    1.13    0.31
   2  -4   9    0.99    0.25
  -2   4  -9    1.22    0.28
  -2   4  -9    1.20    0.24
  -2   4  -9    1.30    0.29
  -2   4  -9    1.16    0.31
   1  -4   9   34.01    0.73
   1  -4   9   35.71    1.01
   1  -4   9   35.66    0.92
   1  -4   9   36.16    0.99
   1  -4   9   35.61    0.93
  -1   4  -9   34.62    0.89
  -1   4  -9   35.44    1.01
  -1   4  -9   35.86    0.98
  -1   4  -9   34.70    0.93
   0  -4   9    2.41    0.28
   0  -4   9    2.20    0.35
   0  -4   9    2.48    0.34
   0  -4   9    2.09    0.27
   0   4  -9    2.62    0.25
   0   4  -9    2.36    0.35
   0   4  -9    1.77    0.30
   0   4  -9    2.21    0.34
  -1  -4   9   11.39    0.58
  -1  -4   9   11.22    0.64
  -1  -4   9   10.85    0.58
  -1  -4   9   10.91    0.48
   1   4  -9   10.79    0.57
   1   4  -9   12.25    0.49
   1   4  -9   11.89    0.66
   1   4  -9   10.20    0.64
  -2  -4   9    3.39    0.36
  -2  -4   9    3.61    0.38
  -2  -4   9    2.97    0.32
   2   4  -9    3.04    0.34
   2   4  -9    3.20    0.42
   2   4  -9    3.51    0.43
   2   4  -9    3.57    0.37
  -3  -4   9    0.65    0.32
  -3  -4   9    0.51    0.24
  -3  -4   9    0.16    0.29
   3   4  -9    0.31    0.31
   3   4  -9    0.54    0.36
   3   4  -9    0.29    0.25
  -4  -4   9    2.72    0.48
  -4  -4   9    3.34    0.35
  -4  -4   9    3.21    0.35
   4   4  -9    2.92    0.36
   4   4  -9    2.81    0.47
   4   4  -9    2.55    0.49
   8  -3   9    0.52    0.48
   8  -3   9   -0.08    0.46
   8  -3   9    0.33    0.45
  -8   3  -9    0.31    0.36
  -8   3  -9    1.20    0.47
  -8   3  -9    0.62    0.53
   7  -3   9    2.98    0.46
   7  -3   9    2.60    0.43
   7  -3   9    2.05    0.39
  -7   3  -9    2.16    0.47
  -7   3  -9    2.38    0.38
  -7   3  -9    1.92    0.45
   6  -3   9    3.68    0.46
   6  -3   9    3.37    0.36
   6  -3   9    3.62    0.45
  -6   3  -9    3.39    0.39
  -6   3  -9    3.49    0.47
  -6   3  -9    4.04    0.45
   5  -3   9    2.83    0.39
   5  -3   9    2.87    0.30
   5  -3   9    3.21    0.38
  -5   3  -9    2.82    0.37
  -5   3  -9    3.29    0.38
  -5   3  -9    3.32    0.39
  -5   3  -9    3.25    0.41
   4  -3   9   -0.34    0.23
   4  -3   9   -0.45    0.22
   4  -3   9    0.27    0.21
   4  -3   9    0.09    0.27
  -4   3  -9    0.07    0.22
  -4   3  -9   -0.15    0.25
  -4   3  -9    0.42    0.27
  -4   3  -9   -0.17    0.25
   3  -3   9    0.21    0.19
   3  -3   9    0.06    0.26
   3  -3   9    0.09    0.21
  -3   3  -9   -0.12    0.23
  -3   3  -9   -0.05    0.26
  -3   3  -9   -0.21    0.23
  -3   3  -9   -0.17    0.19
   2  -3   9   12.47    0.60
   2  -3   9   12.21    0.55
   2  -3   9   12.89    0.61
   2  -3   9   12.47    0.52
  -2   3  -9   12.77    0.50
  -2   3  -9   12.26    0.60
  -2   3  -9   12.31    0.54
  -2   3  -9   13.31    0.63
   1  -3   9   -0.11    0.24
   1  -3   9   -0.07    0.17
   1  -3   9   -0.03    0.22
   1  -3   9    0.23    0.19
  -1   3  -9    0.09    0.21
  -1   3  -9   -0.11    0.22
  -1   3  -9   -0.09    0.24
  -1   3  -9    0.05    0.16
   0  -3   9   20.75    0.63
   0  -3   9   19.93    0.67
   0  -3   9   20.77    0.71
   0  -3   9   19.79    0.71
   0   3  -9   20.34    0.70
   0   3  -9   19.75    0.70
   0   3  -9   19.96    0.61
   0   3  -9   19.23    0.71
  -1  -3   9   11.12    0.49
  -1  -3   9   11.15    0.60
  -1  -3   9   11.54    0.54
  -1  -3   9   11.89    0.57
   1   3  -9   11.80    0.45
   1   3  -9   11.37    0.64
   1   3  -9   11.68    0.61
   1   3  -9   11.68    0.58
  -2  -3   9    2.74    0.36
  -2  -3   9    2.05    0.27
  -2  -3   9    2.62    0.33
   2   3  -9    2.31    0.34
   2   3  -9    2.31    0.26
   2   3  -9    2.75    0.37
  -3  -3   9   15.21    0.59
  -3  -3   9   14.86    0.79
  -3  -3   9   15.76    0.62
   3   3  -9   16.42    0.78
   3   3  -9   15.99    0.75
   3   3  -9   15.60    0.60
  -4  -3   9    0.56    0.29
  -4  -3   9    0.72    0.45
   4   3  -9    1.44    0.33
   4   3  -9    0.02    0.38
   4   3  -9    0.89    0.41
   8  -2   9   -0.12    0.40
   8  -2   9    0.09    0.44
   8  -2   9    0.07    0.40
  -8   2  -9   -0.05    0.49
  -8   2  -9    0.82    0.44
  -8   2  -9    0.20    0.36
   7  -2   9    8.92    0.64
   7  -2   9    7.46    0.67
   7  -2   9    8.13    0.67
  -7   2  -9    8.01    0.72
  -7   2  -9    7.80    0.74
  -7   2  -9    7.68    0.62
   6  -2   9    0.31    0.26
   6  -2   9    1.09    0.32
   6  -2   9    0.61    0.32
  -6   2  -9    0.34    0.33
  -6   2  -9    0.46    0.31
  -6   2  -9    0.72    0.30
   5  -2   9   11.00    0.56
   5  -2   9   10.61    0.63
   5  -2   9   10.86    0.49
  -5   2  -9   10.53    0.63
  -5   2  -9   11.19    0.59
  -5   2  -9   11.16    0.57
   4  -2   9    4.12    0.38
   4  -2   9    3.99    0.39
   4  -2   9    4.01    0.40
  -4   2  -9    4.16    0.41
  -4   2  -9    5.25    0.43
  -4   2  -9    3.79    0.41
  -4   2  -9    4.08    0.47
   3  -2   9   12.68    0.52
   3  -2   9   13.11    0.52
   3  -2   9   12.33    0.58
  -3   2  -9   12.06    0.60
  -3   2  -9   12.43    0.48
  -3   2  -9   12.80    0.60
  -3   2  -9   12.23    0.49
   2  -2   9    5.55    0.46
   2  -2   9    5.63    0.36
   2  -2   9    4.81    0.41
  -2   2  -9    5.67    0.35
  -2   2  -9    5.86    0.48
  -2   2  -9    6.37    0.45
  -2   2  -9    5.27    0.39
   1  -2   9    1.34    0.26
   1  -2   9    1.01    0.19
   1  -2   9    1.04    0.21
   1  -2   9    1.14    0.27
  -1   2  -9    1.41    0.27
  -1   2  -9    1.86    0.25
  -1   2  -9    1.29    0.20
  -1   2  -9    1.70    0.26
   0  -2   9   25.52    0.75
   0  -2   9   25.66    0.76
   0  -2   9   25.85    0.82
   0  -2   9   25.92    0.69
   0   2  -9   26.60    0.75
   0   2  -9   24.96    0.67
   0   2  -9   26.23    0.76
   0   2  -9   25.99    0.82
  -1  -2   9    0.08    0.22
  -1  -2   9   -0.08    0.24
  -1  -2   9   -0.07    0.23
  -1  -2   9    0.14    0.17
   1   2  -9    0.01    0.23
   1   2  -9    0.13    0.17
   1   2  -9    0.03    0.26
  -2  -2   9   11.00    0.63
  -2  -2   9   10.58    0.54
  -2  -2   9   10.82    0.48
   2   2  -9   10.00    0.46
   2   2  -9   10.16    0.65
   2   2  -9   10.78    0.58
  -3  -2   9    2.33    0.44
  -3  -2   9    2.70    0.32
  -3  -2   9    2.38    0.29
   3   2  -9    2.23    0.30
   3   2  -9    2.28    0.36
   3   2  -9    2.12    0.39
  -4  -2   9    2.55    0.35
  -4  -2   9    2.62    0.53
   4   2  -9    3.11    0.37
   4   2  -9    2.98    0.49
   9  -1   9    0.33    0.50
   9  -1   9    0.56    0.50
   9  -1   9   -0.66    0.47
  -9   1  -9   -0.61    0.49
  -9   1  -9    0.32    0.54
  -9   1  -9   -0.22    0.38
   8  -1   9    1.44    0.44
   8  -1   9    1.79    0.42
   8  -1   9    1.54    0.44
  -8   1  -9    1.52    0.44
  -8   1  -9    1.85    0.44
  -8   1  -9    1.40    0.40
   7  -1   9    1.22    0.35
   7  -1   9    1.80    0.34
   7  -1   9    1.43    0.32
  -7   1  -9    1.67    0.34
  -7   1  -9    1.17    0.39
  -7   1  -9    1.45    0.37
   6  -1   9    3.96    0.37
   6  -1   9    3.50    0.39
   6  -1   9    3.51    0.35
  -6   1  -9    3.96    0.40
  -6   1  -9    3.86    0.39
  -6   1  -9    3.58    0.44
   5  -1   9    7.73    0.44
   5  -1   9    7.73    0.54
   5  -1   9    7.18    0.41
  -5   1  -9    7.65    0.56
  -5   1  -9    7.79    0.53
  -5   1  -9    8.03    0.50
   4  -1   9    0.45    0.19
   4  -1   9    0.00    0.20
   4  -1   9    0.09    0.24
  -4   1  -9    0.21    0.18
  -4   1  -9    0.30    0.19
  -4   1  -9    0.54    0.23
  -4   1  -9    0.35    0.25
   3  -1   9   10.24    0.44
   3  -1   9   11.30    0.46
   3  -1   9   10.14    0.48
   3  -1   9   11.24    0.53
  -3   1  -9   11.85    0.56
  -3   1  -9   10.72    0.41
  -3   1  -9   10.23    0.48
  -3   1  -9   10.45    0.55
  -3   1  -9   10.47    0.43
   2  -1   9   23.96    0.54
   2  -1   9   25.20    0.73
   2  -1   9   24.95    0.67
   2  -1   9   24.59    0.71
  -2   1  -9   24.62    0.76
  -2   1  -9   24.37    0.72
  -2   1  -9   25.37    0.73
  -2   1  -9   23.81    0.60
  -2   1  -9   23.32    0.65
   1  -1   9   22.46    0.68
   1  -1   9   22.60    0.69
   1  -1   9   22.55    0.63
  -1   1  -9   23.73    0.62
  -1   1  -9   22.74    0.61
  -1   1  -9   23.20    0.74
  -1   1  -9   23.51    0.70
  -1   1  -9   22.75    0.69
   0  -1   9   10.79    0.44
   0  -1   9   10.13    0.49
   0  -1   9   10.49    0.52
   0  -1   9   10.72    0.53
   0   1  -9   11.03    0.50
   0   1  -9   10.18    0.50
   0   1  -9   11.34    0.44
   0   1  -9   11.37    0.55
  -1  -1   9    2.28    0.30
  -1  -1   9    1.53    0.28
  -1  -1   9    1.99    0.25
  -1  -1   9    2.48    0.30
   1   1  -9    2.28    0.28
   1   1  -9    1.71    0.31
   1   1  -9    2.23    0.24
  -2  -1   9   19.99    0.59
  -2  -1   9   19.26    0.64
  -2  -1   9   18.57    0.79
   2   1  -9   18.75    0.59
   2   1  -9   18.79    0.80
  -3  -1   9   -0.05    0.23
  -3  -1   9   -0.12    0.35
   3   1  -9    0.16    0.36
   3   1  -9    0.44    0.26
   3   1  -9   -0.04    0.28
  -4  -1   9    3.98    0.57
  -4  -1   9    5.16    0.47
   4   1  -9    4.79    0.42
   4   1  -9    3.89    0.56
   4   1  -9    4.63    0.38
   9   0   9    0.68    0.46
   9   0   9    0.48    0.48
   9   0   9    1.15    0.45
  -9   0  -9    0.80    0.41
  -9   0  -9    0.36    0.52
  -9   0  -9   -0.21    0.47
   8   0   9    7.67    0.69
   8   0   9    7.87    0.66
   8   0   9    8.10    0.69
  -8   0  -9    8.07    0.66
  -8   0  -9    9.36    0.79
  -8   0  -9    8.51    0.76
   7   0   9    0.69    0.28
   7   0   9    0.80    0.30
   7   0   9    0.26    0.32
  -7   0  -9    1.12    0.33
  -7   0  -9    0.81    0.31
  -7   0  -9    1.02    0.38
   6   0   9   13.56    0.66
   6   0   9   13.50    0.57
   6   0   9   14.01    0.54
  -6   0  -9   12.72    0.58
  -6   0  -9   13.22    0.61
  -6   0  -9   14.25    0.65
  -6   0  -9   12.72    0.70
   5   0   9    0.00    0.18
   5   0   9   -0.23    0.22
   5   0   9   -0.25    0.24
   5   0   9   -0.10    0.17
  -5   0  -9    0.01    0.18
  -5   0  -9   -0.08    0.25
  -5   0  -9    0.40    0.25
  -5   0  -9    0.30    0.19
   4   0   9   23.78    0.70
   4   0   9   24.53    0.75
   4   0   9   23.16    0.67
  -4   0  -9   23.43    0.70
  -4   0  -9   24.66    0.77
  -4   0  -9   23.66    0.77
  -4   0  -9   23.75    0.66
   3   0   9   79.61    1.53
   3   0   9   80.82    1.45
   3   0   9   76.32    1.55
  -3   0  -9   70.45    1.47
  -3   0  -9   80.89    1.54
  -3   0  -9   77.81    1.33
  -3   0  -9   80.77    1.56
  -3   0  -9   80.96    1.66
   2   0   9    0.62    0.22
   2   0   9    0.49    0.22
   2   0   9    0.45    0.14
  -2   0  -9    0.52    0.17
  -2   0  -9    0.12    0.15
  -2   0  -9    0.24    0.14
  -2   0  -9    0.18    0.20
  -2   0  -9    0.54    0.23
   1   0   9    8.02    0.37
   1   0   9    7.27    0.42
   1   0   9    8.28    0.47
  -1   0  -9    8.05    0.44
  -1   0  -9    8.07    0.47
  -1   0  -9    6.97    0.36
  -1   0  -9    7.65    0.37
  -1   0  -9    6.97    0.44
   0   0   9    0.96    0.23
   0   0   9    0.03    0.14
   0   0   9    0.64    0.18
   0   0  -9    0.63    0.24
   0   0  -9    0.60    0.17
   0   0  -9    0.20    0.23
  -1   0   9   38.62    0.92
  -1   0   9   38.49    0.83
   1   0  -9   39.10    0.83
   1   0  -9   40.58    1.09
   1   0  -9   36.88    0.84
   1   0  -9   37.54    0.91
  -2   0   9    8.12    0.40
  -2   0   9    8.01    0.49
   2   0  -9    8.29    0.43
   2   0  -9    8.73    0.43
   2   0  -9    8.54    0.62
  -3   0   9    0.76    0.23
   3   0  -9    1.17    0.24
   3   0  -9    0.74    0.26
   3   0  -9    1.02    0.40
   4   0  -9    0.99    0.29
   4   0  -9    1.85    0.49
   4   0  -9    1.47    0.31
   9   1   9    3.15    0.51
   9   1   9    3.77    0.52
   9   1   9    2.61    0.45
   9   1   9    2.62    0.51
  -9  -1  -9    2.93    0.52
  -9  -1  -9    3.52    0.56
  -9  -1  -9    2.96    0.48
   8   1   9    0.16    0.33
   8   1   9   -0.03    0.32
   8   1   9   -0.13    0.35
   8   1   9   -0.21    0.33
  -8  -1  -9    0.13    0.35
  -8  -1  -9    0.09    0.36
  -8  -1  -9    0.25    0.40
  -8  -1  -9   -0.64    0.29
   7   1   9    5.85    0.58
   7   1   9    5.12    0.48
   7   1   9    5.81    0.46
   7   1   9    6.32    0.53
  -7  -1  -9    6.20    0.55
  -7  -1  -9    6.54    0.59
  -7  -1  -9    6.52    0.67
  -7  -1  -9    6.86    0.51
   6   1   9    3.14    0.34
   6   1   9    2.61    0.29
   6   1   9    2.99    0.37
   6   1   9    2.39    0.34
  -6  -1  -9    3.09    0.33
  -6  -1  -9    2.94    0.41
  -6  -1  -9    2.70    0.31
  -6  -1  -9    2.43    0.34
   5   1   9    1.29    0.26
   5   1   9    1.21    0.17
   5   1   9    1.36    0.22
   5   1   9    1.18    0.29
  -5  -1  -9    1.11    0.29
  -5  -1  -9    1.26    0.27
  -5  -1  -9    0.84    0.21
  -5  -1  -9    1.05    0.19
   4   1   9    0.25    0.22
   4   1   9    0.36    0.21
   4   1   9    0.48    0.19
  -4  -1  -9    0.43    0.19
  -4  -1  -9    0.27    0.16
  -4  -1  -9    0.19    0.24
  -4  -1  -9   -0.08    0.15
   3   1   9    8.12    0.46
   3   1   9    8.03    0.44
   3   1   9    8.91    0.41
  -3  -1  -9    8.48    0.45
  -3  -1  -9    8.34    0.46
  -3  -1  -9    8.51    0.47
  -3  -1  -9    7.83    0.36
   2   1   9    5.78    0.31
   2   1   9    5.71    0.39
   2   1   9    5.60    0.42
  -2  -1  -9    5.65    0.40
  -2  -1  -9    5.39    0.41
  -2  -1  -9    5.72    0.40
  -2  -1  -9    5.32    0.32
   1   1   9    7.37    0.46
  -1  -1  -9    7.59    0.35
  -1  -1  -9    7.91    0.46
  -1  -1  -9    7.52    0.34
  -1  -1  -9    7.85    0.50
   0   1   9    3.72    0.35
   0   1   9    4.28    0.43
   0  -1  -9    4.11    0.29
   0  -1  -9    4.21    0.46
   0  -1  -9    4.25    0.41
   0  -1  -9    4.51    0.34
  -1   1   9   13.65    0.58
   1  -1  -9   13.72    0.46
   1  -1  -9   13.56    0.55
   1  -1  -9   13.83    0.43
   1  -1  -9   12.92    0.67
   2  -1  -9    0.18    0.18
   2  -1  -9   -0.28    0.31
   2  -1  -9   -0.10    0.23
   3  -1  -9    8.00    0.76
   9   2   9   -0.08    0.42
   9   2   9    0.81    0.44
   9   2   9    0.31    0.45
   9   2   9    0.67    0.40
  -9  -2  -9    0.59    0.44
  -9  -2  -9   -0.10    0.39
  -9  -2  -9    0.96    0.49
   8   2   9   -0.45    0.35
   8   2   9   -0.51    0.31
   8   2   9    0.09    0.27
   8   2   9    0.19    0.35
  -8  -2  -9   -0.63    0.36
  -8  -2  -9   -0.60    0.33
  -8  -2  -9   -0.70    0.28
   7   2   9    9.10    0.46
   7   2   9    9.05    0.66
   7   2   9    9.06    0.62
   7   2   9    8.93    0.56
  -7  -2  -9    8.34    0.55
  -7  -2  -9    8.67    0.67
  -7  -2  -9    9.46    0.53
   6   2   9    0.10    0.26
   6   2   9    0.24    0.16
   6   2   9   -0.15    0.26
   6   2   9   -0.17    0.19
  -6  -2  -9    0.21    0.23
  -6  -2  -9   -0.22    0.27
  -6  -2  -9    0.12    0.18
  -6  -2  -9    0.15    0.20
   5   2   9    1.23    0.26
   5   2   9    1.49    0.28
   5   2   9    1.56    0.25
  -5  -2  -9    1.11    0.27
  -5  -2  -9    1.00    0.21
  -5  -2  -9    1.25    0.20
  -5  -2  -9    1.71    0.31
   4   2   9    7.83    0.43
   4   2   9    8.59    0.46
   4   2   9    8.50    0.48
  -4  -2  -9    9.29    0.52
  -4  -2  -9    7.79    0.47
  -4  -2  -9    7.16    0.42
  -4  -2  -9    8.72    0.38
   3   2   9    0.70    0.21
   3   2   9    0.29    0.20
   3   2   9    0.37    0.20
  -3  -2  -9    0.36    0.19
  -3  -2  -9    0.43    0.23
  -3  -2  -9    0.47    0.19
  -3  -2  -9    0.39    0.16
   2   2   9   14.54    0.59
   2   2   9   15.52    0.47
  -2  -2  -9   15.02    0.57
  -2  -2  -9   13.95    0.60
  -2  -2  -9   14.42    0.46
   1   2   9    0.85    0.20
   1   2   9    0.83    0.25
  -1  -2  -9    0.88    0.18
  -1  -2  -9    1.15    0.25
  -1  -2  -9    0.63    0.21
  -1  -2  -9    0.97    0.19
   0   2   9   16.64    0.63
   0  -2  -9   15.76    0.59
   0  -2  -9   17.16    0.71
   0  -2  -9   15.83    0.44
   0  -2  -9   16.35    0.45
   1  -2  -9    5.24    0.57
   1  -2  -9    5.95    0.46
   2  -2  -9    7.37    0.50
   2  -2  -9    6.91    0.69
   3  -2  -9    3.87    0.34
   3  -2  -9    3.67    0.51
 -10  -3  -9    1.02    0.57
   9   3   9    0.75    0.47
   9   3   9   -0.06    0.42
   9   3   9    0.84    0.35
   9   3   9    0.84    0.40
  -9  -3  -9    0.77    0.47
  -9  -3  -9    0.32    0.38
  -9  -3  -9    0.77    0.42
   8   3   9   11.34    0.70
   8   3   9   11.07    0.55
   8   3   9   11.28    0.70
   8   3   9   12.61    0.81
  -8  -3  -9   11.61    0.66
  -8  -3  -9   10.44    0.79
  -8  -3  -9   11.03    0.66
   7   3   9    4.08    0.34
   7   3   9    4.74    0.48
   7   3   9    4.31    0.40
   7   3   9    3.68    0.42
  -7  -3  -9    4.98    0.48
  -7  -3  -9    4.38    0.45
  -7  -3  -9    4.46    0.45
   6   3   9    0.42    0.28
   6   3   9    0.55    0.28
   6   3   9    0.40    0.20
  -6  -3  -9    0.43    0.30
  -6  -3  -9    0.74    0.19
  -6  -3  -9    0.29    0.23
   5   3   9   14.55    0.58
   5   3   9   13.87    0.60
   5   3   9   13.01    0.59
  -5  -3  -9   14.72    0.51
  -5  -3  -9   13.04    0.54
  -5  -3  -9   13.74    0.62
   4   3   9    0.81    0.24
   4   3   9    1.16    0.26
   4   3   9    0.79    0.21
  -4  -3  -9    1.02    0.18
  -4  -3  -9    0.62    0.27
  -4  -3  -9    0.91    0.21
  -4  -3  -9    1.08    0.23
   3   3   9   20.02    0.60
   3   3   9   21.10    0.69
   3   3   9   21.50    0.64
  -3  -3  -9   21.89    0.64
  -3  -3  -9   21.29    0.73
  -3  -3  -9   21.16    0.69
  -3  -3  -9   20.51    0.57
   2   3   9    6.65    0.39
   2   3   9    6.39    0.46
  -2  -3  -9    5.78    0.36
  -2  -3  -9    6.39    0.46
  -2  -3  -9    6.72    0.33
  -2  -3  -9    6.89    0.48
   1   3   9    3.60    0.35
   1   3   9    3.56    0.28
  -1  -3  -9    3.13    0.27
  -1  -3  -9    3.43    0.28
  -1  -3  -9    3.43    0.32
  -1  -3  -9    3.69    0.36
  -1  -3  -9    4.20    0.47
   0  -3  -9   10.67    0.64
   0  -3  -9   11.04    0.43
   0  -3  -9   10.98    0.46
   0  -3  -9   10.14    0.54
   1  -3  -9    1.60    0.30
   1  -3  -9    1.09    0.23
   1  -3  -9    0.98    0.34
   1  -3  -9    1.37    0.31
   2  -3  -9    4.82    0.49
   2  -3  -9    4.62    0.43
   2  -3  -9    4.80    0.41
   2  -3  -9    4.84    0.46
   3  -3  -9   -0.28    0.31
   3  -3  -9   -0.33    0.30
   3  -3  -9    0.29    0.45
   3  -3  -9    0.11    0.43
   9   4   9    4.93    0.44
   9   4   9    5.27    0.62
   9   4   9    4.74    0.55
   9   4   9    4.90    0.53
  -9  -4  -9    5.40    0.63
  -9  -4  -9    8.00    0.72
  -9  -4  -9    5.53    0.53
   8   4   9    7.71    0.77
   8   4   9    8.89    0.68
   8   4   9    8.88    0.67
   8   4   9    9.83    0.49
  -8  -4  -9   10.46    0.63
  -8  -4  -9    8.92    0.63
  -8  -4  -9    9.83    0.81
   7   4   9    0.88    0.32
   7   4   9   -0.16    0.26
   7   4   9    0.59    0.34
  -7  -4  -9    0.89    0.38
  -7  -4  -9    0.18    0.23
  -7  -4  -9    0.81    0.28
   6   4   9   17.00    0.72
   6   4   9   15.64    0.70
   6   4   9   17.10    0.62
  -6  -4  -9   17.70    0.75
  -6  -4  -9   16.72    0.63
  -6  -4  -9   15.91    0.58
   5   4   9    0.26    0.21
   5   4   9    0.02    0.23
   5   4   9    0.23    0.26
  -5  -4  -9    0.37    0.29
  -5  -4  -9    0.39    0.20
  -5  -4  -9   -0.10    0.17
   4   4   9   12.83    0.54
   4   4   9   12.24    0.59
   4   4   9   11.87    0.51
  -4  -4  -9   12.51    0.47
  -4  -4  -9   12.60    0.56
  -4  -4  -9   12.57    0.56
   3   4   9   18.44    0.66
   3   4   9   16.88    0.62
  -3  -4  -9   16.94    0.58
  -3  -4  -9   17.01    0.51
  -3  -4  -9   16.54    0.68
  -3  -4  -9   17.30    0.65
   2   4   9    3.95    0.31
   2   4   9    4.22    0.40
  -2  -4  -9    4.68    0.40
  -2  -4  -9    3.94    0.32
  -2  -4  -9    4.32    0.44
  -2  -4  -9    4.07    0.30
  -2  -4  -9    3.79    0.40
  -1  -4  -9    6.98    0.55
  -1  -4  -9    7.09    0.44
  -1  -4  -9    7.34    0.52
   0  -4  -9    1.33    0.36
   0  -4  -9    2.03    0.27
   0  -4  -9    1.86    0.28
   0  -4  -9    1.70    0.33
   1  -4  -9   11.48    0.61
   1  -4  -9   11.62    0.56
   1  -4  -9   11.89    0.63
   1  -4  -9   10.88    0.72
   2  -4  -9    3.68    0.50
   2  -4  -9    4.64    0.52
   2  -4  -9    4.39    0.43
   2  -4  -9    4.01    0.41
   9   5   9   -0.03    0.43
   9   5   9    0.11    0.42
   9   5   9    0.25    0.31
   9   5   9   -0.24    0.50
  -9  -5  -9   -0.26    0.39
  -9  -5  -9    0.45    0.53
   8   5   9    0.88    0.33
   8   5   9    0.73    0.37
   8   5   9    1.31    0.45
   8   5   9    0.70    0.23
  -8  -5  -9    0.83    0.45
  -8  -5  -9    0.22    0.32
   7   5   9    1.68    0.38
   7   5   9    1.67    0.42
   7   5   9    1.72    0.31
  -7  -5  -9    2.19    0.32
  -7  -5  -9    2.26    0.43
   6   5   9    0.36    0.32
   6   5   9    0.91    0.32
   6   5   9    0.78    0.22
  -6  -5  -9    0.85    0.23
  -6  -5  -9    0.76    0.23
  -6  -5  -9    0.58    0.32
   5   5   9    1.14    0.28
   5   5   9    1.04    0.25
   5   5   9    0.91    0.31
  -5  -5  -9    0.73    0.30
  -5  -5  -9    0.77    0.21
  -5  -5  -9    0.86    0.24
   4   5   9    3.06    0.30
   4   5   9    3.50    0.38
  -4  -5  -9    3.56    0.33
  -4  -5  -9    3.91    0.34
  -4  -5  -9    3.84    0.40
   3   5   9    0.42    0.25
   3   5   9    0.21    0.22
  -3  -5  -9    0.26    0.24
  -3  -5  -9    0.44    0.20
  -3  -5  -9    0.42    0.23
  -3  -5  -9    0.17    0.19
  -3  -5  -9    0.13    0.23
  -2  -5  -9    7.45    0.49
  -2  -5  -9    6.80    0.52
  -2  -5  -9    6.70    0.55
  -2  -5  -9    6.50    0.32
  -2  -5  -9    7.37    0.34
  -1  -5  -9   11.10    0.60
  -1  -5  -9   10.74    0.42
  -1  -5  -9   11.72    0.69
  -1  -5  -9   11.74    0.56
   0  -5  -9    0.68    0.30
   0  -5  -9    0.28    0.32
   0  -5  -9    0.25    0.30
   0  -5  -9    0.30    0.27
   1  -5  -9    8.54    0.61
   1  -5  -9   10.42    0.67
   1  -5  -9    8.57    0.75
   1  -5  -9    8.98    0.65
   9   6   9    5.06    0.65
   9   6   9    3.50    0.52
   9   6   9    3.95    0.39
  -9  -6  -9    4.94    0.67
  -9  -6  -9    4.35    0.50
   8   6   9    0.42    0.45
   8   6   9    0.09    0.39
  -8  -6  -9    0.55    0.32
  -8  -6  -9    0.16    0.45
   7   6   9    7.86    0.71
   7   6   9    7.94    0.69
  -7  -6  -9    7.54    0.55
  -7  -6  -9    7.25    0.72
   6   6   9    5.79    0.61
   6   6   9    5.14    0.51
  -6  -6  -9    5.04    0.45
  -6  -6  -9    5.43    0.48
   5   6   9    5.07    0.57
   5   6   9    5.28    0.51
  -5  -6  -9    4.73    0.43
  -5  -6  -9    4.65    0.40
  -5  -6  -9    4.41    0.44
   4   6   9    2.99    0.39
  -4  -6  -9    2.67    0.30
  -4  -6  -9    3.40    0.30
  -4  -6  -9    2.91    0.37
   3   6   9    0.01    0.20
   3   6   9    0.11    0.30
  -3  -6  -9   -0.09    0.27
  -3  -6  -9   -0.28    0.24
  -3  -6  -9   -0.02    0.19
  -3  -6  -9   -0.25    0.25
  -3  -6  -9   -0.04    0.21
  -2  -6  -9    2.46    0.36
  -2  -6  -9    3.17    0.39
  -2  -6  -9    3.72    0.40
  -1  -6  -9    4.54    0.47
  -1  -6  -9    3.32    0.41
  -1  -6  -9    3.74    0.42
  -1  -6  -9    4.77    0.41
   0  -6  -9    5.21    0.53
   0  -6  -9    5.46    0.60
   0  -6  -9    3.94    0.47
   0  -6  -9    4.39    0.46
   1  -6  -9    4.57    0.57
   1  -6  -9    5.88    0.53
   1  -6  -9    5.49    0.51
   1  -6  -9    4.63    0.48
   9   7   9   -0.17    0.46
   9   7   9    0.27    0.32
   9   7   9   -0.39    0.56
   9   7   9    0.73    0.37
  -9  -7  -9   -0.26    0.59
  -9  -7  -9    0.28    0.43
   8   7   9    3.42    0.51
   8   7   9    2.12    0.52
  -8  -7  -9    2.00    0.53
  -8  -7  -9    1.93    0.39
   7   7   9    5.30    0.53
   7   7   9    6.06    0.55
  -7  -7  -9    6.92    0.56
  -7  -7  -9    5.28    0.55
   6   7   9    0.77    0.36
   6   7   9    1.27    0.36
  -6  -7  -9    1.30    0.29
  -6  -7  -9    1.06    0.39
   5   7   9    5.29    0.55
   5   7   9    5.40    0.51
  -5  -7  -9    5.47    0.57
  -5  -7  -9    5.90    0.49
  -5  -7  -9    5.49    0.48
   4   7   9    0.42    0.34
  -4  -7  -9    0.30    0.26
  -4  -7  -9    0.52    0.24
  -4  -7  -9    0.34    0.31
  -4  -7  -9    0.52    0.26
   3   7   9    1.20    0.38
   3   7   9    1.33    0.23
  -3  -7  -9    1.14    0.30
  -3  -7  -9    1.79    0.25
  -3  -7  -9    1.88    0.23
  -3  -7  -9    2.00    0.35
  -2  -7  -9    3.12    0.42
  -2  -7  -9    2.60    0.40
  -2  -7  -9    2.49    0.41
  -1  -7  -9    1.18    0.40
  -1  -7  -9    1.37    0.30
  -1  -7  -9    1.44    0.40
  -1  -7  -9    1.82    0.40
   0  -7  -9    4.59    0.52
   0  -7  -9    4.78    0.54
   0  -7  -9    4.12    0.53
   0  -7  -9    4.22    0.45
   8   8   9    8.37    0.85
   8   8   9    7.66    0.69
  -8  -8  -9    7.78    0.72
  -8  -8  -9    7.64    0.71
   7   8   9    0.09    0.42
   7   8   9    0.31    0.44
  -7  -8  -9    0.12    0.32
  -7  -8  -9   -0.08    0.45
   6   8   9    8.88    0.77
   6   8   9   11.41    0.73
  -6  -8  -9   10.32    0.75
  -6  -8  -9    9.18    0.61
  -6  -8  -9    9.92    0.75
   5   8   9    5.07    0.44
   5   8   9    5.88    0.57
  -5  -8  -9    6.39    0.67
  -5  -8  -9    5.05    0.41
  -5  -8  -9    6.08    0.61
   4   8   9    1.74    0.32
   4   8   9    1.87    0.42
  -4  -8  -9    1.62    0.41
  -4  -8  -9    2.50    0.33
  -4  -8  -9    1.87    0.35
  -4  -8  -9    1.71    0.30
  -3  -8  -9   -0.36    0.31
  -3  -8  -9    0.32    0.37
  -3  -8  -9   -0.03    0.23
  -2  -8  -9    0.20    0.39
  -2  -8  -9    0.33    0.41
  -2  -8  -9    0.65    0.39
   7   9   9   -0.27    0.50
   7   9   9   -0.06    0.48
  -7  -9  -9   -0.05    0.51
  -7  -9  -9   -0.69    0.37
   6   9   9   -0.54    0.47
   6   9   9    0.48    0.42
  -6  -9  -9    0.44    0.44
  -6  -9  -9    0.08    0.44
  -6  -9  -9    0.56    0.36
   5   9   9    7.91    0.85
  -5  -9  -9    8.00    0.64
  -5  -9  -9    8.39    0.78
   4   9   9    5.62    0.55
   4   9   9    4.34    0.61
   4   9   9    4.93    0.47
  -4  -9  -9    5.26    0.52
  -4  -9  -9    6.18    0.55
  -4  -9  -9    4.93    0.56
  -4  -9  -9    4.97    0.40
  -3  -9  -9    2.83    0.51
  -3  -9  -9    1.85    0.46
   3  -8  10    0.70    0.54
   3  -8  10    1.11    0.55
   3  -8  10    0.78    0.44
   3  -8  10    0.88    0.53
  -3   8 -10    1.03    0.57
  -3   8 -10    1.34    0.54
  -3   8 -10    1.76    0.52
  -3   8 -10    1.29    0.56
   2  -8  10    4.17    0.58
   2  -8  10    2.65    0.47
   2  -8  10    3.82    0.58
   2  -8  10    4.10    0.62
   2  -8  10    3.52    0.50
  -2   8 -10    3.93    0.57
  -2   8 -10    4.07    0.58
  -2   8 -10    4.06    0.60
  -2   8 -10    4.37    0.59
   1  -8  10    8.83    0.83
   1  -8  10    8.83    0.72
   1  -8  10    8.56    0.92
   1  -8  10    9.86    0.91
   1  -8  10   10.79    0.93
  -1   8 -10   10.35    0.91
  -1   8 -10    8.46    0.81
  -1   8 -10    8.87    0.92
  -1   8 -10    8.85    0.87
   0  -8  10    1.21    0.51
   0  -8  10    0.78    0.48
   0  -8  10    1.49    0.55
   0  -8  10    0.87    0.43
   0  -8  10    1.03    0.36
   0   8 -10    0.43    0.46
   0   8 -10    1.21    0.51
   0   8 -10    0.87    0.45
   0   8 -10    0.94    0.48
  -1  -8  10    3.30    0.55
  -1  -8  10    1.88    0.52
  -1  -8  10    1.71    0.62
  -1  -8  10    1.94    0.44
  -1  -8  10    2.48    0.35
   1   8 -10    2.34    0.60
   1   8 -10    1.96    0.45
   1   8 -10    1.89    0.44
   1   8 -10    2.13    0.55
   4  -7  10    2.50    0.41
   4  -7  10    2.76    0.55
   4  -7  10    2.96    0.54
   4  -7  10    3.05    0.56
  -4   7 -10    2.21    0.54
  -4   7 -10    2.64    0.51
  -4   7 -10    2.47    0.58
  -4   7 -10    2.08    0.56
   3  -7  10    1.23    0.45
   3  -7  10    0.72    0.46
   3  -7  10    1.46    0.38
   3  -7  10    0.36    0.35
   3  -7  10    1.08    0.47
  -3   7 -10    0.78    0.46
  -3   7 -10    0.85    0.44
  -3   7 -10    1.13    0.48
  -3   7 -10    0.34    0.44
   2  -7  10    0.14    0.32
   2  -7  10    0.27    0.37
   2  -7  10    0.58    0.44
   2  -7  10    0.27    0.40
   2  -7  10    0.05    0.35
  -2   7 -10    0.34    0.44
  -2   7 -10   -0.04    0.41
  -2   7 -10    0.30    0.39
  -2   7 -10   -0.06    0.39
   1  -7  10    1.85    0.51
   1  -7  10    2.24    0.42
   1  -7  10    2.65    0.37
   1  -7  10    1.79    0.40
   1  -7  10    2.23    0.47
  -1   7 -10    1.76    0.47
  -1   7 -10    2.08    0.41
  -1   7 -10    3.10    0.51
  -1   7 -10    1.63    0.42
   0  -7  10    0.57    0.42
   0  -7  10    0.39    0.40
   0  -7  10    0.41    0.34
   0  -7  10    0.84    0.27
   0  -7  10    1.25    0.47
   0   7 -10    0.77    0.46
   0   7 -10   -0.10    0.42
   0   7 -10    0.23    0.35
   0   7 -10    0.84    0.35
  -1  -7  10    5.25    0.55
  -1  -7  10    4.30    0.61
  -1  -7  10    4.15    0.41
  -1  -7  10    4.26    0.47
   1   7 -10    3.90    0.55
   1   7 -10    4.60    0.44
   1   7 -10    5.41    0.53
   1   7 -10    6.25    0.65
  -2  -7  10   -0.35    0.47
  -2  -7  10   -0.88    0.33
  -2  -7  10    0.96    0.41
   2   7 -10    0.35    0.50
   2   7 -10    0.25    0.51
   2   7 -10    1.21    0.37
   2   7 -10   -0.43    0.37
   5  -6  10    2.02    0.39
   5  -6  10    2.29    0.51
   5  -6  10    2.67    0.51
   5  -6  10    2.35    0.53
  -5   6 -10    1.40    0.47
  -5   6 -10    2.12    0.55
  -5   6 -10    2.29    0.49
  -5   6 -10    2.75    0.56
   4  -6  10    2.09    0.48
   4  -6  10    2.62    0.47
   4  -6  10    2.20    0.36
   4  -6  10    1.93    0.48
  -4   6 -10    2.26    0.51
  -4   6 -10    2.33    0.46
  -4   6 -10    2.53    0.47
  -4   6 -10    1.63    0.46
   3  -6  10    1.35    0.41
   3  -6  10    1.08    0.40
   3  -6  10    0.90    0.38
   3  -6  10    1.19    0.29
  -3   6 -10    1.11    0.44
  -3   6 -10    1.34    0.44
  -3   6 -10    1.11    0.40
  -3   6 -10    1.17    0.40
   2  -6  10   11.53    0.70
   2  -6  10   11.20    0.80
   2  -6  10   11.13    0.78
   2  -6  10   11.36    0.66
   2  -6  10   10.56    0.58
  -2   6 -10   10.93    0.74
  -2   6 -10   10.27    0.70
  -2   6 -10   11.71    0.79
  -2   6 -10   11.37    0.78
   1  -6  10    0.57    0.27
   1  -6  10    0.35    0.35
   1  -6  10    0.18    0.29
   1  -6  10    0.34    0.39
   1  -6  10    0.47    0.35
  -1   6 -10    0.66    0.39
  -1   6 -10   -0.16    0.35
  -1   6 -10    0.87    0.30
  -1   6 -10   -0.12    0.35
   0  -6  10    8.78    0.66
   0  -6  10    8.51    0.70
   0  -6  10    7.84    0.56
   0  -6  10    8.44    0.75
   0   6 -10    8.15    0.57
   0   6 -10    8.35    0.72
   0   6 -10    8.33    0.75
   0   6 -10    6.13    0.65
  -1  -6  10    0.56    0.33
  -1  -6  10    0.92    0.27
  -1  -6  10    0.81    0.38
  -1  -6  10    0.80    0.45
   1   6 -10    0.42    0.42
   1   6 -10    0.89    0.31
   1   6 -10    0.87    0.46
   1   6 -10    0.33    0.29
  -2  -6  10    6.52    0.55
  -2  -6  10    8.89    0.72
  -2  -6  10    8.12    0.79
   2   6 -10    8.15    0.63
   2   6 -10    8.84    0.56
   2   6 -10    9.09    0.89
   2   6 -10    8.20    0.89
  -3  -6  10    4.44    0.52
  -3  -6  10    4.74    0.42
  -3  -6  10    3.52    0.48
   3   6 -10    3.11    0.41
   3   6 -10    4.47    0.62
   3   6 -10    3.65    0.46
   3   6 -10    5.66    0.68
   6  -5  10    1.00    0.45
   6  -5  10    1.05    0.49
   6  -5  10    1.23    0.49
  -6   5 -10    0.69    0.49
  -6   5 -10    0.76    0.45
  -6   5 -10    1.34    0.43
   5  -5  10    6.65    0.58
   5  -5  10    4.86    0.55
   5  -5  10    5.43    0.57
  -5   5 -10    4.78    0.51
  -5   5 -10    5.58    0.57
  -5   5 -10    4.70    0.56
  -5   5 -10    4.46    0.56
   4  -5  10    0.35    0.38
   4  -5  10    0.12    0.36
   4  -5  10    0.27    0.28
   4  -5  10   -0.05    0.33
  -4   5 -10   -0.49    0.37
  -4   5 -10   -0.12    0.38
  -4   5 -10   -0.50    0.35
  -4   5 -10   -0.07    0.37
   3  -5  10    7.58    0.66
   3  -5  10    6.90    0.53
   3  -5  10    6.82    0.61
   3  -5  10    7.13    0.70
  -3   5 -10    7.08    0.61
  -3   5 -10    7.97    0.73
  -3   5 -10    5.38    0.50
  -3   5 -10    8.02    0.64
   2  -5  10    3.41    0.44
   2  -5  10    3.73    0.40
   2  -5  10    3.90    0.39
   2  -5  10    3.39    0.39
   2  -5  10    4.17    0.48
  -2   5 -10    3.07    0.43
  -2   5 -10    3.79    0.43
  -2   5 -10    3.25    0.40
  -2   5 -10    3.68    0.38
   1  -5  10    3.50    0.40
   1  -5  10    2.88    0.39
   1  -5  10    2.61    0.42
   1  -5  10    3.31    0.36
   1  -5  10    3.04    0.27
  -1   5 -10    3.61    0.43
  -1   5 -10    2.47    0.39
  -1   5 -10    3.34    0.44
  -1   5 -10    3.48    0.34
   0  -5  10   10.45    0.63
   0  -5  10   10.45    0.52
   0  -5  10   10.34    0.73
   0  -5  10   10.67    0.68
   0   5 -10    9.85    0.51
   0   5 -10    9.83    0.73
   0   5 -10   10.11    0.69
   0   5 -10    9.29    0.63
  -1  -5  10    0.75    0.36
  -1  -5  10    0.70    0.38
  -1  -5  10    0.60    0.24
  -1  -5  10    0.94    0.30
   1   5 -10    0.87    0.37
   1   5 -10    0.75    0.30
   1   5 -10    0.53    0.42
   1   5 -10    0.65    0.26
  -2  -5  10    7.22    0.64
  -2  -5  10    7.01    0.49
  -2  -5  10    6.71    0.67
   2   5 -10    8.25    0.53
   2   5 -10    7.87    0.62
   2   5 -10    7.84    0.78
   2   5 -10    9.12    0.81
  -3  -5  10    3.47    0.46
  -3  -5  10    3.50    0.38
  -3  -5  10    3.18    0.45
   3   5 -10    3.64    0.58
   3   5 -10    3.29    0.47
   3   5 -10    3.28    0.54
   3   5 -10    2.90    0.37
   7  -4  10    0.99    0.52
   7  -4  10    1.37    0.49
   7  -4  10    1.32    0.52
  -7   4 -10    1.28    0.57
  -7   4 -10    0.88    0.45
  -7   4 -10    0.73    0.48
   6  -4  10    3.96    0.44
   6  -4  10    4.14    0.52
   6  -4  10    4.54    0.52
  -6   4 -10    3.01    0.50
  -6   4 -10    3.28    0.45
  -6   4 -10    3.33    0.49
   5  -4  10    1.67    0.31
   5  -4  10    1.88    0.41
   5  -4  10    2.10    0.41
  -5   4 -10    1.64    0.41
  -5   4 -10    1.77    0.42
  -5   4 -10    1.74    0.38
  -5   4 -10    2.10    0.42
   4  -4  10    0.91    0.32
   4  -4  10    0.68    0.34
   4  -4  10    0.54    0.25
   4  -4  10    0.73    0.30
  -4   4 -10    0.80    0.34
  -4   4 -10    0.19    0.31
  -4   4 -10    0.74    0.38
  -4   4 -10    0.37    0.31
   3  -4  10    1.51    0.38
   3  -4  10    1.64    0.30
   3  -4  10    1.63    0.31
  -3   4 -10    2.24    0.34
  -3   4 -10    1.73    0.35
  -3   4 -10    1.39    0.38
  -3   4 -10    1.99    0.36
   2  -4  10    1.68    0.23
   2  -4  10    1.28    0.33
   2  -4  10    1.54    0.36
   2  -4  10    1.20    0.26
   2  -4  10    1.31    0.30
  -2   4 -10    1.29    0.36
  -2   4 -10    1.33    0.34
  -2   4 -10    1.24    0.26
  -2   4 -10    1.10    0.32
   1  -4  10   23.33    0.74
   1  -4  10   24.78    0.82
   1  -4  10   25.47    0.87
   1  -4  10   24.81    0.87
  -1   4 -10   23.57    0.84
  -1   4 -10   23.35    0.71
  -1   4 -10   25.16    0.83
  -1   4 -10   24.78    0.88
   0  -4  10    6.62    0.57
   0  -4  10    7.39    0.45
   0  -4  10    5.65    0.50
   0  -4  10    6.88    0.62
   0   4 -10    6.72    0.54
   0   4 -10    6.66    0.60
   0   4 -10    6.85    0.62
   0   4 -10    7.20    0.45
  -1  -4  10    1.30    0.28
  -1  -4  10    1.47    0.40
  -1  -4  10    1.29    0.35
  -1  -4  10    1.08    0.24
   1   4 -10    1.51    0.38
   1   4 -10    0.91    0.28
   1   4 -10    1.52    0.41
   1   4 -10    1.78    0.25
  -2  -4  10    0.89    0.25
  -2  -4  10    0.07    0.31
  -2  -4  10    0.32    0.35
   2   4 -10    1.10    0.27
   2   4 -10    0.93    0.45
   2   4 -10    1.50    0.41
   2   4 -10    0.67    0.32
  -3  -4  10    7.58    0.57
  -3  -4  10    8.55    0.80
  -3  -4  10    8.55    0.67
   3   4 -10   10.77    0.83
   3   4 -10    9.01    0.75
   3   4 -10    7.98    0.59
   7  -3  10    0.70    0.46
   7  -3  10   -0.24    0.38
   7  -3  10   -0.29    0.43
  -7   3 -10   -0.18    0.45
  -7   3 -10   -0.03    0.38
  -7   3 -10    0.52    0.46
   6  -3  10    4.34    0.52
   6  -3  10    2.94    0.34
   6  -3  10    4.53    0.50
  -6   3 -10    4.51    0.51
  -6   3 -10    4.24    0.46
  -6   3 -10    5.04    0.53
   5  -3  10    0.42    0.30
   5  -3  10    0.30    0.34
   5  -3  10   -0.11    0.24
  -5   3 -10    0.11    0.29
  -5   3 -10    0.62    0.36
  -5   3 -10    0.02    0.31
  -5   3 -10    0.44    0.33
   4  -3  10    2.86    0.29
   4  -3  10    2.32    0.34
   4  -3  10    3.01    0.37
   4  -3  10    2.60    0.40
  -4   3 -10    2.57    0.38
  -4   3 -10    3.18    0.43
  -4   3 -10    2.93    0.37
  -4   3 -10    2.28    0.30
   3  -3  10    2.10    0.28
   3  -3  10    1.54    0.33
   3  -3  10    1.43    0.28
  -3   3 -10    2.32    0.33
  -3   3 -10    1.95    0.38
  -3   3 -10    1.85    0.32
  -3   3 -10    2.05    0.26
   2  -3  10    1.15    0.27
   2  -3  10    0.67    0.25
   2  -3  10    1.21    0.33
   2  -3  10    0.59    0.21
  -2   3 -10    1.04    0.34
  -2   3 -10    1.39    0.22
  -2   3 -10    1.25    0.30
  -2   3 -10    1.03    0.30
   1  -3  10    8.76    0.59
   1  -3  10    8.40    0.56
   1  -3  10    8.50    0.52
   1  -3  10    8.44    0.45
  -1   3 -10    8.51    0.55
  -1   3 -10    9.10    0.61
  -1   3 -10    8.71    0.45
  -1   3 -10    8.41    0.55
   0  -3  10    0.56    0.21
   0  -3  10    0.74    0.25
   0  -3  10    0.45    0.32
   0  -3  10    0.46    0.30
   0   3 -10    0.65    0.30
   0   3 -10    0.82    0.20
   0   3 -10    0.77    0.24
   0   3 -10    0.99    0.31
  -1  -3  10    9.73    0.68
  -1  -3  10   11.35    0.51
  -1  -3  10    9.19    0.60
  -1  -3  10   10.73    0.59
   1   3 -10   11.99    0.66
   1   3 -10   10.22    0.49
   1   3 -10   10.09    0.68
   1   3 -10   10.33    0.61
  -2  -3  10    3.28    0.39
  -2  -3  10    3.30    0.32
  -2  -3  10    2.82    0.39
   2   3 -10    2.49    0.37
   2   3 -10    3.48    0.35
   2   3 -10    2.96    0.44
  -3  -3  10    2.90    0.36
  -3  -3  10    3.58    0.51
  -3  -3  10    3.29    0.40
   3   3 -10    3.39    0.50
   3   3 -10    3.14    0.36
   3   3 -10    2.82    0.47
   8  -2  10    0.58    0.48
   8  -2  10    0.58    0.49
   8  -2  10    0.21    0.45
  -8   2 -10    1.36    0.52
  -8   2 -10    0.08    0.41
  -8   2 -10    1.27    0.54
   7  -2  10    3.14    0.42
   7  -2  10    3.06    0.51
   7  -2  10    3.27    0.46
  -7   2 -10    3.13    0.44
  -7   2 -10    3.13    0.49
  -7   2 -10    3.44    0.50
   6  -2  10    1.12    0.41
   6  -2  10    0.24    0.28
   6  -2  10    0.56    0.33
  -6   2 -10    0.66    0.34
  -6   2 -10    0.56    0.33
  -6   2 -10    0.14    0.38
   5  -2  10    4.54    0.39
   5  -2  10    4.53    0.46
   5  -2  10    3.38    0.35
  -5   2 -10    4.85    0.49
  -5   2 -10    4.06    0.45
  -5   2 -10    4.91    0.56
   4  -2  10    3.48    0.40
   4  -2  10    3.07    0.29
  -4   2 -10    4.14    0.43
  -4   2 -10    4.13    0.42
  -4   2 -10    3.22    0.42
  -4   2 -10    3.44    0.32
   3  -2  10    0.03    0.28
   3  -2  10    0.24    0.20
   3  -2  10   -0.08    0.21
  -3   2 -10   -0.05    0.29
  -3   2 -10    0.07    0.18
  -3   2 -10    0.14    0.23
  -3   2 -10    0.21    0.24
   2  -2  10   15.98    0.68
   2  -2  10   14.25    0.63
   2  -2  10   15.55    0.56
  -2   2 -10   15.66    0.55
  -2   2 -10   15.82    0.69
  -2   2 -10   15.15    0.57
  -2   2 -10   14.02    0.64
   1  -2  10    1.40    0.24
   1  -2  10    1.62    0.29
   1  -2  10    1.80    0.33
   1  -2  10    1.21    0.23
  -1   2 -10    2.00    0.27
  -1   2 -10    1.71    0.30
  -1   2 -10    1.69    0.34
  -1   2 -10    1.41    0.21
   0  -2  10    3.48    0.36
   0  -2  10    4.79    0.51
   0  -2  10    4.04    0.39
   0  -2  10    4.50    0.38
   0   2 -10    4.22    0.40
   0   2 -10    5.59    0.37
   0   2 -10    4.71    0.51
   0   2 -10    4.11    0.46
  -1  -2  10   14.90    0.69
  -1  -2  10   14.18    0.65
  -1  -2  10   14.66    0.68
  -1  -2  10   14.35    0.55
   1   2 -10   14.79    0.70
   1   2 -10   14.36    0.55
   1   2 -10   14.39    0.66
   1   2 -10   14.08    0.69
  -2  -2  10    2.12    0.29
  -2  -2  10    1.99    0.35
  -2  -2  10    1.58    0.36
   2   2 -10    1.71    0.38
   2   2 -10    1.61    0.37
   2   2 -10    2.08    0.28
  -3  -2  10   11.33    0.61
  -3  -2  10   12.79    0.63
  -3  -2  10   10.69    0.90
   3   2 -10   13.04    0.84
   3   2 -10   12.33    0.65
   3   2 -10   13.15    0.75
   8  -1  10    1.15    0.48
   8  -1  10    0.86    0.43
   8  -1  10    0.33    0.43
  -8   1 -10    0.02    0.40
  -8   1 -10    0.86    0.49
  -8   1 -10   -0.56    0.44
   7  -1  10    0.74    0.40
   7  -1  10    1.55    0.33
   7  -1  10    1.86    0.38
  -7   1 -10    0.99    0.36
  -7   1 -10    1.67    0.46
  -7   1 -10    0.70    0.37
   6  -1  10    1.24    0.31
   6  -1  10    1.20    0.36
   6  -1  10    0.67    0.25
  -6   1 -10    0.74    0.34
  -6   1 -10    1.63    0.40
  -6   1 -10    1.71    0.32
   5  -1  10    7.06    0.46
   5  -1  10    7.87    0.48
   5  -1  10    8.15    0.63
  -5   1 -10    8.34    0.59
  -5   1 -10    8.27    0.50
  -5   1 -10    8.84    0.63
   4  -1  10    3.29    0.32
   4  -1  10    2.90    0.38
   4  -1  10    2.88    0.29
  -4   1 -10    3.43    0.38
  -4   1 -10    2.61    0.37
  -4   1 -10    2.83    0.27
  -4   1 -10    2.90    0.28
   3  -1  10   10.55    0.53
   3  -1  10    9.81    0.43
   3  -1  10    8.95    0.55
  -3   1 -10    9.77    0.59
  -3   1 -10    9.63    0.42
  -3   1 -10    9.67    0.44
  -3   1 -10   10.64    0.57
   2  -1  10    4.77    0.37
   2  -1  10    4.68    0.47
   2  -1  10    5.48    0.44
  -2   1 -10    4.68    0.41
  -2   1 -10    5.23    0.45
  -2   1 -10    4.93    0.34
  -2   1 -10    4.54    0.38
   1  -1  10    0.87    0.28
   1  -1  10    1.27    0.28
   1  -1  10    1.26    0.22
  -1   1 -10    1.14    0.24
  -1   1 -10    1.08    0.25
  -1   1 -10    1.04    0.19
  -1   1 -10    1.22    0.30
   0  -1  10    8.89    0.54
   0  -1  10    9.96    0.58
   0  -1  10   10.23    0.48
   0   1 -10   10.26    0.56
   0   1 -10    9.95    0.57
   0   1 -10   10.24    0.57
   0   1 -10    9.03    0.43
  -1  -1  10    0.03    0.29
  -1  -1  10    0.10    0.21
  -1  -1  10   -0.09    0.27
   1   1 -10   -0.09    0.27
   1   1 -10    0.27    0.27
   1   1 -10   -0.09    0.21
  -2  -1  10    4.05    0.39
  -2  -1  10    3.76    0.33
  -2  -1  10    3.67    0.46
   2   1 -10    3.90    0.46
   2   1 -10    4.19    0.39
   2   1 -10    4.85    0.45
  -3  -1  10    0.82    0.48
  -3  -1  10    0.69    0.29
   3   1 -10    1.53    0.33
   3   1 -10    0.08    0.43
   3   1 -10    0.39    0.32
   9   0  10    0.87    0.55
   9   0  10   -0.25    0.47
   9   0  10    0.64    0.54
  -9   0 -10   -1.00    0.53
  -9   0 -10    0.13    0.55
  -9   0 -10   -0.34    0.44
   8   0  10    1.21    0.40
   8   0  10    1.57    0.46
   8   0  10    1.81    0.40
  -8   0 -10    1.59    0.46
  -8   0 -10    2.13    0.51
  -8   0 -10    1.73    0.42
   7   0  10   -0.20    0.28
   7   0  10   -0.34    0.34
   7   0  10    0.26    0.30
  -7   0 -10    0.28    0.32
  -7   0 -10    0.68    0.42
  -7   0 -10    0.04    0.33
   6   0  10    8.62    0.49
   6   0  10    9.15    0.62
   6   0  10    9.31    0.66
   6   0  10    9.91    0.52
  -6   0 -10    9.76    0.73
  -6   0 -10    9.26    0.55
  -6   0 -10    9.32    0.65
  -6   0 -10    9.04    0.52
   5   0  10    1.45    0.30
   5   0  10    1.21    0.24
   5   0  10    1.08    0.32
  -5   0 -10    1.37    0.23
  -5   0 -10    1.25    0.30
  -5   0 -10    1.54    0.24
  -5   0 -10    0.94    0.30
   4   0  10    3.42    0.32
   4   0  10    2.83    0.30
   4   0  10    2.72    0.36
  -4   0 -10    3.37    0.36
  -4   0 -10    3.21    0.38
  -4   0 -10    3.26    0.34
  -4   0 -10    3.19    0.35
   3   0  10    5.61    0.37
   3   0  10    5.65    0.49
   3   0  10    5.44    0.43
  -3   0 -10    4.97    0.44
  -3   0 -10    5.31    0.44
  -3   0 -10    5.12    0.34
  -3   0 -10    5.03    0.50
   2   0  10    0.06    0.24
   2   0  10    0.16    0.24
  -2   0 -10    0.44    0.18
  -2   0 -10    0.17    0.25
  -2   0 -10    0.18    0.21
  -2   0 -10   -0.05    0.17
  -2   0 -10    0.24    0.19
   1   0  10    1.85    0.34
   1   0  10    2.03    0.24
   1   0  10    1.78    0.28
  -1   0 -10    2.21    0.30
  -1   0 -10    2.46    0.31
  -1   0 -10    1.77    0.29
  -1   0 -10    2.03    0.23
  -1   0 -10    2.32    0.25
   0   0  10    0.06    0.27
   0   0  10    0.04    0.21
   0   0 -10   -0.20    0.18
   0   0 -10   -0.54    0.23
   0   0 -10   -0.19    0.24
  -1   0  10    3.29    0.36
  -1   0  10    3.08    0.29
   1   0 -10    3.00    0.32
   1   0 -10    3.48    0.42
   1   0 -10    3.55    0.38
  -2   0  10    7.06    0.44
   2   0 -10    7.13    0.48
   2   0 -10    6.75    0.72
   2   0 -10    6.78    0.47
  -3   0  10    0.91    0.26
   3   0 -10    0.17    0.29
   3   0 -10    0.90    0.29
   3   0 -10    0.64    0.46
   9   1  10    1.20    0.51
   9   1  10    0.56    0.52
   9   1  10    2.17    0.47
   9   1  10    1.55    0.50
  -9  -1 -10    1.04    0.50
  -9  -1 -10    1.27    0.54
  -9  -1 -10    1.78    0.56
   8   1  10    4.62    0.47
   8   1  10    4.92    0.54
   8   1  10    4.00    0.50
   8   1  10    4.62    0.42
  -8  -1 -10    3.97    0.54
  -8  -1 -10    3.67    0.43
  -8  -1 -10    4.72    0.49
  -8  -1 -10    4.53    0.50
   7   1  10   -0.38    0.33
   7   1  10    0.26    0.27
   7   1  10    0.59    0.29
   7   1  10   -0.50    0.32
  -7  -1 -10    0.42    0.38
  -7  -1 -10    0.06    0.31
  -7  -1 -10   -0.23    0.26
  -7  -1 -10    0.15    0.29
   6   1  10    3.00    0.40
   6   1  10    2.45    0.25
   6   1  10    2.34    0.30
   6   1  10    2.60    0.37
  -6  -1 -10    2.40    0.31
  -6  -1 -10    2.46    0.30
  -6  -1 -10    2.81    0.42
  -6  -1 -10    3.36    0.42
   5   1  10    0.76    0.27
   5   1  10    1.18    0.23
   5   1  10    1.39    0.31
  -5  -1 -10    0.93    0.32
  -5  -1 -10    1.23    0.26
  -5  -1 -10    0.69    0.20
  -5  -1 -10    0.97    0.23
   4   1  10    1.74    0.25
   4   1  10    1.80    0.31
   4   1  10    1.72    0.28
  -4  -1 -10    1.49    0.20
  -4  -1 -10    1.17    0.22
  -4  -1 -10    1.35    0.32
  -4  -1 -10    1.44    0.27
   3   1  10    4.30    0.36
   3   1  10    3.38    0.34
   3   1  10    3.62    0.34
  -3  -1 -10    2.75    0.29
  -3  -1 -10    3.29    0.31
  -3  -1 -10    2.98    0.31
  -3  -1 -10    3.29    0.35
   2   1  10    6.88    0.50
   2   1  10    7.00    0.45
  -2  -1 -10    7.56    0.38
  -2  -1 -10    7.24    0.48
  -2  -1 -10    7.24    0.48
  -2  -1 -10    5.78    0.47
   1   1  10   10.29    0.57
  -1  -1 -10   10.47    0.43
  -1  -1 -10   10.52    0.41
  -1  -1 -10   10.50    0.54
  -1  -1 -10   11.27    0.60
   0   1  10    3.07    0.29
   0   1  10    2.27    0.34
   0  -1 -10    2.65    0.36
   0  -1 -10    2.59    0.34
   0  -1 -10    2.93    0.26
   0  -1 -10    2.85    0.28
  -1   1  10   18.27    0.72
   1  -1 -10   17.28    0.55
   1  -1 -10   17.13    0.52
   1  -1 -10   16.01    0.66
   1  -1 -10   17.63    0.81
   2  -1 -10    2.16    0.43
   3  -1 -10    3.84    0.57
   9   2  10    2.64    0.45
   9   2  10    2.03    0.51
   9   2  10    2.26    0.53
   9   2  10    1.45    0.55
  -9  -2 -10    2.55    0.57
  -9  -2 -10    2.94    0.55
  -9  -2 -10    2.73    0.52
  -9  -2 -10    2.31    0.52
   8   2  10    0.07    0.30
   8   2  10    0.33    0.39
   8   2  10    0.15    0.35
   8   2  10    0.33    0.42
  -8  -2 -10    0.28    0.35
  -8  -2 -10   -0.47    0.39
  -8  -2 -10   -0.87    0.29
  -8  -2 -10    0.00    0.38
   7   2  10    7.04    0.64
   7   2  10    7.20    0.41
   7   2  10    7.17    0.69
   7   2  10    8.13    0.56
  -7  -2 -10    6.25    0.52
  -7  -2 -10    6.84    0.72
  -7  -2 -10    8.46    0.52
  -7  -2 -10    7.39    0.67
   6   2  10    2.38    0.36
   6   2  10    2.97    0.29
   6   2  10    2.60    0.37
  -6  -2 -10    3.24    0.43
  -6  -2 -10    2.83    0.25
  -6  -2 -10    2.36    0.29
  -6  -2 -10    2.42    0.35
   5   2  10    5.04    0.52
   5   2  10    5.69    0.49
   5   2  10    4.23    0.42
  -5  -2 -10    5.66    0.59
  -5  -2 -10    4.27    0.39
  -5  -2 -10    6.49    0.37
  -5  -2 -10    4.44    0.48
   4   2  10   15.90    0.63
   4   2  10   16.78    0.62
   4   2  10   16.47    0.61
  -4  -2 -10   17.76    0.67
  -4  -2 -10   15.85    0.52
  -4  -2 -10   13.97    0.62
  -4  -2 -10   15.99    0.62
   3   2  10    2.39    0.28
   3   2  10    2.24    0.30
   3   2  10    1.95    0.29
  -3  -2 -10    2.44    0.26
  -3  -2 -10    2.05    0.27
  -3  -2 -10    2.59    0.34
  -3  -2 -10    2.09    0.32
   2   2  10   10.29    0.58
   2   2  10    9.55    0.39
  -2  -2 -10   10.21    0.43
  -2  -2 -10   10.22    0.56
  -2  -2 -10    9.16    0.54
   1   2  10    3.43    0.37
   1   2  10    2.26    0.36
  -1  -2 -10    2.97    0.37
  -1  -2 -10    2.99    0.27
  -1  -2 -10    3.25    0.37
  -1  -2 -10    3.09    0.28
   0   2  10    7.51    0.58
   0  -2 -10    6.44    0.38
   0  -2 -10    6.51    0.35
   0  -2 -10    6.49    0.53
   0  -2 -10    5.57    0.60
   1  -2 -10    8.94    0.58
   1  -2 -10    6.97    0.71
   2  -2 -10   -0.17    0.40
   2  -2 -10    0.10    0.37
   2  -2 -10    0.23    0.32
   9   3  10    0.49    0.51
   9   3  10    0.67    0.37
   9   3  10    0.77    0.46
   9   3  10    0.52    0.48
  -9  -3 -10   -0.04    0.39
  -9  -3 -10    0.30    0.47
  -9  -3 -10    1.11    0.53
   8   3  10    1.45    0.46
   8   3  10    1.03    0.41
   8   3  10    1.39    0.28
   8   3  10    1.30    0.37
  -8  -3 -10    1.38    0.37
  -8  -3 -10    0.73    0.46
  -8  -3 -10    1.62    0.38
   7   3  10    4.90    0.52
   7   3  10    6.37    0.53
   7   3  10    4.40    0.46
  -7  -3 -10    5.36    0.49
  -7  -3 -10    5.43    0.47
  -7  -3 -10    4.85    0.52
   6   3  10    0.31    0.32
   6   3  10   -0.55    0.22
   6   3  10    0.25    0.31
  -6  -3 -10   -0.23    0.21
  -6  -3 -10    0.02    0.25
  -6  -3 -10   -0.44    0.32
  -6  -3 -10    0.06    0.22
   5   3  10    4.25    0.35
   5   3  10    4.60    0.52
   5   3  10    4.74    0.49
  -5  -3 -10    4.06    0.41
  -5  -3 -10    4.61    0.35
  -5  -3 -10    4.90    0.44
  -5  -3 -10    4.45    0.47
   4   3  10    2.62    0.32
   4   3  10    2.12    0.31
   4   3  10    2.20    0.30
  -4  -3 -10    2.18    0.34
  -4  -3 -10    2.43    0.25
  -4  -3 -10    2.52    0.28
  -4  -3 -10    2.81    0.31
   3   3  10    5.49    0.44
   3   3  10    4.15    0.41
   3   3  10    4.94    0.48
  -3  -3 -10    5.09    0.36
  -3  -3 -10    5.84    0.47
  -3  -3 -10    4.85    0.45
  -3  -3 -10    4.87    0.46
   2   3  10   10.09    0.46
   2   3  10    9.73    0.60
  -2  -3 -10   11.14    0.62
  -2  -3 -10   10.36    0.57
  -2  -3 -10    9.82    0.45
  -2  -3 -10   10.10    0.44
  -1  -3 -10    0.46    0.19
  -1  -3 -10    0.38    0.26
  -1  -3 -10    0.41    0.29
  -1  -3 -10    0.01    0.17
   0  -3 -10    2.39    0.41
   0  -3 -10    2.28    0.30
   0  -3 -10    2.43    0.37
   1  -3 -10    3.15    0.47
   1  -3 -10    3.88    0.38
   1  -3 -10    3.49    0.41
   2  -3 -10    3.64    0.43
   2  -3 -10    3.12    0.54
   2  -3 -10    3.89    0.48
   9   4  10   -0.45    0.45
   9   4  10   -0.24    0.52
   9   4  10    0.39    0.32
   9   4  10   -0.09    0.45
  -9  -4 -10    0.03    0.41
  -9  -4 -10    0.05    0.44
  -9  -4 -10    0.17    0.55
   8   4  10    4.75    0.45
   8   4  10    4.44    0.58
   8   4  10    5.01    0.54
  -8  -4 -10    6.12    0.59
  -8  -4 -10    4.90    0.58
  -8  -4 -10    5.83    0.59
   7   4  10    0.10    0.27
   7   4  10    1.21    0.41
   7   4  10    0.64    0.37
  -7  -4 -10    0.92    0.43
  -7  -4 -10    0.98    0.26
  -7  -4 -10    0.73    0.28
   6   4  10    0.24    0.23
   6   4  10    0.20    0.33
   6   4  10    0.10    0.32
  -6  -4 -10   -0.26    0.34
  -6  -4 -10    0.10    0.23
  -6  -4 -10    0.00    0.23
   5   4  10    5.11    0.56
   5   4  10    5.41    0.45
   5   4  10    4.37    0.40
  -5  -4 -10    4.14    0.43
  -5  -4 -10    4.10    0.42
  -5  -4 -10    4.28    0.38
  -5  -4 -10    5.95    0.48
   4   4  10    1.24    0.31
   4   4  10    1.35    0.28
   4   4  10    1.58    0.29
  -4  -4 -10    1.36    0.29
  -4  -4 -10    1.62    0.32
  -4  -4 -10    1.15    0.22
  -4  -4 -10    1.46    0.26
   3   4  10   14.94    0.61
   3   4  10   15.64    0.67
  -3  -4 -10   14.16    0.68
  -3  -4 -10   14.17    0.55
  -3  -4 -10   14.90    0.65
  -3  -4 -10   14.33    0.51
   2   4  10    1.21    0.22
  -2  -4 -10    1.63    0.33
  -2  -4 -10    1.73    0.22
  -2  -4 -10    1.31    0.23
  -2  -4 -10    1.07    0.31
  -1  -4 -10    0.09    0.29
  -1  -4 -10   -0.39    0.28
  -1  -4 -10    0.37    0.25
   0  -4 -10    0.40    0.35
   0  -4 -10    0.79    0.37
   0  -4 -10    0.74    0.29
   0  -4 -10    0.61    0.28
   1  -4 -10   15.51    0.91
   1  -4 -10   14.75    0.62
   1  -4 -10   14.95    0.75
   9   5  10    0.25    0.50
   9   5  10    0.06    0.47
   9   5  10    0.38    0.58
  -9  -5 -10    0.08    0.41
  -9  -5 -10   -0.54    0.43
  -9  -5 -10    0.37    0.57
   8   5  10    0.68    0.49
   8   5  10    0.46    0.37
   8   5  10    0.13    0.41
  -8  -5 -10    0.74    0.33
  -8  -5 -10    0.76    0.32
  -8  -5 -10    0.85    0.48
   7   5  10    0.86    0.39
   7   5  10    1.30    0.29
   7   5  10    0.75    0.40
  -7  -5 -10    0.26    0.41
  -7  -5 -10    0.64    0.28
  -7  -5 -10    0.51    0.28
   6   5  10    9.14    0.57
   6   5  10   10.06    0.71
   6   5  10    9.22    0.66
  -6  -5 -10    8.70    0.54
  -6  -5 -10    9.47    0.48
  -6  -5 -10    9.11    0.70
   5   5  10    0.72    0.34
   5   5  10    0.42    0.27
   5   5  10    0.46    0.31
  -5  -5 -10    0.05    0.24
  -5  -5 -10    0.24    0.32
  -5  -5 -10    0.45    0.23
   4   5  10    2.37    0.36
  -4  -5 -10    1.90    0.30
  -4  -5 -10    2.80    0.34
  -4  -5 -10    2.30    0.32
  -4  -5 -10    3.12    0.30
   3   5  10    0.00    0.22
   3   5  10   -0.04    0.28
  -3  -5 -10   -0.20    0.21
  -3  -5 -10   -0.36    0.27
  -3  -5 -10    0.11    0.28
  -3  -5 -10    0.22    0.25
  -3  -5 -10    0.05    0.21
  -2  -5 -10    1.10    0.34
  -2  -5 -10    0.96    0.29
  -2  -5 -10    1.27    0.35
  -1  -5 -10    8.63    0.72
  -1  -5 -10    9.49    0.67
  -1  -5 -10    8.35    0.58
   0  -5 -10    1.68    0.32
   0  -5 -10    1.53    0.44
   0  -5 -10    2.32    0.37
   0  -5 -10    2.38    0.45
   9   6  10    2.17    0.65
   9   6  10    2.23    0.60
  -9  -6 -10    2.91    0.49
  -9  -6 -10    2.22    0.65
   8   6  10   -0.04    0.49
   8   6  10   -0.12    0.46
  -8  -6 -10    0.25    0.52
  -8  -6 -10   -0.57    0.36
  -8  -6 -10    0.77    0.35
   7   6  10    5.45    0.57
   7   6  10    5.31    0.55
  -7  -6 -10    6.74    0.50
  -7  -6 -10    5.17    0.54
  -7  -6 -10    4.68    0.54
   6   6  10    1.69    0.43
   6   6  10    1.56    0.39
  -6  -6 -10    1.60    0.43
  -6  -6 -10    0.89    0.28
  -6  -6 -10    1.79    0.30
   5   6  10    0.09    0.33
   5   6  10   -0.26    0.30
  -5  -6 -10    0.17    0.25
  -5  -6 -10    0.60    0.26
  -5  -6 -10   -0.21    0.33
   4   6  10    8.55    0.66
  -4  -6 -10    8.20    0.51
  -4  -6 -10    7.97    0.49
  -4  -6 -10    8.66    0.64
  -4  -6 -10    9.12    0.60
  -4  -6 -10    7.45    0.63
   3   6  10    0.35    0.23
   3   6  10    0.12    0.35
  -3  -6 -10    0.23    0.34
  -3  -6 -10   -0.04    0.23
  -3  -6 -10    0.65    0.23
  -3  -6 -10    0.63    0.30
  -3  -6 -10    0.40    0.30
  -2  -6 -10    4.15    0.50
  -2  -6 -10    5.06    0.48
  -2  -6 -10    4.44    0.45
  -1  -6 -10    4.61    0.47
  -1  -6 -10    3.54    0.48
  -1  -6 -10    4.31    0.48
   8   7  10    0.99    0.58
   8   7  10    2.45    0.57
  -8  -7 -10    0.62    0.54
  -8  -7 -10    1.37    0.42
   7   7  10    4.19    0.59
   7   7  10    4.20    0.55
  -7  -7 -10    5.92    0.59
  -7  -7 -10    4.48    0.57
   6   7  10    5.71    0.56
   6   7  10    7.07    0.71
  -6  -7 -10    6.17    0.53
  -6  -7 -10    6.08    0.54
  -6  -7 -10    5.84    0.53
   5   7  10    8.47    0.59
   5   7  10    9.27    0.77
  -5  -7 -10    9.13    0.61
  -5  -7 -10    9.01    0.65
  -5  -7 -10    9.09    0.58
   4   7  10    1.17    0.44
   4   7  10    1.51    0.31
  -4  -7 -10    0.94    0.32
  -4  -7 -10    1.24    0.35
  -4  -7 -10    1.53    0.30
  -4  -7 -10    1.68    0.41
  -3  -7 -10    2.33    0.28
  -3  -7 -10    2.06    0.42
  -3  -7 -10    2.02    0.43
  -3  -7 -10    2.28    0.41
  -3  -7 -10    2.05    0.26
  -2  -7 -10    7.44    0.72
  -2  -7 -10    5.86    0.58
  -2  -7 -10    7.00    0.72
   7   8  10    2.01    0.55
   7   8  10    2.65    0.56
  -7  -8 -10    2.58    0.37
  -7  -8 -10    2.22    0.57
   6   8  10   -0.01    0.46
   6   8  10    1.71    0.45
  -6  -8 -10    1.41    0.37
  -6  -8 -10    1.45    0.45
   5   8  10   -0.13    0.44
  -5  -8 -10    0.26    0.44
  -5  -8 -10    1.12    0.35
  -5  -8 -10    0.54    0.36
   4   8  10    0.07    0.46
   4   8  10    0.21    0.31
  -4  -8 -10   -0.26    0.31
  -4  -8 -10    0.71    0.38
  -4  -8 -10    0.56    0.31
  -4  -8 -10    0.82    0.44
  -3  -8 -10    1.35    0.48
  -3  -8 -10    1.02    0.47
  -3  -8 -10    0.90    0.44
   3  -7  11    1.58    0.44
   3  -7  11    1.34    0.50
   3  -7  11    0.38    0.47
   3  -7  11    1.49    0.59
   3  -7  11    1.80    0.55
  -3   7 -11    0.94    0.56
  -3   7 -11    1.72    0.59
  -3   7 -11    1.37    0.53
  -3   7 -11    1.52    0.58
   2  -7  11    1.31    0.51
   2  -7  11    1.22    0.53
   2  -7  11    1.88    0.55
   2  -7  11    2.15    0.52
   2  -7  11    1.83    0.40
  -2   7 -11    1.38    0.49
  -2   7 -11    0.70    0.46
  -2   7 -11    2.34    0.58
  -2   7 -11    2.05    0.56
   1  -7  11    4.04    0.41
   1  -7  11    5.28    0.62
   1  -7  11    3.95    0.61
   1  -7  11    2.73    0.47
   1  -7  11    3.02    0.59
  -1   7 -11    4.24    0.57
  -1   7 -11    5.25    0.67
  -1   7 -11    4.77    0.63
  -1   7 -11    4.48    0.54
   0  -7  11    0.17    0.53
   0  -7  11    1.00    0.57
   0  -7  11    0.58    0.39
   0  -7  11    0.11    0.48
   0   7 -11    0.15    0.53
   0   7 -11    1.37    0.58
   0   7 -11    0.13    0.41
   0   7 -11    0.92    0.42
   4  -6  11    3.08    0.58
   4  -6  11    2.87    0.55
   4  -6  11    3.42    0.40
  -4   6 -11    3.25    0.54
  -4   6 -11    3.01    0.60
  -4   6 -11    3.32    0.60
  -4   6 -11    3.64    0.62
   3  -6  11    0.23    0.39
   3  -6  11    0.71    0.52
   3  -6  11    0.32    0.44
   3  -6  11    0.39    0.34
   3  -6  11    0.74    0.37
  -3   6 -11    0.58    0.50
  -3   6 -11   -0.03    0.43
  -3   6 -11   -0.42    0.46
  -3   6 -11    0.91    0.43
   2  -6  11    2.47    0.47
   2  -6  11    2.80    0.44
   2  -6  11    2.31    0.36
   2  -6  11    2.02    0.50
   2  -6  11    2.88    0.50
  -2   6 -11    2.26    0.51
  -2   6 -11    1.98    0.45
  -2   6 -11    1.22    0.40
  -2   6 -11    3.02    0.53
   1  -6  11    0.09    0.25
   1  -6  11    0.85    0.44
   1  -6  11    0.53    0.49
   1  -6  11    0.85    0.48
   1  -6  11    0.92    0.35
  -1   6 -11    1.08    0.36
  -1   6 -11    0.66    0.45
  -1   6 -11    0.10    0.38
  -1   6 -11    0.35    0.48
   0  -6  11    1.00    0.44
   0  -6  11    1.73    0.48
   0  -6  11    2.08    0.52
   0  -6  11    2.73    0.38
   0   6 -11    0.47    0.40
   0   6 -11    1.80    0.50
   0   6 -11    2.05    0.53
   0   6 -11    1.95    0.36
  -1  -6  11    0.59    0.41
  -1  -6  11    1.78    0.60
  -1  -6  11    0.86    0.32
  -1  -6  11    1.68    0.52
   1   6 -11    1.20    0.53
   1   6 -11    1.64    0.55
   1   6 -11    1.77    0.39
   1   6 -11    1.61    0.37
   5  -5  11    3.54    0.41
   5  -5  11    3.04    0.53
   5  -5  11    3.16    0.60
  -5   5 -11    2.65    0.56
  -5   5 -11    2.95    0.57
  -5   5 -11    2.97    0.50
  -5   5 -11    3.15    0.56
   4  -5  11    1.06    0.47
   4  -5  11    1.42    0.35
   4  -5  11    0.86    0.41
  -4   5 -11    0.06    0.42
  -4   5 -11    0.48    0.48
  -4   5 -11    1.09    0.42
  -4   5 -11    0.65    0.49
   3  -5  11    1.67    0.38
   3  -5  11    1.09    0.46
   3  -5  11    1.17    0.36
  -3   5 -11    0.93    0.42
  -3   5 -11    1.42    0.43
  -3   5 -11    1.74    0.38
  -3   5 -11    0.75    0.43
   2  -5  11    9.49    0.79
   2  -5  11   10.26    0.83
   2  -5  11    9.02    0.70
   2  -5  11    7.95    0.48
   2  -5  11    9.86    0.63
  -2   5 -11   10.51    0.78
  -2   5 -11    8.34    0.63
  -2   5 -11    8.63    0.83
  -2   5 -11    9.47    0.76
   1  -5  11    0.32    0.37
   1  -5  11    0.74    0.38
   1  -5  11    0.29    0.28
   1  -5  11    0.43    0.43
  -1   5 -11    0.44    0.40
  -1   5 -11   -0.01    0.43
  -1   5 -11    0.04    0.34
  -1   5 -11    0.97    0.30
   0  -5  11    8.72    0.55
   0  -5  11    8.60    0.74
   0  -5  11    8.83    0.68
   0  -5  11    9.32    0.83
   0   5 -11    9.15    0.79
   0   5 -11    7.38    0.65
   0   5 -11    8.07    0.82
   0   5 -11    8.47    0.54
  -1  -5  11   -0.12    0.48
  -1  -5  11   -0.16    0.37
  -1  -5  11   -0.26    0.40
  -1  -5  11    0.31    0.29
   1   5 -11    0.31    0.46
   1   5 -11    0.61    0.49
   1   5 -11   -0.20    0.32
   1   5 -11   -0.31    0.34
  -2  -5  11    2.37    0.34
  -2  -5  11    1.49    0.43
  -2  -5  11    2.20    0.51
   2   5 -11    2.86    0.58
   2   5 -11    1.76    0.37
   2   5 -11    1.74    0.40
   2   5 -11    2.84    0.58
   6  -4  11    1.37    0.40
   6  -4  11    1.65    0.54
   6  -4  11    1.34    0.46
  -6   4 -11    1.40    0.47
  -6   4 -11    1.01    0.52
  -6   4 -11    1.55    0.52
   5  -4  11    4.38    0.56
   5  -4  11    4.84    0.51
   5  -4  11    4.22    0.43
  -5   4 -11    4.95    0.53
  -5   4 -11    4.60    0.53
  -5   4 -11    4.42    0.53
  -5   4 -11    4.28    0.54
   4  -4  11    0.73    0.33
   4  -4  11    0.88    0.30
   4  -4  11    0.09    0.39
  -4   4 -11   -0.17    0.38
  -4   4 -11    0.55    0.34
  -4   4 -11    1.19    0.44
  -4   4 -11    0.60    0.37
   3  -4  11    4.02    0.51
   3  -4  11    4.57    0.43
   3  -4  11    4.94    0.52
  -3   4 -11    3.96    0.44
  -3   4 -11    4.02    0.49
  -3   4 -11    4.01    0.46
  -3   4 -11    4.52    0.42
   2  -4  11    0.92    0.34
   2  -4  11    0.65    0.24
   2  -4  11    0.56    0.40
   2  -4  11    1.35    0.35
   2  -4  11    0.33    0.21
  -2   4 -11   -0.17    0.31
  -2   4 -11    0.47    0.41
  -2   4 -11    0.54    0.28
  -2   4 -11    0.45    0.35
   1  -4  11    5.43    0.60
   1  -4  11    6.70    0.46
   1  -4  11    5.89    0.62
   1  -4  11    5.79    0.55
  -1   4 -11    7.78    0.73
  -1   4 -11    6.89    0.47
  -1   4 -11    6.96    0.69
  -1   4 -11    5.74    0.60
   0  -4  11    2.94    0.35
   0  -4  11    2.71    0.44
   0  -4  11    2.40    0.30
   0  -4  11    2.62    0.46
   0   4 -11    2.24    0.45
   0   4 -11    2.35    0.33
   0   4 -11    2.81    0.45
   0   4 -11    1.91    0.29
  -1  -4  11   -0.33    0.39
  -1  -4  11    0.41    0.35
  -1  -4  11   -0.06    0.44
  -1  -4  11    0.11    0.27
   1   4 -11   -0.36    0.31
   1   4 -11   -0.08    0.44
   1   4 -11    0.00    0.29
   1   4 -11    0.44    0.43
  -2  -4  11    0.80    0.42
  -2  -4  11    0.44    0.32
  -2  -4  11    0.96    0.47
   2   4 -11   -0.32    0.34
   2   4 -11    0.68    0.54
   2   4 -11    0.42    0.39
   2   4 -11    0.57    0.51
   7  -3  11   -0.24    0.51
   7  -3  11   -0.06    0.48
   7  -3  11   -0.35    0.42
  -7   3 -11    0.03    0.43
  -7   3 -11    0.18    0.52
  -7   3 -11    0.10    0.54
   6  -3  11    1.69    0.50
   6  -3  11    0.52    0.41
   6  -3  11    1.20    0.38
  -6   3 -11    0.73    0.43
  -6   3 -11    1.07    0.44
  -6   3 -11    1.45    0.50
   5  -3  11   -0.56    0.31
   5  -3  11   -0.51    0.32
   5  -3  11   -0.07    0.39
  -5   3 -11   -0.16    0.36
  -5   3 -11   -0.22    0.37
  -5   3 -11   -0.51    0.35
  -5   3 -11   -0.69    0.32
   4  -3  11    3.14    0.38
   4  -3  11    2.89    0.32
   4  -3  11    3.98    0.50
  -4   3 -11    4.05    0.39
  -4   3 -11    4.06    0.52
  -4   3 -11    4.03    0.42
  -4   3 -11    3.69    0.44
   3  -3  11    1.41    0.29
   3  -3  11    1.54    0.26
   3  -3  11    1.34    0.40
  -3   3 -11    1.85    0.34
  -3   3 -11    1.74    0.28
  -3   3 -11    1.87    0.37
  -3   3 -11    1.54    0.42
   2  -3  11    0.09    0.23
   2  -3  11    0.45    0.36
   2  -3  11    0.67    0.33
  -2   3 -11    0.61    0.30
  -2   3 -11    0.50    0.30
  -2   3 -11    0.69    0.39
  -2   3 -11    0.54    0.24
   1  -3  11   10.71    0.51
   1  -3  11    9.77    0.70
   1  -3  11   10.29    0.60
   1  -3  11   10.39    0.68
  -1   3 -11   10.64    0.74
  -1   3 -11   10.47    0.65
  -1   3 -11   11.09    0.51
  -1   3 -11   10.69    0.63
   0  -3  11   -0.33    0.32
   0  -3  11    0.06    0.31
   0  -3  11   -0.23    0.22
   0  -3  11   -0.63    0.35
   0   3 -11    0.77    0.25
   0   3 -11   -0.25    0.36
   0   3 -11   -0.11    0.29
   0   3 -11    0.33    0.37
  -1  -3  11    3.76    0.47
  -1  -3  11    3.66    0.42
  -1  -3  11    3.74    0.36
  -1  -3  11    3.39    0.48
   1   3 -11    4.94    0.51
   1   3 -11    4.06    0.41
   1   3 -11    3.38    0.46
   1   3 -11    3.85    0.33
  -2  -3  11    4.43    0.50
  -2  -3  11    5.26    0.56
  -2  -3  11    4.15    0.47
   2   3 -11    4.95    0.52
   2   3 -11    2.71    0.46
   2   3 -11    4.14    0.41
   2   3 -11    4.36    0.60
   7  -2  11    0.59    0.40
   7  -2  11   -0.24    0.48
   7  -2  11    0.33    0.42
  -7   2 -11    0.16    0.43
  -7   2 -11    0.51    0.45
  -7   2 -11    0.37    0.48
   6  -2  11    2.78    0.49
   6  -2  11    2.74    0.36
   6  -2  11    2.92    0.43
  -6   2 -11    3.63    0.53
  -6   2 -11    3.71    0.45
  -6   2 -11    3.03    0.47
   5  -2  11    0.38    0.37
   5  -2  11   -0.64    0.26
  -5   2 -11    0.32    0.39
  -5   2 -11    0.89    0.31
  -5   2 -11    0.23    0.35
   4  -2  11    3.75    0.45
   4  -2  11    2.84    0.32
  -4   2 -11    3.59    0.44
  -4   2 -11    3.60    0.36
  -4   2 -11    3.31    0.33
  -4   2 -11    3.52    0.46
   3  -2  11    2.34    0.40
   3  -2  11    1.82    0.27
   3  -2  11    2.11    0.31
   3  -2  11    1.79    0.26
  -3   2 -11    1.84    0.31
  -3   2 -11    1.89    0.33
  -3   2 -11    1.81    0.25
  -3   2 -11    1.58    0.39
   2  -2  11   15.64    0.75
   2  -2  11   14.97    0.57
   2  -2  11   14.71    0.70
  -2   2 -11   15.40    0.63
  -2   2 -11   15.17    0.58
  -2   2 -11   15.96    0.76
  -2   2 -11   16.12    0.70
   1  -2  11    2.49    0.28
   1  -2  11    2.42    0.38
   1  -2  11    2.62    0.39
  -1   2 -11    2.55    0.41
  -1   2 -11    2.36    0.35
  -1   2 -11    2.57    0.32
  -1   2 -11    2.51    0.26
   0  -2  11    5.98    0.61
   0  -2  11    7.24    0.64
   0  -2  11    5.71    0.47
   0  -2  11    7.16    0.56
   0   2 -11    5.88    0.56
   0   2 -11    6.84    0.64
   0   2 -11    6.77    0.61
   0   2 -11    6.62    0.46
  -1  -2  11    1.66    0.41
  -1  -2  11    1.17    0.36
  -1  -2  11    1.97    0.31
   1   2 -11    2.14    0.39
   1   2 -11    1.73    0.30
   1   2 -11    2.15    0.43
   1   2 -11    2.22    0.46
  -2  -2  11   -0.62    0.42
  -2  -2  11    0.09    0.37
  -2  -2  11   -0.79    0.29
   2   2 -11    0.38    0.32
   2   2 -11    0.49    0.40
   2   2 -11    0.45    0.40
   8  -1  11    1.13    0.50
   8  -1  11    0.39    0.46
   8  -1  11   -0.14    0.50
  -8   1 -11    0.14    0.49
  -8   1 -11   -0.56    0.52
   7  -1  11    3.02    0.44
   7  -1  11    2.87    0.53
   7  -1  11    3.47    0.43
  -7   1 -11    3.08    0.47
  -7   1 -11    2.84    0.49
  -7   1 -11    3.72    0.56
   6  -1  11   -0.21    0.29
   6  -1  11    0.19    0.30
   6  -1  11   -0.08    0.40
  -6   1 -11   -0.01    0.34
  -6   1 -11   -0.17    0.40
  -6   1 -11    0.17    0.31
   5  -1  11    6.68    0.55
   5  -1  11    5.94    0.49
   5  -1  11    5.68    0.56
  -5   1 -11    7.01    0.71
  -5   1 -11    6.76    0.51
  -5   1 -11    7.45    0.66
   4  -1  11    9.83    0.70
   4  -1  11   10.07    0.54
   4  -1  11   10.27    0.53
  -4   1 -11    9.07    0.64
  -4   1 -11    9.67    0.47
  -4   1 -11    9.48    0.48
  -4   1 -11    9.76    0.69
   3  -1  11    2.84    0.27
   3  -1  11    2.69    0.38
   3  -1  11    2.31    0.33
  -3   1 -11    2.41    0.27
  -3   1 -11    2.18    0.31
  -3   1 -11    2.21    0.39
  -3   1 -11    2.37    0.27
   2  -1  11   13.95    0.69
   2  -1  11   14.41    0.56
   2  -1  11   14.76    0.69
  -2   1 -11   14.78    0.71
  -2   1 -11   13.90    0.54
  -2   1 -11   13.97    0.54
  -2   1 -11   15.11    0.66
   1  -1  11    1.88    0.27
   1  -1  11    1.69    0.35
   1  -1  11    2.13    0.36
  -1   1 -11    2.05    0.36
  -1   1 -11    1.87    0.31
  -1   1 -11    1.68    0.28
  -1   1 -11    1.92    0.27
   0  -1  11    9.82    0.63
   0  -1  11    9.96    0.68
   0  -1  11   10.77    0.52
   0   1 -11   10.86    0.65
   0   1 -11    8.89    0.65
   0   1 -11   10.84    0.63
   0   1 -11   10.75    0.50
  -1  -1  11    0.19    0.26
  -1  -1  11    0.15    0.36
   1   1 -11    0.42    0.28
   1   1 -11    0.35    0.35
   1   1 -11    0.67    0.33
  -2  -1  11    2.07    0.33
  -2  -1  11    1.88    0.43
   2   1 -11    1.58    0.37
   2   1 -11    2.32    0.49
   2   1 -11    2.57    0.36
   8   0  11   -0.25    0.48
   8   0  11   -0.24    0.50
   8   0  11    0.42    0.43
   8   0  11   -0.58    0.41
  -8   0 -11    0.21    0.53
  -8   0 -11    0.30    0.44
  -8   0 -11   -0.17    0.48
   7   0  11    0.25    0.43
   7   0  11   -0.13    0.31
   7   0  11    0.26    0.33
   7   0  11    0.48    0.39
  -7   0 -11    0.22    0.36
  -7   0 -11    0.45    0.39
  -7   0 -11    1.23    0.46
   6   0  11    1.89    0.27
   6   0  11    1.55    0.38
   6   0  11    1.88    0.30
   6   0  11    1.31    0.41
  -6   0 -11    2.02    0.32
  -6   0 -11    1.33    0.30
  -6   0 -11    1.98    0.40
  -6   0 -11    2.17    0.46
   5   0  11    5.73    0.53
   5   0  11    6.94    0.50
   5   0  11    6.77    0.55
  -5   0 -11    7.04    0.45
  -5   0 -11    7.89    0.70
  -5   0 -11    6.38    0.48
  -5   0 -11    7.86    0.62
   4   0  11    8.99    0.52
   4   0  11    9.70    0.54
   4   0  11    9.36    0.64
  -4   0 -11    9.58    0.48
  -4   0 -11    9.81    0.66
  -4   0 -11    9.12    0.62
  -4   0 -11    8.47    0.51
   3   0  11    0.57    0.22
   3   0  11    0.13    0.30
   3   0  11    0.48    0.27
  -3   0 -11    0.37    0.21
  -3   0 -11    1.02    0.24
  -3   0 -11    0.91    0.26
  -3   0 -11    0.48    0.33
   2   0  11    4.36    0.39
   2   0  11    4.31    0.42
  -2   0 -11    4.37    0.43
  -2   0 -11    4.96    0.39
  -2   0 -11    3.78    0.42
  -2   0 -11    3.84    0.38
   1   0  11    4.48    0.44
   1   0  11    4.88    0.50
  -1   0 -11    4.62    0.40
  -1   0 -11    4.92    0.53
  -1   0 -11    6.04    0.53
  -1   0 -11    5.29    0.45
  -1   0 -11    4.59    0.42
   0   0  11    3.84    0.43
   0   0 -11    4.39    0.41
   0   0 -11    5.22    0.60
   0   0 -11    5.06    0.43
  -1   0  11   -0.32    0.38
  -1   0  11   -0.39    0.25
   1   0 -11    0.08    0.29
   1   0 -11    0.39    0.27
   1   0 -11   -0.14    0.34
  -2   0  11    1.49    0.31
   2   0 -11    1.69    0.48
   2   0 -11    1.88    0.34
   2   0 -11    1.52    0.34
   8   1  11    4.16    0.49
   8   1  11    4.84    0.44
   8   1  11    4.36    0.59
   8   1  11    3.75    0.55
  -8  -1 -11    4.13    0.48
  -8  -1 -11    5.06    0.65
  -8  -1 -11    4.70    0.53
  -8  -1 -11    4.90    0.56
   7   1  11    0.33    0.40
   7   1  11    0.66    0.33
   7   1  11    0.52    0.25
   7   1  11    0.42    0.39
  -7  -1 -11    0.41    0.30
  -7  -1 -11    1.11    0.34
  -7  -1 -11    0.91    0.39
  -7  -1 -11    1.15    0.47
   6   1  11    0.65    0.34
   6   1  11    0.84    0.28
   6   1  11    0.61    0.38
  -6  -1 -11    0.08    0.26
  -6  -1 -11    1.01    0.41
  -6  -1 -11    0.35    0.24
  -6  -1 -11    1.11    0.35
   5   1  11    0.36    0.34
   5   1  11    0.21    0.25
   5   1  11   -0.03    0.29
  -5  -1 -11    0.01    0.22
  -5  -1 -11    0.01    0.35
  -5  -1 -11   -0.30    0.23
  -5  -1 -11    0.47    0.29
   4   1  11    1.97    0.37
   4   1  11    2.54    0.32
   4   1  11    2.76    0.33
  -4  -1 -11    2.28    0.28
  -4  -1 -11    2.78    0.27
  -4  -1 -11    2.54    0.40
  -4  -1 -11    2.35    0.31
   3   1  11   17.12    0.55
   3   1  11   17.00    0.69
   3   1  11   18.65    0.72
  -3  -1 -11   17.49    0.70
  -3  -1 -11   17.28    0.70
  -3  -1 -11   16.67    0.58
  -3  -1 -11   18.05    0.73
   2   1  11    0.25    0.26
   2   1  11    0.25    0.29
  -2  -1 -11    0.23    0.29
  -2  -1 -11   -0.09    0.27
  -2  -1 -11    0.23    0.21
  -2  -1 -11    0.12    0.24
   1   1  11   13.96    0.71
  -1  -1 -11   14.19    0.53
  -1  -1 -11   14.63    0.51
  -1  -1 -11   13.39    0.67
  -1  -1 -11   13.43    0.59
  -1  -1 -11   14.16    0.74
   0   1  11    1.28    0.38
   0  -1 -11    1.82    0.36
   0  -1 -11    1.72    0.27
   0  -1 -11    1.83    0.34
   0  -1 -11    1.95    0.31
   1  -1 -11    0.52    0.38
   1  -1 -11    0.66    0.42
   1  -1 -11    1.09    0.29
   1  -1 -11    1.36    0.28
   9   2  11    2.00    0.57
   9   2  11    1.26    0.42
   9   2  11    0.14    0.58
  -9  -2 -11    0.34    0.47
  -9  -2 -11    0.98    0.55
  -9  -2 -11    1.53    0.62
  -9  -2 -11    0.83    0.54
   8   2  11    0.33    0.39
   8   2  11    0.25    0.47
   8   2  11    0.51    0.30
   8   2  11    0.67    0.46
  -8  -2 -11   -0.07    0.35
  -8  -2 -11   -0.30    0.48
  -8  -2 -11    0.47    0.46
  -8  -2 -11    0.04    0.39
   7   2  11    0.75    0.40
   7   2  11    0.71    0.42
   7   2  11    0.76    0.30
  -7  -2 -11    1.10    0.31
  -7  -2 -11    0.89    0.38
  -7  -2 -11    0.45    0.45
  -7  -2 -11    0.60    0.28
   6   2  11    1.99    0.30
   6   2  11    1.49    0.37
   6   2  11    1.96    0.42
  -6  -2 -11    1.51    0.43
  -6  -2 -11    0.81    0.25
  -6  -2 -11    1.75    0.26
  -6  -2 -11    1.40    0.38
   5   2  11   -0.38    0.25
   5   2  11   -0.15    0.29
   5   2  11   -0.01    0.31
  -5  -2 -11   -0.01    0.22
  -5  -2 -11   -0.10    0.22
  -5  -2 -11    0.59    0.37
  -5  -2 -11    0.42    0.27
   4   2  11    3.49    0.36
   4   2  11    2.95    0.34
   4   2  11    2.89    0.39
  -4  -2 -11    3.16    0.39
  -4  -2 -11    3.12    0.29
  -4  -2 -11    3.31    0.35
  -4  -2 -11    2.42    0.30
   3   2  11    3.07    0.31
   3   2  11    3.13    0.38
   3   2  11    2.68    0.34
  -3  -2 -11    3.06    0.37
  -3  -2 -11    2.94    0.38
  -3  -2 -11    3.13    0.29
  -3  -2 -11    2.25    0.27
   2   2  11    8.27    0.62
  -2  -2 -11    7.38    0.55
  -2  -2 -11    7.07    0.58
  -2  -2 -11    7.64    0.45
  -2  -2 -11    7.47    0.59
   1   2  11    1.41    0.38
   1   2  11    2.39    0.30
  -1  -2 -11    2.12    0.38
  -1  -2 -11    2.35    0.28
  -1  -2 -11    2.52    0.30
  -1  -2 -11    2.43    0.39
   0  -2 -11    0.64    0.35
   0  -2 -11    0.83    0.29
   0  -2 -11    0.71    0.37
   0  -2 -11    0.60    0.23
   0  -2 -11    0.10    0.24
   1  -2 -11    7.44    0.83
   1  -2 -11    4.79    0.48
   1  -2 -11    5.60    0.49
   9   3  11    1.01    0.35
   9   3  11    0.86    0.61
   9   3  11    0.89    0.52
   9   3  11    0.58    0.55
  -9  -3 -11    0.11    0.48
  -9  -3 -11    1.90    0.65
  -9  -3 -11    1.09    0.56
  -9  -3 -11    2.06    0.52
   8   3  11   -0.16    0.40
   8   3  11    0.86    0.51
   8   3  11   -1.33    0.41
  -8  -3 -11   -0.25    0.51
  -8  -3 -11   -0.51    0.31
  -8  -3 -11    0.61    0.43
  -8  -3 -11    0.35    0.38
   7   3  11    2.39    0.45
   7   3  11    2.26    0.33
   7   3  11    2.12    0.46
  -7  -3 -11    2.38    0.46
  -7  -3 -11    1.86    0.30
  -7  -3 -11    1.79    0.32
  -7  -3 -11    2.32    0.49
   6   3  11    0.13    0.35
   6   3  11    0.16    0.36
   6   3  11    0.05    0.30
  -6  -3 -11    0.39    0.26
  -6  -3 -11   -0.07    0.25
  -6  -3 -11   -0.21    0.38
  -6  -3 -11    0.63    0.30
   5   3  11    0.55    0.35
   5   3  11    0.88    0.34
   5   3  11    1.10    0.25
  -5  -3 -11    0.35    0.28
  -5  -3 -11    0.54    0.35
  -5  -3 -11    0.45    0.27
  -5  -3 -11    0.76    0.24
   4   3  11   12.00    0.64
   4   3  11   12.15    0.64
   4   3  11   12.46    0.62
  -4  -3 -11   12.24    0.67
  -4  -3 -11   12.35    0.53
  -4  -3 -11   11.59    0.60
  -4  -3 -11   11.41    0.61
   3   3  11    0.87    0.27
   3   3  11    0.77    0.32
  -3  -3 -11    0.13    0.21
  -3  -3 -11    0.42    0.29
  -3  -3 -11    0.40    0.26
   2   3  11   12.29    0.71
   2   3  11   11.35    0.53
  -2  -3 -11   11.40    0.50
  -2  -3 -11   11.86    0.68
  -2  -3 -11   11.02    0.66
  -2  -3 -11   11.64    0.52
  -1  -3 -11    0.02    0.31
  -1  -3 -11    0.07    0.22
  -1  -3 -11    0.16    0.21
  -1  -3 -11    0.34    0.34
   0  -3 -11    7.49    0.68
   0  -3 -11    7.28    0.79
   0  -3 -11    7.34    0.51
   1  -3 -11    0.09    0.38
   1  -3 -11    0.18    0.41
   1  -3 -11   -0.32    0.47
   8   4  11    2.08    0.50
   8   4  11    2.16    0.55
   8   4  11    1.79    0.39
  -8  -4 -11    1.95    0.37
  -8  -4 -11    2.82    0.59
  -8  -4 -11    1.48    0.36
   7   4  11    1.68    0.47
   7   4  11    1.65    0.31
   7   4  11    2.12    0.47
  -7  -4 -11    1.81    0.36
  -7  -4 -11    2.20    0.32
  -7  -4 -11    2.25    0.34
  -7  -4 -11    2.72    0.51
   6   4  11   -0.35    0.35
   6   4  11   -0.19    0.38
   6   4  11   -0.22    0.29
  -6  -4 -11   -0.59    0.28
  -6  -4 -11   -0.23    0.39
  -6  -4 -11    0.35    0.29
  -6  -4 -11   -0.32    0.26
   5   4  11    1.75    0.36
   5   4  11    2.41    0.42
   5   4  11    2.01    0.30
  -5  -4 -11    1.55    0.40
  -5  -4 -11    2.33    0.30
  -5  -4 -11    1.94    0.35
  -5  -4 -11    1.37    0.28
   4   4  11    2.44    0.34
   4   4  11    2.49    0.35
   4   4  11    2.50    0.37
  -4  -4 -11    2.34    0.34
  -4  -4 -11    2.23    0.36
  -4  -4 -11    2.68    0.30
  -4  -4 -11    2.60    0.36
   3   4  11    1.67    0.39
   3   4  11    1.87    0.33
   3   4  11    1.34    0.30
  -3  -4 -11    1.44    0.31
  -3  -4 -11    1.69    0.28
  -3  -4 -11    1.86    0.35
  -3  -4 -11    1.39    0.30
  -2  -4 -11    3.01    0.29
  -2  -4 -11    3.48    0.43
  -2  -4 -11    3.26    0.42
  -2  -4 -11    3.23    0.29
  -1  -4 -11    0.00    0.38
  -1  -4 -11   -0.45    0.37
   0  -4 -11    0.03    0.30
   0  -4 -11   -0.18    0.42
   0  -4 -11    0.14    0.41
   8   5  11    1.19    0.54
   8   5  11    0.85    0.52
   8   5  11    1.36    0.46
  -8  -5 -11    1.82    0.38
  -8  -5 -11    0.44    0.36
  -8  -5 -11    1.42    0.55
   7   5  11    0.70    0.45
   7   5  11    0.16    0.45
   7   5  11    0.60    0.31
  -7  -5 -11    0.59    0.32
  -7  -5 -11    0.07    0.47
  -7  -5 -11    0.24    0.30
   6   5  11    2.05    0.44
   6   5  11    1.17    0.40
   6   5  11    1.83    0.31
  -6  -5 -11    1.93    0.32
  -6  -5 -11    2.08    0.34
  -6  -5 -11    1.98    0.46
  -6  -5 -11    1.65    0.30
   5   5  11    4.45    0.48
   5   5  11    3.98    0.42
   5   5  11    5.37    0.57
  -5  -5 -11    3.56    0.37
  -5  -5 -11    4.96    0.48
  -5  -5 -11    3.21    0.37
  -5  -5 -11    4.52    0.47
   4   5  11    0.29    0.35
  -4  -5 -11   -0.04    0.27
  -4  -5 -11    0.06    0.32
  -4  -5 -11   -0.22    0.30
   3   5  11   10.26    0.51
   3   5  11    9.70    0.67
  -3  -5 -11   11.46    0.72
  -3  -5 -11    8.91    0.49
  -3  -5 -11   10.10    0.67
  -3  -5 -11   10.15    0.52
  -2  -5 -11    0.72    0.38
  -2  -5 -11    1.03    0.37
  -1  -5 -11    7.31    0.62
  -1  -5 -11    7.21    0.78
  -1  -5 -11    6.53    0.65
   8   6  11    0.63    0.56
   8   6  11    2.42    0.62
  -8  -6 -11    1.83    0.59
  -8  -6 -11    0.30    0.39
   7   6  11    0.14    0.47
   7   6  11    0.23    0.48
  -7  -6 -11    0.36    0.50
  -7  -6 -11   -0.33    0.34
  -7  -6 -11   -0.34    0.34
   6   6  11    2.04    0.48
   6   6  11    2.23    0.46
  -6  -6 -11    2.11    0.48
  -6  -6 -11    1.71    0.33
  -6  -6 -11    2.11    0.34
   5   6  11    0.37    0.42
   5   6  11    0.57    0.34
  -5  -6 -11    0.50    0.36
  -5  -6 -11    0.41    0.31
  -5  -6 -11    0.21    0.36
  -5  -6 -11    0.63    0.35
   4   6  11    2.44    0.46
   4   6  11    2.56    0.37
  -4  -6 -11    2.47    0.34
  -4  -6 -11    2.70    0.36
  -4  -6 -11    2.88    0.44
  -4  -6 -11    2.75    0.45
  -3  -6 -11    2.67    0.47
  -3  -6 -11    2.44    0.45
  -3  -6 -11    2.21    0.43
  -3  -6 -11    2.60    0.31
  -3  -6 -11    2.30    0.30
  -2  -6 -11    3.42    0.52
  -2  -6 -11    2.17    0.46
  -2  -6 -11    3.27    0.47
   7   7  11    1.84    0.53
   7   7  11    1.97    0.60
  -7  -7 -11    2.12    0.42
  -7  -7 -11    1.64    0.57
  -7  -7 -11    3.24    0.40
   6   7  11    0.94    0.42
   6   7  11    0.24    0.50
  -6  -7 -11   -0.13    0.44
  -6  -7 -11    0.61    0.37
  -6  -7 -11    0.86    0.38
   5   7  11    0.40    0.48
  -5  -7 -11    0.04    0.40
  -5  -7 -11   -0.32    0.37
  -5  -7 -11    0.08    0.34
   4   7  11    1.72    0.35
   4   7  11    1.52    0.48
  -4  -7 -11    1.72    0.36
  -4  -7 -11    1.58    0.43
  -4  -7 -11    1.27    0.39
  -4  -7 -11    1.28    0.48
  -4  -7 -11    1.26    0.34
   2  -6  12   -0.83    0.50
   2  -6  12    0.22    0.60
   2  -6  12    0.76    0.42
   2  -6  12    0.69    0.52
   2  -6  12    0.29    0.34
  -2   6 -12    0.62    0.58
  -2   6 -12    0.14    0.59
  -2   6 -12   -0.38    0.48
  -2   6 -12    0.44    0.46
   1  -6  12    1.20    0.54
   1  -6  12    2.53    0.41
  -1   6 -12    0.80    0.47
  -1   6 -12    2.91    0.63
  -1   6 -12    2.77    0.50
  -1   6 -12    2.36    0.64
   4  -5  12    2.61    0.64
   4  -5  12    2.06    0.43
   4  -5  12    3.57    0.50
  -4   5 -12    3.03    0.56
  -4   5 -12    2.58    0.63
  -4   5 -12    2.66    0.59
  -4   5 -12    2.41    0.53
   3  -5  12    0.60    0.44
   3  -5  12    0.26    0.32
   3  -5  12    0.49    0.51
   3  -5  12    1.30    0.39
  -3   5 -12    0.25    0.47
  -3   5 -12    0.01    0.41
  -3   5 -12   -0.01    0.48
  -3   5 -12    0.65    0.51
   2  -5  12    1.92    0.55
   2  -5  12    3.19    0.49
   2  -5  12    1.80    0.51
   2  -5  12    2.08    0.40
  -2   5 -12    3.11    0.59
  -2   5 -12    2.18    0.53
  -2   5 -12    1.61    0.40
  -2   5 -12    1.78    0.46
   1  -5  12    0.78    0.45
   1  -5  12    0.44    0.44
   1  -5  12    0.72    0.34
   1  -5  12    0.49    0.53
  -1   5 -12    0.79    0.37
  -1   5 -12    1.07    0.54
  -1   5 -12   -0.53    0.49
   0  -5  12    2.23    0.44
   0  -5  12    1.41    0.35
   0  -5  12    2.10    0.58
   0  -5  12    2.84    0.61
   0   5 -12    1.55    0.42
   0   5 -12    1.60    0.38
   0   5 -12    2.59    0.60
   0   5 -12    2.12    0.58
   5  -4  12    3.62    0.62
   5  -4  12    2.58    0.37
  -5   4 -12    4.09    0.57
  -5   4 -12    4.65    0.65
  -5   4 -12    4.12    0.57
  -5   4 -12    4.34    0.58
   4  -4  12    0.29    0.39
   4  -4  12   -0.27    0.47
   4  -4  12   -0.52    0.35
  -4   4 -12    0.41    0.50
  -4   4 -12   -0.42    0.44
  -4   4 -12   -0.06    0.40
  -4   4 -12   -0.52    0.40
   3  -4  12    0.84    0.41
   3  -4  12    0.72    0.35
   3  -4  12    1.44    0.49
  -3   4 -12    1.53    0.44
  -3   4 -12    1.11    0.53
  -3   4 -12    0.81    0.36
  -3   4 -12    1.11    0.44
   2  -4  12    5.74    0.54
   2  -4  12    7.04    0.54
   2  -4  12    6.30    0.63
  -2   4 -12    6.50    0.55
  -2   4 -12    6.58    0.73
  -2   4 -12    5.65    0.57
  -2   4 -12    7.16    0.66
   1  -4  12    0.24    0.44
   1  -4  12    0.49    0.38
   1  -4  12   -0.15    0.47
   1  -4  12   -0.14    0.29
  -1   4 -12    0.42    0.33
  -1   4 -12    0.46    0.48
  -1   4 -12    0.11    0.36
  -1   4 -12    0.63    0.46
   0  -4  12    3.40    0.57
   0  -4  12    3.52    0.42
   0  -4  12    3.55    0.35
   0  -4  12    3.42    0.55
   0   4 -12    4.32    0.60
   0   4 -12    2.60    0.41
   0   4 -12    3.67    0.36
   0   4 -12    3.73    0.57
  -1  -4  12    0.57    0.35
   1   4 -12    1.25    0.56
   1   4 -12    0.47    0.54
   6  -3  12    0.23    0.56
   6  -3  12   -0.58    0.39
   6  -3  12    0.09    0.44
  -6   3 -12    0.39    0.47
  -6   3 -12    0.43    0.52
  -6   3 -12   -0.08    0.48
   5  -3  12   -0.50    0.37
   5  -3  12   -0.04    0.49
  -5   3 -12    0.50    0.42
  -5   3 -12   -0.21    0.42
  -5   3 -12   -0.36    0.38
  -5   3 -12    0.52    0.50
   4  -3  12    0.13    0.44
   4  -3  12   -0.12    0.35
  -4   3 -12    0.23    0.39
  -4   3 -12    0.25    0.36
  -4   3 -12   -0.04    0.44
  -4   3 -12    1.05    0.39
   3  -3  12    3.30    0.33
   3  -3  12    3.56    0.53
   3  -3  12    3.58    0.36
   3  -3  12    2.32    0.43
  -3   3 -12    3.19    0.33
  -3   3 -12    3.50    0.55
  -3   3 -12    3.29    0.43
  -3   3 -12    2.87    0.47
   2  -3  12   -0.03    0.42
   2  -3  12   -0.17    0.26
   2  -3  12   -0.87    0.37
  -2   3 -12    0.02    0.42
  -2   3 -12   -0.13    0.30
  -2   3 -12   -0.21    0.36
  -2   3 -12    0.16    0.36
   1  -3  12    7.55    0.77
   1  -3  12    6.43    0.60
   1  -3  12    6.71    0.52
  -1   3 -12    8.12    0.52
  -1   3 -12    7.17    0.62
  -1   3 -12    7.51    0.71
  -1   3 -12    7.91    0.65
   0  -3  12    3.29    0.37
   0  -3  12    3.10    0.53
   0  -3  12    3.31    0.46
   0  -3  12    2.82    0.51
   0   3 -12    3.17    0.38
   0   3 -12    3.00    0.52
   0   3 -12    3.41    0.52
   0   3 -12    3.64    0.37
  -1  -3  12    1.75    0.44
  -1  -3  12    2.66    0.54
  -1  -3  12    2.13    0.39
   1   3 -12    2.53    0.54
   1   3 -12    2.39    0.55
   1   3 -12    2.61    0.44
   1   3 -12    3.03    0.40
   7  -2  12   -0.01    0.45
   7  -2  12   -0.78    0.58
  -7   2 -12    0.31    0.50
  -7   2 -12   -0.08    0.53
  -7   2 -12    0.10    0.60
   6  -2  12    2.96    0.40
   6  -2  12    4.05    0.58
  -6   2 -12    3.58    0.54
  -6   2 -12    3.81    0.49
  -6   2 -12    3.33    0.58
   5  -2  12    0.91    0.47
   5  -2  12    0.50    0.40
  -5   2 -12    0.96    0.46
  -5   2 -12    0.79    0.40
  -5   2 -12    0.01    0.34
   4  -2  12    2.40    0.37
   4  -2  12    3.36    0.49
   4  -2  12    2.89    0.36
  -4   2 -12    2.88    0.45
  -4   2 -12    3.54    0.33
  -4   2 -12    2.66    0.51
  -4   2 -12    3.63    0.38
   3  -2  12    0.56    0.39
   3  -2  12    0.50    0.34
  -3   2 -12    0.48    0.29
  -3   2 -12    0.58    0.42
  -3   2 -12    0.15    0.34
  -3   2 -12    0.72    0.33
   2  -2  12    0.18    0.39
   2  -2  12    0.14    0.25
   2  -2  12    0.19    0.37
  -2   2 -12   -0.48    0.38
  -2   2 -12    0.37    0.31
  -2   2 -12   -0.51    0.27
  -2   2 -12    0.40    0.34
   1  -2  12    6.47    0.50
   1  -2  12    5.22    0.53
   1  -2  12    5.91    0.56
  -1   2 -12    6.65    0.62
  -1   2 -12    5.78    0.48
  -1   2 -12    6.52    0.52
  -1   2 -12    5.98    0.55
   0  -2  12    0.34    0.43
   0  -2  12    0.40    0.30
   0  -2  12    0.26    0.42
   0   2 -12   -0.30    0.35
   0   2 -12    0.41    0.31
   0   2 -12    0.65    0.43
   0   2 -12   -0.20    0.43
  -1  -2  12    1.33    0.48
  -1  -2  12    1.27    0.36
   1   2 -12    1.69    0.38
   1   2 -12    0.86    0.47
   1   2 -12    1.70    0.53
   1   2 -12    0.62    0.44
   7  -1  12    0.77    0.56
   7  -1  12    0.91    0.51
   7  -1  12    0.26    0.40
   7  -1  12   -0.05    0.39
  -7   1 -12    1.15    0.49
  -7   1 -12    1.07    0.47
  -7   1 -12    0.44    0.55
   6  -1  12    1.27    0.52
   6  -1  12    1.37    0.45
   6  -1  12    1.67    0.38
  -6   1 -12    1.61    0.39
  -6   1 -12    0.98    0.42
  -6   1 -12    1.59    0.51
   5  -1  12    0.58    0.36
   5  -1  12    0.84    0.32
   5  -1  12    1.24    0.46
  -5   1 -12    0.22    0.30
  -5   1 -12    0.96    0.40
  -5   1 -12    1.09    0.46
   4  -1  12    0.88    0.30
   4  -1  12    0.87    0.41
   4  -1  12    0.80    0.34
  -4   1 -12    0.65    0.27
  -4   1 -12    1.11    0.28
  -4   1 -12    1.18    0.36
  -4   1 -12    0.86    0.41
   3  -1  12    2.21    0.39
   3  -1  12    2.74    0.44
  -3   1 -12    2.83    0.31
  -3   1 -12    1.97    0.27
  -3   1 -12    2.81    0.36
  -3   1 -12    2.33    0.44
   2  -1  12    3.07    0.45
   2  -1  12    3.24    0.45
  -2   1 -12    2.63    0.46
  -2   1 -12    2.79    0.32
  -2   1 -12    2.21    0.34
  -2   1 -12    2.99    0.34
   1  -1  12    1.41    0.42
   1  -1  12    0.45    0.27
   1  -1  12    0.43    0.38
  -1   1 -12    2.03    0.35
  -1   1 -12    0.67    0.41
  -1   1 -12    1.27    0.28
  -1   1 -12    1.13    0.34
   0  -1  12    0.58    0.29
   0  -1  12    0.56    0.42
   0  -1  12    0.08    0.39
   0   1 -12    0.55    0.40
   0   1 -12   -0.23    0.35
   0   1 -12    0.51    0.30
   0   1 -12    0.46    0.40
  -1  -1  12    1.47    0.36
  -1  -1  12    1.07    0.49
   1   1 -12    0.86    0.36
   1   1 -12    2.00    0.51
   1   1 -12    1.26    0.43
   7   0  12    2.93    0.37
   7   0  12    3.06    0.39
   7   0  12    2.99    0.60
   7   0  12    2.68    0.53
  -7   0 -12    3.23    0.46
  -7   0 -12    3.02    0.56
  -7   0 -12    3.48    0.59
   6   0  12    0.05    0.39
   6   0  12    0.12    0.34
   6   0  12   -0.27    0.45
  -6   0 -12   -0.08    0.47
  -6   0 -12    0.32    0.33
  -6   0 -12   -0.51    0.39
   5   0  12    7.74    0.60
   5   0  12    7.05    0.63
   5   0  12    7.96    0.78
  -5   0 -12    8.80    0.71
  -5   0 -12    8.65    0.79
  -5   0 -12    6.45    0.56
  -5   0 -12    7.54    0.54
   4   0  12    5.28    0.51
   4   0  12    7.40    0.63
   4   0  12    5.87    0.53
  -4   0 -12    5.42    0.46
  -4   0 -12    4.85    0.48
  -4   0 -12    6.23    0.54
  -4   0 -12    7.38    0.63
   3   0  12    0.68    0.35
   3   0  12    0.15    0.36
  -3   0 -12   -0.08    0.31
  -3   0 -12    0.01    0.29
  -3   0 -12    0.12    0.26
  -3   0 -12   -0.06    0.36
   2   0  12    0.91    0.37
   2   0  12    1.41    0.39
  -2   0 -12    0.83    0.31
  -2   0 -12    1.39    0.27
  -2   0 -12    1.33    0.39
  -2   0 -12    0.45    0.36
   1   0  12    0.31    0.39
   1   0  12    0.36    0.35
  -1   0 -12    1.77    0.30
  -1   0 -12    0.83    0.31
  -1   0 -12    1.15    0.38
  -1   0 -12    0.25    0.34
   0   0  12    5.94    0.55
   0   0 -12    6.64    0.55
   0   0 -12    7.31    0.67
   0   0 -12    4.87    0.54
   0   0 -12    6.19    0.62
   1   0 -12    0.50    0.45
   8   1  12    0.02    0.44
   8   1  12    0.28    0.34
   8   1  12    0.80    0.55
   8   1  12    1.00    0.60
  -8  -1 -12    0.64    0.61
  -8  -1 -12    0.98    0.50
  -8  -1 -12    0.34    0.54
   7   1  12    0.43    0.37
   7   1  12    0.56    0.45
   7   1  12    0.54    0.49
  -7  -1 -12   -0.03    0.36
  -7  -1 -12    1.04    0.46
  -7  -1 -12    1.24    0.36
  -7  -1 -12    1.40    0.55
   6   1  12    0.99    0.34
   6   1  12    0.61    0.46
   6   1  12    0.72    0.39
  -6  -1 -12    0.72    0.31
  -6  -1 -12    0.61    0.29
  -6  -1 -12    0.72    0.41
  -6  -1 -12    1.19    0.49
   5   1  12    0.05    0.38
   5   1  12    0.52    0.32
   5   1  12    0.09    0.34
  -5  -1 -12    0.17    0.33
  -5  -1 -12   -0.26    0.28
  -5  -1 -12    0.26    0.41
  -5  -1 -12    0.07    0.28
   4   1  12    6.10    0.58
   4   1  12    5.81    0.53
   4   1  12    4.57    0.49
  -4  -1 -12    4.61    0.43
  -4  -1 -12    4.94    0.46
  -4  -1 -12    3.88    0.39
  -4  -1 -12    5.01    0.52
   3   1  12    3.96    0.44
   3   1  12    4.12    0.46
  -3  -1 -12    4.24    0.47
  -3  -1 -12    5.49    0.58
  -3  -1 -12    5.28    0.47
  -3  -1 -12    5.16    0.48
   2   1  12    0.22    0.33
   2   1  12    0.35    0.36
  -2  -1 -12    0.68    0.31
  -2  -1 -12   -0.26    0.34
  -2  -1 -12    1.00    0.27
  -2  -1 -12    0.84    0.36
   1   1  12    4.45    0.51
   1   1  12    3.87    0.43
  -1  -1 -12    4.79    0.50
  -1  -1 -12    3.84    0.41
  -1  -1 -12    3.63    0.40
  -1  -1 -12    4.03    0.47
   0   1  12    0.78    0.45
   0  -1 -12    1.47    0.32
   0  -1 -12    1.55    0.39
   0  -1 -12    0.71    0.43
   0  -1 -12    1.10    0.35
   0  -1 -12    0.33    0.41
   8   2  12    2.23    0.57
   8   2  12    1.71    0.57
   8   2  12    1.69    0.43
  -8  -2 -12    2.04    0.53
  -8  -2 -12    1.94    0.41
  -8  -2 -12    1.97    0.63
  -8  -2 -12    1.95    0.47
   7   2  12    0.34    0.36
   7   2  12    0.00    0.45
   7   2  12   -0.38    0.47
  -7  -2 -12   -0.18    0.31
  -7  -2 -12   -0.11    0.40
  -7  -2 -12    0.07    0.52
  -7  -2 -12   -0.37    0.34
   6   2  12    1.97    0.48
   6   2  12    2.00    0.32
   6   2  12    1.51    0.43
  -6  -2 -12    2.03    0.41
  -6  -2 -12    2.02    0.49
  -6  -2 -12    2.01    0.31
  -6  -2 -12    0.68    0.32
   5   2  12    2.11    0.33
   5   2  12    2.50    0.45
   5   2  12    2.13    0.41
  -5  -2 -12    2.80    0.46
  -5  -2 -12    2.18    0.33
  -5  -2 -12    2.31    0.30
  -5  -2 -12    2.19    0.35
   4   2  12    0.58    0.31
   4   2  12    0.53    0.33
   4   2  12    0.59    0.37
  -4  -2 -12    0.63    0.28
  -4  -2 -12    0.07    0.28
  -4  -2 -12    0.81    0.40
  -4  -2 -12    0.68    0.31
   3   2  12    5.29    0.46
   3   2  12    5.39    0.44
   3   2  12    5.81    0.53
  -3  -2 -12    7.06    0.65
  -3  -2 -12    4.65    0.44
  -3  -2 -12    6.57    0.51
  -3  -2 -12    6.48    0.64
   2   2  12    0.34    0.40
  -2  -2 -12    0.64    0.36
  -2  -2 -12    0.76    0.36
  -2  -2 -12    0.75    0.29
  -2  -2 -12    0.11    0.32
   1   2  12    4.67    0.50
   1   2  12    4.36    0.52
  -1  -2 -12    4.23    0.50
  -1  -2 -12    4.57    0.39
  -1  -2 -12    4.47    0.47
  -1  -2 -12    3.48    0.48
   0  -2 -12    0.07    0.43
   0  -2 -12    0.43    0.31
   0  -2 -12    0.29    0.27
   0  -2 -12   -0.42    0.45
   8   3  12    1.64    0.58
   8   3  12    0.72    0.41
   8   3  12    0.99    0.58
  -8  -3 -12    1.61    0.56
  -8  -3 -12    1.10    0.61
  -8  -3 -12    0.56    0.36
  -8  -3 -12    0.73    0.44
   7   3  12    1.18    0.48
   7   3  12    0.66    0.50
   7   3  12    0.44    0.40
  -7  -3 -12    0.82    0.51
  -7  -3 -12    1.66    0.36
  -7  -3 -12    0.72    0.40
  -7  -3 -12    0.80    0.35
   6   3  12    2.82    0.50
   6   3  12    3.01    0.36
   6   3  12    3.47    0.51
  -6  -3 -12    2.71    0.45
  -6  -3 -12    2.89    0.52
  -6  -3 -12    3.16    0.33
   5   3  12    0.40    0.37
   5   3  12    0.92    0.38
   5   3  12    0.44    0.39
  -5  -3 -12    0.72    0.29
  -5  -3 -12    0.69    0.32
  -5  -3 -12    0.60    0.40
  -5  -3 -12    0.83    0.32
   4   3  12    6.85    0.63
   4   3  12    5.15    0.44
   4   3  12    6.28    0.66
  -4  -3 -12    6.17    0.53
  -4  -3 -12    5.60    0.58
  -4  -3 -12    5.83    0.60
  -4  -3 -12    6.66    0.52
   3   3  12    0.50    0.29
   3   3  12    0.69    0.39
  -3  -3 -12    0.36    0.37
  -3  -3 -12    0.90    0.29
  -3  -3 -12    0.99    0.32
   2   3  12    1.56    0.45
   2   3  12    1.68    0.32
  -2  -3 -12    1.78    0.32
  -2  -3 -12    1.32    0.38
  -2  -3 -12    1.43    0.31
  -2  -3 -12    0.81    0.40
  -1  -3 -12    0.57    0.25
  -1  -3 -12    0.31    0.42
  -1  -3 -12    0.48    0.46
   7   4  12    2.26    0.39
   7   4  12    2.94    0.56
   7   4  12    3.04    0.57
  -7  -4 -12    3.50    0.38
  -7  -4 -12    3.70    0.60
  -7  -4 -12    2.95    0.45
  -7  -4 -12    1.93    0.36
   6   4  12    0.09    0.33
   6   4  12    0.08    0.44
   6   4  12    0.24    0.43
  -6  -4 -12   -0.43    0.45
  -6  -4 -12    0.22    0.32
  -6  -4 -12   -0.10    0.32
  -6  -4 -12   -0.52    0.29
   5   4  12    2.22    0.45
   5   4  12    2.25    0.47
   5   4  12    1.64    0.37
  -5  -4 -12    2.47    0.37
  -5  -4 -12    2.37    0.37
  -5  -4 -12    2.22    0.48
  -5  -4 -12    2.44    0.34
   4   4  12    3.88    0.48
   4   4  12    3.65    0.44
  -4  -4 -12    6.40    0.64
  -4  -4 -12    3.72    0.47
  -4  -4 -12    5.32    0.56
  -4  -4 -12    3.47    0.41
   3   4  12   -0.04    0.32
  -3  -4 -12   -0.56    0.38
  -3  -4 -12    0.16    0.32
  -3  -4 -12    0.48    0.36
  -3  -4 -12    0.47    0.29
  -2  -4 -12    1.33    0.27
  -2  -4 -12    0.87    0.43
  -2  -4 -12    1.56    0.29
  -2  -4 -12    0.51    0.41
   7   5  12    0.57    0.55
   7   5  12   -0.35    0.42
   7   5  12   -0.97    0.48
  -7  -5 -12    0.62    0.56
  -7  -5 -12   -0.65    0.35
  -7  -5 -12   -0.56    0.38
  -7  -5 -12    0.13    0.41
   6   5  12   -0.05    0.34
   6   5  12   -0.19    0.47
   6   5  12   -0.06    0.45
  -6  -5 -12    0.71    0.35
  -6  -5 -12    0.19    0.50
  -6  -5 -12    1.01    0.39
  -6  -5 -12    0.66    0.35
   5   5  12    0.58    0.41
   5   5  12    0.35    0.44
  -5  -5 -12    0.83    0.45
  -5  -5 -12    0.95    0.35
  -5  -5 -12    1.05    0.37
  -5  -5 -12    0.74    0.35
   4   5  12    0.17    0.41
   4   5  12    0.33    0.36
  -4  -5 -12    0.04    0.37
  -4  -5 -12    0.54    0.40
  -4  -5 -12    0.42    0.34
  -4  -5 -12    0.93    0.33
   3   5  12    5.70    0.51
  -3  -5 -12    5.68    0.53
  -3  -5 -12    5.99    0.52
  -3  -5 -12    5.61    0.57
  -3  -5 -12    5.92    0.57
   6   6  12    2.03    0.48
   6   6  12    1.73    0.55
  -6  -6 -12    2.74    0.44
  -6  -6 -12    1.97    0.52
  -6  -6 -12    2.02    0.44
  -6  -6 -12    1.82    0.42
   5   6  12    1.42    0.50
  -5  -6 -12    0.99    0.43
  -5  -6 -12    1.36    0.39
  -5  -6 -12    0.51    0.39
   3  -4  13    1.72    0.38
  -3   4 -13    1.55    0.54
  -3   4 -13    1.31    0.53
  -3   4 -13    1.03    0.62
   2  -4  13    1.73    0.38
  -2   4 -13    2.21    0.63
  -2   4 -13    1.02    0.49
   4  -3  13   -0.52    0.43
   4  -3  13    0.23    0.37
   4  -3  13    0.59    0.58
  -4   3 -13   -0.44    0.42
  -4   3 -13    0.08    0.55
  -4   3 -13    0.74    0.42
  -4   3 -13   -0.14    0.48
   3  -3  13    0.38    0.56
   3  -3  13    1.03    0.47
   3  -3  13   -0.94    0.32
  -3   3 -13    0.17    0.38
  -3   3 -13    0.62    0.54
  -3   3 -13    0.19    0.43
  -3   3 -13    0.25    0.43
   2  -3  13    0.31    0.32
   2  -3  13    0.18    0.53
   2  -3  13   -0.39    0.51
  -2   3 -13   -0.48    0.43
  -2   3 -13   -0.27    0.54
  -2   3 -13    0.49    0.46
  -2   3 -13   -0.34    0.38
   1  -3  13    1.34    0.36
  -1   3 -13    0.37    0.42
  -1   3 -13    0.74    0.49
  -1   3 -13   -0.16    0.56
   5  -2  13    1.05    0.44
   5  -2  13    1.15    0.56
   5  -2  13   -0.74    0.40
  -5   2 -13    1.31    0.57
  -5   2 -13    1.10    0.42
  -5   2 -13    0.74    0.48
   4  -2  13    1.59    0.54
   4  -2  13    1.06    0.36
   4  -2  13    0.96    0.41
  -4   2 -13    0.61    0.47
  -4   2 -13    1.00    0.37
  -4   2 -13    1.62    0.40
  -4   2 -13    2.37    0.57
   3  -2  13    2.62    0.54
   3  -2  13    2.72    0.54
  -3   2 -13    3.37    0.45
  -3   2 -13    2.11    0.55
  -3   2 -13    1.97    0.36
  -3   2 -13    2.05    0.41
   2  -2  13    0.44    0.44
   2  -2  13   -0.32    0.32
   2  -2  13    0.04    0.50
  -2   2 -13    0.80    0.42
  -2   2 -13    0.33    0.35
  -2   2 -13    0.04    0.51
  -2   2 -13    0.19    0.39
   1  -2  13    1.49    0.56
   1  -2  13    1.00    0.34
   1  -2  13    1.68    0.51
  -1   2 -13    1.71    0.38
  -1   2 -13    1.30    0.53
  -1   2 -13    1.15    0.46
  -1   2 -13    1.00    0.40
   6  -1  13    4.14    0.67
   6  -1  13    3.71    0.56
  -6   1 -13    3.25    0.56
  -6   1 -13    3.79    0.46
  -6   1 -13    3.60    0.68
   5  -1  13   -0.47    0.39
   5  -1  13    0.57    0.38
   5  -1  13    0.47    0.53
  -5   1 -13   -0.07    0.48
  -5   1 -13   -0.58    0.37
  -5   1 -13    0.26    0.52
   4  -1  13    4.41    0.41
   4  -1  13    4.58    0.58
   4  -1  13    4.43    0.53
  -4   1 -13    6.78    0.75
  -4   1 -13    5.78    0.61
  -4   1 -13    5.00    0.62
   3  -1  13    0.17    0.46
   3  -1  13    0.55    0.48
  -3   1 -13    0.21    0.34
  -3   1 -13    0.20    0.48
  -3   1 -13   -0.31    0.39
   2  -1  13    1.76    0.48
   2  -1  13    1.35    0.48
  -2   1 -13    1.84    0.36
  -2   1 -13    2.08    0.51
  -2   1 -13    0.29    0.35
  -2   1 -13    2.20    0.40
   1  -1  13    2.02    0.53
   1  -1  13    1.72    0.50
  -1   1 -13    1.74    0.42
  -1   1 -13    2.26    0.43
  -1   1 -13    2.02    0.53
  -1   1 -13    1.31    0.37
   6   0  13    1.23    0.43
   6   0  13    0.41    0.47
   6   0  13    0.85    0.58
  -6   0 -13    1.34    0.56
  -6   0 -13    1.30    0.53
  -6   0 -13    1.31    0.41
   5   0  13    1.60    0.53
   5   0  13    2.59    0.43
   5   0  13    1.18    0.42
  -5   0 -13    0.76    0.35
  -5   0 -13    2.00    0.45
  -5   0 -13    1.12    0.55
   4   0  13    0.77    0.46
   4   0  13    1.05    0.33
   4   0  13    1.22    0.44
  -4   0 -13    0.89    0.33
  -4   0 -13    0.21    0.40
  -4   0 -13    1.15    0.40
  -4   0 -13    1.06    0.50
   3   0  13    0.15    0.46
   3   0  13    0.12    0.43
  -3   0 -13   -0.37    0.32
  -3   0 -13    0.07    0.44
  -3   0 -13    0.12    0.37
   2   0  13    1.38    0.50
   2   0  13    1.75    0.46
  -2   0 -13    1.99    0.36
  -2   0 -13    0.45    0.38
  -2   0 -13    1.83    0.46
   1   0  13    0.75    0.51
   1   0  13    0.44    0.40
  -1   0 -13    0.89    0.44
  -1   0 -13    0.30    0.36
  -1   0 -13   -0.31    0.34
  -1   0 -13    0.23    0.43
   6   1  13    0.40    0.59
   6   1  13    0.15    0.45
   6   1  13    0.19    0.39
  -6  -1 -13    0.17    0.38
  -6  -1 -13    0.50    0.54
  -6  -1 -13   -0.10    0.37
  -6  -1 -13   -0.02    0.44
   5   1  13    0.37    0.42
   5   1  13    0.95    0.40
   5   1  13    0.92    0.49
  -5  -1 -13    1.17    0.34
  -5  -1 -13    0.98    0.40
  -5  -1 -13    1.62    0.54
  -5  -1 -13    0.73    0.36
   4   1  13    0.48    0.33
   4   1  13    0.39    0.45
   4   1  13    0.73    0.45
  -4  -1 -13    0.56    0.33
  -4  -1 -13    0.94    0.45
  -4  -1 -13    0.77    0.38
  -4  -1 -13    1.00    0.38
   3   1  13    2.54    0.46
   3   1  13    2.53    0.50
  -3  -1 -13    2.72    0.39
  -3  -1 -13    2.38    0.49
  -3  -1 -13    2.31    0.38
  -3  -1 -13    2.93    0.45
   2   1  13    2.18    0.54
  -2  -1 -13    2.99    0.47
  -2  -1 -13    2.29    0.38
  -2  -1 -13    2.57    0.42
  -2  -1 -13    2.52    0.45
   6   2  13    2.32    0.42
   6   2  13    2.81    0.53
   6   2  13    1.81    0.58
  -6  -2 -13    3.09    0.60
  -6  -2 -13    2.91    0.39
  -6  -2 -13    1.79    0.43
  -6  -2 -13    2.96    0.39
   5   2  13    2.51    0.52
   5   2  13    2.63    0.44
   5   2  13    2.79    0.46
  -5  -2 -13    3.34    0.56
  -5  -2 -13    2.78    0.37
  -5  -2 -13    2.72    0.44
  -5  -2 -13    2.18    0.39
   4   2  13    0.69    0.35
   4   2  13    1.02    0.45
   4   2  13    0.86    0.44
  -4  -2 -13    1.18    0.38
  -4  -2 -13    0.90    0.34
  -4  -2 -13    2.33    0.49
  -4  -2 -13    0.23    0.37
   3   2  13    3.08    0.54
   3   2  13    2.28    0.43
  -3  -2 -13    2.67    0.40
  -3  -2 -13    2.67    0.48
  -3  -2 -13    1.59    0.39
  -3  -2 -13    2.70    0.47
   2   2  13    0.22    0.40
   2   2  13   -0.14    0.50
  -2  -2 -13    0.11    0.35
  -2  -2 -13   -0.27    0.41
  -2  -2 -13   -0.39    0.36
  -2  -2 -13   -0.72    0.42
   6   3  13    0.59    0.46
   6   3  13    1.43    0.51
   6   3  13    0.65    0.52
  -6  -3 -13   -0.21    0.54
  -6  -3 -13    1.07    0.38
  -6  -3 -13    1.53    0.40
  -6  -3 -13    1.62    0.46
   5   3  13   -0.05    0.44
   5   3  13    0.57    0.46
   5   3  13    0.07    0.44
  -5  -3 -13    0.20    0.46
  -5  -3 -13    0.60    0.40
  -5  -3 -13   -0.11    0.39
  -5  -3 -13    0.80    0.37
   4   3  13    1.61    0.38
   4   3  13    1.61    0.43
   4   3  13    1.21    0.47
  -4  -3 -13    1.31    0.37
  -4  -3 -13    1.13    0.45
  -4  -3 -13    0.77    0.38
  -4  -3 -13    1.58    0.42
   3   3  13    1.73    0.53
   3   3  13    1.69    0.42
  -3  -3 -13    1.44    0.42
  -3  -3 -13    2.13    0.39
  -3  -3 -13    1.09    0.47
  -3  -3 -13    1.74    0.40
   5   4  13    0.64    0.48
   5   4  13    0.13    0.44
   5   4  13    0.18    0.48
  -5  -4 -13    0.37    0.39
  -5  -4 -13    0.19    0.50
  -5  -4 -13    1.10    0.39
  -5  -4 -13    1.34    0.42
   0   0   0    0.00    0.00
;
_shelx_hkl_checksum              34094
loop_
_space_group_symop_operation_xyz
'x, y, z'
'-x, -y, -z'
loop_
_atom_site_label
_atom_site_type_symbol
_atom_site_fract_x
_atom_site_fract_y
_atom_site_fract_z
_atom_site_U_iso_or_equiv
_atom_site_adp_type
_atom_site_occupancy
_atom_site_site_symmetry_order
_atom_site_calc_flag
_atom_site_refinement_flags_posn
_atom_site_refinement_flags_adp
Zn1 Zn 0.29306(4) 1.11582(2) 0.41454(3) 0.03719(13) Uani 1 1 d . .
O2 O 0.2003(3) 0.8715(2) 0.4147(2) 0.0605(6) Uani 1 1 d . .
O1 O 0.4554(2) 0.91711(17) 0.33088(18) 0.0428(4) Uani 1 1 d . .
O5 O 1.0273(3) 0.6362(2) 0.1816(3) 0.0724(7) Uani 1 1 d . .
O4 O 0.4896(3) 0.19971(18) 0.33372(19) 0.0505(5) Uani 1 1 d . .
O3 O 0.2397(3) 0.3757(2) 0.4583(2) 0.0631(6) Uani 1 1 d . .
O6 O 0.0775(3) 1.1925(2) 0.3650(2) 0.0623(5) Uani 1 1 d D .
O7 O 0.1994(4) 1.1054(3) 0.6110(2) 0.0729(7) Uani 1 1 d D .
N1 N 0.9656(3) 0.4362(2) 0.1645(2) 0.0422(5) Uani 1 1 d . .
H1 H 1.0169 0.3483 0.1307 0.051 Uiso 1 1 calc R U
C5 C 0.4002(4) 0.3312(3) 0.3797(3) 0.0429(6) Uani 1 1 d . .
C4 C 0.4994(4) 0.4337(2) 0.3342(2) 0.0368(5) Uani 1 1 d . .
C3 C 0.3960(3) 0.5775(2) 0.3627(2) 0.0380(5) Uani 1 1 d . .
H3 H 0.2697 0.6080 0.4073 0.046 Uiso 1 1 calc R U
C2 C 0.4805(3) 0.6755(2) 0.3249(2) 0.0350(5) Uani 1 1 d . .
C1 C 0.3676(4) 0.8316(2) 0.3600(2) 0.0383(5) Uani 1 1 d . .
C8 C 0.6687(3) 0.6311(2) 0.2587(2) 0.0358(5) Uani 1 1 d . .
H8 H 0.7246 0.6976 0.2333 0.043 Uiso 1 1 calc R U
C7 C 0.7745(3) 0.4870(2) 0.2301(2) 0.0354(5) Uani 1 1 d . .
C6 C 0.6878(4) 0.3888(2) 0.2673(2) 0.0380(5) Uani 1 1 d . .
H6 H 0.7568 0.2924 0.2471 0.046 Uiso 1 1 calc R U
C9 C 1.0791(4) 0.5093(3) 0.1481(3) 0.0466(6) Uani 1 1 d . .
C10 C 1.2801(4) 0.4214(3) 0.0833(3) 0.0572(7) Uani 1 1 d . .
H10A H 1.3243 0.4269 -0.0099 0.086 Uiso 1 1 calc R U
H10B H 1.2984 0.3246 0.0970 0.086 Uiso 1 1 calc R U
H10C H 1.3455 0.4569 0.1217 0.086 Uiso 1 1 calc R U
C12 C 0.2402(7) 0.8396(4) 0.0451(5) 0.0935(14) Uani 1 1 d . .
H12A H 0.3021 0.8365 0.1030 0.140 Uiso 1 1 calc R U
H12B H 0.2745 0.7456 0.0026 0.140 Uiso 1 1 calc R U
H12C H 0.1106 0.8776 0.0957 0.140 Uiso 1 1 calc R U
N2 N 0.2899(4) 0.9277(3) -0.0530(2) 0.0599(7) Uani 1 1 d . .
H2 H 0.3594 0.8883 -0.1333 0.072 Uiso 1 1 calc R U
O8 O 0.1379(4) 1.1333(2) 0.0839(2) 0.0742(7) Uani 1 1 d . .
C11 C 0.2350(6) 1.0638(3) -0.0264(3) 0.0682(9) Uani 1 1 d . .
H11 H 0.2721 1.1133 -0.0965 0.082 Uiso 1 1 calc R U
H7A H 0.3015 1.0738 0.6367 0.102 Uiso 1 1 d D U
H7B H 0.1191 1.1982 0.6584 0.102 Uiso 1 1 d D U
H6B H -0.011(5) 1.177(5) 0.432(3) 0.102 Uiso 1 1 d D U
H6A H 0.107(7) 1.172(5) 0.276(2) 0.102 Uiso 1 1 d D U
loop_
_atom_site_aniso_label
_atom_site_aniso_U_11
_atom_site_aniso_U_22
_atom_site_aniso_U_33
_atom_site_aniso_U_23
_atom_site_aniso_U_13
_atom_site_aniso_U_12
Zn1 0.03554(18) 0.02490(16) 0.04476(19) 0.00427(11) -0.00697(13) -0.01353(12)
O2 0.0389(11) 0.0316(9) 0.0886(15) 0.0012(9) -0.0011(10) -0.0134(8)
O1 0.0414(9) 0.0221(7) 0.0563(10) 0.0010(7) -0.0079(8) -0.0144(7)
O5 0.0520(13) 0.0437(12) 0.1020(18) -0.0110(12) -0.0029(12) -0.0256(10)
O4 0.0591(12) 0.0288(9) 0.0565(11) 0.0020(8) -0.0074(9) -0.0250(8)
O3 0.0511(12) 0.0440(11) 0.0797(14) 0.0016(10) -0.0018(11) -0.0275(10)
O6 0.0608(13) 0.0566(13) 0.0682(13) 0.0164(11) -0.0229(12) -0.0227(11)
O7 0.0859(18) 0.0621(14) 0.0571(13) -0.0028(10) -0.0170(12) -0.0235(13)
N1 0.0432(11) 0.0260(9) 0.0515(12) 0.0012(8) -0.0132(10) -0.0117(8)
C5 0.0562(16) 0.0291(12) 0.0456(13) 0.0056(10) -0.0168(12) -0.0218(11)
C4 0.0491(14) 0.0268(11) 0.0378(11) 0.0045(9) -0.0149(10) -0.0205(10)
C3 0.0405(12) 0.0275(11) 0.0418(12) 0.0002(9) -0.0090(10) -0.0157(10)
C2 0.0431(13) 0.0226(10) 0.0379(11) 0.0025(8) -0.0118(10) -0.0149(9)
C1 0.0430(13) 0.0239(10) 0.0421(12) 0.0014(9) -0.0083(10) -0.0149(10)
C8 0.0425(13) 0.0232(10) 0.0416(12) 0.0033(9) -0.0123(10) -0.0166(9)
C7 0.0432(13) 0.0254(10) 0.0375(11) 0.0028(9) -0.0149(10) -0.0137(9)
C6 0.0497(14) 0.0213(10) 0.0437(12) 0.0035(9) -0.0184(11) -0.0140(10)
C9 0.0449(14) 0.0431(14) 0.0473(14) 0.0016(11) -0.0109(11) -0.0188(12)
C10 0.0434(15) 0.0587(18) 0.0626(17) 0.0029(14) -0.0140(13) -0.0179(13)
C12 0.105(3) 0.0481(19) 0.086(3) 0.0135(19) -0.004(2) -0.017(2)
N2 0.0670(16) 0.0449(13) 0.0462(13) -0.0063(10) -0.0013(12) -0.0182(12)
O8 0.103(2) 0.0371(11) 0.0582(13) -0.0065(9) -0.0216(13) -0.0075(12)
C11 0.098(3) 0.0457(16) 0.0490(16) 0.0093(13) -0.0182(17) -0.0248(17)
loop_
_atom_type_symbol
_atom_type_description
_atom_type_scat_dispersion_real
_atom_type_scat_dispersion_imag
_atom_type_scat_source
C C 0.0033 0.0016 'International Tables Vol C Tables 4.2.6.8 and 6.1.1.4'
H H 0.0000 0.0000 'International Tables Vol C Tables 4.2.6.8 and 6.1.1.4'
N N 0.0061 0.0033 'International Tables Vol C Tables 4.2.6.8 and 6.1.1.4'
O O 0.0106 0.0060 'International Tables Vol C Tables 4.2.6.8 and 6.1.1.4'
Zn Zn 0.2839 1.4301 'International Tables Vol C Tables 4.2.6.8 and 6.1.1.4'
loop_
_geom_angle_atom_site_label_1
_geom_angle_atom_site_label_2
_geom_angle_atom_site_label_3
_geom_angle
_geom_angle_site_symmetry_3
O1 Zn1 O6 114.17(9) .
O1 Zn1 O7 104.31(9) .
O6 Zn1 O7 108.34(11) .
O1 Zn1 O4 95.05(7) 1_565
O6 Zn1 O4 114.84(9) 1_565
O7 Zn1 O4 119.15(10) 1_565
C1 O1 Zn1 111.60(15) .
C5 O4 Zn1 101.32(17) 1_545
Zn1 O6 H6B 102(3) .
Zn1 O6 H6A 113(3) .
H6B O6 H6A 127(4) .
Zn1 O7 H7A 109.00 .
Zn1 O7 H7B 109.00 .
H7A O7 H7B 109.00 .
C9 N1 C7 127.7(2) .
C9 N1 H1 116.1 .
C7 N1 H1 116.1 .
O3 C5 O4 122.6(2) .
O3 C5 C4 119.7(2) .
O4 C5 C4 117.7(2) .
C6 C4 C3 119.7(2) .
C6 C4 C5 122.4(2) .
C3 C4 C5 117.9(2) .
C2 C3 C4 120.1(2) .
C2 C3 H3 120.0 .
C4 C3 H3 120.0 .
C3 C2 C8 120.4(2) .
C3 C2 C1 119.7(2) .
C8 C2 C1 119.9(2) .
O2 C1 O1 123.2(2) .
O2 C1 C2 120.2(2) .
O1 C1 C2 116.6(2) .
C2 C8 C7 120.2(2) .
C2 C8 H8 119.9 .
C7 C8 H8 119.9 .
C8 C7 C6 119.0(2) .
C8 C7 N1 122.6(2) .
C6 C7 N1 118.4(2) .
C4 C6 C7 120.6(2) .
C4 C6 H6 119.7 .
C7 C6 H6 119.7 .
O5 C9 N1 124.1(3) .
O5 C9 C10 120.9(3) .
N1 C9 C10 115.0(2) .
C9 C10 H10A 109.5 .
C9 C10 H10B 109.5 .
H10A C10 H10B 109.5 .
C9 C10 H10C 109.5 .
H10A C10 H10C 109.5 .
H10B C10 H10C 109.5 .
N2 C12 H12A 109.5 .
N2 C12 H12B 109.5 .
H12A C12 H12B 109.5 .
N2 C12 H12C 109.5 .
H12A C12 H12C 109.5 .
H12B C12 H12C 109.5 .
C11 N2 C12 122.9(3) .
C11 N2 H2 118.5 .
C12 N2 H2 118.5 .
O8 C11 N2 125.3(3) .
O8 C11 H11 117.3 .
N2 C11 H11 117.3 .
loop_
_geom_bond_atom_site_label_1
_geom_bond_atom_site_label_2
_geom_bond_distance
_geom_bond_site_symmetry_2
Zn1 O1 1.9968(17) .
Zn1 O6 2.010(2) .
Zn1 O7 2.020(2) .
Zn1 O4 2.0241(19) 1_565
O2 C1 1.229(3) .
O1 C1 1.284(3) .
O5 C9 1.216(3) .
O4 C5 1.281(3) .
O4 Zn1 2.0240(18) 1_545
O3 C5 1.227(4) .
O6 H6B 0.891(19) .
O6 H6A 0.918(19) .
O7 H7A 0.96000 .
O7 H7B 0.96000 .
N1 C9 1.357(3) .
N1 C7 1.404(3) .
N1 H1 0.8600 .
C5 C4 1.513(3) .
C4 C6 1.388(4) .
C4 C3 1.388(3) .
C3 C2 1.382(3) .
C3 H3 0.9300 .
C2 C8 1.386(3) .
C2 C1 1.508(3) .
C8 C7 1.395(3) .
C8 H8 0.9300 .
C7 C6 1.396(3) .
C6 H6 0.9300 .
C9 C10 1.509(4) .
C10 H10A 0.9600 .
C10 H10B 0.9600 .
C10 H10C 0.9600 .
C12 N2 1.429(4) .
C12 H12A 0.9600 .
C12 H12B 0.9600 .
C12 H12C 0.9600 .
N2 C11 1.292(4) .
N2 H2 0.8600 .
O8 C11 1.228(4) .
C11 H11 0.9300 .
loop_
_geom_hbond_atom_site_label_D
_geom_hbond_atom_site_label_H
_geom_hbond_atom_site_label_A
_geom_hbond_distance_DH
_geom_hbond_distance_HA
_geom_hbond_distance_DA
_geom_hbond_angle_DHA
_geom_hbond_site_symmetry_A
N1 H1 O8 0.86 2.04 2.890(3) 169.5 1_645
C8 H8 O5 0.93 2.26 2.845(3) 120.1 .
N2 H2 O4 0.86 2.10 2.959(3) 175.2 2_665
O6 H6A O8 0.918(19) 2.05(2) 2.968(3) 173(4) .
O7 H7B O5 0.9600 2.100 3.015(3) 157.97(17) 2_676
O6 H6B O2 0.891(19) 2.03(2) 2.922(3) 176(5) 2_576
N1 H1 O8 0.86 2.04 2.890(3) 169.5 1_645
C8 H8 O5 0.93 2.26 2.845(3) 120.1 .
N2 H2 O4 0.86 2.10 2.959(3) 175.2 2_665
O6 H6A O8 0.918(19) 2.05(2) 2.968(3) 173(4) .
O7 H7B O5 0.9600 2.100 3.015(3) 157.97(17) 2_676
O6 H6B O2 0.891(19) 2.03(2) 2.922(3) 176(5) 2_576
loop_
_geom_torsion_atom_site_label_1
_geom_torsion_atom_site_label_2
_geom_torsion_atom_site_label_3
_geom_torsion_atom_site_label_4
_geom_torsion
_geom_torsion_site_symmetry_1
Zn1 O4 C5 O3 3.8(3) 1_545
Zn1 O4 C5 C4 -176.38(19) 1_545
O3 C5 C4 C6 166.9(3) .
O4 C5 C4 C6 -12.9(4) .
O3 C5 C4 C3 -12.4(4) .
O4 C5 C4 C3 167.9(2) .
C6 C4 C3 C2 -0.2(4) .
C5 C4 C3 C2 179.1(2) .
C4 C3 C2 C8 -0.1(4) .
C4 C3 C2 C1 -178.1(2) .
Zn1 O1 C1 O2 10.6(3) .
Zn1 O1 C1 C2 -168.74(16) .
C3 C2 C1 O2 -4.4(4) .
C8 C2 C1 O2 177.5(3) .
C3 C2 C1 O1 175.0(2) .
C8 C2 C1 O1 -3.0(3) .
C3 C2 C8 C7 -0.3(4) .
C1 C2 C8 C7 177.7(2) .
C2 C8 C7 C6 1.0(3) .
C2 C8 C7 N1 -179.3(2) .
C9 N1 C7 C8 17.5(4) .
C9 N1 C7 C6 -162.9(2) .
C3 C4 C6 C7 0.9(4) .
C5 C4 C6 C7 -178.3(2) .
C8 C7 C6 C4 -1.3(3) .
N1 C7 C6 C4 179.0(2) .
C7 N1 C9 O5 -5.5(5) .
C7 N1 C9 C10 174.7(2) .
C12 N2 C11 O8 1.1(7) .
