#------------------------------------------------------------------------------
#$Date: 2015-09-05 23:55:18 +0300 (Sat, 05 Sep 2015) $
#$Revision: 154577 $
#$URL: svn://www.crystallography.net/cod/cif/4/51/34/4513491.cif $
#------------------------------------------------------------------------------
#
# This file is available in the Crystallography Open Database (COD),
# http://www.crystallography.net/
#
# All data on this site have been placed in the public domain by the
# contributors.
#
data_4513491
loop_
_publ_author_name
'Karmakar, Anirban'
'R\'ubio, Guilherme M. D. M.'
'Guedes da Silva, M. F\'atima C.'
'Hazra, Susanta'
'Pombeiro, Armando J. L.'
_publ_section_title
;
 Solvent-Dependent Structural Variation of Zinc(II) Coordination Polymers
 and Their Catalytic Activity in the Knoevenagel Condensation Reaction
;
_journal_issue                   9
_journal_name_full               'Crystal Growth &amp; Design'
_journal_page_first              4185
_journal_paper_doi               10.1021/acs.cgd.5b00948
_journal_volume                  15
_journal_year                    2015
_chemical_formula_moiety         'C11 H12 N2 O7 Zn'
_chemical_formula_sum            'C11 H12 N2 O7 Zn'
_chemical_formula_weight         349.60
_chemical_name_systematic
;
 ?
;
_space_group_crystal_system      triclinic
_space_group_IT_number           2
_space_group_name_Hall           '-P 1'
_space_group_name_H-M_alt        'P -1'
_symmetry_space_group_name_Hall  '-P 1'
_symmetry_space_group_name_H-M   'P -1'
_atom_sites_solution_hydrogens   mixed
_audit_creation_method           SHELXL-2014
_cell_angle_alpha                68.344(3)
_cell_angle_beta                 82.253(4)
_cell_angle_gamma                70.261(3)
_cell_formula_units_Z            2
_cell_length_a                   8.8542(8)
_cell_length_b                   8.8835(7)
_cell_length_c                   9.6729(8)
_cell_measurement_reflns_used    2199
_cell_measurement_temperature    296(2)
_cell_measurement_theta_max      26.48
_cell_measurement_theta_min      2.44
_cell_volume                     665.54(10)
_computing_publication_material  'WinGX publication routines (Farrugia, 1999)'
_computing_structure_refinement  'SHELXL-2014 (Sheldrick, 2014)'
_computing_structure_solution    'SIR97 (Giacovazzo et al, 1997)'
_diffrn_ambient_temperature      296(2)
_diffrn_measured_fraction_theta_full 0.984
_diffrn_measured_fraction_theta_max 0.984
_diffrn_measurement_device_type  'Bruker APEX-II PHOTON 100 detector'
_diffrn_measurement_method       '\f and \w scans'
_diffrn_radiation_source         'fine-focus sealed tube'
_diffrn_radiation_type           MoK\a
_diffrn_radiation_wavelength     0.71073
_diffrn_reflns_av_R_equivalents  0.0505
_diffrn_reflns_av_unetI/netI     0.0615
_diffrn_reflns_laue_measured_fraction_full 0.984
_diffrn_reflns_laue_measured_fraction_max 0.984
_diffrn_reflns_limit_h_max       11
_diffrn_reflns_limit_h_min       -11
_diffrn_reflns_limit_k_max       11
_diffrn_reflns_limit_k_min       -11
_diffrn_reflns_limit_l_max       12
_diffrn_reflns_limit_l_min       -11
_diffrn_reflns_number            7956
_diffrn_reflns_point_group_measured_fraction_full 0.984
_diffrn_reflns_point_group_measured_fraction_max 0.984
_diffrn_reflns_theta_full        25.242
_diffrn_reflns_theta_max         27.484
_diffrn_reflns_theta_min         2.266
_exptl_absorpt_coefficient_mu    1.881
_exptl_absorpt_correction_T_max  0.7
_exptl_absorpt_correction_T_min  0.6
_exptl_absorpt_correction_type   multi-scan
_exptl_absorpt_process_details   SADABS
_exptl_crystal_colour            Colourless
_exptl_crystal_density_diffrn    1.745
_exptl_crystal_description       Block
_exptl_crystal_F_000             356
_exptl_crystal_size_max          0.280
_exptl_crystal_size_mid          0.220
_exptl_crystal_size_min          0.140
_refine_diff_density_max         0.548
_refine_diff_density_min         -0.396
_refine_diff_density_rms         0.098
_refine_ls_extinction_method     none
_refine_ls_goodness_of_fit_ref   0.990
_refine_ls_hydrogen_treatment    mixed
_refine_ls_matrix_type           full
_refine_ls_number_parameters     197
_refine_ls_number_reflns         3013
_refine_ls_number_restraints     0
_refine_ls_restrained_S_all      0.990
_refine_ls_R_factor_all          0.0706
_refine_ls_R_factor_gt           0.0381
_refine_ls_shift/su_max          0.002
_refine_ls_shift/su_mean         0.000
_refine_ls_structure_factor_coef Fsqd
_refine_ls_weighting_details
'w=1/[\s^2^(Fo^2^)+(0.0427P)^2^] where P=(Fo^2^+2Fc^2^)/3'
_refine_ls_weighting_scheme      calc
_refine_ls_wR_factor_gt          0.0761
_refine_ls_wR_factor_ref         0.0862
_reflns_Friedel_coverage         0.000
_reflns_number_gt                2176
_reflns_number_total             3013
_reflns_threshold_expression     'I > 2\s(I)'
_cod_data_source_file            cg5b00948_si_002.cif
_cod_data_source_block           compound4
_cod_depositor_comments
'Adding full bibliography for 4513488--4513492.cif.'
_cod_database_code               4513491
_shelx_space_group_comment
;
The symmetry employed for this shelxl refinement is uniquely defined
by the following loop, which should always be used as a source of
symmetry information in preference to the above space-group names.
They are only intended as comments.
;
_shelx_estimated_absorpt_t_min   0.621
_shelx_estimated_absorpt_t_max   0.779
_shelxl_version_number           2014-1
_shelx_res_file
;
TITL AK-GR19 in P-1
CELL  0.71073   8.8542   8.8835   9.6729   68.344   82.253   70.261
ZERR     2.00   0.0008   0.0007   0.0008    0.003    0.004    0.003
LATT   1
SFAC  C    H    N    O    ZN
UNIT  22   24   4    14   2
MERG   2
HTAB C5 O5
EQIV $1 x, y-1, z
HTAB C10 O1_$1
HTAB N1 O6_$1
EQIV $2 -x+1, -y+1, -z
HTAB N2 O5_$2
EQIV $3 -x+1, -y+1, -z+1
HTAB N2 O2_$3
EQIV $4 -x+2, -y, -z
HTAB O7 O5_$4
EQIV $5 -x+2, -y, -z+1
HTAB O7 O2_$5
FMAP   2
PLAN    5
SIZE     0.14   0.22   0.28
temp 23.00
ACTA
BOND   $H
CONF
L.S.  10
WGHT    0.042700
FVAR       0.15499
C1    1    0.829527    0.208733    0.266527    11.00000    0.02559    0.03020 =
         0.02144   -0.01030   -0.00104   -0.00472
C2    1    0.817676    0.165917    0.133568    11.00000    0.02195    0.02434 =
         0.02121   -0.00833    0.00068   -0.00584
C3    1    0.864513    0.260179   -0.005697    11.00000    0.02572    0.02736 =
         0.01959   -0.00919    0.00168   -0.01334
AFIX  43
H3    2    0.903385    0.348629   -0.015253    11.00000   -1.20000
AFIX   0
C4    1    0.853401    0.222699   -0.129570    11.00000    0.02400    0.02483 =
         0.01645   -0.00637    0.00179   -0.00918
C5    1    0.800484    0.087495   -0.116372    11.00000    0.02972    0.03101 =
         0.01539   -0.01044    0.00224   -0.01355
AFIX  43
H5    2    0.795875    0.060904   -0.199807    11.00000   -1.20000
AFIX   0
C6    1    0.904414    0.324637   -0.279700    11.00000    0.02350    0.02651 =
         0.01901   -0.00689    0.00251   -0.00904
C7    1    0.754244   -0.008232    0.023118    11.00000    0.02650    0.02267 =
         0.02196   -0.00809    0.00214   -0.01066
C8    1    0.762863    0.032491    0.147140    11.00000    0.02736    0.02462 =
         0.01645   -0.00403    0.00348   -0.01039
AFIX  43
H8    2    0.731461   -0.030631    0.240009    11.00000   -1.20000
AFIX   0
C9    1    0.653950   -0.193367   -0.056154    11.00000    0.03028    0.02726 =
         0.02713   -0.01278    0.00124   -0.00991
C10   1    0.604739   -0.350894    0.004173    11.00000    0.05024    0.02877 =
         0.04667   -0.00896   -0.01094   -0.01539
AFIX 137
H10A  2    0.491595   -0.320864    0.025470    11.00000   -1.50000
H10B  2    0.662381   -0.426489    0.093834    11.00000   -1.50000
H10C  2    0.628598   -0.406612   -0.067997    11.00000   -1.50000
AFIX   0
C11   1    0.611399    0.640229    0.453254    11.00000    0.04415    0.03721 =
         0.03121   -0.00578    0.00233   -0.01155
AFIX  43
H11   2    0.626920    0.567086    0.551611    11.00000   -1.20000
AFIX   0
N1    3    0.704211   -0.151324    0.045886    11.00000    0.03971    0.02632 =
         0.01940   -0.00293    0.00005   -0.01851
AFIX   3
H1N   2    0.706251   -0.220194    0.136136    11.00000   -1.20000
AFIX   0
N2    3    0.482144    0.768579    0.423992    11.00000    0.04735    0.05195 =
         0.03766   -0.00714    0.01200   -0.00202
H2A   2    0.464921    0.849398    0.342571    11.00000   -1.20000
H2B   2    0.421211    0.788438    0.489093    11.00000   -1.20000
O1    4    0.886416    0.329115    0.243074    11.00000    0.06043    0.04317 =
         0.02361   -0.01580   -0.00158   -0.02792
O2    4    0.783141    0.129432    0.390835    11.00000    0.06524    0.04405 =
         0.01769   -0.01374    0.01094   -0.02304
O3    4    0.955778    0.440221   -0.282877    11.00000    0.07398    0.04957 =
         0.02696   -0.00964    0.01122   -0.04669
O4    4    0.887569    0.290155   -0.388512    11.00000    0.05525    0.04531 =
         0.01449   -0.00861    0.00524   -0.02845
O5    4    0.645839   -0.106953   -0.190254    11.00000    0.06044    0.04272 =
         0.02560   -0.00987   -0.00264   -0.02596
O6    4    0.715930    0.606090    0.362481    11.00000    0.04591    0.04063 =
         0.02649   -0.00982    0.00615   -0.00435
O7    4    1.169588    0.202036    0.433774    11.00000    0.04856    0.04442 =
         0.02640   -0.00719    0.00373   -0.01104
H7A   2   11.217986   10.187224   10.353798    11.00000   -1.50000
H7B   2   11.207875   10.112144   10.508848    11.00000   -1.50000
ZN1   5    0.940088    0.387353    0.401100    11.00000    0.04442    0.03365 =
         0.01316   -0.00767    0.00430   -0.02453
HKLF    4

REM  AK-GR19 in P-1
REM R1 =  0.0381 for    2176 Fo > 4sig(Fo)  and  0.0706 for all    3013 data
REM    197 parameters refined using      0 restraints

END

WGHT      0.0425      0.0000

REM Highest difference peak  0.548,  deepest hole -0.396,  1-sigma level  0.098
Q1    1   0.8705  0.3658  0.3880  11.00000  0.05    0.55
Q2    1   0.8252  0.1693  0.2061  11.00000  0.05    0.54
Q3    1   1.0268  0.4017  0.4171  11.00000  0.05    0.45
Q4    1   0.7688  0.1128  0.1330  11.00000  0.05    0.43
Q5    1   0.8849  0.3337 -0.4764  11.00000  0.05    0.43
;
_shelx_res_checksum              18773
_shelx_hkl_file
;
  -1   0   0  190.51    2.42
  -1   0   0  181.27    2.44
   1   0   0  170.26    2.42
  -2   0   0   10.27    0.38
  -2   0   0    9.75    0.30
   2   0   0   10.16    0.39
   2   0   0    9.70    0.40
  -3   0   0    3.22    0.36
   3   0   0    3.48    0.30
   3   0   0    3.54    0.31
  -4   0   0    7.34    0.45
   4   0   0    6.98    0.45
   4   0   0    7.76    0.45
  -5   0   0    3.15    0.35
   5   0   0    3.27    0.34
   5   0   0    2.77    0.34
  -6   0   0    2.21    0.33
   6   0   0    2.54    0.32
  -7   0   0    7.77    0.62
   7   0   0    7.49    0.57
  -8   0   0    1.84    0.46
   8   0   0    1.88    0.37
  -9   0   0    2.97    0.62
   9   0   0    3.67    0.49
 -10   0   0    0.15    0.70
  10   0   0    0.62    0.60
  10  -1   0    0.90    0.65
 -10   1   0   -0.10    0.76
   9  -1   0    2.12    0.48
  -9   1   0    1.10    0.54
   8  -1   0    3.39    0.43
  -8   1   0    2.77    0.49
   7  -1   0    0.35    0.30
  -7   1   0   -0.10    0.37
  -7   1   0   -0.14    0.30
   6  -1   0    4.46    0.42
  -6   1   0    4.69    0.52
  -6   1   0    5.02    0.48
   5  -1   0    0.28    0.25
   5  -1   0    0.20    0.23
  -5   1   0    0.14    0.23
  -5   1   0    0.39    0.26
   4  -1   0    1.46    0.29
   4  -1   0    1.57    0.26
  -4   1   0    1.78    0.29
  -4   1   0    1.99    0.27
   3  -1   0  138.23    2.16
   3  -1   0  144.65    2.21
  -3   1   0  149.56    2.20
  -3   1   0  145.22    2.21
   2  -1   0 1000.00   13.29
  -2   1   0  996.98   13.35
   1  -1   0  159.76    2.26
  -1   1   0  164.23    2.26
   0  -1   0    8.39    0.28
   0  -1   0    7.32    0.23
   0   1   0    8.22    0.20
   0   1   0    8.22    0.29
  -1  -1   0   11.03    0.35
  -1  -1   0   11.10    0.27
   1   1   0   10.62    0.28
   1   1   0   11.02    0.36
  -2  -1   0   35.85    0.67
  -2  -1   0   36.30    0.61
   2   1   0   35.09    0.67
   2   1   0   34.60    0.60
  -3  -1   0    5.50    0.36
  -3  -1   0    5.37    0.39
   3   1   0    5.26    0.39
   3   1   0    5.40    0.34
  -4  -1   0   11.46    0.46
  -4  -1   0   10.34    0.48
   4   1   0   10.95    0.46
  -5  -1   0   51.21    1.03
   5   1   0   48.81    1.05
   5   1   0   46.72    1.00
  -6  -1   0   13.07    0.59
   6   1   0   12.70    0.58
  -7  -1   0    3.01    0.46
   7   1   0    2.73    0.36
  -8  -1   0    1.25    0.44
   8   1   0    1.42    0.31
  -9  -1   0    3.09    0.60
   9   1   0    2.87    0.43
 -10  -1   0   -0.39    0.62
  10   1   0    0.25    0.54
 -11  -1   0   -1.23    0.89
  11   1   0    0.18    0.72
   9  -2   0    0.27    0.58
  -9   2   0   -1.39    0.58
   8  -2   0    0.40    0.45
  -8   2   0    0.89    0.43
  -8   2   0    0.66    0.55
   7  -2   0    0.08    0.35
  -7   2   0    0.85    0.45
  -7   2   0    0.02    0.35
   6  -2   0    2.40    0.37
  -6   2   0    2.06    0.42
  -6   2   0    1.90    0.32
   5  -2   0   12.35    0.60
  -5   2   0   12.60    0.63
  -5   2   0   13.53    0.63
   4  -2   0  160.43    2.56
   4  -2   0  165.66    2.63
  -4   2   0  170.35    2.64
  -4   2   0  167.62    2.64
   3  -2   0  189.89    2.87
  -3   2   0  192.14    2.87
   2  -2   0   30.36    0.73
  -2   2   0   30.46    0.71
   1  -2   0    0.54    0.22
  -1   2   0    0.38    0.21
   0  -2   0   51.38    1.00
   0  -2   0   50.56    0.81
   0   2   0   49.87    0.81
   0   2   0   51.05    1.00
  -1  -2   0    4.61    0.27
  -1  -2   0    4.61    0.39
   1   2   0    5.06    0.41
  -2  -2   0   82.46    1.48
  -2  -2   0   83.37    1.26
   2   2   0   81.26    1.25
   2   2   0   82.46    1.49
  -3  -2   0   17.43    0.42
  -3  -2   0   17.22    0.52
   3   2   0   17.35    0.64
   3   2   0   17.64    0.52
  -4  -2   0   34.91    0.70
  -4  -2   0   33.69    0.78
   4   2   0   34.73    0.79
  -5  -2   0    2.09    0.28
  -5  -2   0    2.46    0.30
   5   2   0    2.25    0.29
  -6  -2   0   19.94    0.67
  -6  -2   0   20.65    0.70
   6   2   0   18.61    0.68
  -7  -2   0   10.48    0.65
   7   2   0   10.84    0.61
  -8  -2   0   -0.14    0.38
   8   2   0   -0.20    0.30
  -9  -2   0   -0.60    0.47
   9   2   0   -0.64    0.39
 -10  -2   0   -0.31    0.59
  10   2   0    0.47    0.47
 -11  -2   0    0.13    0.87
  11   2   0    1.22    0.69
   9  -3   0    0.30    0.81
  -9   3   0   -0.72    0.73
  -9   3   0    0.08    0.92
   8  -3   0    1.80    0.61
  -8   3   0    1.44    0.55
  -8   3   0    1.63    0.65
   7  -3   0    3.84    0.55
  -7   3   0    4.03    0.60
  -7   3   0    3.72    0.46
   6  -3   0   47.82    1.25
  -6   3   0   46.87    1.24
  -6   3   0   46.28    1.29
   5  -3   0   27.53    0.88
  -5   3   0   26.53    0.92
  -5   3   0   26.87    0.86
  -4   3   0    8.02    0.57
  -4   3   0    8.50    0.52
   3  -3   0   -0.05    0.24
  -3   3   0    0.05    0.25
   2  -3   0    0.40    0.26
  -2   3   0    0.59    0.25
   1  -3   0   18.68    0.69
   1  -3   0   18.48    0.56
  -1   3   0   17.39    0.54
   0  -3   0   10.13    0.53
   0   3   0   10.41    0.52
   0   3   0    9.67    0.38
  -1  -3   0   14.00    0.57
   1   3   0   14.26    0.59
  -2  -3   0  144.35    2.46
  -2  -3   0  143.76    2.07
   2   3   0  146.37    2.08
   2   3   0  144.33    2.46
  -3  -3   0   16.26    0.50
  -3  -3   0   16.29    0.65
   3   3   0   16.66    0.66
   3   3   0   16.50    0.49
  -4  -3   0    7.65    0.44
   4   3   0    7.21    0.53
   4   3   0    7.81    0.43
  -5  -3   0   16.32    0.59
  -5  -3   0   16.39    0.50
   5   3   0   17.07    0.71
   5   3   0   16.71    0.61
  -6  -3   0   -0.38    0.24
  -6  -3   0   -0.02    0.26
   6   3   0   -0.30    0.23
   6   3   0    0.18    0.25
  -7  -3   0    1.52    0.36
  -7  -3   0    0.71    0.30
   7   3   0    1.67    0.35
   7   3   0    1.79    0.38
  -8  -3   0    0.54    0.38
   8   3   0    0.83    0.36
   8   3   0   -0.10    0.35
  -9  -3   0    1.70    0.50
   9   3   0    1.74    0.46
   9   3   0    1.70    0.44
 -10  -3   0    0.17    0.61
  10   3   0    0.42    0.59
  10   3   0    0.40    0.53
 -11  -3   0    3.08    0.88
  11   3   0    2.06    0.79
  11   3   0    2.33    0.75
   8  -4   0    4.51    0.90
  -8   4   0    3.84    0.68
  -8   4   0    4.57    0.93
   7  -4   0    3.77    0.70
  -7   4   0    3.97    0.55
  -7   4   0    4.73    0.73
   6  -4   0    7.82    0.82
  -6   4   0    6.08    0.69
  -6   4   0    5.93    0.69
   5  -4   0    0.42    0.42
  -5   4   0    1.70    0.49
  -5   4   0    1.29    0.34
  -4   4   0   -0.06    0.28
  -4   4   0   -0.10    0.34
  -3   4   0    6.98    0.50
   2  -4   0    5.54    0.56
  -2   4   0    5.06    0.45
   1  -4   0   25.75    0.84
  -1   4   0   24.18    0.67
   0  -4   0   59.20    1.31
   0   4   0   57.75    1.02
  -1  -4   0    0.52    0.25
   1   4   0    0.80    0.27
  -2  -4   0    2.98    0.33
  -2  -4   0    2.27    0.33
   2   4   0    2.72    0.35
  -3  -4   0   77.28    1.61
  -3  -4   0   80.48    1.32
   3   4   0   80.95    1.33
   3   4   0   77.83    1.62
  -4  -4   0    0.25    0.26
  -4  -4   0    0.04    0.22
   4   4   0   -0.03    0.24
   4   4   0    0.11    0.22
  -5  -4   0    5.04    0.48
   5   4   0    4.16    0.45
   5   4   0    5.20    0.54
  -6  -4   0    0.09    0.28
   6   4   0    0.01    0.26
   6   4   0    0.13    0.27
  -7  -4   0    3.99    0.39
  -7  -4   0    3.25    0.42
   7   4   0    3.57    0.45
   7   4   0    3.32    0.45
  -8  -4   0    5.80    0.50
  -8  -4   0    5.08    0.55
   8   4   0    6.93    0.73
   8   4   0    4.79    0.54
  -9  -4   0    4.79    0.58
   9   4   0    3.24    0.49
   9   4   0    5.30    0.63
 -10  -4   0    1.19    0.62
  10   4   0    2.08    0.62
  10   4   0   -0.10    0.53
 -11  -4   0    0.60    0.78
  11   4   0   -0.17    0.80
  11   4   0    0.66    0.87
   7  -5   0   -0.50    0.80
  -7   5   0   -0.57    0.68
  -7   5   0    0.25    0.87
   6  -5   0    0.49    0.63
  -6   5   0   -0.27    0.51
  -6   5   0    0.22    0.65
   5  -5   0    0.70    0.53
  -5   5   0    0.92    0.55
  -5   5   0    0.48    0.46
  -4   5   0    2.50    0.49
  -4   5   0    3.01    0.45
   3  -5   0    2.37    0.45
  -3   5   0    1.77    0.41
  -3   5   0    2.14    0.39
   2  -5   0   10.53    0.73
  -2   5   0   10.82    0.63
   1  -5   0    3.06    0.40
  -1   5   0    3.13    0.36
   0  -5   0   39.04    1.08
   0   5   0   38.38    0.84
  -1  -5   0   20.95    0.77
   1   5   0   20.95    0.53
   1   5   0   21.45    0.79
  -2  -5   0    1.72    0.26
  -2  -5   0    1.78    0.30
   2   5   0    2.18    0.34
  -3  -5   0    2.14    0.33
  -3  -5   0    2.18    0.28
   3   5   0    1.79    0.33
  -4  -5   0    1.32    0.32
  -4  -5   0    1.55    0.29
   4   5   0    2.17    0.31
   4   5   0    1.50    0.30
  -5  -5   0    4.49    0.51
  -5  -5   0    3.74    0.38
   5   5   0    4.13    0.41
   5   5   0    3.27    0.40
  -6  -5   0    5.32    0.59
   6   5   0    5.27    0.63
   6   5   0    6.07    0.57
  -7  -5   0    5.40    0.52
   7   5   0    4.24    0.50
   7   5   0    4.85    0.52
  -8  -5   0    2.92    0.51
   8   5   0    3.33    0.53
   8   5   0    3.02    0.44
  -9  -5   0    6.56    0.72
   9   5   0    7.02    0.70
   9   5   0    5.96    0.64
  10   5   0    3.63    0.76
  10   5   0    4.00    0.67
  11   5   0    1.77    0.76
  11   5   0    0.02    0.89
   6  -6   0    1.48    0.82
  -6   6   0   -0.09    0.81
  -6   6   0   -0.95    0.78
   5  -6   0    0.12    0.68
   5  -6   0    0.15    0.55
  -5   6   0    0.67    0.63
  -5   6   0    0.87    0.64
   4  -6   0    2.03    0.50
  -4   6   0    1.69    0.52
  -4   6   0    3.53    0.61
   3  -6   0    2.30    0.49
  -3   6   0    2.91    0.45
  -3   6   0    2.77    0.55
   2  -6   0   10.10    0.79
  -2   6   0    9.51    0.75
   1  -6   0    1.44    0.36
  -1   6   0    1.89    0.41
   0  -6   0    0.20    0.30
   0   6   0    0.77    0.33
  -1  -6   0    3.02    0.39
   1   6   0    3.18    0.39
  -2  -6   0    0.29    0.28
  -2  -6   0    0.13    0.27
   2   6   0    0.42    0.28
  -3  -6   0    2.67    0.39
  -3  -6   0    2.70    0.33
   3   6   0    2.02    0.34
  -4  -6   0    7.42    0.55
  -4  -6   0    8.22    0.64
   4   6   0    7.55    0.63
  -5  -6   0   11.98    0.75
  -5  -6   0   10.93    0.65
   5   6   0   11.79    0.75
  -6  -6   0    3.04    0.47
   6   6   0    3.30    0.46
   6   6   0    3.61    0.47
  -7  -6   0   10.97    0.78
   7   6   0   13.14    0.89
   7   6   0   11.69    0.82
  -8  -6   0    2.99    0.60
   8   6   0    3.79    0.59
   8   6   0    3.77    0.55
  -9  -6   0    1.14    0.62
   9   6   0    1.16    0.54
   9   6   0    0.84    0.61
  10   6   0    0.02    0.72
  10   6   0   -0.57    0.73
   5  -7   0    0.31    0.93
   5  -7   0   -1.27    0.75
  -5   7   0    0.28    0.89
  -5   7   0    0.14    0.89
   4  -7   0    2.23    0.58
  -4   7   0    2.92    0.72
  -4   7   0    3.34    0.82
   3  -7   0    3.11    0.55
  -3   7   0    2.71    0.53
  -3   7   0    3.04    0.69
   2  -7   0   -0.58    0.42
  -2   7   0    0.45    0.40
  -2   7   0   -0.23    0.56
   1  -7   0    0.05    0.38
  -1   7   0    0.58    0.48
   0  -7   0    1.14    0.37
   0   7   0    0.76    0.40
  -1  -7   0   -0.04    0.30
   1   7   0    0.15    0.34
  -2  -7   0   10.03    0.63
  -2  -7   0    9.09    0.67
   2   7   0   10.71    0.70
  -3  -7   0    3.49    0.47
  -3  -7   0    4.83    0.54
   3   7   0    4.14    0.48
  -4  -7   0    0.90    0.36
  -4  -7   0    0.79    0.36
   4   7   0    0.86    0.34
  -5  -7   0   15.16    0.75
  -5  -7   0   14.97    0.87
   5   7   0   12.74    0.83
  -6  -7   0   10.08    0.77
  -6  -7   0    9.94    0.81
   6   7   0    9.51    0.83
  -7  -7   0    2.00    0.53
   7   7   0    1.85    0.50
   7   7   0    1.98    0.48
  -8  -7   0    0.16    0.56
   8   7   0   -0.14    0.51
   8   7   0    0.01    0.54
  -9  -7   0    1.71    0.72
   9   7   0    2.66    0.76
   9   7   0    1.37    0.72
 -10  -7   0    1.62    0.91
  10   7   0    2.56    0.83
  10   7   0    0.15    0.85
   4  -8   0   -2.25    0.78
  -4   8   0    0.04    0.88
  -4   8   0   -0.29    1.00
   3  -8   0   -0.69    0.64
  -3   8   0   -1.21    0.64
  -3   8   0   -0.25    0.86
   2  -8   0    0.08    0.53
  -2   8   0   -0.09    0.69
  -2   8   0   -1.00    0.52
   1  -8   0    0.68    0.49
  -1   8   0   -1.05    0.59
  -1   8   0   -0.06    0.47
   0  -8   0    3.69    0.49
   0   8   0    3.80    0.60
  -1  -8   0    1.83    0.46
  -1  -8   0    1.81    0.48
  -2  -8   0    2.21    0.47
  -2  -8   0    1.77    0.44
   2   8   0    1.50    0.37
  -3  -8   0   12.67    0.75
  -3  -8   0   11.94    0.83
   3   8   0   10.85    0.76
  -4  -8   0    4.08    0.55
  -4  -8   0    3.54    0.49
   4   8   0    3.97    0.53
  -5  -8   0    0.55    0.44
  -5  -8   0    0.48    0.46
   5   8   0    0.25    0.39
  -6  -8   0    0.51    0.49
  -6  -8   0    0.26    0.46
   6   8   0   -0.50    0.47
  -7  -8   0    1.53    0.58
   7   8   0    1.37    0.55
  -8  -8   0    1.20    0.67
   8   8   0    1.00    0.64
  -9  -8   0    1.60    0.83
   9   8   0    3.12    0.77
   9   8   0    2.10    0.84
   2  -9   0    0.24    0.75
  -2   9   0    1.08    0.98
   1  -9   0    1.88    0.68
  -1   9   0   -0.47    0.67
  -1   9   0    3.01    0.81
   0  -9   0    0.32    0.58
   0   9   0    1.50    0.68
   0   9   0    0.63    0.59
  -1  -9   0    0.96    0.55
  -1  -9   0    2.05    0.61
  -2  -9   0    0.93    0.54
  -2  -9   0    1.31    0.49
  -3  -9   0    2.92    0.55
  -3  -9   0    2.49    0.51
   3   9   0    1.09    0.47
  -4  -9   0    0.28    0.51
  -4  -9   0    0.51    0.50
   4   9   0   -0.40    0.47
  -5  -9   0    0.89    0.57
  -5  -9   0    1.62    0.58
   5   9   0   -0.11    0.52
  -6  -9   0    2.43    0.62
  -6  -9   0    2.76    0.59
   6   9   0    2.90    0.74
   6   9   0    1.46    0.58
  -7  -9   0    2.29    0.73
   7   9   0    2.57    0.67
   7   9   0    2.78    0.74
  -8  -9   0    5.23    0.86
   8   9   0    5.24    0.94
   0 -10   0    0.41    0.88
   0  10   0    0.30    0.87
  -1 -10   0    0.42    0.81
  -1 -10   0    0.10    0.71
   1  10   0    0.77    0.79
  -2 -10   0    0.03    0.69
  -2 -10   0   -0.55    0.67
   2  10   0   -1.35    0.79
  -3 -10   0    1.40    0.66
  -3 -10   0    0.05    0.66
   3  10   0    0.86    0.82
   3  10   0    0.54    0.55
  -4 -10   0    0.74    0.67
  -4 -10   0    0.98    0.67
   4  10   0   -0.97    0.58
   4  10   0    0.06    0.84
  -5 -10   0    1.99    0.72
  -5 -10   0    2.59    0.75
   5  10   0    2.00    0.92
   5  10   0    0.02    0.69
  -6 -10   0    2.10    0.79
  -6 -10   0    1.50    0.80
   6  10   0    2.07    0.73
   6  10   0    2.56    0.94
  -7 -10   0    6.68    0.97
   7  10   0    5.76    1.08
   7  10   0    3.36    0.90
   6  10  -1   -0.47    0.76
   6  10  -1   -0.11    1.07
   5  10  -1   -1.58    0.67
   5  10  -1    0.43    0.98
  -5 -10   1    0.78    0.84
  -5 -10   1    0.08    0.71
   4  10  -1   -0.71    0.64
   4  10  -1    1.58    0.94
  -4 -10   1    1.47    0.77
  -4 -10   1    0.02    0.82
   3  10  -1   -0.07    0.69
   3  10  -1    0.96    0.96
  -3 -10   1   -0.87    0.75
  -3 -10   1    0.87    0.85
   2  10  -1    3.90    0.99
  -2 -10   1    3.23    0.89
   1  10  -1    2.15    0.96
  -1 -10   1    1.08    0.96
   8   9  -1   -0.31    0.83
  -8  -9   1    0.54    0.94
   7   9  -1    0.41    0.69
   7   9  -1    1.47    0.84
  -7  -9   1    2.02    0.81
   6   9  -1    0.12    0.61
   6   9  -1    1.60    0.78
  -6  -9   1    1.89    0.65
  -6  -9   1    1.93    0.69
   5   9  -1   -0.16    0.51
   5   9  -1   -0.86    0.71
  -5  -9   1   -0.52    0.53
  -5  -9   1    0.70    0.62
   4   9  -1    3.82    0.54
   4   9  -1    5.06    0.82
  -4  -9   1    6.13    0.73
  -4  -9   1    5.84    0.63
   3   9  -1    6.24    0.63
   3   9  -1    6.50    0.83
  -3  -9   1    5.46    0.62
  -3  -9   1    7.54    0.73
   2   9  -1    1.75    0.72
  -2  -9   1    2.27    0.68
  -2  -9   1    1.96    0.56
   1   9  -1    6.04    0.75
  -1  -9   1    5.31    0.69
  -1  -9   1    4.24    0.76
   0   9  -1    2.93    0.67
   0  -9   1    1.06    0.65
  -1   9  -1    1.00    0.74
   1  -9   1    0.58    0.71
  -2   9  -1    1.32    1.09
   9   8  -1    2.50    0.80
  -9  -8   1    2.01    0.89
   8   8  -1    0.30    0.66
  -8  -8   1    0.34    0.73
   7   8  -1    0.08    0.53
  -7  -8   1    0.18    0.63
   6   8  -1    5.38    0.69
   6   8  -1    2.99    0.55
  -6  -8   1    4.14    0.64
  -6  -8   1    4.59    0.58
   5   8  -1    6.03    0.58
   5   8  -1    7.24    0.73
  -5  -8   1    5.95    0.59
  -5  -8   1    7.39    0.67
   4   8  -1    6.91    0.77
   4   8  -1    8.76    0.96
  -4  -8   1   11.28    0.86
  -4  -8   1    9.83    0.81
   3   8  -1   12.54    0.99
   3   8  -1   12.30    0.83
  -3  -8   1   13.50    0.86
  -3  -8   1   12.41    0.88
   2   8  -1    8.55    0.77
   2   8  -1   10.24    0.93
  -2  -8   1    9.90    0.86
  -2  -8   1   10.90    0.86
   1   8  -1    2.27    0.52
  -1  -8   1    1.61    0.48
  -1  -8   1    2.22    0.57
   0   8  -1    0.06    0.47
   0  -8   1    0.06    0.50
  -1   8  -1    1.23    0.50
  -1   8  -1    2.37    0.69
   1  -8   1    1.08    0.54
  -2   8  -1    1.09    0.58
  -2   8  -1    1.45    0.79
   2  -8   1    1.21    0.61
  -3   8  -1   -0.65    0.72
  -3   8  -1    0.56    0.93
   3  -8   1   -1.14    0.76
  -4   8  -1    2.18    1.16
  10   7  -1    1.89    0.87
  10   7  -1    0.67    1.00
 -10  -7   1    1.18    0.94
   9   7  -1   -0.60    0.67
   9   7  -1   -0.25    0.74
  -9  -7   1   -0.02    0.74
   8   7  -1    2.00    0.66
   8   7  -1    0.86    0.52
  -8  -7   1    2.86    0.64
   7   7  -1   12.69    0.94
  -7  -7   1   11.69    0.95
   6   7  -1   17.61    0.91
   6   7  -1   17.98    0.98
  -6  -7   1   19.09    0.97
  -6  -7   1   17.77    0.94
   5   7  -1   14.21    0.86
   5   7  -1   14.34    0.85
  -5  -7   1   15.57    0.84
  -5  -7   1   15.46    0.90
   4   7  -1   19.28    0.91
   4   7  -1   18.83    0.89
  -4  -7   1   19.30    0.82
  -4  -7   1   19.05    0.88
   3   7  -1    4.26    0.53
   3   7  -1    5.20    0.61
  -3  -7   1    5.59    0.63
  -3  -7   1    3.53    0.46
   2   7  -1    0.08    0.39
   2   7  -1    0.21    0.34
  -2  -7   1    0.56    0.35
  -2  -7   1    0.08    0.38
   1   7  -1    1.32    0.34
   1   7  -1    1.74    0.40
  -1  -7   1    1.01    0.42
   0   7  -1    0.17    0.43
   0   7  -1   -0.82    0.37
   0  -7   1    0.14    0.39
  -1   7  -1   -0.09    0.37
  -1   7  -1    1.43    0.52
   1  -7   1    0.50    0.38
  -2   7  -1    8.94    0.77
  -2   7  -1    8.86    0.78
   2  -7   1    8.92    0.86
  -3   7  -1    6.59    0.84
  -3   7  -1    7.31    0.69
   3  -7   1    5.08    0.63
  -4   7  -1   -0.50    0.82
  -4   7  -1   -0.31    0.65
   4  -7   1   -0.92    0.62
  -5   7  -1    1.83    0.99
  -5   7  -1    0.27    1.03
   5  -7   1   -0.98    0.77
  10   6  -1    1.05    0.86
  10   6  -1    1.28    0.75
 -10  -6   1    0.59    0.79
   9   6  -1    5.77    0.73
   9   6  -1    6.01    0.79
  -9  -6   1    5.41    0.77
   8   6  -1    8.78    0.96
   8   6  -1   10.01    0.90
  -8  -6   1    8.22    0.91
   7   6  -1   15.74    0.92
   7   6  -1   15.16    0.95
  -7  -6   1   15.83    0.91
   6   6  -1   23.20    0.94
   6   6  -1   24.21    1.00
  -6  -6   1   22.99    0.90
   5   6  -1    9.30    0.65
   5   6  -1    9.81    0.71
  -5  -6   1    9.57    0.72
  -5  -6   1    9.98    0.67
   4   6  -1   -0.66    0.28
  -4  -6   1    0.04    0.30
  -4  -6   1    0.45    0.32
   3   6  -1   -0.17    0.25
  -3  -6   1    0.33    0.32
  -3  -6   1    0.64    0.31
   2   6  -1    2.86    0.41
  -2  -6   1    2.62    0.40
  -2  -6   1    3.71    0.40
   1   6  -1   10.97    0.69
  -1  -6   1   11.30    0.70
   0   6  -1   22.09    0.76
   0   6  -1   20.37    0.80
   0  -6   1   22.34    0.92
  -1   6  -1    8.89    0.69
  -1   6  -1    8.55    0.63
   1  -6   1    8.28    0.68
  -2   6  -1    2.74    0.43
  -2   6  -1    3.37    0.54
   2  -6   1    3.58    0.48
  -3   6  -1    4.47    0.51
  -3   6  -1    5.03    0.64
   3  -6   1    4.47    0.57
  -4   6  -1    0.43    0.60
  -4   6  -1    1.44    0.58
   4  -6   1    0.29    0.49
  -5   6  -1   -1.14    0.66
  -5   6  -1   -0.95    0.68
  -6   6  -1    1.31    0.91
  -6   6  -1   -1.76    0.88
   6  -6   1   -1.11    0.76
   6  -6   1   -0.89    0.88
  10   5  -1    5.47    0.66
  10   5  -1    5.01    0.81
 -10  -5   1    5.81    0.83
   9   5  -1   12.57    0.98
   9   5  -1   11.44    1.01
  -9  -5   1   12.67    1.01
   8   5  -1   18.00    0.97
   8   5  -1   16.80    0.96
  -8  -5   1   18.68    0.94
   7   5  -1    6.79    0.73
   7   5  -1    7.16    0.68
  -7  -5   1    6.46    0.70
   6   5  -1    0.30    0.31
   6   5  -1    0.21    0.36
  -6  -5   1    0.70    0.35
   5   5  -1    0.07    0.26
   5   5  -1    0.43    0.33
  -5  -5   1    0.40    0.30
  -5  -5   1    0.55    0.30
   4   5  -1    2.64    0.37
  -4  -5   1    3.04    0.36
  -4  -5   1    2.38    0.37
   3   5  -1    6.07    0.56
  -3  -5   1    5.45    0.56
  -3  -5   1    6.10    0.46
   2   5  -1   24.33    0.88
  -2  -5   1   25.49    0.72
  -2  -5   1   24.78    0.88
   1   5  -1   32.56    0.99
  -1  -5   1   31.38    0.99
   0   5  -1   37.81    0.85
   0  -5   1   36.24    0.84
   0  -5   1   37.70    1.09
  -1   5  -1   13.23    0.66
  -1   5  -1   11.75    0.61
   1  -5   1   13.37    0.71
   1  -5   1   13.71    0.65
  -2   5  -1    7.04    0.56
  -2   5  -1    8.76    0.63
   2  -5   1    8.10    0.67
   2  -5   1    7.75    0.65
  -3   5  -1   -0.38    0.38
  -3   5  -1    0.04    0.32
   3  -5   1   -0.31    0.38
   3  -5   1   -0.03    0.35
  -4   5  -1    0.16    0.43
  -4   5  -1    0.34    0.43
   4  -5   1    0.72    0.41
  -5   5  -1    0.88    0.59
  -5   5  -1    0.38    0.50
   5  -5   1   -0.98    0.46
  -6   5  -1    0.68    0.74
  -6   5  -1   -0.02    0.61
   6  -5   1    0.28    0.64
  -7   5  -1    2.01    0.94
  -7   5  -1    0.75    0.77
   7  -5   1    0.54    0.86
  11   4  -1    4.36    0.82
  11   4  -1    4.80    0.91
 -11  -4   1    4.61    0.89
  10   4  -1    9.12    0.83
  10   4  -1    9.39    1.04
 -10  -4   1    8.97    0.80
   9   4  -1    2.25    0.53
   9   4  -1    2.11    0.55
  -9  -4   1    2.32    0.55
  -9  -4   1    2.09    0.49
   8   4  -1   -0.20    0.34
   8   4  -1   -0.26    0.38
  -8  -4   1   -0.41    0.36
  -8  -4   1   -0.17    0.37
   7   4  -1    0.14    0.32
   7   4  -1    0.14    0.35
  -7  -4   1    0.70    0.35
   6   4  -1    1.77    0.35
   6   4  -1    1.77    0.34
  -6  -4   1    1.81    0.36
   5   4  -1   13.22    0.69
   5   4  -1   13.08    0.62
  -5  -4   1   14.01    0.61
   4   4  -1   57.46    1.38
   4   4  -1   56.72    1.14
  -4  -4   1   55.67    1.13
  -4  -4   1   54.48    1.35
   3   4  -1   51.99    1.26
  -3  -4   1   50.01    1.00
  -3  -4   1   51.63    1.25
   2   4  -1   21.11    0.77
  -2  -4   1   20.56    0.60
  -2  -4   1   20.86    0.77
   1   4  -1   46.02    1.14
  -1  -4   1   45.66    1.13
  -1  -4   1   45.63    0.80
   0   4  -1   16.45    0.53
   0   4  -1   15.53    0.67
   0  -4   1   16.19    0.53
   0  -4   1   16.49    0.68
  -1   4  -1    1.84    0.29
  -1   4  -1    1.45    0.29
   1  -4   1    1.77    0.29
   1  -4   1    1.72    0.32
  -2   4  -1    0.40    0.28
  -2   4  -1   -0.10    0.26
   2  -4   1    0.50    0.29
   2  -4   1    0.28    0.28
  -3   4  -1    0.03    0.27
  -3   4  -1   -0.21    0.28
   3  -4   1   -0.42    0.26
   3  -4   1    0.16    0.29
  -4   4  -1    3.26    0.42
  -4   4  -1    3.41    0.47
   4  -4   1    3.15    0.44
  -5   4  -1    9.04    0.68
  -5   4  -1    7.41    0.81
   5  -4   1    7.16    0.67
  -6   4  -1    5.60    0.72
  -6   4  -1    5.25    0.53
   6  -4   1    5.13    0.64
  -7   4  -1    0.63    0.72
  -7   4  -1    0.17    0.56
   7  -4   1    0.46    0.63
  -8   4  -1    0.27    0.67
  -8   4  -1    0.12    0.87
   8  -4   1    0.46    0.86
  11   3  -1    0.12    0.79
  11   3  -1    1.10    0.77
 -11  -3   1    0.46    0.85
  10   3  -1    0.33    0.57
  10   3  -1    1.72    0.56
 -10  -3   1   -0.25    0.61
   9   3  -1    0.67    0.41
   9   3  -1   -0.08    0.41
  -9  -3   1    0.34    0.49
   8   3  -1    0.62    0.37
   8   3  -1   -0.11    0.32
  -8  -3   1   -0.25    0.39
  -8  -3   1   -0.13    0.33
   7   3  -1    7.45    0.58
   7   3  -1    8.02    0.64
  -7  -3   1    6.68    0.56
  -7  -3   1    7.59    0.57
   6   3  -1   23.45    0.77
   6   3  -1   23.88    0.90
  -6  -3   1   24.01    0.77
  -6  -3   1   23.32    0.68
   5   3  -1    7.76    0.48
   5   3  -1    6.83    0.55
  -5  -3   1    7.22    0.40
  -5  -3   1    7.69    0.47
   4   3  -1   33.01    0.96
   4   3  -1   31.37    0.79
  -4  -3   1   32.55    0.78
   3   3  -1  113.63    2.11
   3   3  -1  113.81    1.81
  -3  -3   1  114.49    1.80
  -3  -3   1  111.39    2.09
   2   3  -1   19.51    0.71
  -2  -3   1   20.20    0.71
  -2  -3   1   20.01    0.56
   1   3  -1   25.94    0.78
  -1  -3   1   24.70    0.75
   0   3  -1    0.34    0.21
   0   3  -1    0.17    0.25
   0  -3   1    0.11    0.20
   0  -3   1    0.14    0.23
  -1   3  -1    5.88    0.39
  -1   3  -1    5.55    0.45
   1  -3   1    5.32    0.40
   1  -3   1    6.65    0.52
  -2   3  -1   19.01    0.66
  -2   3  -1   18.32    0.60
   2  -3   1   19.39    0.63
   2  -3   1   19.05    0.73
  -3   3  -1    5.28    0.45
  -3   3  -1    5.32    0.46
   3  -3   1    5.15    0.47
  -4   3  -1   18.39    0.75
  -4   3  -1   18.42    0.70
   4  -3   1   18.42    0.71
  -5   3  -1    6.24    0.69
  -5   3  -1    5.54    0.54
   5  -3   1    6.52    0.55
  -6   3  -1    0.29    0.34
  -6   3  -1    0.12    0.47
   6  -3   1   -0.43    0.34
   6  -3   1   -0.52    0.36
  -7   3  -1    0.04    0.54
  -7   3  -1   -0.57    0.42
   7  -3   1   -0.29    0.45
  -8   3  -1    2.26    0.55
  -8   3  -1    1.97    0.74
   8  -3   1    3.36    0.65
  -9   3  -1   -0.72    0.81
  -9   3  -1    0.41    0.97
   9  -3   1    1.04    0.81
  11   2  -1    0.23    0.72
 -11  -2   1   -0.49    0.86
  10   2  -1   -0.74    0.51
 -10  -2   1   -0.90    0.63
   9   2  -1   -0.62    0.38
  -9  -2   1   -0.54    0.48
   8   2  -1    8.19    0.64
  -8  -2   1    7.86    0.73
   7   2  -1    8.03    0.56
  -7  -2   1    8.53    0.63
  -7  -2   1    7.40    0.56
   6   2  -1   29.79    0.85
  -6  -2   1   31.20    0.87
  -6  -2   1   30.07    0.81
   5   2  -1   27.69    0.78
  -5  -2   1   28.19    0.78
  -5  -2   1   27.77    0.70
   4   2  -1   14.14    0.66
   4   2  -1   13.62    0.55
  -4  -2   1   14.70    0.54
  -4  -2   1   14.05    0.45
   3   2  -1   15.79    0.54
   3   2  -1   16.60    0.65
  -3  -2   1   15.75    0.53
   2   2  -1    5.17    0.32
   2   2  -1    5.21    0.48
   2   2  -1    5.47    0.38
  -2  -2   1    5.14    0.36
  -2  -2   1    5.31    0.46
   1   2  -1   31.10    0.79
   1   2  -1   30.99    0.67
  -1  -2   1   31.73    0.65
  -1  -2   1   31.37    0.77
   0   2  -1   10.87    0.46
   0   2  -1   12.39    0.52
   0   2  -1   11.12    0.38
   0  -2   1   11.52    0.39
   0  -2   1   12.37    0.50
  -1   2  -1   13.78    0.46
  -1   2  -1   13.33    0.52
   1  -2   1   13.75    0.56
   1  -2   1   13.65    0.48
  -2   2  -1  149.96    2.35
  -2   2  -1  146.45    2.24
   2  -2   1  147.01    2.25
  -3   2  -1   52.95    1.11
  -3   2  -1   53.11    1.09
   3  -2   1   53.20    1.10
  -4   2  -1    0.15    0.28
  -4   2  -1    0.34    0.24
   4  -2   1    0.12    0.24
  -5   2  -1   -0.17    0.23
  -5   2  -1   -0.21    0.30
   5  -2   1    0.40    0.27
  -6   2  -1    4.62    0.50
  -6   2  -1    4.99    0.51
   6  -2   1    4.59    0.51
   6  -2   1    4.24    0.44
  -7   2  -1    1.83    0.37
  -7   2  -1    2.49    0.53
   7  -2   1    2.67    0.40
  -8   2  -1   -0.56    0.62
  -8   2  -1    0.84    0.44
   8  -2   1   -0.58    0.45
  -9   2  -1    0.94    0.65
  -9   2  -1    2.18    0.80
   9  -2   1    1.23    0.62
  11   1  -1    1.22    0.74
 -11  -1   1   -0.51    0.93
  10   1  -1    3.14    0.57
 -10  -1   1    2.42    0.77
   9   1  -1    3.44    0.44
  -9  -1   1    3.38    0.61
   8   1  -1    2.24    0.37
  -8  -1   1    2.08    0.47
   7   1  -1    9.60    0.56
  -7  -1   1    9.46    0.67
   6   1  -1    7.89    0.50
  -6  -1   1    7.53    0.50
  -6  -1   1    7.82    0.53
   5   1  -1   13.48    0.56
  -5  -1   1   14.56    0.59
  -5  -1   1   13.81    0.54
   4   1  -1   10.05    0.49
  -4  -1   1    9.51    0.44
  -4  -1   1   10.48    0.48
   3   1  -1    7.14    0.44
  -3  -1   1    7.33    0.42
  -3  -1   1    7.29    0.36
   2   1  -1    0.26    0.24
   2   1  -1    0.41    0.23
  -2  -1   1    0.25    0.21
   1   1  -1   70.49    1.23
   1   1  -1   69.44    1.07
   1   1  -1   68.00    1.07
  -1  -1   1   71.42    1.08
  -1  -1   1   69.85    1.22
  -1  -1   1   67.33    1.07
   0   1  -1  248.18    3.65
   0   1  -1  235.91    3.39
   0  -1   1  247.80    3.65
   0  -1   1  233.88    3.39
   0  -1   1  233.97    3.22
  -1   1  -1   49.42    0.86
  -1   1  -1   50.30    0.91
   1  -1   1   49.52    0.91
   1  -1   1   50.77    0.87
  -2   1  -1    4.98    0.40
  -2   1  -1    4.59    0.38
   2  -1   1    5.30    0.42
  -3   1  -1   16.97    0.57
  -3   1  -1   17.71    0.57
   3  -1   1   18.30    0.61
  -4   1  -1    8.06    0.48
  -4   1  -1    7.89    0.49
   4  -1   1    7.78    0.49
  -5   1  -1   11.02    0.55
  -5   1  -1   12.16    0.58
   5  -1   1   11.69    0.57
   5  -1   1   11.32    0.55
  -6   1  -1    0.52    0.28
  -6   1  -1    0.84    0.36
   6  -1   1    0.68    0.30
   6  -1   1    0.98    0.30
  -7   1  -1    7.26    0.74
  -7   1  -1    8.47    0.62
   7  -1   1    9.29    0.61
   7  -1   1    6.74    0.62
  -8   1  -1    8.77    0.91
  -8   1  -1    7.72    0.72
   8  -1   1    8.21    0.70
  -9   1  -1    0.90    0.58
   9  -1   1    1.86    0.53
 -10   1  -1   -0.40    0.76
  10  -1   1    0.46    0.70
  10   0  -1    0.35    0.56
 -10   0   1    0.30    0.73
   9   0  -1    4.59    0.49
  -9   0   1    4.71    0.69
   8   0  -1    1.69    0.36
  -8   0   1    1.48    0.45
   7   0  -1    3.20    0.37
  -7   0   1    3.73    0.47
   6   0  -1    1.21    0.26
  -6   0   1    0.97    0.30
   5   0  -1    4.15    0.41
  -5   0   1    4.26    0.42
  -5   0   1    4.20    0.42
   4   0  -1    8.61    0.47
  -4   0   1    8.52    0.48
  -4   0   1    8.32    0.45
   3   0  -1    5.39    0.41
  -3   0   1    5.31    0.40
  -3   0   1    5.58    0.39
   2   0  -1  155.08    2.27
  -2   0   1  164.06    2.28
   1   0  -1  139.78    1.97
  -1   0   1  145.42    1.97
   0   0  -1   21.79    0.42
   0   0   1   19.47    0.37
  -1   0  -1   12.19    0.34
  -1   0  -1   12.22    0.36
   1   0   1   11.59    0.37
   1   0   1   12.02    0.36
  -2   0  -1   38.40    0.73
  -2   0  -1   37.80    0.73
   2   0   1   38.64    0.73
   2   0   1   37.54    0.74
  -3   0  -1    3.69    0.35
  -3   0  -1    3.60    0.37
   3   0   1    3.28    0.30
   3   0   1    3.36    0.34
  -4   0  -1    0.64    0.24
  -4   0  -1    0.57    0.24
   4   0   1    0.23    0.22
   4   0   1    0.48    0.25
  -5   0  -1   25.91    0.75
  -5   0  -1   25.72    0.72
   5   0   1   25.38    0.75
   5   0   1   25.62    0.75
  -6   0  -1   10.27    0.59
  -6   0  -1   10.48    0.57
   6   0   1   10.87    0.57
   6   0   1   10.33    0.57
  -7   0  -1    6.98    0.64
  -7   0  -1    5.75    0.55
   7   0   1    6.78    0.55
   7   0   1    6.58    0.58
  -8   0  -1    7.92    0.74
   8   0   1    7.21    0.63
  -9   0  -1   -0.15    0.49
   9   0   1    1.23    0.46
 -10   0  -1   -0.91    0.72
  10   0   1    0.63    0.62
  10  -1  -1    0.63    0.67
 -10   1   1    1.12    0.85
   9  -1  -1    0.04    0.49
  -9   1   1   -0.13    0.55
   8  -1  -1    0.83    0.39
  -8   1   1    0.69    0.40
   7  -1  -1    0.30    0.32
  -7   1   1    0.61    0.35
   6  -1  -1   -0.43    0.26
  -6   1   1    0.10    0.25
   5  -1  -1    0.60    0.26
  -5   1   1    0.62    0.24
   4  -1  -1   90.50    1.58
  -4   1   1   92.94    1.61
   3  -1  -1  102.13    1.66
  -3   1   1  107.65    1.71
   2  -1  -1    5.00    0.37
  -2   1   1    5.10    0.40
  -2   1   1    5.23    0.37
   1  -1  -1   19.84    0.45
  -1   1   1   20.26    0.44
   1   1   1    0.45    0.12
  -2  -1  -1   20.04    0.47
  -2  -1  -1   19.65    0.47
   2   1   1   20.15    0.47
   2   1   1   19.20    0.46
  -3  -1  -1   12.96    0.44
  -3  -1  -1   13.31    0.44
   3   1   1   13.87    0.40
   3   1   1   13.13    0.47
   3   1   1   12.97    0.46
  -4  -1  -1   40.94    0.86
   4   1   1   41.13    0.88
   4   1   1   41.59    0.89
   4   1   1   43.78    0.78
  -5  -1  -1   55.24    1.10
   5   1   1   54.99    1.11
   5   1   1   53.59    1.12
  -6  -1  -1   20.69    0.70
   6   1   1   20.75    0.72
   6   1   1   21.46    0.71
  -7  -1  -1    2.01    0.38
   7   1   1    1.81    0.33
   7   1   1    2.18    0.42
  -8  -1  -1    0.98    0.45
   8   1   1    1.15    0.33
  -9  -1  -1   -0.56    0.50
   9   1   1    0.18    0.42
 -10  -1  -1    1.29    0.65
  10   1   1    0.47    0.53
 -11  -1  -1    0.50    0.88
  11   1   1   -2.26    0.73
   9  -2  -1    1.13    0.60
  -9   2   1   -1.04    0.62
   8  -2  -1   -0.83    0.46
  -8   2   1   -0.36    0.40
   7  -2  -1    2.34    0.43
  -7   2   1    2.42    0.38
  -7   2   1    3.00    0.49
   6  -2  -1   10.57    0.62
  -6   2   1   11.33    0.61
  -6   2   1    9.66    0.67
   5  -2  -1   11.97    0.58
  -5   2   1   11.03    0.58
  -5   2   1   11.03    0.57
   4  -2  -1    0.02    0.22
  -4   2   1    0.00    0.23
   3  -2  -1   59.45    1.12
  -3   2   1   63.65    1.20
   2  -2  -1   18.23    0.52
  -2   2   1   19.01    0.58
   0  -2  -1    1.67    0.23
  -1  -2  -1   16.11    0.48
   1   2   1   15.61    0.46
  -2  -2  -1  237.88    3.20
  -2  -2  -1  243.77    3.68
   2   2   1  237.30    3.68
   2   2   1  234.44    3.20
  -3  -2  -1   14.06    0.42
  -3  -2  -1   14.35    0.46
   3   2   1   14.10    0.44
   3   2   1   13.47    0.40
   3   2   1   14.21    0.39
   3   2   1   14.37    0.54
  -4  -2  -1   27.19    0.64
   4   2   1   27.62    0.63
   4   2   1   27.54    0.69
  -5  -2  -1    8.33    0.45
   5   2   1    8.50    0.45
   5   2   1    7.40    0.49
  -6  -2  -1    0.06    0.25
   6   2   1    0.08    0.26
   6   2   1    0.04    0.25
  -7  -2  -1    0.91    0.34
   7   2   1    0.95    0.30
   7   2   1    1.18    0.33
  -8  -2  -1    0.60    0.41
   8   2   1    0.89    0.35
  -9  -2  -1    0.51    0.50
   9   2   1    0.42    0.41
 -10  -2  -1    0.95    0.65
  10   2   1    0.81    0.52
 -11  -2  -1    3.51    0.90
  11   2   1    2.09    0.66
   9  -3  -1   -1.61    0.82
  -9   3   1    0.51    0.81
  -9   3   1    0.23    0.68
   8  -3  -1    2.52    0.68
  -8   3   1    2.78    0.70
  -8   3   1    1.11    0.51
   7  -3  -1    4.52    0.55
  -7   3   1    4.58    0.52
  -7   3   1    3.83    0.60
   6  -3  -1    2.07    0.43
  -6   3   1    1.60    0.36
  -6   3   1    1.97    0.45
   5  -3  -1    5.25    0.56
  -5   3   1    5.86    0.62
  -5   3   1    5.19    0.51
   4  -3  -1    6.14    0.49
  -4   3   1    5.62    0.47
   3  -3  -1    3.51    0.39
  -3   3   1    2.97    0.31
  -2   3   1   -0.01    0.23
  -1   3   1   11.30    0.46
   0  -3  -1   33.62    0.82
  -1  -3  -1   21.65    0.64
   1   3   1   21.73    0.65
  -2  -3  -1  118.42    1.67
  -2  -3  -1  119.07    2.03
   2   3   1  120.17    2.03
   2   3   1  116.18    1.67
  -3  -3  -1   51.68    1.11
  -3  -3  -1   51.24    0.89
   3   3   1   49.77    0.88
   3   3   1   49.95    1.09
  -4  -3  -1   11.37    0.47
   4   3   1   11.48    0.56
   4   3   1   12.23    0.45
   4   3   1   11.57    0.37
  -5  -3  -1   16.53    0.58
  -5  -3  -1   17.23    0.52
   5   3   1   16.12    0.58
   5   3   1   16.45    0.70
   5   3   1   16.90    0.49
  -6  -3  -1    0.03    0.25
   6   3   1    0.29    0.23
   6   3   1    0.54    0.26
   6   3   1   -0.23    0.24
  -7  -3  -1    2.57    0.39
   7   3   1    2.62    0.40
   7   3   1    2.13    0.37
  -8  -3  -1    2.15    0.45
   8   3   1    1.41    0.40
  -9  -3  -1    4.72    0.59
   9   3   1    5.46    0.59
 -10  -3  -1    2.73    0.66
  10   3   1    4.02    0.61
 -11  -3  -1    0.06    0.78
  11   3   1    0.93    0.72
  11   3   1   -1.11    0.81
   8  -4  -1   -0.05    0.81
  -8   4   1   -0.33    0.69
  -8   4   1    0.39    0.75
   7  -4  -1    1.22    0.64
  -7   4   1    0.84    0.49
  -7   4   1    0.75    0.61
   6  -4  -1    3.29    0.58
  -6   4   1    3.32    0.59
  -6   4   1    3.08    0.46
   5  -4  -1    1.28    0.44
  -5   4   1    0.24    0.34
  -5   4   1    0.02    0.42
   4  -4  -1   -0.15    0.32
  -4   4   1    0.00    0.29
  -3   4   1    2.36    0.35
  -2   4   1   17.15    0.61
   1  -4  -1   71.49    1.50
  -1   4   1   69.03    1.25
   0  -4  -1   39.13    0.99
   0   4   1   38.61    0.78
  -1  -4  -1   25.13    0.76
   1   4   1   24.46    0.53
   1   4   1   24.38    0.75
  -2  -4  -1   29.99    0.85
   2   4   1   30.97    0.85
  -3  -4  -1   13.40    0.62
  -3  -4  -1   14.11    0.45
   3   4   1   13.96    0.61
   3   4   1   13.50    0.42
  -4  -4  -1    0.05    0.20
  -4  -4  -1    0.20    0.24
   4   4   1    0.24    0.19
   4   4   1    0.26    0.25
  -5  -4  -1    0.18    0.25
   5   4   1    0.55    0.22
   5   4   1    0.26    0.25
  -6  -4  -1    5.36    0.51
   6   4   1    5.98    0.39
   6   4   1    6.12    0.57
   6   4   1    5.99    0.51
  -7  -4  -1   10.60    0.57
   7   4   1   10.62    0.72
   7   4   1   10.52    0.66
  -8  -4  -1   15.14    0.75
   8   4   1   14.21    0.83
   8   4   1   13.82    0.89
  -9  -4  -1    2.38    0.51
   9   4   1    1.00    0.51
   9   4   1    1.75    0.52
 -10  -4  -1    1.13    0.60
  10   4   1    1.00    0.60
  10   4   1    0.62    0.67
  11   4   1    0.12    0.85
  11   4   1   -0.25    0.82
   8  -5  -1    0.73    1.04
  -8   5   1   -0.61    1.01
   7  -5  -1   -0.39    0.79
  -7   5   1    1.14    0.66
  -7   5   1   -0.09    0.79
   6  -5  -1    0.27    0.63
  -6   5   1    0.51    0.48
  -6   5   1   -0.16    0.61
   5  -5  -1    1.53    0.51
  -5   5   1    0.43    0.42
  -5   5   1    0.17    0.52
   4  -5  -1    7.11    0.73
  -4   5   1    6.84    0.67
  -3   5   1    7.63    0.61
   2  -5  -1   15.56    0.78
  -2   5   1   14.92    0.66
   1  -5  -1   25.85    0.90
  -1   5   1   25.73    0.74
   0  -5  -1    0.18    0.26
   0   5   1    0.20    0.22
  -1  -5  -1   29.74    0.90
   1   5   1   31.14    0.91
   1   5   1   29.93    0.65
  -2  -5  -1    0.44    0.18
  -2  -5  -1    0.25    0.24
   2   5   1    0.62    0.26
  -3  -5  -1    0.70    0.28
  -3  -5  -1    0.65    0.22
   3   5   1    0.88    0.29
  -4  -5  -1   16.47    0.55
  -4  -5  -1   15.68    0.70
   4   5   1   15.38    0.71
   4   5   1   16.88    0.54
  -5  -5  -1   14.16    0.58
   5   5   1   13.76    0.56
   5   5   1   13.97    0.73
  -6  -5  -1   12.26    0.65
   6   5   1   13.57    0.78
   6   5   1   13.24    0.63
  -7  -5  -1    3.60    0.48
   7   5   1    4.11    0.48
   7   5   1    4.31    0.54
   8   5   1    6.61    0.61
   8   5   1    6.08    0.65
   9   5   1    1.83    0.57
   9   5   1    2.13    0.60
  10   5   1    2.28    0.71
  10   5   1    0.08    0.66
  11   5   1    0.72    0.85
  11   5   1    2.61    0.92
   7  -6  -1    0.43    1.04
  -7   6   1   -0.73    0.99
   6  -6  -1    0.58    0.85
  -6   6   1   -0.10    0.68
  -6   6   1    0.31    0.79
   5  -6  -1    1.97    0.67
  -5   6   1    2.02    0.63
  -5   6   1    0.93    0.66
   4  -6  -1   13.67    0.96
   4  -6  -1   11.36    0.88
  -4   6   1   13.01    0.97
   3  -6  -1   12.64    0.90
  -3   6   1   13.54    0.88
   2  -6  -1   -0.37    0.32
  -2   6   1    0.18    0.38
   1  -6  -1   18.84    0.86
  -1   6   1   17.41    0.75
   0  -6  -1    0.01    0.29
   0   6   1   -0.10    0.30
  -1  -6  -1    1.55    0.33
   1   6   1    1.63    0.27
   1   6   1    1.47    0.29
  -2  -6  -1    6.42    0.58
   2   6   1    6.08    0.55
  -3  -6  -1    8.19    0.61
  -3  -6  -1    8.80    0.44
   3   6   1    8.06    0.61
  -4  -6  -1   13.02    0.73
  -4  -6  -1   14.17    0.56
   4   6   1   14.02    0.74
  -5  -6  -1   25.00    0.77
  -5  -6  -1   25.01    0.99
   5   6   1   25.10    0.76
   5   6   1   23.77    0.96
  -6  -6  -1    6.14    0.60
   6   6   1    6.51    0.61
   6   6   1    5.98    0.68
  -7  -6  -1    0.12    0.40
   7   6   1    1.32    0.42
   7   6   1    0.64    0.40
  -8  -6  -1    0.66    0.51
   8   6   1    0.43    0.48
   8   6   1    0.14    0.49
   9   6   1    0.22    0.56
   9   6   1    0.31    0.58
  10   6   1    2.50    0.76
  10   6   1    2.83    0.76
  11   6   1    3.48    1.00
  11   6   1    4.25    1.00
   6  -7  -1    1.64    1.11
  -6   7   1    1.26    1.12
  -6   7   1    2.98    1.13
   5  -7  -1    0.09    0.69
   5  -7  -1    5.04    0.94
  -5   7   1    1.76    0.89
  -5   7   1    1.61    0.84
   4  -7  -1   -0.62    0.57
   4  -7  -1    0.13    0.69
  -4   7   1   -0.13    0.62
  -4   7   1    0.20    0.73
   3  -7  -1   -0.77    0.48
  -3   7   1    0.30    0.60
   2  -7  -1    0.29    0.42
  -2   7   1    0.25    0.49
   1  -7  -1    1.12    0.40
  -1   7   1    1.28    0.43
   0  -7  -1    3.54    0.49
   0   7   1    4.29    0.45
  -1  -7  -1    7.00    0.67
   1   7   1    6.91    0.56
  -2  -7  -1   17.54    0.84
   2   7   1   17.84    0.81
  -3  -7  -1   11.37    0.74
  -3  -7  -1   10.77    0.53
   3   7   1   10.24    0.68
  -4  -7  -1    2.37    0.39
  -4  -7  -1    2.23    0.36
   4   7   1    2.47    0.44
  -5  -7  -1    0.98    0.41
  -5  -7  -1    1.36    0.37
   5   7   1    1.41    0.45
  -6  -7  -1    0.62    0.40
  -6  -7  -1    1.36    0.41
   6   7   1    1.06    0.40
   6   7   1    0.98    0.44
  -7  -7  -1    0.19    0.46
   7   7   1    0.82    0.45
   7   7   1    0.98    0.48
  -8  -7  -1    6.47    0.71
   8   7   1    6.51    0.68
   8   7   1    7.07    0.80
   9   7   1    7.20    0.83
   9   7   1    8.18    0.91
  10   7   1    5.79    0.94
  10   7   1    4.30    0.92
   4  -8  -1   -1.73    0.71
   4  -8  -1    0.87    0.92
  -4   8   1   -0.54    0.97
  -4   8   1    0.44    0.84
   3  -8  -1   -1.21    0.62
  -3   8   1    0.62    0.81
  -3   8   1    0.43    0.59
   2  -8  -1    0.97    0.55
  -2   8   1    0.52    0.68
   1  -8  -1    2.59    0.50
  -1   8   1    2.83    0.61
   0  -8  -1    4.49    0.55
   0   8   1    5.13    0.60
  -1  -8  -1    3.36    0.51
   1   8   1    3.52    0.48
  -2  -8  -1    6.56    0.73
   2   8   1    7.26    0.67
  -3  -8  -1    0.18    0.41
   3   8   1    0.80    0.40
  -4  -8  -1    0.47    0.36
  -4  -8  -1    0.92    0.45
   4   8   1    0.23    0.39
  -5  -8  -1    1.18    0.43
  -5  -8  -1    0.33    0.44
   5   8   1    1.11    0.46
  -6  -8  -1    8.69    1.01
  -6  -8  -1    8.15    0.78
   6   8   1   10.47    0.94
  -7  -8  -1   12.72    0.89
   7   8   1   13.76    1.13
  -8  -8  -1    9.00    0.80
   8   8   1    8.81    0.93
   8   8   1    9.99    1.07
  -9  -8  -1    5.16    0.86
   9   8   1    5.31    0.91
   9   8   1    5.50    0.83
  10   8   1    1.61    0.93
  10   8   1    0.81    1.04
   3  -9  -1    1.98    1.00
  -3   9   1    1.06    1.13
  -3   9   1   -0.35    0.87
   2  -9  -1    1.63    0.72
  -2   9   1    2.30    0.69
  -2   9   1    0.91    0.95
   1  -9  -1    1.60    0.68
  -1   9   1    2.62    0.81
   0  -9  -1    1.32    0.56
   0   9   1    1.80    0.66
  -1  -9  -1    0.52    0.51
   1   9   1   -0.66    0.51
  -2  -9  -1    0.04    0.47
  -3  -9  -1    0.00    0.49
  -4  -9  -1    4.25    0.61
   4   9   1    5.17    0.65
  -5  -9  -1    8.59    1.04
   5   9   1    7.93    0.97
  -6  -9  -1   11.54    1.24
  -6  -9  -1   10.96    0.92
   6   9   1    9.76    1.08
  -7  -9  -1   10.10    1.03
   7   9   1    9.04    0.95
  -8  -9  -1    3.23    0.77
   8   9   1    3.40    0.92
  -9  -9  -1    0.78    0.88
   9   9   1   -0.47    0.95
  -1  10   1   -0.75    1.02
   0 -10  -1   -0.22    0.77
   0  10   1    0.85    0.88
  -2 -10  -1    2.38    0.74
  -3 -10  -1    4.30    0.73
  -4 -10  -1    6.25    0.76
   4  10   1    4.67    0.72
  -5 -10  -1    5.43    0.81
   5  10   1    4.68    0.74
  -6 -10  -1    2.54    0.70
  -6 -10  -1    2.46    0.82
   6  10   1    2.81    0.73
  -7 -10  -1    0.12    0.74
  -7 -10  -1    1.83    0.96
   7  10   1   -0.84    0.82
   4  11   1    1.35    0.81
   7   9  -2    0.08    0.93
   7   9  -2   -0.92    0.73
  -7  -9   2    0.88    0.90
   6   9  -2    2.43    0.96
   6   9  -2   -0.35    0.67
  -6  -9   2    1.28    0.86
  -6  -9   2    2.83    0.74
   5   9  -2    2.51    0.90
   5   9  -2    1.41    0.67
  -5  -9   2    1.52    0.80
  -5  -9   2    1.48    0.66
   4   9  -2    0.55    0.57
   4   9  -2    1.69    0.84
  -4  -9   2    2.99    0.78
  -4  -9   2    2.28    0.61
   3   9  -2    5.08    0.92
   3   9  -2    4.59    0.62
  -3  -9   2    6.24    0.82
  -3  -9   2    4.61    0.62
   2   9  -2    0.10    0.80
  -2  -9   2    0.15    0.76
  -2  -9   2   -0.79    0.60
   1   9  -2    1.02    0.80
  -1  -9   2    0.43    0.81
  -1  -9   2    2.91    0.65
   0   9  -2    2.28    0.79
   0  -9   2   -0.43    0.75
   8   8  -2    3.12    0.77
  -8  -8   2    2.32    0.89
   7   8  -2    3.39    0.66
  -7  -8   2    3.59    0.77
   6   8  -2    3.34    0.59
   6   8  -2    3.91    0.75
  -6  -8   2    3.26    0.71
  -6  -8   2    3.05    0.60
   5   8  -2    5.53    0.79
   5   8  -2    4.74    0.53
  -5  -8   2    4.38    0.67
  -5  -8   2    5.76    0.64
   4   8  -2    2.21    0.47
   4   8  -2    3.80    0.72
  -4  -8   2    3.23    0.60
  -4  -8   2    3.49    0.58
   3   8  -2    2.01    0.44
   3   8  -2    2.44    0.71
  -3  -8   2    2.45    0.61
  -3  -8   2    2.27    0.50
   2   8  -2    2.70    0.64
   2   8  -2    1.37    0.44
  -2  -8   2    1.27    0.49
  -2  -8   2    2.55    0.63
   1   8  -2    7.79    0.76
  -1  -8   2    6.32    0.66
  -1  -8   2    6.86    0.74
   0   8  -2    1.04    0.54
   0  -8   2    1.45    0.53
  -1   8  -2    0.36    0.59
   1  -8   2    0.82    0.58
  -2   8  -2    7.21    0.77
   2  -8   2    5.94    0.75
   3  -8   2    5.08    0.88
   9   7  -2   -0.01    0.90
   9   7  -2    0.56    0.69
  -9  -7   2    1.56    0.82
   8   7  -2    4.14    0.67
  -8  -7   2    4.14    0.80
   7   7  -2    4.12    0.61
  -7  -7   2    5.35    0.69
   6   7  -2    7.45    0.68
   6   7  -2    9.02    0.87
  -6  -7   2    7.28    0.71
  -6  -7   2    8.49    0.84
   5   7  -2    2.30    0.47
   5   7  -2    3.99    0.59
  -5  -7   2    2.06    0.48
  -5  -7   2    2.21    0.54
   4   7  -2    4.15    0.59
   4   7  -2    4.28    0.47
  -4  -7   2    4.44    0.48
  -4  -7   2    4.26    0.56
   3   7  -2   10.71    0.89
   3   7  -2   10.16    0.74
  -3  -7   2   10.31    0.76
  -3  -7   2   10.52    0.78
   2   7  -2    4.39    0.55
   2   7  -2    3.74    0.48
  -2  -7   2    2.93    0.43
  -2  -7   2    4.11    0.55
   1   7  -2    1.03    0.44
  -1  -7   2   -0.44    0.37
   0   7  -2    8.45    0.75
   0  -7   2    7.90    0.78
  -1   7  -2   33.88    1.16
   1  -7   2   36.33    1.32
  -2   7  -2    2.73    0.54
  -2   7  -2    2.63    0.67
   2  -7   2    2.03    0.52
  -3   7  -2   -0.10    0.58
  -3   7  -2    1.67    0.77
   3  -7   2    1.20    0.60
  -4   7  -2    0.80    0.75
  -4   7  -2    1.30    0.92
   4  -7   2   -1.16    0.71
  -5   7  -2    0.46    1.11
  -5   7  -2   -0.01    1.06
  10   6  -2    2.12    0.97
  10   6  -2    3.21    0.80
 -10  -6   2    2.18    0.92
   9   6  -2    2.95    0.63
   9   6  -2    3.24    0.79
  -9  -6   2    2.96    0.69
   8   6  -2    4.71    0.59
   8   6  -2    3.26    0.69
  -8  -6   2    5.30    0.73
   7   6  -2    2.33    0.45
   7   6  -2    2.33    0.58
  -7  -6   2    3.08    0.60
   6   6  -2    0.54    0.37
  -6  -6   2    0.13    0.41
   5   6  -2   16.69    0.87
   5   6  -2   16.30    0.82
  -5  -6   2   16.04    0.83
  -5  -6   2   16.25    0.91
   4   6  -2   15.75    0.83
   4   6  -2   14.89    0.81
  -4  -6   2   15.95    0.84
  -4  -6   2   15.73    0.77
   3   6  -2    1.43    0.35
   3   6  -2    2.20    0.43
  -3  -6   2    1.71    0.40
  -3  -6   2    1.10    0.34
   2   6  -2   29.55    1.06
   2   6  -2   30.54    1.00
  -2  -6   2   30.65    0.94
  -2  -6   2   28.70    1.05
   1   6  -2   87.41    1.79
   1   6  -2   83.79    1.94
  -1  -6   2   82.17    1.90
   0   6  -2    7.87    0.62
   0  -6   2    7.85    0.68
   0  -6   2    8.46    0.66
  -1   6  -2    3.91    0.46
   1  -6   2    3.70    0.49
   1  -6   2    4.09    0.53
  -2   6  -2    5.66    0.66
  -2   6  -2    5.34    0.63
   2  -6   2    5.20    0.60
   2  -6   2    4.39    0.55
  -3   6  -2    0.19    0.58
  -3   6  -2   -0.53    0.43
   3  -6   2   -0.19    0.46
   3  -6   2    0.30    0.57
  -4   6  -2    1.07    0.69
  -4   6  -2    0.65    0.56
   4  -6   2    0.16    0.54
  -5   6  -2    0.52    0.81
  -5   6  -2   -0.16    0.74
   5  -6   2   -0.78    0.66
  -6   6  -2    0.77    1.04
  -6   6  -2    0.51    1.00
   6  -6   2   -1.69    0.84
  10   5  -2    3.05    0.82
  10   5  -2    3.40    0.71
 -10  -5   2    3.36    0.83
   9   5  -2    1.63    0.62
   9   5  -2    1.22    0.51
  -9  -5   2    1.19    0.58
   8   5  -2   -0.08    0.41
   8   5  -2    0.09    0.48
  -8  -5   2   -0.04    0.48
   7   5  -2   13.82    0.89
   7   5  -2   13.44    0.88
  -7  -5   2   14.13    0.86
   6   5  -2   14.40    0.82
   6   5  -2   15.46    0.82
  -6  -5   2   16.67    0.81
   5   5  -2    0.34    0.29
   5   5  -2    0.81    0.35
  -5  -5   2    0.83    0.35
  -5  -5   2    0.73    0.32
   4   5  -2   37.11    0.96
   4   5  -2   38.45    1.17
  -4  -5   2   36.85    1.15
  -4  -5   2   37.13    0.98
   3   5  -2   67.44    1.60
   3   5  -2   65.95    1.38
  -3  -5   2   65.23    1.33
  -3  -5   2   66.21    1.57
   2   5  -2   18.94    0.81
   2   5  -2   18.12    0.73
  -2  -5   2   18.44    0.80
  -2  -5   2   18.79    0.69
   1   5  -2   16.73    0.69
   1   5  -2   15.91    0.75
  -1  -5   2   15.62    0.74
   0   5  -2   20.88    0.76
   0  -5   2   19.23    0.82
   0  -5   2   21.08    0.70
  -1   5  -2    0.15    0.34
  -1   5  -2   -0.08    0.29
   1  -5   2    0.38    0.35
   1  -5   2    0.38    0.31
  -2   5  -2    0.07    0.31
  -2   5  -2   -0.05    0.37
   2  -5   2   -0.19    0.42
   2  -5   2    0.11    0.33
  -3   5  -2    4.81    0.56
  -3   5  -2    4.00    0.47
   3  -5   2    4.10    0.52
   3  -5   2    4.17    0.58
  -4   5  -2    4.24    0.60
  -4   5  -2    4.50    0.55
   4  -5   2    2.80    0.53
   4  -5   2    3.84    0.60
  -5   5  -2    1.58    0.59
  -5   5  -2    2.78    0.64
   5  -5   2    0.37    0.56
   5  -5   2    1.99    0.62
  -6   5  -2    0.71    0.78
  -6   5  -2    1.26    0.67
   6  -5   2   -0.26    0.66
  -7   5  -2   -0.27    0.82
  -7   5  -2    1.34    0.96
   7  -5   2   -2.30    0.83
   7  -5   2   -0.19    0.92
  10   4  -2    0.73    0.61
  10   4  -2    0.18    0.63
 -10  -4   2   -0.62    0.60
 -10  -4   2    0.22    0.63
   9   4  -2    2.36    0.50
   9   4  -2    3.16    0.56
  -9  -4   2    2.10    0.54
  -9  -4   2    2.38    0.53
   8   4  -2    8.72    0.76
   8   4  -2    9.46    0.80
  -8  -4   2   10.20    0.74
  -8  -4   2    8.82    0.71
   7   4  -2    2.79    0.40
   7   4  -2    2.93    0.44
  -7  -4   2    3.34    0.40
  -7  -4   2    2.57    0.43
   6   4  -2   11.20    0.65
   6   4  -2   12.01    0.72
  -6  -4   2   11.41    0.65
   5   4  -2   67.33    1.40
   5   4  -2   67.39    1.64
  -5  -4   2   67.06    1.38
   4   4  -2   41.94    0.91
   4   4  -2   40.72    1.00
   4   4  -2   41.21    1.18
  -4  -4   2   41.72    1.17
  -4  -4   2   41.53    0.98
   3   4  -2   42.43    0.96
   3   4  -2   42.35    1.16
  -3  -4   2   42.26    1.14
  -3  -4   2   42.71    0.97
   2   4  -2   15.06    0.70
   2   4  -2   14.54    0.60
  -2  -4   2   14.92    0.57
  -2  -4   2   14.82    0.68
   1   4  -2    4.20    0.50
   1   4  -2    4.11    0.44
  -1  -4   2    3.04    0.34
  -1  -4   2    3.70    0.36
   0   4  -2    2.73    0.32
   0   4  -2    2.81    0.37
   0  -4   2    2.89    0.31
   0  -4   2    2.96    0.35
  -1   4  -2   21.39    0.69
  -1   4  -2   21.40    0.77
   1  -4   2   22.75    0.84
   1  -4   2   21.46    0.71
  -2   4  -2    3.70    0.39
  -2   4  -2    3.35    0.39
   2  -4   2    3.74    0.42
   2  -4   2    3.21    0.41
  -3   4  -2    2.78    0.42
  -3   4  -2    2.82    0.42
   3  -4   2    2.63    0.39
   3  -4   2    2.29    0.42
  -4   4  -2    3.34    0.46
  -4   4  -2    3.05    0.48
   4  -4   2    2.83    0.47
   4  -4   2    2.49    0.45
  -5   4  -2    5.70    0.56
  -5   4  -2    6.51    0.68
   5  -4   2    5.65    0.59
  -6   4  -2    1.21    0.48
  -6   4  -2    0.61    0.63
   6  -4   2    0.73    0.52
  -7   4  -2   -0.22    0.59
  -7   4  -2   -0.26    0.73
   7  -4   2   -0.95    0.67
  -8   4  -2   -0.70    1.00
  -8   4  -2    0.07    0.76
   8  -4   2   -0.07    0.82
  10   3  -2    5.37    0.64
  10   3  -2    4.58    0.69
 -10  -3   2    5.89    0.78
   9   3  -2    3.31    0.54
   9   3  -2    3.08    0.50
  -9  -3   2    2.27    0.47
  -9  -3   2    3.07    0.59
   8   3  -2   10.65    0.71
   8   3  -2   11.46    0.83
  -8  -3   2   10.80    0.70
  -8  -3   2   10.66    0.77
   7   3  -2   35.51    1.05
   7   3  -2   36.46    1.19
  -7  -3   2   36.87    1.03
  -7  -3   2   34.96    0.93
   6   3  -2   17.20    0.81
   6   3  -2   17.33    0.69
  -6  -3   2   17.27    0.62
  -6  -3   2   17.69    0.70
   5   3  -2   31.65    1.01
   5   3  -2   29.92    0.86
  -5  -3   2   30.30    0.84
  -5  -3   2   31.16    0.70
   4   3  -2   10.53    0.61
   4   3  -2    9.81    0.52
  -4  -3   2    9.22    0.51
   3   3  -2   13.70    0.66
   3   3  -2   13.36    0.50
   3   3  -2   13.25    0.55
  -3  -3   2   13.26    0.64
  -3  -3   2   12.98    0.52
   2   3  -2    1.65    0.32
   2   3  -2    1.52    0.27
  -2  -3   2    1.71    0.28
  -2  -3   2    1.57    0.28
   1   3  -2   13.48    0.55
   1   3  -2   14.99    0.65
  -1  -3   2   14.25    0.61
  -1  -3   2   13.55    0.42
   0   3  -2   14.66    0.58
   0   3  -2   15.43    0.66
   0  -3   2   15.35    0.63
   0  -3   2   15.21    0.51
  -1   3  -2   31.08    0.75
  -1   3  -2   30.54    0.84
   1  -3   2   31.05    0.89
   1  -3   2   30.41    0.75
  -2   3  -2   18.48    0.64
  -2   3  -2   17.53    0.66
   2  -3   2   17.16    0.63
   2  -3   2   18.20    0.75
  -3   3  -2    2.26    0.35
  -3   3  -2    2.50    0.35
   3  -3   2    1.95    0.32
   3  -3   2    1.63    0.36
  -4   3  -2    5.47    0.52
  -4   3  -2    6.56    0.59
   4  -3   2    6.78    0.54
  -5   3  -2    1.07    0.45
  -5   3  -2    0.83    0.34
   5  -3   2    0.91    0.36
  -6   3  -2    0.88    0.49
  -6   3  -2    0.24    0.39
   6  -3   2    0.09    0.38
  -7   3  -2    0.15    0.61
  -7   3  -2    0.51    0.50
   7  -3   2   -0.64    0.48
   7  -3   2    0.33    0.47
  -8   3  -2    0.61    0.59
  -8   3  -2   -0.16    0.75
   8  -3   2    0.89    0.63
  -9   3  -2   -0.13    1.04
   9  -3   2   -0.14    0.89
  10   2  -2    1.47    0.58
  10   2  -2    2.81    0.56
 -10  -2   2    3.18    0.76
   9   2  -2    4.65    0.49
  -9  -2   2    5.35    0.66
   8   2  -2   10.75    0.68
  -8  -2   2    9.48    0.66
  -8  -2   2    8.56    0.77
   7   2  -2   23.35    0.83
  -7  -2   2   22.49    0.82
  -7  -2   2   20.20    0.78
   6   2  -2    9.73    0.54
   6   2  -2    8.40    0.60
  -6  -2   2    9.87    0.56
  -6  -2   2    9.44    0.55
   5   2  -2    4.35    0.52
   5   2  -2    4.49    0.42
  -5  -2   2    5.08    0.44
  -5  -2   2    4.40    0.41
   4   2  -2    1.33    0.27
   4   2  -2    1.34    0.27
  -4  -2   2    1.58    0.28
   3   2  -2   58.64    1.29
   3   2  -2   57.06    1.12
  -3  -2   2   57.40    1.11
   2   2  -2   41.46    0.81
   2   2  -2   42.05    1.01
  -2  -2   2   42.26    0.99
  -2  -2   2   41.07    0.86
   1   2  -2   43.91    1.00
   1   2  -2   42.83    0.89
  -1  -2   2   42.87    0.98
   0   2  -2    1.12    0.27
   0   2  -2    1.05    0.26
   0  -2   2    0.98    0.23
   0  -2   2    0.75    0.25
   0  -2   2    0.71    0.25
  -1   2  -2   11.41    0.53
   1  -2   2   11.12    0.54
   1  -2   2   10.95    0.47
  -2   2  -2   32.77    0.85
  -2   2  -2   33.31    0.80
   2  -2   2   36.07    0.92
   2  -2   2   33.02    0.81
  -3   2  -2    0.46    0.25
  -3   2  -2    0.16    0.25
   3  -2   2    0.62    0.23
  -4   2  -2    0.28    0.23
  -4   2  -2    0.76    0.29
   4  -2   2    0.36    0.26
  -5   2  -2   -0.10    0.25
  -5   2  -2    0.03    0.36
   5  -2   2   -0.09    0.25
  -6   2  -2    3.29    0.51
  -6   2  -2    2.00    0.37
   6  -2   2    2.26    0.38
  -7   2  -2    2.61    0.43
  -7   2  -2    2.06    0.60
   7  -2   2    2.71    0.46
   7  -2   2    2.22    0.42
  -8   2  -2    0.10    0.67
  -8   2  -2    1.08    0.54
   8  -2   2    2.01    0.47
   8  -2   2    0.15    0.50
  -9   2  -2    0.50    0.93
  -9   2  -2    0.83    0.63
   9  -2   2    0.29    0.65
  10   1  -2    6.37    0.66
 -10  -1   2    3.65    0.80
   9   1  -2    6.63    0.73
  -9  -1   2    7.53    0.73
   8   1  -2    0.74    0.35
  -8  -1   2    1.66    0.47
   7   1  -2    1.70    0.33
  -7  -1   2    2.36    0.42
  -7  -1   2    1.91    0.38
   6   1  -2   -0.27    0.25
  -6  -1   2    0.33    0.28
  -6  -1   2    0.44    0.27
   5   1  -2   22.06    0.71
  -5  -1   2   21.97    0.67
  -5  -1   2   21.81    0.71
   4   1  -2    8.14    0.48
  -4  -1   2    8.00    0.47
   3   1  -2   10.22    0.49
   3   1  -2   10.00    0.54
  -3  -1   2    9.76    0.48
   2   1  -2   17.86    0.61
   2   1  -2   16.77    0.54
   2   1  -2   16.98    0.46
  -2  -1   2   17.66    0.53
   1   1  -2  131.16    2.14
   1   1  -2  128.31    1.95
  -1  -1   2  133.79    1.93
  -1  -1   2  126.08    1.95
  -1  -1   2  126.87    2.13
   0   1  -2    4.34    0.39
   0   1  -2    3.55    0.38
   0  -1   2    3.41    0.40
   0  -1   2    3.79    0.36
  -1   1  -2    4.48    0.40
   1  -1   2    4.02    0.38
   1  -1   2    4.90    0.38
   1  -1   2    4.43    0.42
  -2   1  -2    0.41    0.24
  -2   1  -2    0.60    0.26
   2  -1   2    0.35    0.25
   2  -1   2    0.40    0.24
  -3   1  -2    2.51    0.32
  -3   1  -2    2.10    0.30
   3  -1   2    1.82    0.29
   3  -1   2    1.95    0.30
  -4   1  -2   11.44    0.55
  -4   1  -2   10.84    0.55
   4  -1   2   11.75    0.55
  -5   1  -2   -0.19    0.22
  -5   1  -2    0.55    0.31
   5  -1   2    0.18    0.23
  -6   1  -2    1.93    0.33
  -6   1  -2    2.58    0.46
   6  -1   2    2.74    0.38
  -7   1  -2    1.10    0.40
  -7   1  -2    2.03    0.50
   7  -1   2    1.72    0.37
   7  -1   2    2.54    0.35
  -8   1  -2    7.58    0.72
  -8   1  -2    7.32    0.74
   8  -1   2    6.59    0.72
   8  -1   2    8.58    0.71
  -9   1  -2    0.41    0.72
  -9   1  -2    0.54    0.53
   9  -1   2   -0.15    0.54
 -10   1  -2   -1.41    0.92
 -10   1  -2    1.40    0.78
  10  -1   2   -1.33    0.75
  10   0  -2    0.37    0.59
 -10   0   2    0.46    0.77
   9   0  -2    0.63    0.46
  -9   0   2    0.94    0.60
   8   0  -2    0.50    0.36
  -8   0   2   -0.67    0.45
   7   0  -2    1.20    0.31
  -7   0   2    1.40    0.41
   6   0  -2   10.67    0.56
  -6   0   2    9.22    0.58
  -6   0   2   10.39    0.56
   5   0  -2   10.36    0.52
  -5   0   2   10.29    0.53
  -5   0   2    9.65    0.53
   4   0  -2   35.87    0.86
  -4   0   2   34.63    0.81
  -4   0   2   35.55    0.85
   3   0  -2   15.51    0.55
  -3   0   2   15.39    0.54
   2   0  -2   -0.02    0.21
  -2   0   2    0.15    0.22
   1   0  -2    0.04    0.20
   1   0  -2    0.28    0.20
  -1   0   2    0.19    0.22
  -1   0   2    0.26    0.20
   0   0  -2   29.28    0.65
   0   0  -2   29.71    0.58
   0   0   2   29.10    0.67
   0   0   2   29.33    0.58
  -1   0  -2   66.95    1.17
   1   0   2   68.78    1.12
   1   0   2   66.35    1.17
  -2   0  -2    1.44    0.28
   2   0   2    1.05    0.26
   2   0   2    1.30    0.25
  -3   0  -2    9.71    0.48
  -3   0  -2    9.88    0.50
   3   0   2    9.46    0.49
   3   0   2    9.28    0.48
  -4   0  -2   21.17    0.66
  -4   0  -2   20.99    0.66
   4   0   2   21.02    0.67
   4   0   2   21.25    0.64
  -5   0  -2    5.06    0.51
  -5   0  -2    5.36    0.46
   5   0   2    4.97    0.46
   5   0   2    5.06    0.44
  -6   0  -2   17.46    0.76
  -6   0  -2   16.62    0.67
   6   0   2   15.64    0.65
   6   0   2   15.75    0.67
  -7   0  -2    2.63    0.48
  -7   0  -2    2.79    0.39
   7   0   2    2.47    0.40
   7   0   2    3.36    0.37
  -8   0  -2   -0.12    0.38
  -8   0  -2    0.50    0.50
   8   0   2    0.07    0.35
   8   0   2    0.20    0.40
  -9   0  -2    0.30    0.56
  -9   0  -2   -0.16    0.62
   9   0   2   -0.16    0.54
   9   0   2    0.86    0.46
 -10   0  -2    0.76    0.70
  10   0   2   -0.08    0.62
  10  -1  -2    1.20    0.71
 -10   1   2    0.53    0.80
   9  -1  -2    0.30    0.51
  -9   1   2    1.42    0.60
   8  -1  -2    3.70    0.47
  -8   1   2    2.94    0.51
   7  -1  -2    0.93    0.34
  -7   1   2    0.73    0.37
   6  -1  -2    2.76    0.36
  -6   1   2    3.19    0.41
   5  -1  -2   27.26    0.79
  -5   1   2   28.52    0.81
  -5   1   2   26.26    0.79
   4  -1  -2    6.05    0.45
  -4   1   2    6.73    0.44
  -4   1   2    6.81    0.45
   3  -1  -2    7.48    0.45
  -3   1   2    7.79    0.44
   2  -1  -2   11.04    0.46
  -2   1   2   11.23    0.45
   1  -1  -2  136.32    1.95
  -1   1   2  138.49    1.95
   0   1   2    9.31    0.30
  -1  -1  -2   63.02    1.08
   1   1   2   61.84    1.08
  -2  -1  -2    0.41    0.25
   2   1   2    0.18    0.25
  -3  -1  -2    0.25    0.26
   3   1   2    0.21    0.25
   3   1   2    0.43    0.23
  -4  -1  -2   74.12    1.32
  -4  -1  -2   73.40    1.32
   4   1   2   73.87    1.30
   4   1   2   75.76    1.32
  -5  -1  -2   38.72    0.91
  -5  -1  -2   40.82    0.93
   5   1   2   40.20    0.87
   5   1   2   38.59    0.92
   5   1   2   39.55    0.92
  -6  -1  -2    0.32    0.26
  -6  -1  -2   -0.35    0.32
   6   1   2    0.20    0.27
   6   1   2    0.06    0.22
   6   1   2   -0.09    0.27
  -7  -1  -2    1.05    0.34
  -7  -1  -2    1.23    0.40
   7   1   2    0.90    0.33
   7   1   2    0.66    0.29
  -8  -1  -2    1.16    0.43
   8   1   2    0.68    0.36
   8   1   2    0.78    0.46
  -9  -1  -2    0.05    0.50
   9   1   2   -0.31    0.51
   9   1   2    0.79    0.44
 -10  -1  -2    1.04    0.62
  10   1   2    0.64    0.57
 -11  -1  -2    1.22    0.93
  11   1   2    0.40    0.75
   9  -2  -2    0.17    0.60
  -9   2   2    1.01    0.60
   8  -2  -2    1.67    0.51
  -8   2   2    1.57    0.49
   7  -2  -2   17.32    0.83
  -7   2   2   15.65    0.79
   6  -2  -2    0.39    0.30
  -6   2   2   -0.26    0.32
  -6   2   2    0.22    0.31
   5  -2  -2    3.16    0.38
  -5   2   2    3.52    0.36
   4  -2  -2    3.34    0.34
  -4   2   2    3.89    0.40
   3  -2  -2   16.36    0.56
  -3   2   2   17.73    0.62
   2  -2  -2   18.67    0.54
  -2   2   2   19.55    0.54
   1  -2  -2    0.33    0.18
  -1   2   2    0.27    0.17
  -1  -2  -2   11.81    0.37
   1   2   2   11.14    0.35
   2   2   2  263.48    3.99
   3   2   2   16.42    0.49
   3   2   2   16.80    0.53
   4   2   2   -0.08    0.22
   4   2   2    0.15    0.21
   4   2   2    0.66    0.22
  -5  -2  -2    0.58    0.25
   5   2   2    1.24    0.24
   5   2   2    0.77    0.26
   5   2   2    0.53    0.26
  -6  -2  -2    0.84    0.29
   6   2   2    0.73    0.28
   6   2   2    0.76    0.30
  -7  -2  -2    0.35    0.33
   7   2   2    0.16    0.27
   7   2   2    0.79    0.35
  -8  -2  -2    3.13    0.50
   8   2   2    2.76    0.49
   8   2   2    2.42    0.44
  -9  -2  -2    7.94    0.86
   9   2   2    7.82    0.74
   9   2   2    9.03    0.88
 -10  -2  -2    7.68    0.83
  10   2   2    7.90    0.71
 -11  -2  -2    1.02    0.84
  11   2   2    1.31    0.72
   9  -3  -2   -0.04    0.84
  -9   3   2    0.88    0.67
   8  -3  -2   -0.58    0.62
  -8   3   2   -0.31    0.53
  -8   3   2    0.20    0.61
   7  -3  -2    3.31    0.59
  -7   3   2    2.38    0.42
  -7   3   2    2.38    0.54
   6  -3  -2    3.18    0.47
  -6   3   2    3.56    0.51
  -6   3   2    3.39    0.42
   5  -3  -2    5.43    0.59
  -5   3   2    4.87    0.51
   4  -3  -2    3.08    0.37
  -4   3   2    2.85    0.36
   3  -3  -2    6.86    0.46
  -3   3   2    6.77    0.47
   2  -3  -2   34.51    0.74
   1  -3  -2   10.21    0.37
   0  -3  -2   26.62    0.70
  -1  -3  -2   28.74    0.69
   1   3   2   28.68    0.67
  -2  -3  -2   51.77    1.03
   2   3   2   52.08    1.01
   3   3   2    1.54    0.21
   3   3   2    1.75    0.26
   4   3   2   -0.10    0.16
   4   3   2    0.05    0.20
   4   3   2   -0.09    0.19
   4   3   2    0.16    0.19
   5   3   2    2.17    0.28
   5   3   2    1.84    0.27
   5   3   2    1.61    0.29
   6   3   2   13.12    0.61
   6   3   2   13.27    0.58
  -7  -3  -2   35.38    0.95
   7   3   2   34.74    0.95
   7   3   2   35.59    0.99
  -8  -3  -2   21.07    0.88
   8   3   2   19.86    0.87
   8   3   2   21.06    0.88
  -9  -3  -2    3.29    0.56
   9   3   2    2.23    0.52
   9   3   2    3.18    0.52
 -10  -3  -2    0.60    0.59
  10   3   2   -0.37    0.56
  11   3   2   -0.38    0.76
   8  -4  -2    0.64    0.81
  -8   4   2    0.65    0.79
  -8   4   2    1.67    0.64
   7  -4  -2   -0.15    0.65
  -7   4   2    1.27    0.50
  -7   4   2    1.28    0.62
   6  -4  -2    0.43    0.52
  -6   4   2    0.19    0.40
  -6   4   2    0.13    0.49
   5  -4  -2    4.27    0.54
  -5   4   2    4.00    0.45
   4  -4  -2    2.38    0.39
  -4   4   2    2.04    0.34
   3  -4  -2    5.50    0.48
  -3   4   2    5.88    0.49
   2  -4  -2   11.27    0.48
  -2   4   2   11.38    0.54
   1  -4  -2   85.94    1.33
   0  -4  -2   13.76    0.60
  -1  -4  -2   12.63    0.57
   1   4   2   13.11    0.56
  -2  -4  -2    0.30    0.23
   2   4   2    0.63    0.22
  -3  -4  -2   -0.05    0.16
  -3  -4  -2   -0.05    0.23
   3   4   2    0.47    0.22
   3   4   2   -0.04    0.16
   4   4   2   41.94    1.02
   4   4   2   40.72    0.81
   4   4   2   40.82    0.75
   5   4   2   24.92    0.82
   5   4   2   23.42    0.59
   5   4   2   24.92    0.66
   5   4   2   24.09    0.66
   6   4   2   58.01    1.42
   6   4   2   58.64    1.10
   6   4   2   58.08    1.20
   7   4   2   16.23    0.73
   7   4   2   15.99    0.86
   7   4   2   17.91    0.67
   8   4   2    3.46    0.51
   8   4   2    3.83    0.46
   8   4   2    3.19    0.56
   9   4   2    3.90    0.55
   9   4   2    3.19    0.53
   9   4   2    2.85    0.61
  10   4   2    0.11    0.59
  10   4   2   -0.53    0.66
  11   4   2    0.35    0.76
  11   4   2   -0.06    0.91
   8  -5  -2    0.97    1.12
  -8   5   2   -0.53    1.00
   7  -5  -2   -0.10    0.78
  -7   5   2    0.94    0.60
  -7   5   2   -0.18    0.72
   6  -5  -2    1.36    0.64
  -6   5   2    1.38    0.50
  -6   5   2   -0.21    0.60
   5  -5  -2    5.02    0.59
  -5   5   2    3.88    0.49
   4  -5  -2    4.92    0.53
  -4   5   2    4.01    0.47
   3  -5  -2    9.05    0.64
  -3   5   2    8.62    0.60
   2  -5  -2    5.07    0.47
  -2   5   2    4.55    0.51
   1  -5  -2    1.22    0.35
  -1   5   2    1.28    0.30
   0  -5  -2    2.09    0.32
   0   5   2    2.39    0.30
  -1  -5  -2    0.18    0.25
   1   5   2    0.44    0.24
  -2  -5  -2   28.50    0.85
   2   5   2   28.54    0.84
  -3  -5  -2   24.70    0.82
   3   5   2   26.01    0.82
  -4  -5  -2  134.85    2.46
  -4  -5  -2  137.12    2.00
   4   5   2  130.72    1.99
   4   5   2  136.23    2.46
  -5  -5  -2   30.78    0.77
   5   5   2   31.34    0.99
   5   5   2   30.11    0.75
   6   5   2    4.48    0.49
   6   5   2    4.21    0.48
   7   5   2    4.99    0.48
   7   5   2    6.26    0.60
   7   5   2    6.02    0.74
   8   5   2    0.14    0.42
   8   5   2    0.28    0.33
   8   5   2    0.17    0.42
   9   5   2    0.27    0.52
   9   5   2    0.61    0.53
  10   5   2    0.79    0.63
  10   5   2    0.78    0.69
  11   5   2    6.42    0.96
  11   5   2    6.62    1.05
   7  -6  -2    0.06    1.02
  -7   6   2    0.76    0.98
  -7   6   2   -0.19    0.80
   6  -6  -2    0.36    0.79
  -6   6   2    0.05    0.77
  -6   6   2    0.03    0.64
   5  -6  -2    1.15    0.62
  -5   6   2    1.87    0.58
   4  -6  -2    5.86    0.62
  -4   6   2    5.70    0.63
   3  -6  -2   -0.08    0.38
   3  -6  -2    0.94    0.43
  -3   6   2   -0.03    0.41
   2  -6  -2    0.66    0.37
   2  -6  -2    0.77    0.35
  -2   6   2    0.43    0.40
   1  -6  -2    0.68    0.35
  -1   6   2    0.93    0.35
   0  -6  -2   11.31    0.71
   0   6   2   11.00    0.59
  -1  -6  -2   25.22    0.88
   1   6   2   24.55    0.68
  -2  -6  -2   46.01    1.20
   2   6   2   45.81    1.18
  -3  -6  -2   24.73    0.88
   3   6   2   25.05    0.87
  -4  -6  -2   12.12    0.71
   4   6   2   12.21    0.69
  -5  -6  -2   19.78    0.64
  -5  -6  -2   20.68    0.90
   5   6   2   20.41    0.88
   5   6   2   19.55    0.63
  -6  -6  -2   -0.04    0.32
   6   6   2   -0.04    0.31
   6   6   2   -0.22    0.35
   7   6   2   -0.07    0.42
   7   6   2    0.51    0.35
   8   6   2    3.65    0.67
   8   6   2    3.42    0.55
   9   6   2   15.78    1.04
   9   6   2   15.91    1.22
  10   6   2    6.13    0.92
  10   6   2    7.21    0.84
  11   6   2    0.63    0.93
  11   6   2    0.83    0.92
   6  -7  -2   -0.56    1.07
  -6   7   2    0.24    0.98
  -6   7   2   -1.32    1.01
   5  -7  -2   -0.76    0.61
   5  -7  -2   -0.38    0.78
  -5   7   2    1.92    0.86
  -5   7   2   -0.01    0.82
   4  -7  -2   -0.54    0.52
   4  -7  -2   -0.14    0.66
  -4   7   2    0.37    0.68
   3  -7  -2    0.62    0.52
   3  -7  -2   -0.76    0.51
  -3   7   2    0.03    0.58
   2  -7  -2    4.06    0.49
   2  -7  -2    3.62    0.56
  -2   7   2    3.17    0.57
   1  -7  -2    4.04    0.51
  -1   7   2    3.65    0.52
   0  -7  -2   16.33    0.85
   0   7   2   15.33    0.75
  -1  -7  -2   26.90    1.03
   1   7   2   26.06    0.78
  -2  -7  -2   20.43    0.90
   2   7   2   19.42    0.87
  -3  -7  -2    3.80    0.47
   3   7   2    5.51    0.64
  -4  -7  -2    0.31    0.36
   4   7   2   -0.11    0.33
  -5  -7  -2    0.93    0.31
  -5  -7  -2    1.20    0.40
   5   7   2    0.97    0.39
  -6  -7  -2    5.48    0.61
   6   7   2    5.28    0.61
   6   7   2    6.13    0.61
   7   7   2   18.22    0.85
   7   7   2   17.08    1.09
   8   7   2   14.35    0.93
   8   7   2   14.05    1.20
   9   7   2    3.63    0.80
   9   7   2    4.45    0.70
  10   7   2    1.12    0.83
  10   7   2    1.75    0.89
   5  -8  -2    0.36    1.11
  -5   8   2    0.68    1.19
  -5   8   2   -0.29    1.11
   4  -8  -2   -1.49    0.85
   4  -8  -2   -0.13    0.69
  -4   8   2    0.24    0.86
   3  -8  -2    1.28    0.69
   3  -8  -2   -0.98    0.57
  -3   8   2    0.70    0.77
   2  -8  -2    5.36    0.65
   2  -8  -2    7.23    0.68
  -2   8   2    7.41    0.79
   1  -8  -2    4.58    0.60
  -1   8   2    6.10    0.69
   0  -8  -2    5.23    0.59
   0   8   2    6.02    0.61
  -1  -8  -2    1.44    0.45
   1   8   2    1.31    0.44
  -2  -8  -2    3.35    0.56
  -3  -8  -2    1.38    0.49
   3   8   2    2.15    0.47
  -4  -8  -2    4.25    0.59
   4   8   2    4.84    0.60
  -5  -8  -2   16.74    1.06
   5   8   2   14.31    0.97
  -6  -8  -2   20.54    1.20
   6   8   2   19.65    1.16
  -7  -8  -2   11.14    0.85
   7   8   2   11.52    0.86
   7   8   2    9.79    1.10
   8   8   2    2.82    0.75
   8   8   2    2.75    0.64
   9   8   2    2.45    0.74
   9   8   2    2.38    0.85
  10   8   2   -0.50    0.90
  10   8   2    0.06    0.85
   3  -9  -2    0.65    0.94
   3  -9  -2   -1.30    0.81
  -3   9   2   -0.86    1.05
   2  -9  -2    2.21    0.69
   2  -9  -2    2.93    0.73
  -2   9   2    1.81    0.88
   1  -9  -2    0.45    0.61
  -1   9   2    1.23    0.75
   0  -9  -2    2.28    0.63
   0   9   2    0.72    0.61
  -1  -9  -2    1.47    0.59
   1   9   2    1.25    0.56
  -2  -9  -2    1.82    0.55
  -3  -9  -2    6.14    0.69
   3   9   2    5.31    0.60
  -4  -9  -2   15.32    1.14
   4   9   2   13.39    0.99
  -5  -9  -2    9.66    1.10
   5   9   2    8.66    1.00
  -6  -9  -2    2.65    0.71
   6   9   2    2.43    0.65
  -7  -9  -2    5.15    0.64
   7   9   2    5.72    0.83
   8   9   2    0.95    0.82
   9   9   2    0.04    0.95
   9   9   2    0.89    0.78
   1 -10  -2   -0.68    0.92
  -1  10   2    2.07    1.05
   0 -10  -2   -0.03    0.77
   0  10   2   -0.02    0.87
  -1 -10  -2    2.42    0.81
   1  10   2    3.58    0.74
  -2 -10  -2    5.70    0.86
  -3 -10  -2    5.07    0.84
  -4 -10  -2    4.82    0.86
   4  10   2    3.14    0.69
  -5 -10  -2    1.09    0.78
   5  10   2    1.79    0.71
  -6 -10  -2    0.55    0.82
   6  10   2   -0.77    0.66
  -7 -10  -2    1.21    0.86
   7  10   2   -0.82    0.84
   8  10   2    0.70    0.93
  -2 -11  -2    3.51    1.10
  -3 -11  -2   -0.11    0.96
  -4 -11  -2   -0.39    1.02
  -5 -11  -2   -0.55    1.03
   5  11   2   -1.66    0.82
  -6 -11  -2    0.25    1.05
   6  11   2    0.05    0.87
   5   9  -3    0.84    0.71
   5   9  -3    4.61    1.08
  -5  -9   3    2.36    0.98
   4   9  -3    4.01    1.05
   4   9  -3    3.17    0.72
  -4  -9   3    1.47    0.66
  -4  -9   3    3.88    0.92
   3   9  -3    0.95    0.99
  -3  -9   3   -0.15    0.67
  -3  -9   3    1.18    0.88
   2   9  -3    1.06    1.00
  -2  -9   3    1.11    0.78
  -2  -9   3    1.04    0.92
   1   9  -3    0.74    1.00
  -1  -9   3    0.67    1.01
  -1  -9   3    1.84    0.81
   7   8  -3    1.56    0.69
  -7  -8   3    4.04    0.90
   6   8  -3    5.66    0.86
   6   8  -3    3.81    0.65
  -6  -8   3    5.55    0.71
  -6  -8   3    5.26    0.85
   5   8  -3   -0.69    0.59
   5   8  -3    1.86    0.80
  -5  -8   3   -0.31    0.68
  -5  -8   3    0.94    0.54
   4   8  -3    0.54    0.50
   4   8  -3    1.03    0.76
  -4  -8   3    1.47    0.64
  -4  -8   3    0.12    0.53
   3   8  -3    0.80    0.78
   3   8  -3    0.30    0.54
  -3  -8   3   -0.32    0.54
  -3  -8   3    0.39    0.66
   2   8  -3   -0.91    0.48
   2   8  -3   -0.07    0.70
  -2  -8   3   -1.05    0.67
  -2  -8   3   -0.37    0.54
   1   8  -3    0.02    0.67
  -1  -8   3    0.49    0.67
  -1  -8   3    0.22    0.58
   0   8  -3    4.21    0.70
   0  -8   3    3.51    0.66
  -1   8  -3    7.09    0.76
   1  -8   3    6.30    0.82
  -2   8  -3   -1.13    0.80
   2  -8   3   -1.97    0.84
   9   7  -3    0.92    0.81
   8   7  -3    5.81    0.75
  -8  -7   3    4.68    0.90
   7   7  -3    1.43    0.60
  -7  -7   3    1.84    0.67
   6   7  -3    1.68    0.62
   6   7  -3    1.39    0.54
  -6  -7   3    0.95    0.61
   5   7  -3    1.13    0.47
   5   7  -3    1.47    0.59
  -5  -7   3    1.73    0.49
  -5  -7   3    0.28    0.55
   4   7  -3    0.70    0.44
   4   7  -3   -0.16    0.57
  -4  -7   3    1.16    0.42
  -4  -7   3    0.10    0.50
   3   7  -3    1.20    0.59
   3   7  -3    0.14    0.39
  -3  -7   3    0.13    0.51
  -3  -7   3    0.43    0.42
   2   7  -3    9.50    0.98
   2   7  -3    9.83    0.82
  -2  -7   3    9.67    0.84
  -2  -7   3   10.35    0.91
   1   7  -3   17.15    0.95
   1   7  -3   20.07    1.08
  -1  -7   3   18.59    1.05
  -1  -7   3   20.54    1.03
   0   7  -3    0.57    0.49
   0  -7   3   -0.57    0.46
   0  -7   3   -0.19    0.55
  -1   7  -3    0.82    0.51
   1  -7   3   -0.12    0.51
   1  -7   3   -0.18    0.63
  -2   7  -3    1.53    0.61
   2  -7   3    1.45    0.62
   2  -7   3    1.04    0.75
  -3   7  -3    1.95    0.71
   3  -7   3    0.44    0.74
  -4   7  -3    2.06    0.85
   4  -7   3   -0.66    0.91
   9   6  -3    2.73    0.74
   9   6  -3    1.61    0.82
  -9  -6   3    1.21    0.75
   8   6  -3   -0.41    0.57
   8   6  -3    0.54    0.66
  -8  -6   3    0.88    0.64
   7   6  -3   -0.08    0.47
  -7  -6   3    0.32    0.56
   6   6  -3    0.35    0.42
  -6  -6   3   -0.24    0.48
   5   6  -3    0.01    0.37
   5   6  -3    0.45    0.48
  -5  -6   3   -0.63    0.39
  -5  -6   3    0.41    0.40
   4   6  -3    6.91    0.79
   4   6  -3    5.59    0.68
  -4  -6   3    5.95    0.71
  -4  -6   3    5.59    0.57
   3   6  -3   22.32    0.97
   3   6  -3   22.62    1.00
  -3  -6   3   21.10    0.97
  -3  -6   3   22.40    0.94
   2   6  -3    5.21    0.66
   2   6  -3    6.52    0.77
  -2  -6   3    5.83    0.58
  -2  -6   3    6.60    0.69
   1   6  -3   -0.02    0.34
   1   6  -3    0.04    0.39
  -1  -6   3    0.01    0.37
  -1  -6   3    0.11    0.35
   0   6  -3    5.97    0.65
   0  -6   3    5.82    0.72
   0  -6   3    7.46    0.75
  -1   6  -3    7.01    0.66
   1  -6   3    6.05    0.78
   1  -6   3    5.52    0.61
  -2   6  -3    0.46    0.43
   2  -6   3   -0.85    0.57
   2  -6   3   -0.02    0.45
  -3   6  -3   -1.03    0.51
   3  -6   3   -0.08    0.60
   3  -6   3   -0.40    0.65
  -4   6  -3    3.28    0.64
   4  -6   3    2.72    0.78
   4  -6   3    0.76    0.73
  -5   6  -3   -0.98    0.83
  -5   6  -3    2.46    0.98
   5  -6   3   -1.28    0.84
   5  -6   3    0.96    0.92
  10   5  -3    1.60    0.80
  10   5  -3    0.79    0.89
 -10  -5   3   -1.06    0.83
   9   5  -3    0.11    0.58
   9   5  -3    0.19    0.73
  -9  -5   3    0.75    0.64
   8   5  -3    0.54    0.54
   8   5  -3    0.34    0.51
  -8  -5   3    0.46    0.52
   7   5  -3    1.15    0.43
   7   5  -3    0.85    0.51
  -7  -5   3    0.00    0.42
   6   5  -3    7.57    0.77
   6   5  -3    8.64    0.78
  -6  -5   3    7.92    0.74
   5   5  -3   29.20    1.08
   5   5  -3   28.43    0.90
  -5  -5   3   27.55    0.97
   4   5  -3   14.43    0.75
   4   5  -3   13.08    0.78
  -4  -5   3   13.69    0.70
  -4  -5   3   14.24    0.80
   3   5  -3   -0.49    0.27
   3   5  -3    0.37    0.38
  -3  -5   3    0.34    0.30
  -3  -5   3    0.18    0.32
   2   5  -3   15.85    0.79
   2   5  -3   15.18    0.77
  -2  -5   3   16.07    0.81
  -2  -5   3   15.19    0.71
   1   5  -3    5.65    0.59
   1   5  -3    4.98    0.59
  -1  -5   3    4.92    0.57
  -1  -5   3    5.31    0.52
   0   5  -3    0.13    0.31
   0  -5   3    0.00    0.34
   0  -5   3   -0.09    0.35
  -1   5  -3    0.10    0.32
   1  -5   3    0.58    0.42
   1  -5   3    0.50    0.33
  -2   5  -3    1.73    0.42
   2  -5   3    2.21    0.46
   2  -5   3    1.77    0.50
  -3   5  -3   12.51    0.79
   3  -5   3   14.15    1.00
   3  -5   3   12.39    0.97
  -4   5  -3    6.37    0.69
  -4   5  -3    7.40    0.84
   4  -5   3    4.95    0.72
   4  -5   3    6.27    0.78
  -5   5  -3    7.21    0.84
  -5   5  -3    5.53    0.75
   5  -5   3    5.21    0.80
   5  -5   3    4.65    0.75
  -6   5  -3    0.33    0.85
  -6   5  -3    1.21    0.82
   6  -5   3   -1.20    0.84
   6  -5   3    0.56    0.79
  10   4  -3    0.31    0.70
  10   4  -3    0.30    0.68
 -10  -4   3    0.91    0.72
 -10  -4   3   -0.30    0.69
   9   4  -3    0.44    0.53
   9   4  -3    0.97    0.57
  -9  -4   3    1.36    0.51
  -9  -4   3    0.19    0.52
   8   4  -3    4.98    0.59
   8   4  -3    5.09    0.56
  -8  -4   3    5.67    0.64
  -8  -4   3    5.50    0.55
   7   4  -3   11.23    0.76
   7   4  -3   11.52    0.82
  -7  -4   3   11.52    0.75
   6   4  -3    6.15    0.66
   6   4  -3    4.63    0.51
  -6  -4   3    5.12    0.57
   5   4  -3    2.49    0.38
   5   4  -3    3.22    0.42
  -5  -4   3    3.37    0.42
   4   4  -3   17.68    0.67
   4   4  -3   17.50    0.81
  -4  -4   3   17.23    0.68
  -4  -4   3   16.71    0.80
   3   4  -3   10.33    0.60
   3   4  -3   10.04    0.65
  -3  -4   3   10.91    0.56
  -3  -4   3   10.43    0.66
   2   4  -3    0.36    0.32
   2   4  -3    0.59    0.28
  -2  -4   3    0.30    0.28
  -2  -4   3    0.53    0.27
   1   4  -3    1.24    0.31
   1   4  -3    1.05    0.30
  -1  -4   3    0.94    0.28
  -1  -4   3    1.03    0.28
   0   4  -3   21.47    0.78
   0   4  -3   20.41    0.81
   0  -4   3   20.33    0.80
   0  -4   3   21.44    0.68
  -1   4  -3   49.61    1.21
   1  -4   3   49.19    1.11
   1  -4   3   47.97    1.28
  -2   4  -3    9.63    0.62
   2  -4   3   10.11    0.68
   2  -4   3    9.43    0.70
  -3   4  -3   13.34    0.74
  -3   4  -3   16.00    0.80
   3  -4   3   14.88    0.89
   3  -4   3   14.99    0.79
  -4   4  -3    6.02    0.59
  -4   4  -3    7.35    0.71
   4  -4   3    7.98    0.77
   4  -4   3    4.82    0.64
  -5   4  -3    1.06    0.51
  -5   4  -3   -0.10    0.50
   5  -4   3   -0.47    0.48
   5  -4   3   -0.70    0.51
  -6   4  -3    0.55    0.69
  -6   4  -3    0.08    0.51
   6  -4   3   -0.20    0.58
   6  -4   3   -0.16    0.63
  -7   4  -3   -0.07    0.64
  -7   4  -3   -0.41    0.87
   7  -4   3    0.42    0.72
  10   3  -3    0.89    0.66
  10   3  -3   -0.12    0.62
 -10  -3   3    1.30    0.61
 -10  -3   3    0.85    0.74
   9   3  -3    3.59    0.56
   9   3  -3    3.49    0.52
  -9  -3   3    3.98    0.65
  -9  -3   3    3.50    0.57
   8   3  -3    3.73    0.49
   8   3  -3    3.62    0.44
  -8  -3   3    5.11    0.50
  -8  -3   3    5.13    0.55
   7   3  -3    5.10    0.55
   7   3  -3    6.19    0.67
  -7  -3   3    5.20    0.50
  -7  -3   3    5.33    0.47
   6   3  -3    6.34    0.61
   6   3  -3    6.25    0.54
  -6  -3   3    7.40    0.53
  -6  -3   3    7.30    0.55
   5   3  -3    7.92    0.52
   5   3  -3    8.69    0.64
  -5  -3   3    7.38    0.51
   4   3  -3   -0.08    0.25
   4   3  -3    0.05    0.24
  -4  -3   3   -0.24    0.22
   3   3  -3    0.05    0.25
   3   3  -3    0.22    0.26
  -3  -3   3    0.23    0.22
  -3  -3   3   -0.03    0.24
   2   3  -3   22.29    0.80
   2   3  -3   21.97    0.69
  -2  -3   3   22.04    0.68
  -2  -3   3   22.12    0.78
   1   3  -3   30.07    0.82
   1   3  -3   30.85    0.91
  -1  -3   3   29.22    0.69
  -1  -3   3   29.61    0.89
   0   3  -3   64.86    1.42
   0   3  -3   66.76    1.35
   0  -3   3   63.64    1.40
   0  -3   3   64.46    1.17
  -1   3  -3   63.86    1.35
   1  -3   3   63.49    1.23
   1  -3   3   62.22    1.39
  -2   3  -3   34.12    0.96
   2  -3   3   32.59    0.89
   2  -3   3   33.34    0.99
  -3   3  -3    0.47    0.30
  -3   3  -3    0.89    0.30
   3  -3   3    0.53    0.30
   3  -3   3    0.38    0.34
  -4   3  -3    0.51    0.33
  -4   3  -3    0.29    0.33
   4  -3   3    0.36    0.33
   4  -3   3   -0.29    0.35
  -5   3  -3   -0.20    0.36
  -5   3  -3   -0.07    0.40
   5  -3   3    0.20    0.34
  -6   3  -3    0.42    0.40
  -6   3  -3    1.28    0.58
   6  -3   3    0.52    0.43
  -7   3  -3    0.41    0.69
  -7   3  -3    0.55    0.52
   7  -3   3    0.93    0.55
  -8   3  -3    0.00    0.88
  -8   3  -3    0.33    0.67
   8  -3   3    0.20    0.67
   8  -3   3    0.82    0.69
  10   2  -3    1.89    0.65
  10   2  -3    0.10    0.59
 -10  -2   3    1.66    0.75
   9   2  -3   -0.51    0.45
   9   2  -3    0.31    0.51
  -9  -2   3   -0.08    0.48
  -9  -2   3   -0.42    0.56
   8   2  -3    6.54    0.74
   8   2  -3    4.15    0.46
  -8  -2   3    5.12    0.58
  -8  -2   3    5.08    0.47
   7   2  -3    2.33    0.44
   7   2  -3    2.53    0.38
  -7  -2   3    2.15    0.42
  -7  -2   3    2.76    0.38
   6   2  -3    1.42    0.30
   6   2  -3    1.69    0.34
  -6  -2   3    1.66    0.36
  -6  -2   3    1.47    0.30
   5   2  -3    0.86    0.32
   5   2  -3    0.88    0.27
  -5  -2   3    0.79    0.25
   4   2  -3    2.80    0.37
   4   2  -3    3.01    0.35
  -4  -2   3    3.13    0.34
   3   2  -3   71.71    1.26
   3   2  -3   71.56    1.36
   3   2  -3   74.25    1.54
  -3  -2   3   72.35    1.35
  -3  -2   3   71.45    1.23
   2   2  -3  185.97    2.82
   2   2  -3  185.33    3.14
  -2  -2   3  183.60    2.81
  -2  -2   3  185.29    3.13
  -2  -2   3  191.51    2.81
   1   2  -3  101.89    1.87
   1   2  -3   99.22    1.70
  -1  -2   3   98.98    1.71
  -1  -2   3  102.01    1.69
  -1  -2   3  100.43    1.85
   0   2  -3   22.64    0.69
   0   2  -3   22.88    0.73
   0  -2   3   23.13    0.71
   0  -2   3   22.49    0.61
   0  -2   3   22.50    0.70
  -1   2  -3   -0.02    0.24
   1  -2   3    0.34    0.23
   1  -2   3    0.46    0.24
   1  -2   3    0.52    0.26
  -2   2  -3    1.65    0.30
   2  -2   3    1.49    0.29
   2  -2   3    1.61    0.29
   2  -2   3    1.51    0.28
  -3   2  -3    0.03    0.26
  -3   2  -3    0.21    0.25
   3  -2   3   -0.14    0.27
   3  -2   3    0.16    0.25
  -4   2  -3    1.41    0.35
  -4   2  -3    1.04    0.29
   4  -2   3    1.01    0.29
  -5   2  -3    4.97    0.50
  -5   2  -3    5.01    0.54
   5  -2   3    4.76    0.45
  -6   2  -3    2.50    0.37
  -6   2  -3    2.74    0.56
   6  -2   3    2.84    0.42
  -7   2  -3    5.70    0.58
  -7   2  -3    5.68    0.75
   7  -2   3    7.24    0.73
  -8   2  -3    1.91    0.77
  -8   2  -3    1.09    0.52
   8  -2   3    2.14    0.55
   8  -2   3    0.85    0.53
  -9   2  -3   -0.27    0.69
  -9   2  -3    0.66    0.99
   9  -2   3    0.53    0.74
   9  -2   3    1.40    0.68
  10   1  -3    3.50    0.67
 -10  -1   3    3.32    0.86
   9   1  -3    0.58    0.48
  -9  -1   3    0.10    0.57
   8   1  -3    0.93    0.38
  -8  -1   3    0.98    0.50
  -8  -1   3    1.31    0.40
   7   1  -3    0.72    0.30
  -7  -1   3    0.37    0.36
  -7  -1   3    0.00    0.32
   6   1  -3    3.56    0.38
  -6  -1   3    4.00    0.43
  -6  -1   3    3.69    0.42
   5   1  -3   25.71    0.79
  -5  -1   3   25.31    0.79
   4   1  -3   53.24    1.27
   4   1  -3   54.63    1.15
  -4  -1   3   55.11    1.14
   3   1  -3  116.99    2.14
  -3  -1   3  115.95    1.91
   2   1  -3   58.13    1.22
   2   1  -3   57.88    1.06
   2   1  -3   58.99    1.12
  -2  -1   3   56.50    1.05
  -2  -1   3   58.62    1.10
   1   1  -3   17.53    0.58
   1   1  -3   16.88    0.59
  -1  -1   3   16.35    0.56
  -1  -1   3   16.63    0.55
  -1  -1   3   16.44    0.57
   0   1  -3   20.71    0.64
   0   1  -3   21.59    0.63
   0  -1   3   20.81    0.60
   0  -1   3   21.20    0.66
  -1   1  -3    1.38    0.30
   1  -1   3    1.54    0.27
   1  -1   3    1.20    0.29
   1  -1   3    1.45    0.24
  -2   1  -3   19.67    0.67
   2  -1   3   20.92    0.66
   2  -1   3   20.09    0.67
   2  -1   3   20.36    0.63
  -3   1  -3   31.59    0.86
   3  -1   3   31.31    0.84
   3  -1   3   31.54    0.82
  -4   1  -3    9.73    0.53
  -4   1  -3    9.78    0.58
   4  -1   3    9.36    0.54
   4  -1   3    9.79    0.56
  -5   1  -3    2.67    0.44
  -5   1  -3    2.61    0.36
   5  -1   3    2.88    0.38
  -6   1  -3   11.07    0.80
  -6   1  -3    9.48    0.60
   6  -1   3   10.18    0.65
  -7   1  -3    6.14    0.69
  -7   1  -3    6.42    0.62
   7  -1   3    5.60    0.63
  -8   1  -3    1.11    0.47
  -8   1  -3    0.80    0.62
   8  -1   3    1.82    0.49
   8  -1   3    1.01    0.44
  -9   1  -3    0.63    0.81
  -9   1  -3   -0.50    0.59
   9  -1   3    1.38    0.57
   9  -1   3    1.30    0.55
 -10   1  -3   -0.46    1.03
  10  -1   3   -1.08    0.80
  10   0  -3    1.18    0.65
 -10   0   3   -0.26    0.81
   9   0  -3    1.59    0.49
  -9   0   3   -0.03    0.57
   8   0  -3    0.68    0.38
  -8   0   3    0.26    0.46
   7   0  -3    0.17    0.31
  -7   0   3   -0.19    0.30
  -7   0   3    0.17    0.36
   6   0  -3   36.51    0.99
  -6   0   3   35.52    0.99
  -6   0   3   34.97    0.98
   5   0  -3  100.13    1.82
  -5   0   3  101.29    1.81
   4   0  -3   44.75    1.01
  -4   0   3   44.66    1.00
   3   0  -3   -0.12    0.21
  -3   0   3    0.16    0.22
   2   0  -3    2.84    0.31
  -2   0   3    3.03    0.29
  -2   0   3    3.56    0.36
   1   0  -3    0.89    0.22
   1   0  -3    1.08    0.26
  -1   0   3    1.26    0.28
  -1   0   3    1.33    0.26
   0   0  -3   29.39    0.63
   0   0  -3   28.47    0.72
   0   0   3   28.44    0.63
   0   0   3   28.74    0.74
  -1   0  -3   36.78    0.86
   1   0   3   35.94    0.86
   1   0   3   37.62    0.72
  -2   0  -3    1.77    0.32
   2   0   3    1.72    0.32
   2   0   3    2.17    0.32
  -3   0  -3   21.89    0.72
   3   0   3   21.31    0.64
   3   0   3   21.00    0.68
  -4   0  -3   69.66    1.39
   4   0   3   69.97    1.35
   4   0   3   68.03    1.35
  -5   0  -3   15.92    0.71
  -5   0  -3   15.93    0.63
   5   0   3   15.72    0.67
   5   0   3   15.67    0.64
  -6   0  -3    2.65    0.34
  -6   0  -3    3.12    0.47
   6   0   3    2.91    0.41
   6   0   3    2.97    0.39
  -7   0  -3    0.19    0.45
  -7   0  -3   -0.02    0.30
   7   0   3    0.95    0.30
   7   0   3    0.21    0.31
  -8   0  -3    0.22    0.37
  -8   0  -3   -0.49    0.56
   8   0   3    0.71    0.42
   8   0   3    0.28    0.38
  -9   0  -3    0.46    0.60
  -9   0  -3    0.50    0.69
   9   0   3    2.53    0.52
   9   0   3    1.06    0.56
 -10   0  -3   -0.48    0.90
 -10   0  -3    1.80    0.72
  10   0   3   -1.31    0.67
  10   0   3    0.48    0.78
  10  -1  -3    0.38    0.80
 -10   1   3    0.28    0.87
   9  -1  -3    0.61    0.57
  -9   1   3    0.26    0.62
   8  -1  -3   10.12    0.76
  -8   1   3    9.12    0.89
   7  -1  -3   20.84    0.84
  -7   1   3   19.64    0.88
   6  -1  -3   10.51    0.61
  -6   1   3    9.33    0.60
  -6   1   3   10.23    0.64
   5  -1  -3    1.89    0.33
  -5   1   3    2.38    0.34
  -5   1   3    2.12    0.31
   4  -1  -3    4.94    0.43
  -4   1   3    4.64    0.43
   3  -1  -3    2.11    0.28
  -3   1   3    2.32    0.30
   2  -1  -3    5.07    0.40
  -2   1   3    4.55    0.39
   1  -1  -3   43.67    0.83
  -1   1   3   45.14    0.83
  -1   1   3   43.42    0.88
   0   1   3   53.66    0.91
   0   1   3   52.13    1.01
  -1  -1  -3   90.44    1.53
   1   1   3   90.12    1.54
  -2  -1  -3   10.23    0.54
   2   1   3    9.90    0.54
  -3  -1  -3   36.57    0.88
   3   1   3   36.44    0.87
   3   1   3   36.88    0.83
  -4  -1  -3   15.29    0.64
   4   1   3   15.38    0.61
   4   1   3   15.76    0.57
  -5  -1  -3   17.77    0.71
   5   1   3   18.57    0.68
   5   1   3   18.05    0.64
  -6  -1  -3    0.13    0.27
  -6  -1  -3   -0.41    0.35
   6   1   3    0.21    0.31
   6   1   3    0.19    0.27
  -7  -1  -3    2.74    0.47
  -7  -1  -3    3.15    0.40
   7   1   3    2.79    0.37
   7   1   3    2.22    0.40
   7   1   3    2.90    0.43
  -8  -1  -3    3.94    0.51
  -8  -1  -3    3.01    0.58
   8   1   3    3.05    0.43
   8   1   3    2.74    0.48
  -9  -1  -3    3.20    0.60
  -9  -1  -3    3.53    0.66
   9   1   3    4.74    0.73
   9   1   3    3.73    0.55
 -10  -1  -3    3.28    0.73
  10   1   3    3.83    0.85
  10   1   3    3.00    0.62
   9  -2  -3    6.10    0.80
  -9   2   3    5.50    0.80
   8  -2  -3    8.03    0.86
  -8   2   3    5.80    0.68
   7  -2  -3    3.20    0.49
  -7   2   3    2.50    0.43
   6  -2  -3    0.96    0.35
  -6   2   3    0.19    0.31
   5  -2  -3    0.18    0.29
  -5   2   3   -0.06    0.26
   4  -2  -3    9.52    0.52
  -4   2   3    8.28    0.52
   3  -2  -3   11.75    0.53
  -3   2   3   12.77    0.53
   2  -2  -3   50.54    0.96
  -2   2   3   51.10    0.96
   1  -2  -3    4.14    0.33
  -1   2   3    4.31    0.33
   0   2   3   13.41    0.38
   2   2   3   59.45    1.15
   3   2   3   34.44    0.84
  -4  -2  -3    3.94    0.44
   4   2   3    4.17    0.40
   4   2   3    3.73    0.37
  -5  -2  -3   13.07    0.59
   5   2   3   12.96    0.58
   5   2   3   11.95    0.55
  -6  -2  -3    9.07    0.60
   6   2   3    9.23    0.57
   6   2   3    8.90    0.54
   6   2   3    9.10    0.56
  -7  -2  -3    7.68    0.65
   7   2   3    7.80    0.59
   7   2   3    6.51    0.64
   7   2   3    7.72    0.60
  -8  -2  -3   10.36    0.77
   8   2   3   10.60    0.81
   8   2   3    9.05    0.68
   8   2   3   10.07    0.70
   9   2   3    1.89    0.56
   9   2   3    1.35    0.47
  10   2   3    1.53    0.69
  10   2   3    1.56    0.59
  11   2   3    0.76    0.75
   9  -3  -3    0.02    0.87
  -9   3   3   -1.24    0.77
   8  -3  -3    0.69    0.62
  -8   3   3   -0.12    0.52
   7  -3  -3   -0.08    0.53
  -7   3   3   -0.33    0.43
  -7   3   3    0.43    0.49
   6  -3  -3    1.85    0.47
  -6   3   3    2.14    0.40
   5  -3  -3   -0.02    0.34
  -5   3   3    0.20    0.29
   4  -3  -3   14.44    0.64
  -4   3   3   13.97    0.64
   3  -3  -3   25.21    0.70
   2  -3  -3   25.69    0.64
  -2   3   3   25.86    0.64
  -1   3   3   25.33    0.56
  -1  -3  -3   37.23    0.76
  -2  -3  -3   40.97    0.81
   2   3   3   40.89    0.81
   3   3   3   26.99    0.67
   3   3   3   26.38    0.74
   4   3   3    0.80    0.24
   4   3   3    0.99    0.30
   4   3   3    0.90    0.20
   4   3   3    0.49    0.24
   5   3   3   16.59    0.58
   5   3   3   16.85    0.65
   5   3   3   17.74    0.64
   5   3   3   16.94    0.59
   6   3   3   45.82    1.04
   6   3   3   46.38    1.06
   6   3   3   47.40    1.07
   7   3   3   18.44    0.71
   7   3   3   17.11    0.76
   7   3   3   17.78    0.77
   8   3   3    2.72    0.52
   8   3   3    2.32    0.49
   9   3   3    2.12    0.50
   9   3   3    1.36    0.53
  10   3   3   -0.29    0.58
  10   3   3    0.42    0.61
  11   3   3    0.79    0.80
   8  -4  -3    0.50    0.79
  -8   4   3    0.08    0.80
  -8   4   3   -0.08    0.67
   7  -4  -3   -0.75    0.63
  -7   4   3   -1.04    0.51
  -7   4   3   -0.94    0.59
   6  -4  -3    5.83    0.64
  -6   4   3    6.25    0.68
   5  -4  -3   15.00    0.83
  -5   4   3   13.86    0.70
   4  -4  -3   -0.51    0.34
  -4   4   3    0.09    0.28
   3  -4  -3    6.45    0.52
  -3   4   3    7.71    0.51
   2  -4  -3   15.10    0.54
   1  -4  -3   41.87    0.77
   0  -4  -3   11.58    0.57
  -1  -4  -3    3.78    0.41
  -2  -4  -3   11.55    0.52
   2   4   3   12.90    0.48
  -3  -4  -3   36.32    0.86
   3   4   3   34.11    0.83
   4   4   3   72.31    1.43
   4   4   3   70.86    1.20
   5   4   3   17.03    0.54
   5   4   3   17.08    0.65
   5   4   3   17.22    0.70
   5   4   3   17.80    0.59
   6   4   3   11.47    0.59
   6   4   3   11.55    0.59
   6   4   3   10.92    0.53
   6   4   3   11.65    0.68
   7   4   3   13.97    0.83
   7   4   3   15.74    0.69
   7   4   3   14.18    0.72
   8   4   3   -0.39    0.40
   8   4   3    0.46    0.43
   8   4   3   -0.04    0.43
   9   4   3    1.35    0.54
   9   4   3    2.13    0.58
   9   4   3    1.23    0.53
  10   4   3    0.22    0.61
  10   4   3    0.20    0.65
  10   4   3    0.91    0.69
  11   4   3    1.63    0.83
  11   4   3    1.15    0.90
   8  -5  -3    1.08    1.05
  -8   5   3    0.79    1.03
   7  -5  -3    2.25    0.84
  -7   5   3    0.88    0.61
  -7   5   3    0.68    0.76
   6  -5  -3    0.37    0.64
  -6   5   3    0.47    0.50
   5  -5  -3    4.11    0.61
  -5   5   3    4.54    0.53
   4  -5  -3    3.68    0.50
  -4   5   3    3.52    0.43
   3  -5  -3    2.83    0.41
  -3   5   3    3.07    0.41
   2  -5  -3    2.43    0.32
  -2   5   3    2.72    0.37
   1  -5  -3    0.12    0.30
   0  -5  -3   16.41    0.71
  -1  -5  -3    9.92    0.57
  -2  -5  -3   21.37    0.72
   2   5   3   21.58    0.70
  -3  -5  -3   45.09    1.09
   3   5   3   45.74    1.06
  -4  -5  -3   60.11    1.34
   4   5   3   60.26    1.32
   5   5   3   19.71    0.57
   5   5   3   19.65    0.61
   5   5   3   19.65    0.78
   6   5   3    0.40    0.33
   6   5   3    0.43    0.30
   6   5   3    0.00    0.26
   6   5   3   -0.01    0.25
   7   5   3    7.26    0.60
   7   5   3    6.52    0.65
   7   5   3    6.12    0.73
   7   5   3    6.75    0.55
   8   5   3    0.42    0.42
   8   5   3    0.21    0.44
   8   5   3    0.93    0.40
   9   5   3    4.21    0.60
   9   5   3    3.97    0.66
   9   5   3    5.74    0.60
  10   5   3    2.82    0.74
  10   5   3    3.20    0.65
  10   5   3    3.74    0.71
  11   5   3   -0.66    0.88
  11   5   3    0.86    0.82
   7  -6  -3    0.16    1.00
  -7   6   3   -1.42    0.94
   6  -6  -3   -0.20    0.77
  -6   6   3    0.74    0.62
   5  -6  -3    0.05    0.65
  -5   6   3    1.17    0.52
   4  -6  -3    2.30    0.58
  -4   6   3    1.98    0.50
   3  -6  -3    0.66    0.40
  -3   6   3   -0.24    0.39
   2  -6  -3    3.22    0.47
   2  -6  -3    3.55    0.39
  -2   6   3    3.44    0.47
   1  -6  -3    7.68    0.73
  -1   6   3    8.46    0.63
   0  -6  -3    9.52    0.68
  -1  -6  -3   52.50    1.30
  -2  -6  -3   17.94    0.76
   2   6   3   18.24    0.75
  -3  -6  -3   15.06    0.73
   3   6   3   16.05    0.71
  -4  -6  -3    2.22    0.39
   4   6   3    3.05    0.39
  -5  -6  -3    3.81    0.45
   5   6   3    3.14    0.32
   5   6   3    3.89    0.44
   6   6   3    0.29    0.31
   6   6   3    0.83    0.39
   7   6   3    8.02    0.63
   7   6   3    7.26    0.68
   7   6   3    8.77    0.87
   8   6   3    9.56    1.01
   8   6   3    8.98    0.64
   8   6   3    9.33    0.77
   9   6   3    0.31    0.58
   9   6   3    0.93    0.54
   9   6   3    0.50    0.43
  10   6   3    0.02    0.77
  10   6   3    0.60    0.70
  11   6   3    1.99    1.05
  11   6   3   -0.73    0.94
   6  -7  -3    0.08    1.06
  -6   7   3   -1.33    0.94
  -6   7   3   -0.42    1.01
   5  -7  -3   -0.92    0.81
  -5   7   3    0.14    0.75
   4  -7  -3    2.13    0.67
   4  -7  -3    0.92    0.55
  -4   7   3    3.40    0.72
   3  -7  -3    3.68    0.57
   3  -7  -3    2.23    0.60
  -3   7   3    4.72    0.66
   2  -7  -3    0.32    0.47
   2  -7  -3    1.12    0.41
  -2   7   3    0.62    0.49
   1  -7  -3    8.09    0.84
  -1   7   3    8.59    0.75
   0  -7  -3    9.18    0.80
   0   7   3    9.84    0.70
  -1  -7  -3   20.12    0.94
   1   7   3   19.47    0.76
  -2  -7  -3    4.22    0.49
   2   7   3    5.78    0.60
  -3  -7  -3    3.44    0.47
   3   7   3    3.59    0.46
  -4  -7  -3    2.93    0.47
   4   7   3    2.89    0.44
  -5  -7  -3    9.86    0.84
   5   7   3    9.08    0.78
   6   7   3   15.44    0.67
   6   7   3   17.59    0.98
   7   7   3   -0.42    0.37
   7   7   3    0.19    0.48
   8   7   3    1.51    0.48
   8   7   3    1.75    0.52
   8   7   3    1.24    0.59
   9   7   3    4.63    0.79
   9   7   3    3.84    0.66
  10   7   3    1.92    0.78
  10   7   3    1.57    0.90
   5  -8  -3   -1.40    1.07
  -5   8   3    0.03    1.16
   4  -8  -3   -0.73    0.82
  -4   8   3   -0.63    0.88
   3  -8  -3    1.12    0.74
   3  -8  -3    2.35    0.70
  -3   8   3    1.15    0.74
   2  -8  -3    5.68    0.75
  -2   8   3    5.83    0.75
   1  -8  -3    2.27    0.58
  -1   8   3    3.36    0.62
   0  -8  -3    1.05    0.50
   0   8   3    0.45    0.51
  -1  -8  -3    1.22    0.49
   1   8   3    1.25    0.45
  -2  -8  -3    0.29    0.46
   2   8   3    0.36    0.38
  -3  -8  -3    9.65    0.90
   3   8   3    8.49    0.83
  -4  -8  -3    8.16    0.91
   4   8   3    9.44    0.87
  -5  -8  -3    0.73    0.53
   5   8   3    1.19    0.48
  -6  -8  -3    3.27    0.62
   6   8   3    3.57    0.65
   7   8   3    7.07    0.74
   7   8   3    6.48    0.74
   8   8   3    1.00    0.52
   8   8   3    1.35    0.65
   9   8   3    0.40    0.80
   9   8   3    0.82    0.64
  10   8   3    0.23    0.97
  10   8   3    0.48    0.82
   3  -9  -3   -0.65    0.86
  -3   9   3    1.17    1.04
   2  -9  -3    0.44    0.74
  -2   9   3    0.36    0.88
   1  -9  -3   -0.06    0.65
  -1   9   3   -0.13    0.70
   0  -9  -3    0.89    0.65
   0   9   3    0.42    0.64
  -1  -9  -3    5.22    0.75
   1   9   3    7.76    0.67
  -2  -9  -3    2.80    0.65
  -3  -9  -3    1.56    0.65
   3   9   3    2.65    0.53
  -4  -9  -3    2.32    0.64
   4   9   3    3.23    0.58
  -5  -9  -3    2.14    0.64
   5   9   3    1.48    0.57
  -6  -9  -3    0.34    0.65
   6   9   3    0.24    0.57
   7   9   3    0.83    0.70
   8   9   3   -0.35    0.78
   9   9   3    1.66    0.77
   9   9   3    1.36    0.96
   1 -10  -3    0.98    0.90
  -1  10   3    2.65    1.01
   0 -10  -3    1.05    0.90
   0  10   3    1.45    0.86
  -1 -10  -3    0.10    0.78
   1  10   3    1.46    0.74
  -2 -10  -3    0.83    0.73
  -3 -10  -3    0.06    0.73
  -4 -10  -3    1.47    0.74
   4  10   3    1.90    0.63
  -5 -10  -3   -0.12    0.71
   5  10   3    0.36    0.62
  -6 -10  -3    0.87    0.81
   6  10   3   -0.36    0.64
  -7 -10  -3    2.44    0.97
   7  10   3   -0.75    0.73
   8  10   3    1.28    0.94
   1  11   3    1.26    0.98
  -2 -11  -3    1.48    0.99
  -3 -11  -3   -0.50    1.00
  -4 -11  -3    0.02    1.02
  -5 -11  -3   -0.43    0.97
   5  11   3   -1.54    0.74
  -6 -11  -3    1.23    1.03
   6  11   3    1.10    0.93
   6   8  -4    0.18    0.74
   6   8  -4    2.21    1.01
  -6  -8   4    2.66    0.93
  -6  -8   4    3.64    0.76
   5   8  -4    1.45    0.95
   5   8  -4   -1.13    0.65
  -5  -8   4    0.86    0.84
  -5  -8   4   -0.47    0.67
   4   8  -4    5.90    0.97
   4   8  -4    2.49    0.65
  -4  -8   4    2.91    0.71
  -4  -8   4    3.79    0.88
   3   8  -4    0.59    0.82
   3   8  -4   -0.58    0.59
  -3  -8   4    0.99    0.80
  -3  -8   4    1.41    0.64
   2   8  -4    2.26    0.91
   2   8  -4    0.99    0.61
  -2  -8   4    2.61    0.76
  -2  -8   4    2.11    0.88
   1   8  -4    5.33    0.96
  -1  -8   4    3.52    0.81
  -1  -8   4    4.38    0.95
   0   8  -4    5.20    0.92
   0  -8   4    4.82    0.92
   1  -8   4    0.05    1.00
   8   7  -4    1.00    0.80
  -8  -7   4    1.85    0.99
   7   7  -4    0.33    0.71
  -7  -7   4   -0.98    0.73
   6   7  -4    2.42    0.63
   6   7  -4    1.20    0.78
  -6  -7   4    2.18    0.69
   5   7  -4   -0.79    0.52
   5   7  -4    1.47    0.73
  -5  -7   4    0.78    0.54
  -5  -7   4    0.22    0.64
   4   7  -4    1.13    0.50
   4   7  -4    3.02    0.74
  -4  -7   4    1.81    0.57
  -4  -7   4    2.74    0.67
   3   7  -4   16.45    1.09
   3   7  -4   19.24    1.26
  -3  -7   4   18.81    1.10
  -3  -7   4   18.15    1.13
   2   7  -4   11.08    1.00
   2   7  -4   16.10    1.24
  -2  -7   4   12.86    1.10
  -2  -7   4   12.02    1.02
   1   7  -4    2.64    0.69
  -1  -7   4    1.71    0.65
   0   7  -4    3.49    0.65
   0  -7   4    1.21    0.73
   0  -7   4    1.56    0.62
  -1   7  -4    2.76    0.66
   1  -7   4    1.83    0.72
   1  -7   4    1.70    0.80
  -2   7  -4    1.37    0.69
   2  -7   4    1.20    0.89
   2  -7   4   -0.57    0.79
  -3   7  -4    1.21    0.82
   3  -7   4   -0.29    1.00
   3  -7   4   -1.02    0.97
   9   6  -4   -0.85    0.86
  -9  -6   4   -0.62    0.89
   8   6  -4    0.45    0.70
  -8  -6   4    1.00    0.74
   7   6  -4    3.38    0.60
  -7  -6   4    2.42    0.66
   6   6  -4    7.26    0.92
  -6  -6   4    5.08    0.69
   5   6  -4   17.34    1.04
   5   6  -4   16.53    1.05
  -5  -6   4   18.04    1.02
  -5  -6   4   17.81    1.03
   4   6  -4   15.71    0.95
   4   6  -4   15.39    1.01
  -4  -6   4   16.15    0.99
  -4  -6   4   15.94    0.96
   3   6  -4    3.96    0.56
   3   6  -4    4.13    0.64
  -3  -6   4    4.18    0.59
  -3  -6   4    4.34    0.53
   2   6  -4    7.71    0.90
   2   6  -4    6.40    0.77
  -2  -6   4    6.20    0.63
  -2  -6   4    6.85    0.80
   1   6  -4    2.78    0.52
   1   6  -4    4.49    0.61
  -1  -6   4    4.18    0.61
  -1  -6   4    4.73    0.55
  -1  -6   4    2.93    0.53
   0   6  -4    3.56    0.52
   0  -6   4    2.03    0.59
   0  -6   4    1.79    0.52
  -1   6  -4    0.95    0.49
   1  -6   4    1.27    0.63
   1  -6   4    0.07    0.56
  -2   6  -4    1.08    0.52
   2  -6   4    2.12    0.72
   2  -6   4    1.62    0.69
  -3   6  -4    3.06    0.61
   3  -6   4    2.06    0.83
   3  -6   4    3.56    0.86
  -4   6  -4    0.63    0.69
   4  -6   4    0.56    0.91
   4  -6   4    0.76    0.93
  -5   6  -4    0.49    1.01
   5  -6   4    0.64    1.14
   5  -6   4    1.13    1.08
   9   5  -4    2.35    0.85
   9   5  -4    0.35    0.72
  -9  -5   4   -0.54    0.76
   8   5  -4    2.23    0.58
   8   5  -4    2.65    0.65
  -8  -5   4    2.10    0.62
   7   5  -4    6.62    0.65
  -7  -5   4    6.89    0.67
   6   5  -4   22.51    1.12
  -6  -5   4   24.59    1.01
   5   5  -4    7.98    0.81
   5   5  -4    8.14    0.75
  -5  -5   4    7.02    0.62
   4   5  -4   17.01    0.88
   4   5  -4   16.42    0.95
  -4  -5   4   17.39    0.94
  -4  -5   4   19.26    0.84
   3   5  -4    5.32    0.56
   3   5  -4    5.60    0.70
  -3  -5   4    5.61    0.63
  -3  -5   4    4.84    0.56
   2   5  -4    2.38    0.44
   2   5  -4    3.81    0.53
  -2  -5   4    2.77    0.46
  -2  -5   4    3.08    0.43
  -2  -5   4    3.18    0.39
   1   5  -4    0.30    0.36
   1   5  -4    0.46    0.41
  -1  -5   4   -0.01    0.39
  -1  -5   4    0.91    0.37
   0   5  -4    1.97    0.43
   0  -5   4    0.91    0.45
   0  -5   4    0.76    0.41
  -1   5  -4    6.30    0.65
   1  -5   4    5.26    0.61
   1  -5   4    6.80    0.78
  -2   5  -4    0.78    0.41
   2  -5   4    0.76    0.54
   2  -5   4    1.82    0.58
  -3   5  -4    9.96    0.80
   3  -5   4   10.57    1.10
   3  -5   4    9.16    1.04
  -4   5  -4    1.99    0.56
   4  -5   4    2.87    0.73
   4  -5   4    0.73    0.70
  -5   5  -4   -0.23    0.69
   5  -5   4    0.48    0.82
   5  -5   4   -0.99    0.79
  -6   5  -4   -1.08    1.01
   6  -5   4   -0.01    1.14
   6  -5   4    0.53    0.98
  10   4  -4    2.12    0.81
   9   4  -4    5.48    0.71
   9   4  -4    6.18    0.70
  -9  -4   4    7.19    0.70
  -9  -4   4    5.31    0.70
   8   4  -4   10.31    0.91
   8   4  -4   12.50    1.00
  -8  -4   4   11.97    0.86
  -8  -4   4   11.33    0.85
   7   4  -4    4.51    0.53
   7   4  -4    4.16    0.53
  -7  -4   4    4.69    0.53
   6   4  -4   14.99    0.92
   6   4  -4   15.73    0.80
  -6  -4   4   14.70    0.77
   5   4  -4    6.84    0.73
  -5  -4   4    5.30    0.57
   4   4  -4    4.41    0.50
   4   4  -4    5.01    0.48
  -4  -4   4    4.81    0.49
  -4  -4   4    5.02    0.64
   3   4  -4    0.04    0.36
   3   4  -4   -0.02    0.30
  -3  -4   4    0.19    0.28
  -3  -4   4   -0.08    0.30
   2   4  -4   -0.06    0.29
   2   4  -4    0.32    0.35
  -2  -4   4   -0.17    0.29
  -2  -4   4    0.26    0.30
  -2  -4   4    0.06    0.26
   1   4  -4   15.25    0.79
   1   4  -4   15.96    0.73
  -1  -4   4   15.33    0.78
  -1  -4   4   15.92    0.64
   0   4  -4   18.82    0.87
   0   4  -4   21.07    0.80
   0  -4   4   19.69    0.86
   0  -4   4   21.53    0.77
  -1   4  -4   29.13    0.94
   1  -4   4   28.37    0.91
   1  -4   4   27.66    1.05
  -2   4  -4    3.71    0.45
   2  -4   4    3.45    0.51
   2  -4   4    2.84    0.48
  -3   4  -4    0.88    0.38
   3  -4   4    0.71    0.45
   3  -4   4    1.73    0.49
  -4   4  -4    1.47    0.44
   4  -4   4    0.70    0.61
   4  -4   4    0.29    0.52
  -5   4  -4    1.43    0.57
   5  -4   4    1.45    0.61
   5  -4   4    1.20    0.69
  -6   4  -4   -0.36    0.75
   6  -4   4    0.08    0.65
   6  -4   4   -0.91    0.83
  -7   4  -4   -0.68    1.02
   7  -4   4    2.01    0.83
   7  -4   4   -1.43    1.02
  10   3  -4    1.71    0.77
  10   3  -4    1.30    0.72
 -10  -3   4    1.24    0.83
   9   3  -4    3.86    0.56
   9   3  -4    3.73    0.62
  -9  -3   4    4.18    0.55
  -9  -3   4    2.65    0.65
   8   3  -4   11.30    0.89
   8   3  -4    9.80    0.77
  -8  -3   4    9.09    0.84
  -8  -3   4    8.45    0.76
   7   3  -4    5.81    0.62
   7   3  -4    4.63    0.56
  -7  -3   4    6.15    0.63
  -7  -3   4    5.38    0.51
   6   3  -4    1.30    0.40
   6   3  -4    1.24    0.33
  -6  -3   4    1.74    0.34
   5   3  -4    0.37    0.29
   5   3  -4    0.80    0.33
  -5  -3   4    0.76    0.30
   4   3  -4    2.67    0.38
   4   3  -4    3.05    0.43
  -4  -3   4    2.61    0.36
   3   3  -4   21.04    0.75
   3   3  -4   21.97    0.86
  -3  -3   4   21.18    0.71
  -3  -3   4   20.94    0.85
   2   3  -4   31.53    0.98
   2   3  -4   29.24    0.87
  -2  -3   4   28.75    0.83
  -2  -3   4   30.33    0.95
   1   3  -4   16.91    0.68
   1   3  -4   16.47    0.75
  -1  -3   4   16.74    0.74
   0   3  -4   28.99    0.87
   0   3  -4   28.42    0.93
   0  -3   4   29.18    0.92
   0  -3   4   28.52    0.80
  -1   3  -4    6.77    0.52
   1  -3   4    6.68    0.55
   1  -3   4    6.22    0.59
  -2   3  -4    2.99    0.39
   2  -3   4    2.66    0.39
   2  -3   4    2.20    0.40
  -3   3  -4    8.67    0.61
   3  -3   4    8.38    0.67
   3  -3   4    9.21    0.78
  -4   3  -4    1.59    0.38
   4  -3   4    1.90    0.52
   4  -3   4    2.16    0.44
  -5   3  -4    4.63    0.60
   5  -3   4    5.34    0.54
   5  -3   4    4.34    0.68
  -6   3  -4    4.05    0.72
   6  -3   4    2.49    0.75
   6  -3   4    3.97    0.56
  -7   3  -4    1.64    0.81
   7  -3   4    0.72    0.63
  -8   3  -4    0.50    1.05
   8  -3   4    1.34    0.78
  10   2  -4    1.92    0.78
  10   2  -4    1.78    0.64
 -10  -2   4    2.50    0.69
 -10  -2   4    3.31    0.90
   9   2  -4   -0.31    0.58
   9   2  -4    0.01    0.53
  -9  -2   4    1.07    0.65
  -9  -2   4    0.15    0.49
   8   2  -4   -0.53    0.42
   8   2  -4   -0.67    0.46
  -8  -2   4   -0.43    0.46
  -8  -2   4    0.26    0.39
   7   2  -4    0.60    0.40
   7   2  -4    0.21    0.32
  -7  -2   4   -0.58    0.32
  -7  -2   4    0.06    0.40
   6   2  -4    0.77    0.33
   6   2  -4    0.41    0.29
  -6  -2   4    0.67    0.30
   5   2  -4    1.75    0.35
   5   2  -4    1.78    0.31
  -5  -2   4    2.10    0.33
   4   2  -4   20.16    0.72
   4   2  -4   19.11    0.81
  -4  -2   4   19.89    0.70
   3   2  -4   54.90    1.12
   3   2  -4   56.68    1.34
  -3  -2   4   53.80    1.10
  -3  -2   4   55.09    1.18
   2   2  -4   59.62    1.23
   2   2  -4   61.81    1.37
  -2  -2   4   62.24    1.24
  -2  -2   4   60.55    1.36
  -2  -2   4   59.96    1.22
   1   2  -4    7.87    0.55
   1   2  -4    7.64    0.51
  -1  -2   4    7.31    0.46
  -1  -2   4    7.99    0.52
  -1  -2   4    7.75    0.53
   0   2  -4    0.74    0.28
   0   2  -4    1.09    0.29
   0  -2   4    1.24    0.29
   0  -2   4    0.96    0.28
  -1   2  -4   28.63    0.84
   1  -2   4   28.01    0.84
   1  -2   4   27.27    0.77
   1  -2   4   27.97    0.84
  -2   2  -4    2.86    0.38
   2  -2   4    2.82    0.35
   2  -2   4    2.71    0.37
   2  -2   4    2.80    0.36
  -3   2  -4   13.58    0.68
   3  -2   4   14.93    0.66
   3  -2   4   14.48    0.65
   3  -2   4   14.07    0.74
  -4   2  -4    1.35    0.36
   4  -2   4    1.23    0.36
   4  -2   4    1.15    0.40
  -5   2  -4    9.26    0.80
   5  -2   4   10.21    0.64
  -6   2  -4    4.50    0.64
   6  -2   4    4.43    0.50
  -7   2  -4    2.76    0.75
   7  -2   4    2.87    0.49
  -8   2  -4    2.34    0.89
   8  -2   4    0.40    0.63
  -9   2  -4    0.21    1.13
   9  -2   4    2.55    0.78
   9  -2   4    0.03    0.80
  10   1  -4   -0.37    0.72
  10   1  -4   -1.82    0.73
 -10  -1   4   -0.45    0.84
   9   1  -4    0.27    0.51
  -9  -1   4    0.46    0.60
  -9  -1   4   -0.52    0.51
   8   1  -4   -0.63    0.41
  -8  -1   4   -0.04    0.47
  -8  -1   4   -0.63    0.39
   7   1  -4    2.08    0.39
  -7  -1   4    2.40    0.36
  -7  -1   4    2.63    0.47
   6   1  -4   16.38    0.83
   6   1  -4   16.88    0.70
  -6  -1   4   16.25    0.72
   5   1  -4   33.60    1.08
   5   1  -4   33.30    0.93
  -5  -1   4   33.59    0.94
   4   1  -4   13.58    0.60
   4   1  -4   12.91    0.68
  -4  -1   4   12.60    0.59
   3   1  -4   14.51    0.58
   3   1  -4   14.33    0.66
   3   1  -4   14.71    0.54
  -3  -1   4   14.66    0.59
  -3  -1   4   13.53    0.53
   2   1  -4    0.10    0.26
   2   1  -4    0.45    0.25
  -2  -1   4    0.09    0.25
  -2  -1   4    0.74    0.26
   1   1  -4   58.04    1.20
   1   1  -4   56.66    1.16
  -1  -1   4   57.25    1.14
  -1  -1   4   58.71    1.20
  -1  -1   4   56.67    1.16
   0   1  -4   11.55    0.53
   0   1  -4   10.86    0.57
   0  -1   4   10.80    0.56
   0  -1   4   11.17    0.52
  -1   1  -4    5.51    0.50
   1  -1   4    5.98    0.44
   1  -1   4    5.18    0.48
  -2   1  -4   21.88    0.75
   2  -1   4   21.44    0.68
   2  -1   4   20.56    0.73
   2  -1   4   20.83    0.68
  -3   1  -4   42.28    1.07
   3  -1   4   42.06    1.05
   3  -1   4   41.08    0.99
   3  -1   4   42.71    1.05
  -4   1  -4   15.04    0.72
   4  -1   4   14.89    0.64
   4  -1   4   14.24    0.67
  -5   1  -4    1.99    0.44
   5  -1   4    1.83    0.34
   5  -1   4    1.88    0.42
  -6   1  -4    9.34    0.88
   6  -1   4    8.11    0.60
  -7   1  -4    1.34    0.63
   7  -1   4    0.88    0.41
  -8   1  -4    0.42    0.72
   8  -1   4    0.69    0.53
  -9   1  -4    0.37    0.93
   9  -1   4    1.97    0.65
   9  -1   4    0.56    0.71
  10   0  -4    0.86    0.71
 -10   0   4    0.08    0.88
   9   0  -4    0.47    0.55
  -9   0   4    0.82    0.67
   8   0  -4    3.29    0.45
  -8   0   4    2.75    0.61
  -8   0   4    3.01    0.45
   7   0  -4    5.72    0.60
  -7   0   4    5.08    0.57
  -7   0   4    4.30    0.46
   6   0  -4   15.43    0.69
  -6   0   4   16.80    0.76
  -6   0   4   15.44    0.69
   5   0  -4   12.08    0.61
  -5   0   4   12.51    0.59
   4   0  -4    1.06    0.26
  -4   0   4    1.14    0.27
   3   0  -4   21.64    0.69
  -3   0   4   21.68    0.63
  -3   0   4   23.08    0.69
   2   0  -4   11.86    0.52
   2   0  -4   11.59    0.56
  -2   0   4   11.80    0.51
  -2   0   4   11.24    0.52
   1   0  -4   24.98    0.68
   1   0  -4   24.13    0.70
  -1   0   4   25.31    0.68
  -1   0   4   23.72    0.71
   0   0  -4   38.15    0.80
   0   0  -4   37.95    0.91
   0   0   4   37.11    0.80
   0   0   4   36.92    0.91
  -1   0  -4   17.90    0.67
   1   0   4   17.45    0.51
   1   0   4   17.33    0.67
  -2   0  -4   11.49    0.58
   2   0   4   11.76    0.46
   2   0   4   10.75    0.58
  -3   0  -4   16.68    0.66
   3   0   4   16.32    0.62
   3   0   4   16.09    0.65
  -4   0  -4   34.83    0.96
   4   0   4   32.95    0.89
   4   0   4   33.72    0.93
  -5   0  -4    7.31    0.64
   5   0   4    7.74    0.60
   5   0   4    7.66    0.52
  -6   0  -4    2.81    0.49
   6   0   4    2.61    0.46
   6   0   4    2.84    0.39
  -7   0  -4    4.63    0.66
   7   0   4    4.32    0.50
   7   0   4    4.64    0.57
  -8   0  -4    5.21    0.74
   8   0   4    7.86    0.76
   8   0   4    5.43    0.54
  -9   0  -4    1.17    0.80
   9   0   4    1.73    0.65
   9   0   4    1.51    0.52
 -10   0  -4    0.13    1.00
  10   0   4    1.19    0.74
  10   0   4    0.84    0.86
   9  -1  -4    2.10    0.67
  -9   1   4    0.96    0.68
   8  -1  -4    6.39    0.61
  -8   1   4    5.96    0.75
   7  -1  -4    0.47    0.39
  -7   1   4   -0.10    0.41
  -7   1   4   -0.73    0.38
   6  -1  -4    1.32    0.37
  -6   1   4    0.95    0.32
  -6   1   4    0.95    0.33
   5  -1  -4    5.94    0.50
  -5   1   4    5.50    0.52
   4  -1  -4    2.01    0.30
  -4   1   4    2.01    0.31
  -4   1   4    2.14    0.32
   3  -1  -4    5.30    0.43
  -3   1   4    4.83    0.43
  -3   1   4    4.76    0.42
   2  -1  -4    1.60    0.28
  -2   1   4    1.41    0.24
  -2   1   4    1.45    0.28
  -1   1   4   45.72    0.91
  -1   1   4   45.07    0.97
   0  -1  -4   41.03    0.93
   0   1   4   42.11    0.95
   0   1   4   41.95    0.84
  -1  -1  -4   48.63    1.06
   1   1   4   47.95    1.06
  -2  -1  -4    4.11    0.40
   2   1   4    3.78    0.38
  -3  -1  -4   45.30    1.05
   3   1   4   45.19    1.06
   3   1   4   43.88    0.98
  -4  -1  -4   12.78    0.63
   4   1   4   12.82    0.56
   4   1   4   12.44    0.61
  -5  -1  -4   11.62    0.67
   5   1   4   12.13    0.66
   5   1   4   11.03    0.56
  -6  -1  -4   11.45    0.77
   6   1   4   11.30    0.61
   6   1   4   10.91    0.70
  -7  -1  -4    1.92    0.53
   7   1   4    1.31    0.36
   7   1   4    1.87    0.46
  -8  -1  -4    4.63    0.67
   8   1   4    4.67    0.47
   8   1   4    4.33    0.57
   8   1   4    4.59    0.58
  -9  -1  -4    3.22    0.73
   9   1   4    3.85    0.56
   9   1   4    2.81    0.62
 -10  -1  -4    0.62    0.84
  10   1   4    1.13    0.82
  10   1   4    1.14    0.65
   9  -2  -4    1.39    0.84
  -9   2   4   -0.21    0.73
   8  -2  -4    1.43    0.62
  -8   2   4    1.52    0.59
   7  -2  -4    3.06    0.52
  -7   2   4    2.15    0.50
   6  -2  -4    0.34    0.36
  -6   2   4   -0.20    0.40
  -6   2   4   -0.13    0.29
   5  -2  -4    0.14    0.32
  -5   2   4    0.07    0.30
   4  -2  -4   13.47    0.62
  -4   2   4   12.71    0.60
   3  -2  -4   41.74    0.95
  -3   2   4   42.65    0.96
   2  -2  -4    7.23    0.43
  -2   2   4    7.86    0.44
   1  -2  -4    1.75    0.25
  -1   2   4    1.73    0.24
   0   2   4    7.61    0.51
   0   2   4    7.65    0.38
   1   2   4  114.22    1.92
   2   2   4   64.76    1.28
  -3  -2  -4   18.37    0.66
   3   2   4   17.76    0.68
  -4  -2  -4   19.42    0.69
   4   2   4   18.58    0.71
   4   2   4   20.08    0.66
  -5  -2  -4   13.36    0.67
   5   2   4   13.09    0.65
   5   2   4   12.98    0.58
  -6  -2  -4   24.10    0.88
   6   2   4   23.54    0.81
   6   2   4   23.41    0.84
  -7  -2  -4    2.76    0.50
   7   2   4    3.01    0.43
   7   2   4    2.95    0.45
   7   2   4    2.17    0.42
  -8  -2  -4    4.13    0.61
   8   2   4    3.74    0.48
   8   2   4    4.01    0.61
   8   2   4    4.04    0.56
  -9  -2  -4    0.70    0.61
   9   2   4    0.92    0.53
   9   2   4    0.78    0.55
   9   2   4    0.67    0.60
  10   2   4   -1.09    0.63
  10   2   4    0.82    0.75
   9  -3  -4   -0.43    0.97
   8  -3  -4    0.03    0.70
  -8   3   4   -0.13    0.58
   7  -3  -4   -0.42    0.52
  -7   3   4   -0.41    0.41
   6  -3  -4    4.65    0.58
  -6   3   4    4.73    0.50
   5  -3  -4    4.41    0.48
  -5   3   4    3.32    0.39
   4  -3  -4    2.07    0.39
  -4   3   4    2.20    0.39
   3  -3  -4    9.01    0.53
  -3   3   4    8.91    0.54
   2  -3  -4   18.30    0.58
  -2   3   4   18.01    0.57
   1  -3  -4   29.73    0.66
  -1   3   4   29.73    0.66
   2   3   4   23.97    0.74
   3   3   4   24.92    0.76
   4   3   4   11.74    0.51
   4   3   4   12.34    0.61
   5   3   4   10.43    0.62
   5   3   4   10.90    0.55
   6   3   4   17.46    0.71
   6   3   4   16.94    0.69
   6   3   4   16.57    0.77
   7   3   4    7.49    0.66
   7   3   4    8.18    0.71
   7   3   4    8.38    0.66
   8   3   4    0.17    0.43
   8   3   4    0.27    0.41
   8   3   4    0.25    0.40
   9   3   4    1.43    0.59
   9   3   4    1.46    0.58
  10   3   4    0.82    0.70
  10   3   4    0.95    0.71
  11   3   4   -0.31    0.91
  11   3   4    0.00    0.90
   8  -4  -4    0.73    0.92
  -8   4   4   -0.04    0.68
  -8   4   4   -0.07    0.78
   7  -4  -4    4.35    0.74
  -7   4   4    3.76    0.55
   6  -4  -4    1.46    0.56
  -6   4   4    1.32    0.42
   5  -4  -4    3.04    0.51
  -5   4   4    2.78    0.41
   4  -4  -4    0.42    0.36
  -4   4   4    0.58    0.29
   3  -4  -4   13.77    0.64
   2  -4  -4   25.64    0.69
   1  -4  -4    1.56    0.23
  -1   4   4    1.28    0.23
   0  -4  -4   16.59    0.62
  -1  -4  -4    8.97    0.45
  -2  -4  -4   37.70    0.82
   2   4   4   37.69    0.78
  -3  -4  -4   46.90    0.96
   3   4   4   47.40    0.96
   4   4   4   17.47    0.68
   4   4   4   19.05    0.54
   4   4   4   17.98    0.63
   5   4   4    8.10    0.57
   5   4   4    9.18    0.48
   5   4   4    7.95    0.51
   5   4   4    8.14    0.60
   6   4   4    0.64    0.37
   6   4   4    0.09    0.29
   6   4   4    0.27    0.27
   6   4   4    0.11    0.32
   7   4   4    4.01    0.46
   7   4   4    5.06    0.50
   7   4   4    3.93    0.50
   7   4   4    3.95    0.46
   8   4   4    2.87    0.50
   8   4   4    2.88    0.48
   8   4   4    2.89    0.51
   8   4   4    2.46    0.53
   9   4   4    0.25    0.55
   9   4   4    1.55    0.50
   9   4   4    1.55    0.57
   9   4   4    0.77    0.54
  10   4   4    5.63    0.79
  10   4   4    4.51    0.79
  10   4   4    4.16    0.82
  11   4   4    0.24    0.96
  11   4   4    1.23    0.87
  11   4   4    1.18    0.86
   7  -5  -4    0.50    0.82
  -7   5   4   -0.43    0.64
   6  -5  -4    1.04    0.65
  -6   5   4   -0.34    0.51
   5  -5  -4    9.06    0.91
  -5   5   4    6.86    0.70
   4  -5  -4    3.89    0.51
  -4   5   4    3.35    0.42
   3  -5  -4    0.16    0.35
   2  -5  -4    9.58    0.54
   0  -5  -4   32.40    0.92
  -1  -5  -4   13.83    0.61
  -2  -5  -4    9.74    0.54
   2   5   4   10.42    0.50
  -3  -5  -4   18.20    0.67
   3   5   4   18.75    0.63
   4   5   4   12.34    0.59
   5   5   4   14.92    0.58
   5   5   4   15.48    0.56
   5   5   4   15.13    0.71
   5   5   4   15.53    0.72
   6   5   4    3.46    0.39
   6   5   4    2.64    0.43
   6   5   4    3.82    0.47
   6   5   4    2.85    0.38
   7   5   4    7.38    0.73
   7   5   4    5.34    0.57
   7   5   4    5.19    0.49
   7   5   4    5.75    0.56
   8   5   4   18.56    1.04
   8   5   4   19.77    0.85
   8   5   4   18.82    0.89
   8   5   4   17.67    0.90
   9   5   4    2.41    0.63
   9   5   4    2.90    0.61
   9   5   4    3.11    0.58
  10   5   4    0.76    0.69
  10   5   4   -0.54    0.62
  10   5   4   -0.59    0.68
  11   5   4    1.33    0.82
  11   5   4    1.13    0.96
  11   5   4    1.07    0.89
   7  -6  -4    1.55    1.10
  -7   6   4   -0.13    1.02
   6  -6  -4    1.25    0.85
  -6   6   4    1.35    0.66
   5  -6  -4    0.39    0.62
  -5   6   4   -0.82    0.52
   4  -6  -4    2.62    0.57
  -4   6   4    1.79    0.45
   3  -6  -4    9.19    0.70
  -3   6   4    8.12    0.71
   2  -6  -4    2.83    0.37
   2  -6  -4    1.58    0.49
  -2   6   4    2.62    0.45
   1  -6  -4   17.10    0.90
   0  -6  -4   16.61    0.81
  -1  -6  -4   18.67    0.80
  -2  -6  -4    3.27    0.39
  -3  -6  -4   14.24    0.71
   3   6   4   15.05    0.67
  -4  -6  -4    3.35    0.42
   4   6   4    3.70    0.40
   5   6   4   10.16    0.68
   6   6   4   35.11    0.88
   6   6   4   34.11    1.06
   6   6   4   33.61    0.86
   6   6   4   36.11    1.13
   7   6   4    3.21    0.41
   7   6   4    3.29    0.51
   7   6   4    2.77    0.43
   7   6   4    3.36    0.48
   8   6   4    2.15    0.54
   8   6   4    2.60    0.48
   8   6   4    1.63    0.56
   8   6   4    2.18    0.46
   9   6   4    6.44    0.67
   9   6   4    5.54    0.75
   9   6   4    6.86    0.65
  10   6   4    0.92    0.69
  10   6   4    0.20    0.76
  10   6   4    0.50    0.60
  11   6   4    0.21    0.88
  11   6   4    0.96    1.01
  11   6   4    0.79    0.78
   6  -7  -4    1.36    1.05
  -6   7   4   -1.32    0.86
   5  -7  -4    1.72    0.81
  -5   7   4    2.23    0.77
   4  -7  -4    1.84    0.68
  -4   7   4    0.34    0.63
   3  -7  -4   10.66    1.12
   3  -7  -4   11.06    0.88
  -3   7   4   11.62    0.97
   2  -7  -4    2.45    0.59
   2  -7  -4    3.62    0.46
  -2   7   4    3.31    0.59
   1  -7  -4    1.28    0.50
  -1   7   4    1.77    0.50
   0  -7  -4    2.69    0.53
  -1  -7  -4    0.48    0.40
  -2  -7  -4    2.24    0.44
  -3  -7  -4    9.21    0.77
   3   7   4    9.88    0.71
  -4  -7  -4   45.22    1.30
   4   7   4   46.59    1.27
  -5  -7  -4    8.15    0.82
   5   7   4    9.09    0.76
   6   7   4    8.19    0.82
   7   7   4    5.12    0.50
   7   7   4    7.47    0.92
   7   7   4    5.91    0.60
   8   7   4   -0.37    0.51
   8   7   4   -0.42    0.56
   8   7   4    0.40    0.45
   9   7   4    1.48    0.61
   9   7   4    1.69    0.70
  10   7   4    0.79    0.59
  10   7   4    1.28    0.75
  10   7   4    0.14    0.87
   5  -8  -4    0.21    1.10
   5  -8  -4    2.12    1.04
  -5   8   4    0.76    1.06
   4  -8  -4    1.02    0.81
   4  -8  -4   -1.01    0.85
  -4   8   4    1.26    0.90
   3  -8  -4    0.35    0.64
   3  -8  -4   -0.23    0.77
  -3   8   4    0.92    0.77
   2  -8  -4    1.20    0.69
  -2   8   4    1.20    0.66
   1  -8  -4   -0.03    0.58
  -1   8   4    0.34    0.58
   0  -8  -4    0.30    0.50
   0   8   4    0.50    0.52
  -1  -8  -4    8.98    0.95
  -2  -8  -4   28.31    1.17
  -3  -8  -4    8.45    0.89
   3   8   4    9.51    0.80
  -4  -8  -4    2.70    0.55
   4   8   4    3.24    0.51
  -5  -8  -4    6.56    0.66
   5   8   4    6.53    0.64
   6   8   4    1.78    0.50
   7   8   4    0.03    0.55
   8   8   4    0.24    0.58
   8   8   4   -0.03    0.50
   8   8   4    0.39    0.63
   9   8   4    1.34    0.65
   9   8   4    1.93    0.79
  10   8   4    2.24    0.98
  10   8   4    2.22    0.81
   3  -9  -4    0.01    0.98
  -3   9   4   -0.79    1.03
   2  -9  -4   -0.45    0.90
  -2   9   4   -0.97    0.83
   1  -9  -4    2.34    0.76
  -1   9   4    3.17    0.80
   0  -9  -4    7.68    0.87
   0   9   4    9.28    0.83
  -1  -9  -4    4.07    0.73
   1   9   4    5.31    0.69
  -2  -9  -4    2.97    0.67
   2   9   4    3.30    0.57
  -3  -9  -4    7.54    0.81
   3   9   4    8.67    0.75
  -4  -9  -4    1.18    0.62
   4   9   4    0.68    0.52
  -5  -9  -4    1.68    0.65
   5   9   4    0.98    0.52
  -6  -9  -4    1.91    0.70
   6   9   4    0.95    0.58
   7   9   4    0.43    0.63
   8   9   4    2.83    0.80
   9   9   4    1.65    0.86
   9   9   4    1.41    0.74
   9   9   4    0.64    0.94
   2 -10  -4    2.80    1.21
   1 -10  -4    2.35    1.00
  -1  10   4    0.53    0.98
   0 -10  -4    1.02    0.88
   0  10   4    2.43    0.92
  -1 -10  -4    0.75    0.82
   1  10   4    1.51    0.75
  -2 -10  -4    0.42    0.75
   2  10   4    1.05    0.65
  -3 -10  -4   -0.59    0.76
  -4 -10  -4    0.14    0.72
  -5 -10  -4    0.84    0.76
   5  10   4    1.43    0.66
  -6 -10  -4    4.47    0.95
   6  10   4    4.61    0.80
   7  10   4    0.95    0.79
   8  10   4    3.61    1.01
  -1 -11  -4    0.20    1.12
   1  11   4   -0.83    0.98
  -2 -11  -4   -0.17    0.99
  -3 -11  -4    0.25    1.05
  -4 -11  -4    1.73    0.99
  -5 -11  -4    0.40    0.98
   5  11   4    1.17    0.81
  -6 -11  -4    4.23    1.18
   6  11   4    4.15    1.02
   4   8  -5    0.70    1.11
   4   8  -5   -2.45    0.89
  -4  -8   5    0.01    0.99
  -4  -8   5    1.70    1.04
   3   8  -5    5.78    0.93
   3   8  -5    8.22    1.24
  -3  -8   5    5.64    1.03
  -3  -8   5    7.08    1.10
   2   8  -5    7.70    1.08
   2   8  -5   10.28    1.27
  -2  -8   5    8.35    1.12
  -2  -8   5    8.26    1.20
   1   8  -5    4.07    1.14
  -1  -8   5    3.53    1.06
   6   7  -5    0.81    0.95
   6   7  -5    0.47    0.83
  -6  -7   5    0.86    0.81
   5   7  -5    6.66    0.90
   5   7  -5    8.95    1.01
  -5  -7   5    7.60    0.90
  -5  -7   5    7.82    0.95
   4   7  -5   16.08    1.48
   4   7  -5   13.45    1.27
  -4  -7   5   16.44    1.42
  -4  -7   5   16.26    1.31
   3   7  -5    8.58    0.99
   3   7  -5    5.11    0.78
  -3  -7   5    6.38    0.86
  -3  -7   5    7.13    0.87
   2   7  -5    5.65    0.91
   2   7  -5    4.90    0.84
  -2  -7   5    5.29    0.87
  -2  -7   5    4.18    0.83
   1   7  -5    2.44    0.81
  -1  -7   5    2.44    0.75
  -1  -7   5    1.11    0.80
  -1  -7   5    2.21    0.81
   0   7  -5    0.53    0.76
   0  -7   5    0.89    0.82
   0  -7   5    0.50    0.81
  -1   7  -5    1.18    0.77
   1  -7   5    0.45    0.96
   1  -7   5    0.39    0.89
   2  -7   5    0.76    1.11
   2  -7   5   -0.66    1.10
   8   6  -5    0.54    0.83
  -8  -6   5   -0.04    0.84
   7   6  -5    8.83    0.94
  -7  -6   5    9.44    0.98
   6   6  -5   21.40    1.39
  -6  -6   5   19.43    1.23
   5   6  -5    8.24    0.86
   5   6  -5   11.35    1.15
  -5  -6   5   11.30    1.03
   4   6  -5    6.82    0.74
   4   6  -5    7.70    0.86
  -4  -6   5    8.14    0.80
  -4  -6   5   10.25    1.14
   3   6  -5    5.33    0.77
   3   6  -5    3.90    0.67
  -3  -6   5    5.89    0.73
  -3  -6   5    4.75    0.69
   2   6  -5    0.02    0.52
   2   6  -5   -0.25    0.65
  -2  -6   5    0.42    0.53
  -2  -6   5   -0.02    0.57
  -2  -6   5    0.36    0.58
   1   6  -5   -0.60    0.51
   1   6  -5    1.04    0.62
  -1  -6   5    0.40    0.61
  -1  -6   5    0.19    0.56
  -1  -6   5    0.78    0.59
   0   6  -5   -0.23    0.55
   0  -6   5    0.52    0.65
   0  -6   5    0.28    0.62
  -1   6  -5    0.74    0.55
   1  -6   5    0.57    0.71
   1  -6   5   -0.22    0.71
  -2   6  -5    6.55    0.66
   2  -6   5    3.13    0.86
   2  -6   5    5.38    0.91
  -3   6  -5    2.38    0.75
   3  -6   5    2.76    0.97
   3  -6   5    2.81    0.95
   4  -6   5    0.06    1.11
   4  -6   5   -0.05    1.11
   8   5  -5    9.20    0.91
  -8  -5   5   10.77    1.22
   7   5  -5    4.99    0.69
  -7  -5   5    5.05    0.66
   6   5  -5   13.80    1.13
  -6  -5   5   11.38    0.94
   5   5  -5    8.02    0.70
   5   5  -5    7.87    0.97
  -5  -5   5    6.94    0.66
   4   5  -5    0.49    0.57
   4   5  -5   -0.76    0.48
  -4  -5   5    0.59    0.43
  -4  -5   5    0.74    0.54
   3   5  -5    0.00    0.50
   3   5  -5   -0.34    0.53
  -3  -5   5    0.13    0.43
  -3  -5   5    0.33    0.49
   2   5  -5    0.24    0.45
   2   5  -5    0.28    0.51
  -2  -5   5    0.12    0.47
  -2  -5   5    0.10    0.40
  -2  -5   5    0.28    0.43
   1   5  -5    7.21    0.85
   1   5  -5    7.54    0.88
  -1  -5   5    9.03    0.79
  -1  -5   5    8.02    0.71
  -1  -5   5    7.80    0.91
   0   5  -5    8.10    0.79
   0  -5   5    8.23    0.86
   0  -5   5    7.49    0.95
  -1   5  -5    2.57    0.47
   1  -5   5    2.05    0.60
   1  -5   5    2.30    0.61
  -2   5  -5    5.24    0.56
   2  -5   5    3.58    0.70
   2  -5   5    4.17    0.69
  -3   5  -5    1.15    0.56
   3  -5   5    1.28    0.73
   3  -5   5    1.39    0.76
  -4   5  -5   -1.30    0.63
   4  -5   5   -0.51    0.81
   4  -5   5    0.58    0.85
  -5   5  -5   -1.13    0.82
   5  -5   5    0.62    1.02
   5  -5   5    1.30    0.95
   9   4  -5    4.40    0.73
   9   4  -5    4.20    0.83
  -9  -4   5    4.91    0.74
  -9  -4   5    4.20    0.73
   8   4  -5    6.44    0.65
   8   4  -5    6.74    0.76
  -8  -4   5    5.56    0.64
  -8  -4   5    6.53    0.65
   7   4  -5    5.08    0.56
   7   4  -5    6.56    0.72
  -7  -4   5    6.19    0.57
  -7  -4   5    5.76    0.56
   6   4  -5    0.18    0.49
  -6  -4   5    0.70    0.40
   5   4  -5    1.93    0.49
  -5  -4   5    0.85    0.34
   4   4  -5    0.28    0.43
   4   4  -5    0.78    0.48
  -4  -4   5    0.56    0.33
   3   4  -5    7.43    0.81
   3   4  -5    7.32    0.78
  -3  -4   5    7.53    0.58
  -3  -4   5    6.71    0.79
   2   4  -5    0.78    0.38
   2   4  -5    2.28    0.51
  -2  -4   5    2.01    0.38
  -2  -4   5    1.88    0.48
  -2  -4   5    2.11    0.43
   1   4  -5    4.60    0.53
   1   4  -5    5.96    0.59
  -1  -4   5    5.09    0.58
  -1  -4   5    5.36    0.54
  -1  -4   5    5.70    0.51
   0   4  -5   18.51    0.95
   0   4  -5   16.45    0.83
   0  -4   5   18.27    0.85
   0  -4   5   19.07    0.97
  -1   4  -5    4.01    0.49
   1  -4   5    4.73    0.57
   1  -4   5    4.15    0.56
  -2   4  -5    0.46    0.37
   2  -4   5    0.85    0.49
   2  -4   5    0.77    0.51
  -3   4  -5    2.77    0.48
   3  -4   5    4.32    0.67
   3  -4   5    3.59    0.64
  -4   4  -5    0.45    0.52
   4  -4   5    1.32    0.68
   4  -4   5    1.44    0.65
  -5   4  -5   -0.47    0.66
   5  -4   5    1.50    0.76
   5  -4   5   -0.86    0.79
  -6   4  -5   -0.15    0.92
   6  -4   5   -0.72    1.00
   6  -4   5    1.96    0.87
   9   3  -5    3.92    0.69
   9   3  -5    3.49    0.77
  -9  -3   5    4.44    0.75
  -9  -3   5    4.27    0.60
   8   3  -5    0.52    0.57
   8   3  -5   -0.10    0.50
  -8  -3   5    0.06    0.54
  -8  -3   5    0.99    0.51
   7   3  -5    0.23    0.42
   7   3  -5    1.24    0.52
  -7  -3   5    0.33    0.45
  -7  -3   5    0.06    0.39
   6   3  -5    0.29    0.36
   6   3  -5   -0.09    0.46
  -6  -3   5    0.08    0.34
   5   3  -5    4.54    0.54
  -5  -3   5    5.56    0.58
   4   3  -5   14.08    0.73
   4   3  -5   15.46    0.89
  -4  -3   5   12.32    0.66
   3   3  -5    5.11    0.51
   3   3  -5    4.11    0.50
  -3  -3   5    4.63    0.43
  -3  -3   5    4.52    0.50
   2   3  -5   23.24    0.90
   2   3  -5   23.46    0.95
  -2  -3   5   23.21    0.95
  -2  -3   5   23.21    0.80
  -2  -3   5   23.39    0.87
   1   3  -5    2.32    0.43
   1   3  -5    3.05    0.44
  -1  -3   5    2.53    0.41
  -1  -3   5    3.11    0.38
  -1  -3   5    3.16    0.42
   0   3  -5    2.58    0.42
   0   3  -5    2.75    0.40
   0  -3   5    3.26    0.45
   0  -3   5    3.11    0.40
   0  -3   5    2.59    0.43
  -1   3  -5    3.05    0.43
   1  -3   5    3.71    0.43
   1  -3   5    3.19    0.46
   1  -3   5    4.17    0.46
  -2   3  -5    0.21    0.34
   2  -3   5    0.34    0.39
   2  -3   5   -0.33    0.38
  -3   3  -5    0.01    0.34
   3  -3   5    0.30    0.45
   3  -3   5    0.04    0.44
  -4   3  -5    2.56    0.48
   4  -3   5    2.51    0.59
   4  -3   5    2.50    0.52
  -5   3  -5    5.74    0.67
   5  -3   5    8.60    0.88
   5  -3   5    6.77    0.80
  -6   3  -5    1.81    0.75
   6  -3   5    1.32    0.84
   6  -3   5    0.69    0.63
  -7   3  -5    0.96    0.93
   7  -3   5    0.97    0.74
   7  -3   5   -1.32    0.96
   9   2  -5   -0.50    0.60
   9   2  -5    0.21    0.66
  -9  -2   5    0.06    0.71
  -9  -2   5    0.98    0.57
   8   2  -5    0.33    0.57
   8   2  -5   -1.14    0.49
  -8  -2   5   -1.12    0.48
  -8  -2   5   -0.21    0.54
   7   2  -5   10.98    0.74
   7   2  -5   10.05    0.91
  -7  -2   5   10.79    0.73
  -7  -2   5    9.22    0.79
   6   2  -5    6.61    0.80
   6   2  -5    7.55    0.59
  -6  -2   5    7.65    0.61
   5   2  -5   -0.20    0.28
   5   2  -5    0.68    0.40
  -5  -2   5   -0.73    0.28
   4   2  -5   19.50    0.91
  -4  -2   5   17.40    0.72
  -4  -2   5   17.32    0.69
   3   2  -5   12.26    0.67
   3   2  -5   13.24    0.78
  -3  -2   5   13.23    0.61
  -3  -2   5   12.36    0.65
   2   2  -5    5.09    0.60
   2   2  -5    3.96    0.43
  -2  -2   5    4.23    0.44
  -2  -2   5    4.46    0.46
  -2  -2   5    4.59    0.59
   1   2  -5    5.17    0.55
   1   2  -5    4.87    0.56
  -1  -2   5    5.19    0.52
  -1  -2   5    4.93    0.56
  -1  -2   5    4.50    0.45
   0   2  -5    3.80    0.41
   0   2  -5    3.00    0.37
   0  -2   5    3.12    0.38
   0  -2   5    3.31    0.39
  -1   2  -5    3.11    0.39
   1  -2   5    3.82    0.39
   1  -2   5    3.34    0.41
   1  -2   5    3.27    0.40
  -2   2  -5   10.56    0.65
   2  -2   5   10.36    0.61
   2  -2   5    9.79    0.70
   2  -2   5   10.26    0.62
  -3   2  -5   13.45    0.73
   3  -2   5   14.91    0.84
   3  -2   5   15.20    0.70
   3  -2   5   14.40    0.71
  -4   2  -5    2.81    0.47
   4  -2   5    2.70    0.52
   4  -2   5    2.55    0.41
   4  -2   5    2.84    0.42
  -5   2  -5    5.49    0.63
   5  -2   5    6.25    0.65
   5  -2   5    5.29    0.67
  -6   2  -5    2.85    0.69
   6  -2   5    3.96    0.51
   6  -2   5    2.56    0.73
  -7   2  -5    0.08    0.75
   7  -2   5   -1.08    0.57
  -8   2  -5    0.16    0.97
   8  -2   5    2.15    0.74
   9   1  -5    2.15    0.59
   9   1  -5    3.60    0.77
  -9  -1   5    2.67    0.61
  -9  -1   5    3.16    0.78
   8   1  -5    0.92    0.49
   8   1  -5    1.19    0.62
  -8  -1   5    1.40    0.44
  -8  -1   5    1.04    0.56
   7   1  -5    2.47    0.42
   7   1  -5    2.11    0.53
  -7  -1   5    2.19    0.38
  -7  -1   5    2.54    0.51
   6   1  -5   11.02    0.87
   6   1  -5   11.88    0.67
  -6  -1   5   11.26    0.67
   5   1  -5    9.81    0.77
   5   1  -5    9.84    0.61
  -5  -1   5    9.24    0.58
   4   1  -5    0.15    0.28
   4   1  -5    0.51    0.32
  -4  -1   5    0.43    0.27
   3   1  -5    4.49    0.39
   3   1  -5    5.05    0.59
  -3  -1   5    5.05    0.44
  -3  -1   5    4.48    0.41
   2   1  -5    0.34    0.30
   2   1  -5   -0.31    0.31
  -2  -1   5    0.26    0.25
  -2  -1   5   -0.23    0.29
   1   1  -5    2.63    0.36
   1   1  -5    2.17    0.33
  -1  -1   5    2.86    0.33
  -1  -1   5    2.21    0.34
  -1  -1   5    2.05    0.31
   0   1  -5    2.87    0.38
   0   1  -5    2.89    0.32
   0  -1   5    3.32    0.38
   0  -1   5    2.66    0.31
  -1   1  -5    3.23    0.38
   1  -1   5    3.07    0.36
   1  -1   5    3.13    0.33
  -2   1  -5   50.30    1.23
   2  -1   5   51.70    1.16
   2  -1   5   49.54    1.21
   2  -1   5   51.98    1.14
  -3   1  -5   23.99    0.85
   3  -1   5   23.38    0.82
   3  -1   5   22.72    0.81
   3  -1   5   23.37    0.78
  -4   1  -5    7.65    0.64
   4  -1   5    6.61    0.56
   4  -1   5    6.40    0.55
   4  -1   5    6.50    0.71
  -5   1  -5    1.94    0.45
   5  -1   5    2.17    0.45
   5  -1   5    1.64    0.34
  -6   1  -5   -0.10    0.52
   6  -1   5    0.28    0.39
   6  -1   5    0.89    0.50
  -7   1  -5    1.73    0.69
   7  -1   5    1.31    0.45
  -8   1  -5    2.78    0.86
   8  -1   5    3.82    0.60
  -9   1  -5    0.62    1.05
   9  -1   5    1.66    0.78
   9  -1   5   -1.79    0.73
   9   0  -5    0.86    0.62
  -9   0   5    0.58    0.74
  -9   0   5    0.02    0.66
   8   0  -5    2.19    0.52
  -8   0   5    0.70    0.49
  -8   0   5    2.65    0.63
   7   0  -5    1.49    0.40
  -7   0   5    2.32    0.41
  -7   0   5    1.81    0.50
   6   0  -5    3.38    0.41
  -6   0   5    3.32    0.42
   5   0  -5    1.39    0.31
  -5   0   5    1.63    0.35
   4   0  -5    0.11    0.31
   4   0  -5    0.21    0.25
  -4   0   5    0.16    0.27
   3   0  -5    0.03    0.24
   3   0  -5    0.19    0.28
  -3   0   5    0.17    0.31
  -3   0   5    0.21    0.24
   2   0  -5    5.81    0.51
   2   0  -5    5.24    0.51
  -2   0   5    5.46    0.51
  -2   0   5    5.54    0.44
   1   0  -5   17.47    0.62
   1   0  -5   16.73    0.66
  -1   0   5   16.67    0.66
  -1   0   5   17.25    0.62
   0   0  -5   99.60    1.81
   0   0  -5  100.70    1.73
   0   0   5   99.13    1.73
   0   0   5   98.16    1.81
  -1   0  -5   14.66    0.64
   1   0   5   14.75    0.65
   1   0   5   14.59    0.52
  -2   0  -5    8.38    0.57
   2   0   5    8.95    0.47
   2   0   5    8.55    0.57
  -3   0  -5    8.37    0.58
   3   0   5    9.75    0.57
   3   0   5   10.66    0.54
   3   0   5    9.61    0.54
  -4   0  -5    0.29    0.30
   4   0   5    0.06    0.27
   4   0   5    0.36    0.26
  -5   0  -5    6.35    0.65
   5   0   5    5.82    0.61
   5   0   5    5.99    0.54
  -6   0  -5    8.58    0.83
   6   0   5    8.54    0.62
   6   0   5    7.44    0.77
  -7   0  -5    4.67    0.67
   7   0   5    4.83    0.65
   7   0   5    6.96    0.68
  -8   0  -5   -0.13    0.68
   8   0   5    0.80    0.52
  -9   0  -5    0.42    0.93
   9   0   5    1.11    0.61
   9   0   5    0.41    0.70
   9  -1  -5    0.39    0.75
  -9   1   5    0.01    0.79
   8  -1  -5    2.82    0.61
  -8   1   5    2.47    0.68
  -8   1   5    2.91    0.61
   7  -1  -5   -0.38    0.43
  -7   1   5   -0.08    0.47
  -7   1   5   -0.88    0.44
   6  -1  -5    0.21    0.35
  -6   1   5    0.51    0.33
   5  -1  -5    4.83    0.54
  -5   1   5    4.25    0.43
   4  -1  -5    4.29    0.42
  -4   1   5    4.70    0.41
  -4   1   5    4.48    0.48
   3  -1  -5    4.12    0.44
  -3   1   5    3.50    0.36
  -3   1   5    4.28    0.50
   2  -1  -5   23.26    0.70
  -2   1   5   23.46    0.70
  -2   1   5   22.93    0.74
   1  -1  -5   54.23    1.10
  -1   1   5   56.07    1.10
  -1   1   5   54.74    1.16
   0  -1  -5   21.84    0.71
   0   1   5   21.12    0.74
   0   1   5   21.64    0.64
  -1  -1  -5   27.20    0.82
   1   1   5   27.79    0.83
  -2  -1  -5    0.59    0.32
   2   1   5    0.15    0.29
  -3  -1  -5   10.77    0.61
   3   1   5   11.72    0.60
  -4  -1  -5   45.67    1.15
   4   1   5   44.05    1.12
   4   1   5   44.68    1.07
  -5  -1  -5   22.30    0.88
   5   1   5   20.83    0.75
   5   1   5   20.66    0.84
  -6  -1  -5    0.54    0.44
   6   1   5    0.90    0.31
   6   1   5    0.15    0.41
  -7  -1  -5    0.44    0.53
   7   1   5    1.04    0.36
   7   1   5    1.47    0.50
  -8  -1  -5    3.21    0.70
   8   1   5    3.73    0.54
   8   1   5    3.40    0.64
  -9  -1  -5    1.17    0.79
   9   1   5    2.10    0.60
   9   1   5    0.35    0.66
 -10  -1  -5    0.84    1.02
  10   1   5    2.16    0.79
  10   1   5    0.98    0.90
   9  -2  -5    0.53    0.95
  -9   2   5    0.93    0.82
   8  -2  -5    0.70    0.70
  -8   2   5   -0.23    0.61
   7  -2  -5    1.60    0.58
  -7   2   5    1.18    0.54
  -7   2   5    1.29    0.50
   6  -2  -5    0.10    0.44
  -6   2   5    0.10    0.41
  -6   2   5    0.42    0.38
   5  -2  -5    0.82    0.39
  -5   2   5    0.83    0.38
   4  -2  -5   30.00    0.90
  -4   2   5   30.71    0.92
   3  -2  -5   43.68    1.03
  -3   2   5   43.16    1.01
   2  -2  -5    5.55    0.45
  -2   2   5    4.70    0.45
  -2   2   5    4.77    0.50
  -1   2   5    9.18    0.54
  -1   2   5    9.42    0.46
   0   2   5    0.89    0.24
   0   2   5    0.71    0.29
   1   2   5   15.61    0.66
  -2  -2  -5   83.39    1.59
   2   2   5   81.65    1.58
  -3  -2  -5   15.69    0.66
   3   2   5   15.68    0.68
  -4  -2  -5    8.86    0.58
   4   2   5    8.25    0.58
   4   2   5    8.20    0.52
  -5  -2  -5   12.42    0.70
   5   2   5   12.45    0.59
   5   2   5   12.52    0.69
  -6  -2  -5    8.43    0.75
   6   2   5    7.82    0.72
   6   2   5    8.34    0.59
  -7  -2  -5    2.71    0.57
   7   2   5    2.00    0.47
   7   2   5    1.99    0.50
  -8  -2  -5    1.68    0.59
   8   2   5    1.50    0.50
   8   2   5    1.91    0.53
   8   2   5    1.33    0.45
  -9  -2  -5   -0.04    0.68
   9   2   5    0.94    0.62
   9   2   5    0.05    0.60
   9   2   5    0.54    0.55
  10   2   5    0.89    0.80
  10   2   5   -0.65    0.75
   8  -3  -5    0.58    0.82
  -8   3   5   -1.35    0.64
   7  -3  -5    0.46    0.66
  -7   3   5    1.42    0.52
   6  -3  -5    7.36    0.70
  -6   3   5    7.15    0.64
   5  -3  -5    1.46    0.47
  -5   3   5    1.51    0.45
   4  -3  -5    8.48    0.64
  -4   3   5    7.04    0.65
   3  -3  -5    8.54    0.57
  -3   3   5    9.05    0.58
   2  -3  -5    7.34    0.49
  -2   3   5    6.75    0.49
   1  -3  -5   11.92    0.49
  -1   3   5   11.96    0.49
   0   3   5   48.76    0.91
   1   3   5   41.89    1.01
   1   3   5   43.66    0.82
   2   3   5   43.98    1.06
   3   3   5   28.01    0.84
   4   3   5   -0.10    0.29
   5   3   5    9.13    0.67
   5   3   5    8.38    0.57
   6   3   5    6.25    0.70
   6   3   5    6.46    0.60
   7   3   5    0.88    0.39
   7   3   5    0.39    0.47
   7   3   5    0.52    0.42
   8   3   5    0.84    0.48
   8   3   5    0.63    0.47
   8   3   5   -0.27    0.48
   9   3   5    4.15    0.66
   9   3   5    3.19    0.67
   9   3   5    3.97    0.70
  10   3   5    5.24    0.85
  10   3   5    4.81    0.77
  10   3   5    4.66    0.83
   8  -4  -5    2.02    1.05
  -8   4   5    0.80    0.80
   7  -4  -5    2.69    0.79
  -7   4   5    0.04    0.52
   6  -4  -5    7.26    0.73
  -6   4   5    4.90    0.51
   5  -4  -5    3.26    0.56
  -5   4   5    2.41    0.39
   4  -4  -5    0.79    0.42
   3  -4  -5    1.02    0.36
  -3   4   5    1.60    0.39
   2  -4  -5   30.23    0.79
  -2   4   5   29.57    0.79
   1  -4  -5   19.38    0.57
  -1   4   5   20.11    0.59
   3   4   5   31.73    0.88
   4   4   5    5.26    0.52
   5   4   5    0.03    0.26
   5   4   5    0.26    0.35
   5   4   5   -0.27    0.29
   6   4   5    0.78    0.34
   6   4   5    0.27    0.29
   6   4   5    0.13    0.41
   6   4   5    0.56    0.34
   7   4   5    9.08    0.73
   7   4   5    9.99    0.68
   7   4   5   10.20    0.84
   7   4   5    9.43    0.83
   8   4   5   17.44    1.07
   8   4   5   14.98    0.92
   8   4   5   17.37    0.94
   8   4   5   18.33    1.00
   9   4   5    6.78    0.74
   9   4   5    6.72    0.71
   9   4   5    6.52    0.72
   9   4   5    6.13    0.75
  10   4   5    0.64    0.73
  10   4   5    0.51    0.72
  10   4   5    1.20    0.68
  10   4   5    0.41    0.74
  11   4   5   -1.23    0.97
  11   4   5    0.28    0.93
  11   4   5   -0.73    0.98
   7  -5  -5    1.03    0.94
  -7   5   5   -0.36    0.66
   6  -5  -5    0.46    0.72
  -6   5   5    0.73    0.52
   5  -5  -5    0.43    0.58
  -5   5   5   -0.60    0.39
   4  -5  -5   11.51    0.84
  -4   5   5   11.18    0.70
   3  -5  -5    1.16    0.40
   2  -5  -5   14.49    0.63
   0  -5  -5    7.01    0.58
  -1  -5  -5    3.97    0.47
  -2  -5  -5    7.80    0.48
  -3  -5  -5    0.55    0.24
   3   5   5    1.10    0.22
   4   5   5    0.36    0.33
   4   5   5    0.08    0.25
   5   5   5   15.38    0.68
   5   5   5   15.69    0.60
   5   5   5   14.73    0.77
   6   5   5   35.51    0.93
   6   5   5   34.15    1.09
   6   5   5   35.52    1.07
   6   5   5   33.19    0.96
   7   5   5   23.87    0.90
   7   5   5   23.25    1.02
   7   5   5   22.05    1.01
   7   5   5   20.95    0.82
   8   5   5    2.58    0.53
   8   5   5    2.84    0.55
   8   5   5    3.28    0.58
   8   5   5    2.74    0.53
   9   5   5    1.93    0.63
   9   5   5    2.02    0.61
   9   5   5    1.52    0.61
   9   5   5    2.54    0.60
  10   5   5    1.74    0.76
  10   5   5    1.10    0.75
  10   5   5    0.55    0.73
  11   5   5    0.48    0.98
  11   5   5   -0.49    0.89
  11   5   5    0.19    0.93
   6  -6  -5    1.23    0.91
  -6   6   5    1.04    0.64
   5  -6  -5    0.85    0.69
  -5   6   5    0.96    0.50
   4  -6  -5    4.89    0.64
  -4   6   5    5.11    0.54
   3  -6  -5    8.63    0.75
   1  -6  -5    4.63    0.55
   0  -6  -5   11.90    0.77
  -1  -6  -5    4.10    0.43
  -2  -6  -5   -0.13    0.30
  -3  -6  -5   10.65    0.66
   3   6   5   11.39    0.59
  -4  -6  -5   68.68    1.47
   4   6   5   69.36    1.44
   5   6   5   45.61    1.18
   5   6   5   47.44    1.25
   6   6   5    0.45    0.41
   6   6   5    0.79    0.44
   6   6   5    0.33    0.36
   6   6   5    0.63    0.33
   7   6   5    3.77    0.57
   7   6   5    4.04    0.48
   7   6   5    4.71    0.50
   7   6   5    6.11    0.66
   8   6   5    6.64    0.68
   8   6   5    6.57    0.59
   8   6   5    5.67    0.58
   8   6   5    5.00    0.67
   9   6   5    1.24    0.64
   9   6   5    2.27    0.60
   9   6   5    1.82    0.59
   9   6   5    1.91    0.68
  10   6   5    0.31    0.73
  10   6   5    1.29    0.71
  10   6   5   -0.41    0.78
   5  -7  -5    0.89    0.91
  -5   7   5   -0.08    0.74
   4  -7  -5    0.90    0.71
  -4   7   5    0.76    0.62
   3  -7  -5    1.23    0.67
   3  -7  -5    2.25    0.57
  -3   7   5    3.09    0.62
   2  -7  -5    0.81    0.62
   1  -7  -5    3.92    0.60
   0  -7  -5    0.79    0.47
  -1  -7  -5    1.85    0.45
  -2  -7  -5   60.47    1.47
  -3  -7  -5   36.34    1.11
  -4  -7  -5    0.71    0.41
   4   7   5    1.49    0.39
   5   7   5   13.90    0.82
   6   7   5   13.56    0.68
   6   7   5   13.61    0.91
   7   7   5    0.15    0.50
   7   7   5    0.20    0.48
   7   7   5   -0.34    0.37
   7   7   5    0.03    0.37
   8   7   5    0.34    0.47
   8   7   5    1.31    0.60
   8   7   5   -0.30    0.54
   8   7   5    0.14    0.45
   9   7   5    1.46    0.56
   9   7   5    1.80    0.76
   9   7   5    1.01    0.60
   9   7   5    1.25    0.72
  10   7   5    2.41    0.70
  10   7   5    2.56    0.79
  10   7   5    1.36    0.90
   4  -8  -5   -0.66    0.93
   4  -8  -5   -0.32    0.84
  -4   8   5   -0.12    0.87
   3  -8  -5    3.54    0.71
   3  -8  -5    1.77    0.89
  -3   8   5    3.36    0.83
   2  -8  -5    0.26    0.72
  -2   8   5    2.05    0.66
   1  -8  -5   -0.21    0.66
  -1   8   5    0.77    0.59
   0  -8  -5   28.00    1.31
  -1  -8  -5   30.33    1.24
  -2  -8  -5    1.44    0.51
  -3  -8  -5    9.36    0.90
  -4  -8  -5    5.69    0.60
   4   8   5    6.71    0.80
  -5  -8  -5    0.25    0.51
   5   8   5    0.79    0.43
   6   8   5    2.12    0.53
   7   8   5    1.44    0.64
   7   8   5    1.34    0.55
   8   8   5    3.90    0.75
   8   8   5    4.01    0.75
   9   8   5    3.35    0.82
   9   8   5    2.18    0.66
   9   8   5    3.76    0.86
  10   8   5    4.85    0.99
  10   8   5    3.92    0.75
  10   8   5    3.63    0.85
  10   8   5    4.32    1.05
   3  -9  -5   -0.54    1.04
  -3   9   5   -0.24    1.05
   2  -9  -5    6.38    1.07
  -2   9   5    8.45    0.98
   1  -9  -5   16.49    1.58
  -1   9   5   16.99    1.30
   0  -9  -5   -0.20    0.69
   0   9   5    0.43    0.65
  -1  -9  -5    2.71    0.69
  -2  -9  -5    2.58    0.68
  -3  -9  -5    1.30    0.63
  -4  -9  -5    0.39    0.59
   4   9   5    0.98    0.50
  -5  -9  -5    1.54    0.63
   5   9   5    1.85    0.56
  -6  -9  -5    5.01    0.74
   6   9   5    4.90    0.68
   7   9   5    2.99    0.72
   8   9   5    5.12    0.86
   8   9   5    4.90    0.87
   9   9   5    6.74    1.09
   9   9   5    5.45    0.94
   1 -10  -5    1.87    1.04
  -1  10   5    0.69    1.02
   0 -10  -5    1.69    0.98
   0  10   5    0.70    0.90
  -1 -10  -5    0.03    0.81
   1  10   5    0.73    0.79
  -2 -10  -5   -0.23    0.76
   2  10   5    0.23    0.68
  -3 -10  -5   -0.72    0.72
   3  10   5    0.68    0.64
  -4 -10  -5    2.29    0.81
  -5 -10  -5    1.96    0.81
   5  10   5    2.10    0.70
  -6 -10  -5    4.47    0.89
   6  10   5    2.60    0.72
   7  10   5    8.23    0.94
   8  10   5    2.23    0.98
  -1 -11  -5    1.18    1.14
   1  11   5    0.93    1.03
  -2 -11  -5   -0.11    1.02
   2  11   5    1.94    0.91
  -3 -11  -5    1.75    1.04
  -4 -11  -5    1.56    1.06
  -5 -11  -5    5.43    1.10
  -6 -11  -5    1.96    1.11
   6  11   5    1.95    0.95
   4   7  -6   -0.42    0.95
   4   7  -6    0.59    1.10
  -4  -7   6    1.33    0.94
  -4  -7   6    0.73    0.98
   3   7  -6    0.01    0.86
   3   7  -6    0.76    1.04
  -3  -7   6    1.10    0.92
  -3  -7   6    1.07    0.99
   2   7  -6    0.57    0.91
   2   7  -6    1.84    1.09
  -2  -7   6    2.10    0.97
  -2  -7   6    3.22    1.00
   1   7  -6   -0.08    1.01
  -1  -7   6    0.20    0.94
  -1  -7   6    0.21    0.94
  -1  -7   6    0.22    0.98
   0   7  -6    0.12    1.02
   0  -7   6    0.92    1.05
   0  -7   6    0.44    1.08
   0  -7   6   -0.82    0.96
   6   6  -6   -1.05    0.86
  -6  -6   6   -0.76    0.78
   5   6  -6    4.14    0.96
   5   6  -6    2.30    0.83
  -5  -6   6    3.56    0.77
   4   6  -6    0.92    0.78
   4   6  -6    4.46    0.96
  -4  -6   6    2.26    0.70
  -4  -6   6    2.92    0.89
   3   6  -6   -0.39    0.68
   3   6  -6    0.30    0.80
  -3  -6   6    0.14    0.63
  -3  -6   6    0.23    0.72
   2   6  -6    1.27    0.83
   2   6  -6    2.60    0.76
  -2  -6   6    3.69    0.70
  -2  -6   6    3.00    0.73
  -2  -6   6    2.92    0.76
   1   6  -6    0.87    0.74
   1   6  -6    1.29    0.81
  -1  -6   6    1.24    0.70
  -1  -6   6    1.27    0.76
  -1  -6   6    1.66    0.79
   0   6  -6    2.41    0.79
   0  -6   6    1.73    0.83
   0  -6   6    2.13    0.84
  -1   6  -6   -0.20    0.71
   1  -6   6    1.11    0.87
   1  -6   6    2.46    0.91
  -2   6  -6    1.63    0.81
   2  -6   6    0.97    0.97
   2  -6   6    2.30    1.05
   3  -6   6    2.13    1.19
   3  -6   6    0.73    1.18
   7   5  -6    2.95    0.91
  -7  -5   6    2.88    0.69
   6   5  -6    2.95    0.78
  -6  -5   6    3.36    0.62
   5   5  -6   -0.84    0.67
   5   5  -6    0.61    0.67
  -5  -5   6    0.39    0.50
   4   5  -6   -0.78    0.67
   4   5  -6   -0.42    0.62
  -4  -5   6    1.44    0.65
  -4  -5   6    0.00    0.50
   3   5  -6    1.93    0.66
   3   5  -6    3.96    0.76
  -3  -5   6    2.76    0.61
  -3  -5   6    3.82    0.55
  -3  -5   6    2.53    0.68
   2   5  -6    6.50    0.81
   2   5  -6    5.56    0.71
  -2  -5   6    6.21    0.66
  -2  -5   6    6.22    0.61
  -2  -5   6    4.66    0.73
   1   5  -6    2.02    0.65
   1   5  -6    3.44    0.72
  -1  -5   6    3.05    0.71
  -1  -5   6    3.73    0.55
  -1  -5   6    2.94    0.64
   0   5  -6    6.38    0.75
   0  -5   6    6.64    0.75
   0  -5   6    5.66    0.81
  -1   5  -6    3.04    0.60
   1  -5   6    3.29    0.75
   1  -5   6    3.57    0.75
  -2   5  -6    3.65    0.63
   2  -5   6    4.19    0.86
   2  -5   6    3.76    0.89
  -3   5  -6    0.59    0.70
   3  -5   6    0.67    0.87
   3  -5   6    0.94    0.91
  -4   5  -6   -0.63    0.80
   4  -5   6    0.49    1.05
   4  -5   6    1.79    1.07
   8   4  -6    1.30    0.89
  -8  -4   6    2.01    0.69
  -8  -4   6    1.95    0.66
   7   4  -6   -0.47    0.77
  -7  -4   6   -0.10    0.53
   6   4  -6    0.30    0.66
  -6  -4   6    0.06    0.46
   5   4  -6   11.81    0.98
   5   4  -6   12.78    1.18
  -5  -4   6   10.70    0.79
   4   4  -6   11.00    0.97
   4   4  -6   10.69    1.07
  -4  -4   6    9.68    0.70
   3   4  -6    1.37    0.54
   3   4  -6    0.88    0.54
  -3  -4   6    1.41    0.57
  -3  -4   6    1.26    0.36
   2   4  -6    4.57    0.66
   2   4  -6    4.29    0.62
  -2  -4   6    4.43    0.47
  -2  -4   6    4.88    0.58
  -2  -4   6    4.09    0.61
   1   4  -6   12.81    0.95
   1   4  -6   12.10    0.97
  -1  -4   6   12.86    0.87
  -1  -4   6   12.18    1.01
  -1  -4   6   12.83    0.72
   0   4  -6    5.88    0.66
   0   4  -6    5.83    0.66
   0  -4   6    4.39    0.64
   0  -4   6    6.49    0.63
  -1   4  -6    1.90    0.49
   1  -4   6    2.65    0.61
   1  -4   6    2.53    0.61
  -2   4  -6    1.88    0.50
   2  -4   6    1.96    0.62
   2  -4   6    2.24    0.66
  -3   4  -6   -0.25    0.54
   3  -4   6    0.31    0.69
   3  -4   6    0.15    0.67
  -4   4  -6    1.79    0.62
   4  -4   6    2.13    0.82
   4  -4   6    3.32    0.84
  -5   4  -6    4.20    0.81
   5  -4   6    3.64    1.05
   5  -4   6    4.54    0.96
   6  -4   6    0.83    1.07
   6  -4   6    1.52    1.23
   8   3  -6    0.68    0.77
   8   3  -6   -0.15    0.65
  -8  -3   6    1.35    0.54
  -8  -3   6   -0.03    0.64
   7   3  -6    6.42    0.84
   7   3  -6    5.52    0.61
  -7  -3   6    4.99    0.54
   6   3  -6    6.32    0.76
  -6  -3   6    6.03    0.58
   5   3  -6   -0.21    0.54
  -5  -3   6    0.16    0.40
   4   3  -6   12.04    0.85
   4   3  -6   12.81    1.01
  -4  -3   6   12.99    0.71
   3   3  -6   14.78    0.89
   3   3  -6   16.62    0.99
  -3  -3   6   16.23    0.89
  -3  -3   6   15.57    0.74
   2   3  -6   10.19    0.85
   2   3  -6    8.67    0.79
  -2  -3   6    9.49    0.85
  -2  -3   6   10.23    0.78
  -2  -3   6    9.22    0.64
   1   3  -6    2.86    0.53
   1   3  -6    2.48    0.48
  -1  -3   6    2.00    0.41
  -1  -3   6    2.28    0.38
  -1  -3   6    2.61    0.49
   0   3  -6    3.35    0.49
   0   3  -6    3.47    0.54
   0  -3   6    3.73    0.53
   0  -3   6    3.49    0.46
   0  -3   6    3.94    0.53
  -1   3  -6    5.60    0.65
   1  -3   6    3.66    0.46
   1  -3   6    5.70    0.57
   1  -3   6    4.25    0.55
  -2   3  -6    2.87    0.45
   2  -3   6    1.58    0.53
   2  -3   6    2.81    0.46
   2  -3   6    3.17    0.56
  -3   3  -6    3.99    0.52
   3  -3   6    5.71    0.66
   3  -3   6    4.45    0.68
  -4   3  -6    9.41    0.85
   4  -3   6    6.35    0.73
   4  -3   6    6.59    0.78
  -5   3  -6    5.55    0.71
   5  -3   6    4.71    0.84
   5  -3   6    4.99    0.74
  -6   3  -6    2.80    0.88
   6  -3   6    2.66    0.82
   6  -3   6    1.33    0.95
  -7   3  -6    0.56    1.08
   7  -3   6   -1.02    1.12
   7  -3   6    0.26    0.92
   9   2  -6    1.44    0.93
   9   2  -6    1.07    0.77
  -9  -2   6    0.47    0.81
   8   2  -6    6.05    0.86
   8   2  -6    5.84    0.63
  -8  -2   6    4.75    0.73
  -8  -2   6    5.45    0.65
   7   2  -6    0.77    0.45
   7   2  -6    1.73    0.61
  -7  -2   6    0.41    0.45
   6   2  -6    3.67    0.65
   6   2  -6    3.77    0.43
  -6  -2   6    3.52    0.46
   5   2  -6    6.31    0.66
  -5  -2   6    6.98    0.63
   4   2  -6   11.55    0.75
   4   2  -6   13.05    0.94
  -4  -2   6   11.04    0.65
  -4  -2   6   10.95    0.73
   3   2  -6    1.56    0.44
   3   2  -6    1.23    0.43
  -3  -2   6    1.39    0.37
  -3  -2   6    1.90    0.45
   2   2  -6    0.82    0.39
   2   2  -6    0.89    0.40
  -2  -2   6    1.12    0.40
  -2  -2   6    1.26    0.40
  -2  -2   6    1.15    0.30
   1   2  -6    5.21    0.66
   1   2  -6    5.62    0.64
  -1  -2   6    5.97    0.64
  -1  -2   6    5.48    0.68
  -1  -2   6    5.00    0.50
   0   2  -6    0.95    0.36
   0   2  -6    0.83    0.37
   0  -2   6    0.93    0.38
   0  -2   6    1.05    0.33
  -1   2  -6   21.79    0.87
   1  -2   6   21.23    0.88
   1  -2   6   19.71    0.82
   1  -2   6   20.97    0.85
  -2   2  -6   27.02    1.00
   2  -2   6   30.33    0.99
   2  -2   6   30.18    0.99
   2  -2   6   31.34    1.07
  -3   2  -6   18.24    0.86
   3  -2   6   17.05    0.95
   3  -2   6   18.30    0.85
   3  -2   6   18.41    0.82
  -4   2  -6    3.61    0.51
   4  -2   6    3.82    0.48
   4  -2   6    3.10    0.47
   4  -2   6    3.34    0.60
  -5   2  -6    1.32    0.55
   5  -2   6    1.09    0.63
   5  -2   6    1.26    0.47
  -6   2  -6   -0.10    0.62
   6  -2   6    0.24    0.53
   6  -2   6    0.42    0.71
  -7   2  -6    1.51    0.88
   7  -2   6   -0.97    0.91
   7  -2   6    0.75    0.69
   9   1  -6   -0.10    0.69
   9   1  -6   -0.88    0.93
  -9  -1   6    0.14    0.70
  -9  -1   6   -1.14    0.80
   8   1  -6    0.35    0.58
   8   1  -6    0.11    0.69
  -8  -1   6    0.43    0.51
  -8  -1   6   -0.64    0.58
   7   1  -6    7.87    0.83
   7   1  -6   10.65    0.79
  -7  -1   6    9.16    0.76
   6   1  -6    8.25    0.68
   6   1  -6    9.38    1.01
  -6  -1   6    7.93    0.66
   5   1  -6    2.59    0.39
   5   1  -6    3.19    0.55
  -5  -1   6    2.51    0.38
   4   1  -6    0.30    0.38
  -4  -1   6   -0.49    0.35
  -4  -1   6   -0.54    0.26
   3   1  -6    6.53    0.71
   3   1  -6    6.91    0.63
  -3  -1   6    6.20    0.50
  -3  -1   6    5.88    0.65
   2   1  -6   15.31    0.76
   2   1  -6   15.86    0.78
  -2  -1   6   15.47    0.75
  -2  -1   6   15.06    0.66
   1   1  -6   12.34    0.68
   1   1  -6   12.19    0.69
  -1  -1   6   12.03    0.58
  -1  -1   6   11.88    0.68
  -1  -1   6   12.28    0.69
   0   1  -6   37.12    0.98
   0   1  -6   35.33    1.02
   0  -1   6   35.81    1.04
   0  -1   6   37.40    1.00
  -1   1  -6   29.14    0.92
   1  -1   6   29.49    0.90
   1  -1   6   28.93    0.93
  -2   1  -6   23.34    0.86
   2  -1   6   23.80    0.84
   2  -1   6   21.79    0.83
   2  -1   6   22.74    0.82
  -3   1  -6    8.15    0.63
   3  -1   6    8.13    0.59
   3  -1   6    8.40    0.69
   3  -1   6    8.13    0.59
  -4   1  -6    0.76    0.38
   4  -1   6    0.27    0.40
   4  -1   6    1.09    0.37
   4  -1   6    0.60    0.36
  -5   1  -6    0.48    0.44
   5  -1   6    0.13    0.50
   5  -1   6    0.83    0.40
   5  -1   6   -0.07    0.41
  -6   1  -6    3.20    0.62
   6  -1   6    1.91    0.45
   6  -1   6    3.29    0.63
   6  -1   6    2.74    0.67
  -7   1  -6    8.01    0.93
   7  -1   6    8.27    0.87
   7  -1   6    5.65    0.86
  -8   1  -6   -0.80    0.93
   8  -1   6    1.55    0.72
   9   0  -6    0.67    0.93
   9   0  -6    3.23    0.76
  -9   0   6    2.67    0.80
  -9   0   6    0.79    0.88
   8   0  -6    2.43    0.61
   8   0  -6    1.05    0.75
  -8   0   6    2.13    0.56
  -8   0   6    2.29    0.70
   7   0  -6    1.44    0.47
   7   0  -6    0.48    0.59
  -7   0   6    1.53    0.49
   6   0  -6   -0.13    0.50
   6   0  -6    0.18    0.41
  -6   0   6    0.08    0.36
   5   0  -6    4.01    0.55
   5   0  -6    4.39    0.46
  -5   0   6    4.57    0.47
   4   0  -6    7.00    0.75
   4   0  -6    6.92    0.55
  -4   0   6    6.30    0.55
  -4   0   6    6.10    0.63
   3   0  -6    0.67    0.34
  -3   0   6    0.64    0.37
  -3   0   6    0.82    0.30
   2   0  -6   61.45    1.36
   2   0  -6   59.27    1.31
  -2   0   6   61.23    1.29
  -2   0   6   61.71    1.34
   1   0  -6   74.64    1.47
   1   0  -6   74.27    1.52
  -1   0   6   72.45    1.45
  -1   0   6   74.81    1.53
   0   0  -6   38.94    1.05
   0   0  -6   39.34    0.93
   0   0   6   40.45    1.05
   0   0   6   39.26    0.93
  -1   0  -6    8.39    0.57
   1   0   6    9.12    0.60
   1   0   6    8.83    0.50
  -2   0  -6    0.24    0.31
   2   0   6    0.47    0.31
  -3   0  -6    0.60    0.30
   3   0   6    0.93    0.28
   3   0   6    0.45    0.30
   3   0   6    0.95    0.30
  -4   0  -6    7.90    0.64
   4   0   6    7.11    0.55
   4   0   6    6.94    0.58
   4   0   6    7.62    0.66
  -5   0  -6   18.57    0.92
   5   0   6   21.44    0.96
   5   0   6   19.32    0.90
   5   0   6   18.24    0.78
  -6   0  -6   -0.13    0.52
   6   0   6    1.20    0.40
   6   0   6    0.54    0.52
  -7   0  -6    4.59    0.77
   7   0   6    5.07    0.73
   7   0   6    6.02    0.55
  -8   0  -6    4.80    0.91
   8   0   6    4.30    0.83
   8   0   6    6.27    0.66
  -9   0  -6   -1.22    1.08
   9   0   6    0.13    0.76
   9  -1  -6    1.09    0.84
  -9   1   6    1.78    0.92
  -9   1   6    0.64    0.87
   8  -1  -6    0.10    0.63
  -8   1   6    1.10    0.68
  -8   1   6    0.99    0.65
   7  -1  -6    1.29    0.52
  -7   1   6    2.43    0.52
  -7   1   6    1.48    0.55
   6  -1  -6    0.22    0.42
  -6   1   6    1.39    0.48
   5  -1  -6    7.97    0.68
  -5   1   6    7.98    0.69
   4  -1  -6   35.45    1.03
  -4   1   6   34.32    0.99
  -4   1   6   33.93    1.00
   3  -1  -6   32.21    1.01
   3  -1  -6   31.77    0.92
  -3   1   6   32.68    0.97
  -3   1   6   32.70    0.93
   2  -1  -6   12.34    0.63
  -2   1   6   11.65    0.68
  -2   1   6   13.47    0.59
   1  -1  -6   30.07    0.80
  -1   1   6   30.03    0.91
  -1   1   6   31.68    0.85
   0  -1  -6    4.14    0.48
   0   1   6    2.78    0.37
   0   1   6    3.78    0.35
  -1  -1  -6    0.01    0.26
   1   1   6    0.14    0.30
  -2  -1  -6   10.75    0.63
   2   1   6   10.55    0.61
  -3  -1  -6   37.10    1.04
   3   1   6   36.37    1.04
  -4  -1  -6   25.68    0.91
   4   1   6   25.77    0.77
   4   1   6   25.08    0.88
   4   1   6   25.00    0.82
  -5  -1  -6   22.23    0.94
   5   1   6   21.66    0.91
   5   1   6   24.50    0.84
  -6  -1  -6    6.90    0.72
   6   1   6    8.12    0.80
   6   1   6    9.75    0.63
  -7  -1  -6    0.55    0.63
   7   1   6    1.07    0.56
   7   1   6   -0.30    0.40
  -8  -1  -6    0.47    0.69
   8   1   6    0.64    0.51
   8   1   6   -0.04    0.62
  -9  -1  -6   -0.56    0.90
   9   1   6    0.03    0.67
   9   1   6    0.02    0.79
   9   1   6    0.69    0.67
   8  -2  -6    0.33    0.79
  -8   2   6    0.23    0.78
  -8   2   6    0.26    0.71
   7  -2  -6    2.38    0.62
  -7   2   6    2.44    0.67
  -7   2   6    2.43    0.56
   6  -2  -6    5.86    0.66
  -6   2   6    6.12    0.63
   5  -2  -6   12.78    0.83
  -5   2   6   11.90    0.82
   4  -2  -6   17.35    0.80
  -4   2   6   16.15    0.79
  -4   2   6   15.71    0.79
   3  -2  -6   22.45    0.81
  -3   2   6   23.35    0.85
  -3   2   6   23.82    0.81
  -2   2   6    2.69    0.36
  -2   2   6    3.25    0.42
   1  -2  -6   -0.13    0.22
  -1   2   6    0.09    0.27
  -1   2   6    0.04    0.29
   0   2   6   24.32    0.81
   0   2   6   23.68    0.72
   1   2   6   46.79    1.13
  -2  -2  -6   48.14    1.18
   2   2   6   48.10    1.18
  -3  -2  -6   25.67    0.85
   3   2   6   25.81    0.87
  -4  -2  -6   30.35    0.94
   4   2   6   29.06    0.87
   4   2   6   29.50    0.93
  -5  -2  -6    6.44    0.65
   5   2   6    6.61    0.55
   5   2   6    7.39    0.69
  -6  -2  -6    0.73    0.49
   6   2   6    1.03    0.35
   6   2   6    0.61    0.47
  -7  -2  -6   -0.58    0.54
   7   2   6   -0.53    0.49
   7   2   6   -0.21    0.39
  -8  -2  -6    0.37    0.65
   8   2   6    0.45    0.52
   8   2   6    0.21    0.59
  -9  -2  -6    2.49    0.83
   9   2   6    2.77    0.68
   9   2   6    2.57    0.62
   9   2   6    1.32    0.74
  10   2   6    0.56    0.83
  10   2   6   -0.55    0.90
  10   2   6    1.13    0.93
   8  -3  -6    3.92    0.97
  -8   3   6    4.10    0.83
   7  -3  -6    3.36    0.75
  -7   3   6    3.39    0.56
   6  -3  -6    3.50    0.64
  -6   3   6    5.09    0.73
   5  -3  -6    0.53    0.48
  -5   3   6    0.83    0.51
   4  -3  -6    6.62    0.70
  -4   3   6    7.34    0.70
   3  -3  -6    0.10    0.36
  -3   3   6    0.34    0.34
   2  -3  -6   11.27    0.60
  -2   3   6   10.63    0.69
  -2   3   6   11.32    0.59
  -1   3   6   16.23    0.69
  -1   3   6   15.51    0.61
   0   3   6   26.73    0.84
   0   3   6   27.70    0.72
   1   3   6  101.11    1.90
   1   3   6  103.88    1.67
   2   3   6   62.37    1.37
   3   3   6   10.34    0.59
   4   3   6    0.35    0.30
   5   3   6   -0.12    0.27
   5   3   6   -0.74    0.35
   6   3   6    0.61    0.37
   6   3   6    0.78    0.44
   7   3   6    5.88    0.69
   7   3   6    5.82    0.60
   8   3   6    1.81    0.53
   8   3   6    1.55    0.55
   8   3   6    1.13    0.61
   9   3   6    1.07    0.72
   9   3   6    0.21    0.65
   9   3   6    0.30    0.66
  10   3   6   -1.33    0.80
  10   3   6    0.57    0.88
  10   3   6   -0.28    0.79
   7  -4  -6    1.20    0.81
  -7   4   6    1.77    0.64
   6  -4  -6    2.18    0.70
  -6   4   6    2.97    0.48
   5  -4  -6    0.21    0.54
  -5   4   6    0.41    0.55
   4  -4  -6    3.12    0.52
  -4   4   6    3.11    0.52
   3  -4  -6    5.68    0.53
  -3   4   6    5.83    0.64
   2  -4  -6   25.30    0.79
  -2   4   6   25.22    0.80
  -1   4   6   72.23    1.30
   0   4   6   18.42    0.57
   1   4   6   11.37    0.63
   1   4   6   11.61    0.47
   2   4   6    1.83    0.32
   3   4   6    0.13    0.25
   4   4   6    0.82    0.31
   5   4   6    6.08    0.57
   6   4   6   10.60    0.88
   6   4   6   10.54    0.73
   7   4   6    4.43    0.55
   7   4   6    4.19    0.52
   7   4   6    4.51    0.55
   7   4   6    5.07    0.65
   8   4   6   -0.11    0.47
   8   4   6   -0.40    0.52
   8   4   6    0.65    0.54
   8   4   6    0.29    0.59
   9   4   6    0.66    0.66
   9   4   6   -0.08    0.71
   9   4   6    0.24    0.63
   9   4   6    0.65    0.65
  10   4   6    5.77    0.95
  10   4   6    4.68    0.88
  10   4   6    6.17    0.96
  10   4   6    5.12    0.87
   7  -5  -6    1.60    1.03
  -7   5   6   -0.16    0.74
   6  -5  -6    1.13    0.81
  -6   5   6    0.49    0.54
   5  -5  -6    1.32    0.65
  -5   5   6    2.00    0.47
   4  -5  -6    5.78    0.67
   3  -5  -6   11.25    0.75
   2  -5  -6   20.89    0.74
  -2   5   6   19.70    0.74
   0  -5  -6    4.78    0.56
   3   5   6    6.12    0.54
   4   5   6   20.38    0.81
   5   5   6    8.06    0.72
   6   5   6    1.02    0.40
   6   5   6    1.23    0.48
   6   5   6    1.16    0.38
   7   5   6    0.75    0.43
   7   5   6    0.46    0.54
   7   5   6    1.12    0.42
   7   5   6    0.01    0.44
   8   5   6   16.48    1.10
   8   5   6   14.93    0.92
   8   5   6   14.43    1.09
   8   5   6   13.03    0.93
   9   5   6    9.49    0.82
   9   5   6   10.70    1.23
   9   5   6   10.37    1.09
   9   5   6   10.10    1.20
  10   5   6    1.14    0.83
  10   5   6    1.05    0.82
  10   5   6    0.49    0.82
  10   5   6    1.47    0.84
   6  -6  -6    0.23    0.99
  -6   6   6    1.08    0.68
   5  -6  -6    3.92    0.84
  -5   6   6    3.40    0.59
   4  -6  -6    9.28    0.79
  -4   6   6   10.87    0.83
   3  -6  -6    1.78    0.50
   2  -6  -6    0.89    0.40
   1  -6  -6   -0.15    0.44
   0  -6  -6   -0.14    0.38
  -1  -6  -6    2.33    0.38
  -2  -6  -6   15.18    0.67
   5   6   6    1.54    0.42
   5   6   6    0.39    0.31
   6   6   6   11.77    0.77
   6   6   6   11.90    0.75
   6   6   6   12.15    0.89
   6   6   6   11.69    0.66
   7   6   6   15.87    1.06
   7   6   6   15.00    0.81
   7   6   6   14.61    0.82
   7   6   6   14.17    0.92
   8   6   6    4.40    0.73
   8   6   6    4.00    0.64
   8   6   6    4.14    0.61
   8   6   6    4.71    0.62
   9   6   6    0.43    0.63
   9   6   6    0.11    0.61
   9   6   6    0.40    0.67
   9   6   6    0.69    0.73
  10   6   6    2.12    0.82
  10   6   6    2.19    0.86
  10   6   6    2.23    0.87
  10   6   6    2.82    0.89
   5  -7  -6   -0.07    0.96
  -5   7   6   -0.11    0.72
   4  -7  -6    0.49    0.73
  -4   7   6    0.22    0.60
   2  -7  -6    0.58    0.63
   1  -7  -6    0.54    0.52
   0  -7  -6   14.79    0.96
  -1  -7  -6   16.91    0.92
  -2  -7  -6    0.57    0.39
  -3  -7  -6    0.32    0.38
  -4  -7  -6   16.19    0.82
   4   7   6   15.64    0.76
   5   7   6   18.37    0.82
   6   7   6   10.19    0.90
   6   7   6   10.36    0.81
   6   7   6    9.72    0.72
   7   7   6   -0.17    0.47
   7   7   6    0.03    0.54
   7   7   6   -0.53    0.43
   7   7   6    0.20    0.39
   8   7   6    3.25    0.63
   8   7   6    2.89    0.56
   8   7   6    5.02    0.81
   8   7   6    3.65    0.59
   9   7   6    4.40    0.82
   9   7   6    3.23    0.68
   9   7   6    3.42    0.66
   9   7   6    2.47    0.79
  10   7   6    6.37    0.88
  10   7   6    7.38    1.02
  10   7   6    8.01    1.09
  10   7   6    6.92    0.90
   4  -8  -6   -0.70    0.86
   4  -8  -6   -1.06    1.02
  -4   8   6   -0.05    0.90
   3  -8  -6   -0.78    0.87
  -3   8   6   -1.12    0.73
   2  -8  -6    5.19    0.86
  -2   8   6    7.58    0.86
   1  -8  -6    5.98    0.80
   0  -8  -6    1.67    0.62
  -1  -8  -6    0.15    0.49
  -2  -8  -6   13.68    0.98
  -3  -8  -6    6.80    0.87
  -4  -8  -6    6.33    0.63
  -5  -8  -6    0.03    0.48
   5   8   6    1.04    0.45
   6   8   6    2.44    0.52
   7   8   6    4.93    0.75
   7   8   6    5.32    0.56
   7   8   6    5.32    0.68
   8   8   6    8.10    0.92
   8   8   6    8.02    0.69
   8   8   6    7.90    0.83
   9   8   6    6.61    0.79
   9   8   6    4.38    0.88
   9   8   6    5.80    0.74
   9   8   6    7.90    1.00
  10   8   6    1.31    0.81
  10   8   6    1.10    1.04
  10   8   6    1.15    1.02
  10   8   6    1.96    0.85
   3  -9  -6    1.56    1.15
  -3   9   6    1.64    1.11
   2  -9  -6   -0.36    0.98
  -2   9   6   -0.18    0.87
   1  -9  -6   -0.70    0.81
  -1   9   6    0.49    0.80
   0  -9  -6    1.33    0.75
  -1  -9  -6    1.82    0.69
  -2  -9  -6    4.31    0.72
  -3  -9  -6    2.05    0.65
  -4  -9  -6    1.99    0.63
  -5  -9  -6    3.57    0.69
   5   9   6    3.65    0.60
   6   9   6    9.90    1.07
   7   9   6   11.28    1.20
   7   9   6   10.85    1.00
   7   9   6   11.27    0.85
   8   9   6    4.21    0.90
   8   9   6    3.70    0.77
   9   9   6    2.69    1.02
   9   9   6   -0.04    0.90
   1 -10  -6    1.23    1.09
  -1  10   6    1.47    1.11
   0 -10  -6    0.39    0.94
   0  10   6    1.32    0.93
  -1 -10  -6    0.27    0.85
   1  10   6    1.31    0.89
  -2 -10  -6    0.96    0.78
  -3 -10  -6    2.32    0.82
  -4 -10  -6    5.23    0.86
  -5 -10  -6    9.22    0.99
  -6 -10  -6    3.13    0.85
   6  10   6    2.93    0.76
   7  10   6    0.32    0.74
   8  10   6    0.37    0.87
   8  10   6    0.69    0.94
  -1 -11  -6    0.66    1.16
   1  11   6    2.50    1.13
  -2 -11  -6    1.39    1.07
   2  11   6    2.97    1.02
  -3 -11  -6    6.00    1.14
   3  11   6    8.20    0.98
  -4 -11  -6    2.89    1.04
  -5 -11  -6    0.63    1.03
  -6 -11  -6    0.92    1.07
   6  11   6    1.58    0.86
   4   6  -7   -0.49    0.92
   4   6  -7    0.83    1.10
  -4  -6   7    1.53    1.05
  -4  -6   7   -0.68    0.77
   3   6  -7    2.50    1.10
   3   6  -7    0.62    0.94
  -3  -6   7    2.16    0.82
  -3  -6   7    2.50    1.03
   2   6  -7    4.52    1.14
   2   6  -7    2.11    1.01
  -2  -6   7    3.20    0.92
  -2  -6   7    4.01    0.93
  -2  -6   7    2.52    1.02
   1   6  -7    3.96    1.13
  -1  -6   7    4.00    1.03
  -1  -6   7    4.10    0.91
  -1  -6   7    4.13    1.05
   0   6  -7    3.65    1.09
   0  -6   7    2.17    0.88
   0  -6   7    1.97    1.06
   0  -6   7    3.60    1.08
   1  -6   7    4.64    1.17
   1  -6   7    1.26    1.20
   6   5  -7    0.37    0.96
  -6  -5   7    1.20    0.75
   5   5  -7    2.61    0.92
   5   5  -7    2.82    0.91
  -5  -5   7    2.94    0.62
   4   5  -7    1.01    0.82
   4   5  -7    1.64    0.92
  -4  -5   7    1.86    0.60
  -4  -5   7    2.65    0.72
   3   5  -7    3.58    0.78
   3   5  -7    5.97    0.95
  -3  -5   7    6.46    0.66
  -3  -5   7    4.94    0.78
  -3  -5   7    5.19    0.91
   2   5  -7    9.10    1.01
   2   5  -7    6.66    0.86
  -2  -5   7    9.56    0.86
  -2  -5   7    7.22    0.97
  -2  -5   7    6.65    0.68
   1   5  -7    6.96    0.88
   1   5  -7   12.31    1.37
  -1  -5   7   10.15    0.90
  -1  -5   7    7.15    0.91
  -1  -5   7    7.19    0.69
   0   5  -7   11.86    1.30
   0  -5   7   10.00    1.03
   0  -5   7   10.01    0.98
   0  -5   7   12.59    1.32
  -1   5  -7    0.84    0.70
   1  -5   7   -0.76    0.84
   1  -5   7    0.95    0.87
  -2   5  -7    1.24    0.76
   2  -5   7    1.79    0.97
   2  -5   7    0.38    0.95
   3  -5   7    2.29    1.10
   3  -5   7    4.15    1.14
   7   4  -7    0.91    0.95
  -7  -4   7    0.36    0.69
   6   4  -7    2.62    0.89
  -6  -4   7    2.29    0.58
   5   4  -7   12.35    1.17
   5   4  -7   11.46    1.36
  -5  -4   7   10.19    0.87
   4   4  -7    6.85    0.84
   4   4  -7    6.50    0.82
  -4  -4   7    6.16    0.53
   3   4  -7   13.00    1.19
   3   4  -7   14.58    1.19
  -3  -4   7   13.73    0.83
  -3  -4   7   15.88    1.29
   2   4  -7   14.00    1.15
   2   4  -7   12.36    1.15
  -2  -4   7   13.34    0.84
  -2  -4   7   12.87    1.01
  -2  -4   7   14.60    1.25
   1   4  -7    3.63    0.70
   1   4  -7    2.47    0.68
  -1  -4   7    2.81    0.48
  -1  -4   7    3.02    0.67
  -1  -4   7    2.97    0.69
   0   4  -7    3.45    0.71
   0  -4   7    3.12    0.67
   0  -4   7    1.65    0.65
  -1   4  -7    4.41    0.68
   1  -4   7    4.59    0.79
   1  -4   7    2.94    0.75
  -2   4  -7    0.85    0.61
   2  -4   7    0.90    0.73
   2  -4   7    0.55    0.73
  -3   4  -7    2.00    0.68
   3  -4   7    0.82    0.84
   3  -4   7    0.10    0.86
  -4   4  -7    4.36    0.79
   4  -4   7    3.13    0.97
   4  -4   7    3.37    1.04
   5  -4   7    1.05    1.14
   8   3  -7    3.46    1.11
  -8  -3   7    4.27    0.84
   7   3  -7    3.28    0.93
  -7  -3   7    3.89    0.58
   6   3  -7    0.65    0.79
  -6  -3   7    1.74    0.51
   5   3  -7   16.55    1.30
  -5  -3   7   14.07    0.85
   4   3  -7   15.97    1.20
   4   3  -7   15.99    1.03
  -4  -3   7   14.53    0.80
   3   3  -7    6.45    0.73
   3   3  -7    5.76    0.70
  -3  -3   7    5.94    0.62
  -3  -3   7    6.28    0.69
   2   3  -7    0.01    0.55
   2   3  -7   -0.03    0.51
  -2  -3   7    0.09    0.35
  -2  -3   7    0.30    0.54
  -2  -3   7   -0.67    0.51
   1   3  -7    5.27    0.62
   1   3  -7    5.77    0.66
  -1  -3   7    5.36    0.58
  -1  -3   7    6.01    0.67
  -1  -3   7    5.32    0.66
   0   3  -7    3.16    0.58
   0   3  -7    3.98    0.62
   0  -3   7    3.84    0.61
   0  -3   7    4.31    0.61
   0  -3   7    4.82    0.61
  -1   3  -7    8.97    0.80
   1  -3   7   10.07    0.80
   1  -3   7    7.99    1.01
   1  -3   7    9.50    0.92
  -2   3  -7    9.13    0.83
   2  -3   7    6.70    0.74
   2  -3   7    7.87    0.80
   2  -3   7    6.84    0.64
  -3   3  -7    0.23    0.53
   3  -3   7    0.08    0.65
   3  -3   7   -0.88    0.62
  -4   3  -7    6.21    0.67
   4  -3   7    5.63    0.85
   4  -3   7    6.17    0.83
  -5   3  -7    1.06    0.71
   5  -3   7    2.30    0.93
   5  -3   7    2.68    0.84
  -6   3  -7   -0.30    1.01
   6  -3   7    0.97    0.96
   6  -3   7    1.45    1.13
   8   2  -7    1.36    0.69
   8   2  -7    3.20    1.02
  -8  -2   7    2.59    0.80
  -8  -2   7    3.05    0.69
   7   2  -7   15.13    1.57
   7   2  -7    8.69    0.95
  -7  -2   7   11.57    0.92
   6   2  -7   10.43    1.32
  -6  -2   7    8.75    0.79
   5   2  -7    4.23    0.70
  -5  -2   7    4.57    0.59
  -5  -2   7    4.22    0.48
   4   2  -7    0.35    0.53
   4   2  -7    1.16    0.51
  -4  -2   7    0.43    0.51
  -4  -2   7    0.94    0.34
   3   2  -7   14.39    0.90
   3   2  -7   13.88    1.02
  -3  -2   7   14.38    0.73
  -3  -2   7   16.19    0.95
   2   2  -7    3.74    0.55
   2   2  -7    3.92    0.58
  -2  -2   7    3.50    0.41
  -2  -2   7    4.25    0.59
   1   2  -7    7.95    0.80
   1   2  -7    8.66    0.80
  -1  -2   7    8.84    0.87
  -1  -2   7    8.47    0.81
  -1  -2   7    8.27    0.61
   0   2  -7    8.95    0.82
   0   2  -7    8.67    0.76
   0  -2   7    9.18    0.77
   0  -2   7    8.56    0.82
  -1   2  -7    9.11    0.71
   1  -2   7    8.80    0.84
   1  -2   7    7.91    0.81
   1  -2   7    7.58    0.68
  -2   2  -7   16.16    0.83
   2  -2   7   16.10    0.99
   2  -2   7   15.61    0.82
   2  -2   7   16.27    0.92
  -3   2  -7    8.22    0.76
   3  -2   7    7.05    0.68
   3  -2   7    7.56    0.72
   3  -2   7    7.06    0.67
  -4   2  -7    1.22    0.48
   4  -2   7    0.58    0.60
   4  -2   7    1.85    0.50
   4  -2   7    0.74    0.57
  -5   2  -7    2.72    0.63
   5  -2   7    1.27    0.59
   5  -2   7    1.51    0.74
   5  -2   7    1.81    0.60
  -6   2  -7    2.95    0.81
   6  -2   7    1.47    0.90
   6  -2   7    3.77    0.72
  -7   2  -7    3.56    1.11
   7  -2   7    1.74    1.12
   7  -2   7    2.63    0.82
   8   1  -7    2.98    0.94
   8   1  -7    1.60    0.73
  -8  -1   7    2.55    0.82
  -8  -1   7    2.02    0.68
   7   1  -7    2.84    0.76
   7   1  -7    3.10    0.60
  -7  -1   7    3.56    0.58
   6   1  -7    0.06    0.44
   6   1  -7   -0.01    0.61
  -6  -1   7    1.09    0.43
   5   1  -7    3.61    0.65
  -5  -1   7    3.72    0.45
   4   1  -7    1.52    0.53
  -4  -1   7    1.78    0.40
  -4  -1   7    1.79    0.52
   3   1  -7   11.99    0.93
   3   1  -7   11.63    0.82
  -3  -1   7   12.42    0.69
  -3  -1   7   11.79    0.84
   2   1  -7   27.42    1.03
   2   1  -7   26.40    1.00
  -2  -1   7   25.61    1.01
  -2  -1   7   24.06    0.86
   1   1  -7    7.89    0.75
   1   1  -7    8.50    0.70
  -1  -1   7    7.67    0.57
  -1  -1   7    7.92    0.74
   0   1  -7   14.20    0.78
   0   1  -7   15.27    0.76
   0  -1   7   14.81    0.78
   0  -1   7   13.41    0.78
  -1   1  -7   18.16    0.81
   1  -1   7   16.53    0.81
   1  -1   7   17.64    0.79
  -2   1  -7    6.68    0.65
   2  -1   7    7.00    0.71
   2  -1   7    6.99    0.60
   2  -1   7    6.65    0.65
  -3   1  -7    1.64    0.43
   3  -1   7    1.52    0.40
   3  -1   7    1.41    0.40
   3  -1   7    1.62    0.46
  -4   1  -7    2.44    0.45
   4  -1   7    3.11    0.47
   4  -1   7    2.16    0.55
   4  -1   7    2.16    0.44
  -5   1  -7    6.07    0.65
   5  -1   7    5.68    0.68
   5  -1   7    7.07    0.75
   5  -1   7    5.46    0.59
  -6   1  -7    2.94    0.73
   6  -1   7    3.47    0.54
   6  -1   7    2.88    0.78
   6  -1   7    4.31    0.69
  -7   1  -7    1.25    0.88
   7  -1   7   -0.89    0.83
   7  -1   7    1.27    0.67
  -8   1  -7    0.20    1.16
   8  -1   7    1.45    0.87
   8  -1   7    0.37    1.16
   8   0  -7   -1.26    0.74
   8   0  -7    0.52    0.90
  -8   0   7    1.34    0.70
  -8   0   7    0.72    0.75
   7   0  -7   -0.34    0.55
   7   0  -7    0.85    0.75
  -7   0   7    0.44    0.56
   6   0  -7    4.00    0.70
   6   0  -7    3.56    0.51
  -6   0   7    4.42    0.53
   5   0  -7    6.79    0.68
   5   0  -7    8.18    0.99
  -5   0   7    8.40    0.70
   4   0  -7    9.06    0.92
  -4   0   7    8.06    0.78
  -4   0   7    8.65    0.65
   3   0  -7    1.05    0.43
  -3   0   7    1.94    0.36
  -3   0   7    1.77    0.49
   2   0  -7   21.40    0.91
  -2   0   7   21.76    0.92
  -2   0   7   21.88    0.80
   1   0  -7   27.92    0.97
   1   0  -7   29.73    0.92
  -1   0   7   29.68    1.01
  -1   0   7   29.12    0.90
   0   0  -7   24.76    0.88
   0   0   7   25.37    0.82
   0   0   7   24.40    0.91
  -1   0  -7    1.99    0.39
   1   0   7    1.40    0.36
   1   0   7    1.22    0.31
  -2   0  -7    1.20    0.35
   2   0   7    1.23    0.36
  -3   0  -7   28.57    1.00
   3   0   7   30.26    0.96
   3   0   7   29.90    1.01
  -4   0  -7   10.24    0.72
   4   0   7   10.14    0.76
   4   0   7    9.22    0.67
   4   0   7   10.03    0.67
  -5   0  -7   -0.20    0.47
   5   0   7    0.63    0.48
   5   0   7    0.30    0.40
   5   0   7    0.21    0.40
  -6   0  -7    4.26    0.69
   6   0   7    4.62    0.68
   6   0   7    4.15    0.67
   6   0   7    4.54    0.50
  -7   0  -7    2.21    0.78
   7   0   7    3.36    0.80
   7   0   7    3.05    0.58
   7   0   7    2.90    0.77
  -8   0  -7   -1.15    0.93
   8   0   7    0.42    0.86
   8   0   7   -1.25    0.88
   8   0   7   -0.21    0.66
   8  -1  -7   -0.87    0.88
   8  -1  -7    0.15    0.78
  -8   1   7    0.01    0.79
  -8   1   7   -1.27    0.81
   7  -1  -7    1.23    0.67
   7  -1  -7    0.45    0.75
  -7   1   7    1.70    0.65
   6  -1  -7    1.26    0.62
   6  -1  -7    2.28    0.60
  -6   1   7    1.78    0.56
   5  -1  -7    6.98    0.79
   5  -1  -7    5.72    0.65
  -5   1   7    7.05    0.78
  -5   1   7    6.50    0.63
   4  -1  -7    6.07    0.67
   4  -1  -7    4.95    0.59
  -4   1   7    5.37    0.54
  -4   1   7    5.88    0.58
   3  -1  -7   13.13    0.83
  -3   1   7   13.67    0.83
  -3   1   7   13.65    0.75
   2  -1  -7   31.36    0.96
  -2   1   7   31.07    0.94
  -2   1   7   29.79    1.03
   1  -1  -7    3.46    0.37
  -1   1   7    4.16    0.43
  -1   1   7    3.68    0.47
   0  -1  -7    4.85    0.55
   0   1   7    4.95    0.51
   0   1   7    4.61    0.49
  -1  -1  -7   25.95    0.88
   1   1   7   26.65    0.91
  -2  -1  -7    9.64    0.64
   2   1   7    9.14    0.62
  -3  -1  -7    2.25    0.38
   3   1   7    1.64    0.35
  -4  -1  -7   28.79    1.02
   4   1   7   32.40    1.03
   4   1   7   31.56    0.98
  -5  -1  -7   10.83    0.80
   5   1   7   10.57    0.67
   5   1   7    8.22    0.74
  -6  -1  -7    0.37    0.54
   6   1   7   -0.12    0.38
   6   1   7   -0.55    0.49
   6   1   7    0.10    0.47
  -7  -1  -7    2.08    0.71
   7   1   7    2.33    0.51
   7   1   7    1.85    0.65
  -8  -1  -7    0.88    0.86
   8   1   7   -0.46    0.75
   8   1   7    0.85    0.60
  -9  -1  -7   -0.39    1.11
   9   1   7    0.59    0.77
   9   1   7    0.97    0.96
   8  -2  -7   -1.31    0.90
  -8   2   7    0.13    0.81
  -8   2   7    1.01    0.93
   7  -2  -7   -0.53    0.68
  -7   2   7    1.56    0.61
  -7   2   7   -0.44    0.76
   6  -2  -7    0.17    0.65
  -6   2   7    0.78    0.58
   5  -2  -7    6.82    0.70
  -5   2   7    7.14    0.69
  -5   2   7    8.60    0.92
   4  -2  -7   30.54    1.08
  -4   2   7   30.61    1.09
  -4   2   7   29.92    1.07
   3  -2  -7    7.70    0.69
  -3   2   7    6.65    0.68
  -3   2   7    7.03    0.76
   2  -2  -7    2.42    0.39
  -2   2   7    2.87    0.50
  -2   2   7    2.05    0.40
   1  -2  -7   14.54    0.61
  -1   2   7   13.73    0.68
  -1   2   7   14.23    0.75
   0   2   7   33.31    1.02
   0   2   7   33.25    0.92
   1   2   7    8.76    0.61
  -2  -2  -7   40.67    1.12
   2   2   7   40.80    1.13
  -3  -2  -7    7.65    0.59
   3   2   7    7.82    0.60
  -4  -2  -7    1.72    0.37
   4   2   7    1.48    0.35
  -5  -2  -7    3.63    0.51
   5   2   7    3.34    0.43
   5   2   7    2.96    0.51
  -6  -2  -7    0.08    0.52
   6   2   7    0.33    0.48
   6   2   7    0.48    0.38
  -7  -2  -7    2.52    0.64
   7   2   7    1.11    0.61
   7   2   7    0.57    0.45
  -8  -2  -7    0.80    0.78
   8   2   7   -0.05    0.70
   8   2   7    0.98    0.59
  -9  -2  -7    3.12    0.98
   9   2   7    2.69    0.92
   9   2   7    4.58    0.87
   7  -3  -7    1.47    0.85
  -7   3   7    2.11    0.66
  -7   3   7    0.75    0.83
   6  -3  -7   13.62    1.18
  -6   3   7   12.85    1.19
  -6   3   7   14.72    1.14
   5  -3  -7    2.96    0.62
  -5   3   7    2.54    0.62
  -5   3   7    3.30    0.62
   4  -3  -7    0.18    0.48
  -4   3   7    0.30    0.51
  -4   3   7    0.67    0.48
   3  -3  -7   19.22    0.84
  -3   3   7   20.20    0.95
  -3   3   7   18.01    0.85
  -2   3   7   14.49    0.85
  -2   3   7   15.54    0.75
  -1   3   7    2.00    0.38
  -1   3   7    2.50    0.41
   0   3   7   26.86    0.91
   0   3   7   27.31    0.81
   1   3   7   31.22    0.85
   1   3   7   30.91    0.95
   2   3   7    6.35    0.55
   3   3   7    1.86    0.37
   4   3   7    0.64    0.34
   5   3   7    2.31    0.46
   5   3   7    2.40    0.37
   6   3   7    4.25    0.50
   6   3   7    5.02    0.63
   7   3   7    6.57    0.75
   7   3   7    8.04    0.81
   8   3   7    1.57    0.69
   8   3   7    1.29    0.60
   9   3   7    0.01    0.79
   9   3   7    0.70    0.70
   9   3   7    0.97    0.79
  10   3   7    1.99    0.91
  10   3   7    0.50    0.98
  10   3   7    0.75    0.99
   7  -4  -7    2.11    0.95
  -7   4   7    1.75    0.71
  -7   4   7    2.04    0.92
   6  -4  -7    0.24    0.74
   5  -4  -7    6.86    0.75
  -5   4   7    7.35    0.76
   4  -4  -7    2.63    0.56
  -4   4   7    3.00    0.58
   3  -4  -7    7.32    0.74
  -3   4   7    7.07    0.76
  -2   4   7   27.83    0.92
  -1   4   7   18.22    0.84
  -1   4   7   17.73    0.71
   0   4   7    1.43    0.34
   0   4   7    1.58    0.35
   1   4   7    1.17    0.32
   1   4   7    1.08    0.32
   2   4   7    1.04    0.32
   3   4   7    1.50    0.33
   4   4   7    7.88    0.62
   5   4   7    6.13    0.72
   6   4   7   11.22    0.94
   6   4   7   11.63    0.83
   7   4   7    4.21    0.71
   7   4   7    3.99    0.59
   8   4   7    1.32    0.59
   8   4   7    1.58    0.69
   8   4   7    1.50    0.60
   8   4   7    1.14    0.57
   9   4   7    2.23    0.78
   9   4   7    0.62    0.71
   9   4   7    1.30    0.80
   9   4   7    1.25    0.72
  10   4   7    0.18    0.98
  10   4   7    0.60    0.93
  10   4   7    0.29    0.97
  10   4   7   -0.83    0.91
   6  -5  -7    2.01    0.91
  -6   5   7    3.28    0.61
   5  -5  -7    2.55    0.73
   4  -5  -7    6.20    0.72
  -4   5   7    5.98    0.69
   3  -5  -7    1.15    0.51
  -3   5   7    1.50    0.50
   2  -5  -7    7.79    0.67
  -2   5   7    8.80    0.70
  -1   5   7    0.63    0.36
   0   5   7    1.17    0.32
   1   5   7    0.74    0.35
   2   5   7    8.06    0.60
   3   5   7   17.01    0.76
   4   5   7   17.18    0.78
   5   5   7    4.21    0.54
   6   5   7    1.14    0.50
   6   5   7    1.33    0.53
   7   5   7    4.65    0.75
   7   5   7    6.37    0.68
   7   5   7    6.76    0.74
   8   5   7    0.08    0.57
   8   5   7    0.59    0.53
   8   5   7    0.21    0.52
   8   5   7    0.12    0.68
   9   5   7    3.64    0.86
   9   5   7    2.67    0.70
   9   5   7    1.89    0.74
   9   5   7    3.25    0.75
  10   5   7    0.07    0.99
  10   5   7    0.63    0.84
  10   5   7   -0.16    0.88
  10   5   7   -0.18    0.91
   6  -6  -7    0.92    1.04
   5  -6  -7    1.35    0.83
  -5   6   7    1.75    0.62
   4  -6  -7    4.98    0.74
   3  -6  -7    0.05    0.53
   2  -6  -7    1.36    0.42
   1  -6  -7    0.92    0.48
   0  -6  -7    7.96    0.75
   3   6   7    8.17    0.64
   4   6   7    5.87    0.62
   5   6   7    7.15    0.76
   6   6   7    1.88    0.40
   6   6   7    0.89    0.49
   6   6   7    1.14    0.56
   7   6   7    2.97    0.55
   7   6   7    2.94    0.58
   7   6   7    2.73    0.67
   8   6   7    0.24    0.57
   8   6   7    1.22    0.64
   8   6   7    1.36    0.61
   8   6   7    0.74    0.74
   9   6   7    2.03    0.73
   9   6   7    2.12    0.85
   9   6   7    1.71    0.73
   9   6   7    1.65    0.76
  10   6   7    1.70    0.91
  10   6   7    2.28    0.92
  10   6   7    0.70    1.02
  10   6   7    2.36    0.88
   5  -7  -7   -1.25    0.97
  -5   7   7    0.25    0.82
   4  -7  -7   -0.12    0.74
  -4   7   7    1.56    0.63
   3  -7  -7   -0.10    0.59
   2  -7  -7    2.71    0.71
   1  -7  -7    4.70    0.65
   0  -7  -7    8.82    0.93
  -1  -7  -7    6.94    0.78
   5   7   7    0.16    0.45
   6   7   7    1.58    0.59
   7   7   7    2.87    0.60
   7   7   7    3.49    0.68
   8   7   7    4.10    0.67
   8   7   7    2.87    0.61
   8   7   7    4.18    0.87
   8   7   7    3.43    0.65
   9   7   7    3.95    0.75
   9   7   7    3.68    0.80
   9   7   7    5.31    0.79
   9   7   7    4.15    0.99
  10   7   7    1.19    0.89
  10   7   7   -0.99    0.94
  10   7   7   -0.68    0.85
  10   7   7    1.85    1.06
   4  -8  -7   -0.19    1.16
   4  -8  -7   -0.17    0.90
  -4   8   7    1.07    0.94
   3  -8  -7    1.87    1.03
  -3   8   7    4.28    0.86
   2  -8  -7    2.67    0.85
   1  -8  -7    0.32    0.67
   0  -8  -7    4.68    0.71
  -1  -8  -7    1.55    0.56
  -2  -8  -7    0.54    0.48
  -3  -8  -7    0.35    0.46
  -4  -8  -7    1.68    0.51
   6   8   7    5.20    0.75
   6   8   7    5.54    0.58
   7   8   7    8.16    0.73
   7   8   7   10.34    0.95
   7   8   7    8.53    0.92
   8   8   7    1.61    0.85
   8   8   7    0.69    0.62
   8   8   7   -0.30    0.63
   9   8   7    1.44    0.83
   9   8   7    1.09    0.70
   9   8   7    1.89    1.00
   9   8   7    1.29    0.74
   2  -9  -7    4.17    1.10
  -2   9   7    5.33    1.06
   1  -9  -7    0.41    0.84
   0  -9  -7    0.89    0.73
  -1  -9  -7   -0.19    0.65
  -2  -9  -7    1.08    0.62
  -3  -9  -7    2.08    0.66
  -4  -9  -7    3.68    0.65
  -5  -9  -7   10.95    1.14
   6   9   7    3.09    0.79
   6   9   7    1.99    0.59
   7   9   7    3.13    0.66
   7   9   7    2.41    0.82
   7   9   7    2.71    0.65
   8   9   7    1.12    0.89
   8   9   7    2.11    0.66
   8   9   7    1.00    0.77
   9   9   7    1.12    1.12
   9   9   7   -0.20    0.75
   9   9   7    0.39    0.91
   1 -10  -7    1.22    1.13
  -1  10   7   -0.58    1.09
   0 -10  -7    0.99    1.00
  -1 -10  -7   -0.47    0.88
  -2 -10  -7    1.91    0.83
  -3 -10  -7    6.89    0.91
  -4 -10  -7    3.22    0.81
  -5 -10  -7    1.00    0.79
   7  10   7    0.07    0.66
   7  10   7    1.45    0.76
   7  10   7   -0.43    0.97
   8  10   7    0.28    1.05
   8  10   7    0.25    0.83
  -2 -11  -7    0.89    1.07
  -3 -11  -7   -0.09    1.01
  -4 -11  -7    1.14    1.00
  -5 -11  -7    2.39    1.05
   4   5  -8    1.67    1.05
   4   5  -8    5.04    1.18
  -4  -5   8    5.80    0.96
   3   5  -8    1.72    1.10
   3   5  -8    2.11    0.99
  -3  -5   8    4.03    0.72
  -3  -5   8    2.69    0.95
  -3  -5   8    4.37    1.06
   2   5  -8    6.57    1.08
   2   5  -8    6.76    1.13
  -2  -5   8    7.71    1.02
  -2  -5   8    7.25    1.18
  -2  -5   8    6.13    0.77
   1   5  -8    2.58    1.05
  -1  -5   8    3.68    1.04
  -1  -5   8    2.72    1.06
  -1  -5   8    3.00    0.71
   0   5  -8    0.30    1.01
   0  -5   8    0.41    1.06
   0  -5   8    0.44    1.02
   0  -5   8    0.72    0.69
  -1   5  -8   -0.38    1.00
   1  -5   8   -0.30    1.11
   1  -5   8    0.96    1.10
   6   4  -8    2.65    1.13
   5   4  -8    6.26    0.99
   5   4  -8    6.13    1.07
  -5  -4   8    4.72    0.70
   4   4  -8    6.49    0.99
   4   4  -8    5.66    0.97
  -4  -4   8    6.52    0.60
   3   4  -8    7.78    1.04
   3   4  -8    6.53    0.93
  -3  -4   8    8.66    0.90
   2   4  -8    0.72    0.86
   2   4  -8    0.52    0.73
  -2  -4   8    0.26    0.53
  -2  -4   8    1.74    0.78
  -2  -4   8    1.27    0.85
   1   4  -8    0.38    0.77
   1   4  -8   -0.02    0.76
  -1  -4   8    0.57    0.52
  -1  -4   8    0.83    0.83
  -1  -4   8    0.50    0.77
   0   4  -8    2.30    0.80
   0  -4   8    1.12    0.84
   0  -4   8    1.08    0.54
   0  -4   8    3.77    0.88
  -1   4  -8    2.14    0.76
   1  -4   8    2.29    0.90
   1  -4   8    3.33    0.95
  -2   4  -8    3.74    0.75
   2  -4   8    2.61    1.01
   2  -4   8    5.41    1.03
  -3   4  -8    0.06    0.82
   3  -4   8    2.42    1.07
   3  -4   8    2.21    1.07
   6   3  -8    3.46    1.00
  -6  -3   8    3.71    0.65
   5   3  -8    5.94    0.99
  -5  -3   8    5.85    0.68
   4   3  -8    0.70    0.76
   4   3  -8    0.88    0.75
  -4  -3   8    1.07    0.52
   3   3  -8   -0.30    0.73
   3   3  -8    0.14    0.69
  -3  -3   8    0.47    0.66
  -3  -3   8    0.55    0.49
   2   3  -8    0.22    0.68
   2   3  -8   -0.44    0.62
  -2  -3   8    0.47    0.65
  -2  -3   8    0.25    0.44
   1   3  -8    4.96    0.83
   1   3  -8    4.94    0.73
  -1  -3   8    4.98    0.51
  -1  -3   8    4.92    0.79
  -1  -3   8    5.64    0.79
   0   3  -8   20.17    1.25
   0  -3   8   20.36    1.17
   0  -3   8   18.85    0.91
   0  -3   8   20.77    1.21
   0  -3   8   18.92    1.36
  -1   3  -8    5.18    0.69
   1  -3   8    6.65    0.72
   1  -3   8    5.93    0.82
   1  -3   8    3.62    0.77
  -2   3  -8    4.92    0.64
   2  -3   8    2.63    0.79
   2  -3   8    4.80    0.67
   2  -3   8    5.05    0.85
  -3   3  -8    2.19    0.63
   3  -3   8    1.69    0.87
   3  -3   8    1.21    0.83
  -4   3  -8    0.33    0.77
   4  -3   8   -0.14    0.95
   4  -3   8    1.30    0.90
   5  -3   8    0.17    1.14
   5  -3   8    3.88    1.12
   7   2  -8    2.84    1.08
  -7  -2   8    1.72    0.71
   6   2  -8    2.30    0.91
  -6  -2   8    1.25    0.56
   5   2  -8   -0.18    0.71
  -5  -2   8   -0.69    0.48
  -5  -2   8    0.18    0.66
   4   2  -8    0.90    0.66
   4   2  -8    0.95    0.63
  -4  -2   8   -0.59    0.44
  -4  -2   8    0.10    0.64
   3   2  -8   16.13    1.12
   3   2  -8   15.91    1.21
  -3  -2   8   16.05    1.12
  -3  -2   8   15.56    0.80
   2   2  -8   17.72    1.11
   2   2  -8   17.99    1.13
  -2  -2   8   18.99    0.84
  -2  -2   8   20.07    1.11
   1   2  -8    4.81    0.61
   1   2  -8    4.32    0.67
  -1  -2   8    6.05    0.73
  -1  -2   8    4.74    0.64
  -1  -2   8    5.49    0.61
   0   2  -8    5.27    0.63
   0   2  -8    6.66    0.70
   0  -2   8    5.60    0.69
   0  -2   8    8.18    0.90
   0  -2   8    6.89    0.63
  -1   2  -8    9.95    0.87
   1  -2   8    9.82    1.02
   1  -2   8   11.53    0.85
   1  -2   8    9.95    0.99
  -2   2  -8    0.39    0.48
   2  -2   8   -0.75    0.50
   2  -2   8   -0.15    0.58
   2  -2   8   -0.21    0.58
  -3   2  -8    0.80    0.52
   3  -2   8    1.02    0.55
   3  -2   8    0.67    0.64
   3  -2   8    0.30    0.64
  -4   2  -8    3.97    0.63
   4  -2   8    3.91    0.63
   4  -2   8    3.86    0.79
   4  -2   8    3.26    0.73
  -5   2  -8    4.05    0.73
   5  -2   8    5.36    0.94
   5  -2   8    4.74    0.78
   5  -2   8    5.07    0.75
  -6   2  -8   -1.03    0.97
   6  -2   8    0.49    1.02
   6  -2   8    0.49    0.93
   7   1  -8    0.60    0.96
  -7  -1   8    0.86    0.68
   6   1  -8    0.13    0.79
  -6  -1   8   -0.05    0.55
   5   1  -8    3.01    0.75
  -5  -1   8    3.66    0.51
  -5  -1   8    3.48    0.66
   4   1  -8   11.46    1.24
  -4  -1   8   10.18    0.77
  -4  -1   8   10.96    0.97
   3   1  -8   15.33    1.09
  -3  -1   8   13.12    0.76
  -3  -1   8   14.04    0.98
   2   1  -8   11.48    0.96
   2   1  -8   11.76    0.93
  -2  -1   8   12.60    0.74
  -2  -1   8   12.57    0.94
   1   1  -8   12.68    0.87
   1   1  -8   12.36    0.93
  -1  -1   8   12.97    0.92
  -1  -1   8   11.89    0.73
   0   1  -8    0.77    0.50
   0   1  -8    1.27    0.45
   0  -1   8    1.03    0.47
   0  -1   8    1.04    0.47
   0  -1   8    1.49    0.39
  -1   1  -8    0.77    0.43
   1  -1   8    0.62    0.43
   1  -1   8    0.28    0.41
  -2   1  -8   11.50    0.80
   2  -1   8   13.83    0.93
   2  -1   8   13.92    0.93
   2  -1   8   14.13    0.80
  -3   1  -8   14.86    0.90
   3  -1   8   14.03    0.90
   3  -1   8   16.32    0.84
   3  -1   8   16.06    1.01
  -4   1  -8    0.27    0.49
   4  -1   8   -0.04    0.55
   4  -1   8    1.26    0.52
   4  -1   8    0.61    0.50
  -5   1  -8    4.56    0.66
   5  -1   8    2.74    0.61
   5  -1   8    4.41    0.64
   5  -1   8    3.41    0.73
  -6   1  -8   -0.61    0.76
   6  -1   8    1.04    0.79
   6  -1   8    1.61    0.68
   6  -1   8    1.09    0.83
  -7   1  -8    3.13    1.12
   7  -1   8    3.10    1.08
   7  -1   8    3.96    1.04
   7  -1   8    5.88    0.88
   7   0  -8    0.93    0.70
   7   0  -8    0.81    0.89
  -7   0   8    1.24    0.75
   6   0  -8   13.89    1.41
  -6   0   8   10.45    1.00
   5   0  -8   10.29    1.19
  -5   0   8    9.09    0.85
  -5   0   8    8.99    0.98
   4   0  -8    3.61    0.63
  -4   0   8    3.29    0.49
  -4   0   8    4.25    0.66
   3   0  -8    7.62    0.96
  -3   0   8    6.05    0.68
  -3   0   8    6.00    0.67
   2   0  -8    7.54    0.81
  -2   0   8    8.23    0.66
  -2   0   8    7.23    0.70
   1   0  -8    1.52    0.49
   1   0  -8    1.52    0.41
  -1   0   8    1.34    0.42
  -1   0   8    1.85    0.54
   0   0  -8    9.65    0.66
   0   0  -8    9.34    0.79
   0   0   8   10.26    0.66
   0   0   8   10.54    0.79
  -1   0  -8   29.03    1.01
   1   0   8   28.68    1.03
  -2   0  -8    1.41    0.41
   2   0   8    1.63    0.42
  -3   0  -8    1.80    0.46
   3   0   8    1.67    0.43
   3   0   8    2.25    0.41
  -4   0  -8    0.99    0.47
   4   0   8    2.12    0.44
   4   0   8    0.89    0.45
  -5   0  -8    6.88    0.67
   5   0   8    6.05    0.66
   5   0   8    7.92    0.83
   5   0   8    7.61    0.77
  -6   0  -8    0.60    0.68
   6   0   8    1.50    0.70
   6   0   8    2.00    0.69
   6   0   8    0.67    0.56
  -7   0  -8    0.39    0.90
   7   0   8    0.38    0.85
   7   0   8    2.03    0.66
   7   0   8    1.16    0.88
   7  -1  -8    1.78    0.97
   7  -1  -8    2.52    0.80
  -7   1   8    2.17    0.84
   6  -1  -8    1.14    0.76
   6  -1  -8    1.17    0.67
  -6   1   8    2.47    0.66
   5  -1  -8    6.23    0.75
  -5   1   8    8.96    0.96
  -5   1   8    8.53    0.74
   4  -1  -8    6.14    0.67
  -4   1   8    5.93    0.65
  -4   1   8    5.90    0.68
   3  -1  -8    0.36    0.43
  -3   1   8    0.15    0.52
  -3   1   8   -0.06    0.40
   2  -1  -8    8.73    0.80
  -2   1   8    8.95    0.87
  -2   1   8    9.05    0.72
  -1   1   8   47.87    1.34
  -1   1   8   49.35    1.27
   0  -1  -8   12.85    0.79
   0   1   8   11.65    0.79
   0   1   8   11.06    0.71
  -1  -1  -8    7.44    0.63
   1   1   8    7.44    0.66
  -2  -1  -8   -0.03    0.34
   2   1   8    0.19    0.36
  -3  -1  -8   15.07    0.83
   3   1   8   14.70    0.79
  -4  -1  -8    4.28    0.49
   4   1   8    4.55    0.46
   4   1   8    4.42    0.48
  -5  -1  -8    5.16    0.57
   5   1   8    4.33    0.55
   5   1   8    5.02    0.50
  -6  -1  -8    0.57    0.60
   6   1   8    0.57    0.49
   6   1   8   -0.80    0.58
  -7  -1  -8    1.31    0.82
   7   1   8   -0.75    0.58
   7   1   8   -0.14    0.66
   7   1   8   -0.12    0.72
  -8  -1  -8    0.20    1.05
   8   1   8   -0.37    0.75
   8   1   8   -0.90    0.91
   8   1   8    0.36    0.91
   7  -2  -8    2.46    0.86
  -7   2   8    3.53    0.94
   6  -2  -8    2.11    0.78
  -6   2   8    1.47    0.75
   5  -2  -8    0.03    0.60
   5  -2  -8   -0.65    0.61
  -5   2   8    0.62    0.62
  -5   2   8    0.06    0.62
   4  -2  -8    9.78    1.05
  -4   2   8    9.39    1.01
  -4   2   8    8.62    0.91
   3  -2  -8   26.83    1.10
  -3   2   8   25.52    1.12
  -3   2   8   23.95    1.05
   2  -2  -8    8.03    0.72
  -2   2   8    7.34    0.82
  -2   2   8    7.72    0.72
  -1   2   8    7.02    0.73
  -1   2   8    6.21    0.56
   0   2   8    5.31    0.55
   0   2   8    6.05    0.67
   1   2   8   17.81    0.83
   1   2   8   19.50    0.82
  -2  -2  -8    3.95    0.48
   2   2   8    4.31    0.49
  -3  -2  -8    3.47    0.49
   3   2   8    4.54    0.47
  -4  -2  -8    2.24    0.44
   4   2   8    1.51    0.42
  -5  -2  -8    2.82    0.49
   5   2   8    1.93    0.45
   5   2   8    1.91    0.42
  -6  -2  -8    1.76    0.61
   6   2   8    1.40    0.57
   6   2   8    2.19    0.45
  -7  -2  -8    4.65    0.81
   7   2   8    4.45    0.79
   7   2   8    5.18    0.61
  -8  -2  -8    6.88    0.98
   8   2   8    5.64    0.94
   8   2   8    4.73    0.72
  -9  -2  -8    3.50    1.17
   9   2   8    1.61    0.90
   9   2   8    1.76    1.08
   7  -3  -8    0.48    1.03
  -7   3   8   -0.70    0.99
   6  -3  -8    2.14    0.83
  -6   3   8    2.21    0.82
  -6   3   8    2.60    0.83
   5  -3  -8   11.69    1.09
  -5   3   8   13.92    1.19
  -5   3   8   11.13    1.17
   4  -3  -8    5.42    0.67
  -4   3   8    5.84    0.70
  -4   3   8    6.25    0.74
  -3   3   8    0.46    0.52
  -3   3   8    0.28    0.48
  -2   3   8    2.14    0.55
  -2   3   8    1.52    0.46
  -1   3   8    4.19    0.49
  -1   3   8    3.27    0.50
   0   3   8    3.53    0.47
   0   3   8    4.37    0.51
   1   3   8    9.38    0.68
   1   3   8   10.57    0.70
   2   3   8    3.31    0.44
   3   3   8    2.96    0.42
   4   3   8    1.24    0.39
   5   3   8   12.18    0.73
   5   3   8   11.79    0.83
   6   3   8   21.61    0.97
   6   3   8   23.54    1.17
   7   3   8    5.46    0.76
   7   3   8    5.84    0.66
   8   3   8   -0.71    0.79
   8   3   8   -0.27    0.67
   9   3   8    1.34    0.97
   9   3   8    0.77    0.86
   6  -4  -8    2.81    0.92
  -6   4   8    2.02    0.97
  -6   4   8    2.81    0.94
   5  -4  -8    0.01    0.71
  -5   4   8    0.80    0.77
  -5   4   8   -2.06    0.71
   4  -4  -8   -0.16    0.58
  -4   4   8    0.23    0.61
  -4   4   8   -0.10    0.65
  -3   4   8    5.84    0.69
  -3   4   8    6.19    0.64
  -2   4   8    6.11    0.59
  -2   4   8    5.94    0.66
  -1   4   8    6.10    0.68
  -1   4   8    6.70    0.79
   0   4   8    0.82    0.37
   0   4   8    1.04    0.40
   1   4   8    0.75    0.34
   1   4   8    0.66    0.38
   2   4   8    7.94    0.60
   2   4   8    7.87    0.64
   3   4   8   11.38    0.71
   4   4   8   22.41    0.93
   5   4   8   10.33    0.83
   6   4   8    5.61    0.67
   6   4   8    6.95    0.77
   7   4   8    5.87    0.83
   7   4   8    6.17    0.70
   8   4   8   -0.41    0.75
   8   4   8    0.78    0.69
   9   4   8    1.03    0.83
   9   4   8   -0.81    0.94
   9   4   8    1.02    0.81
   6  -5  -8    1.59    1.05
  -6   5   8   -0.11    1.02
   5  -5  -8    1.23    0.82
  -5   5   8    1.30    0.86
   4  -5  -8    1.66    0.66
  -4   5   8    0.31    0.68
   3  -5  -8    0.99    0.55
  -3   5   8    1.98    0.54
  -2   5   8    2.21    0.58
  -2   5   8    1.77    0.53
  -1   5   8    0.14    0.42
  -1   5   8    0.55    0.47
   0   5   8    4.05    0.50
   0   5   8    4.11    0.46
   1   5   8    6.85    0.60
   1   5   8    6.98    0.62
   2   5   8   30.56    0.86
   2   5   8   30.99    1.02
   3   5   8   29.42    0.99
   4   5   8   12.60    0.74
   5   5   8    6.54    0.67
   6   5   8   -0.34    0.56
   6   5   8   -0.15    0.49
   7   5   8    0.38    0.68
   7   5   8    0.38    0.61
   8   5   8    0.87    0.64
   8   5   8    1.30    0.69
   8   5   8    0.57    0.78
   9   5   8    2.22    0.99
   9   5   8    2.93    0.82
   9   5   8    2.73    0.86
   5  -6  -8    0.95    0.94
   4  -6  -8    2.00    0.72
   3  -6  -8    0.45    0.57
  -2   6   8    1.00    0.53
   1  -6  -8   10.83    0.96
   1   6   8   15.33    0.82
   2   6   8    6.42    0.63
   3   6   8   12.02    0.71
   4   6   8    0.96    0.38
   5   6   8    1.65    0.48
   6   6   8    2.53    0.63
   7   6   8    4.79    0.74
   7   6   8    5.36    0.62
   7   6   8    4.45    0.78
   8   6   8   11.70    1.15
   8   6   8   12.97    1.13
   8   6   8   10.55    1.07
   9   6   8    6.51    0.87
   9   6   8    5.92    0.93
   9   6   8    7.64    1.08
   4  -7  -8    0.42    0.83
   2  -7  -8    5.68    0.80
   1  -7  -8    3.92    0.67
   0  -7  -8   11.93    0.98
   3   7   8    0.36    0.42
   4   7   8    0.13    0.41
   5   7   8    5.75    0.67
   6   7   8   17.34    1.17
   7   7   8   12.42    1.05
   7   7   8   13.66    1.32
   8   7   8    4.52    0.83
   8   7   8    4.96    0.92
   8   7   8    4.32    0.69
   9   7   8   -1.55    1.03
   9   7   8    1.00    0.78
   9   7   8    1.86    0.86
   3  -8  -8    1.03    1.11
   2  -8  -8    3.80    0.93
   1  -8  -8    1.37    0.79
   0  -8  -8    0.92    0.60
  -1  -8  -8    0.05    0.54
   4   8   8   11.88    0.92
   5   8   8   19.21    1.12
   6   8   8    8.58    0.91
   7   8   8    3.95    0.86
   7   8   8    2.42    0.66
   8   8   8    1.39    1.00
   8   8   8    2.06    0.76
   9   8   8   -0.30    1.09
   9   8   8   -0.25    0.84
   9   8   8    0.18    0.75
   2  -9  -8    0.02    1.13
   1  -9  -8    0.33    0.97
   0  -9  -8   -0.37    0.78
  -1  -9  -8    1.41    0.73
  -2  -9  -8    6.39    0.75
  -3  -9  -8   11.81    1.14
   5   9   8    1.96    0.75
   6   9   8    2.37    0.81
   7   9   8    0.38    0.68
   7   9   8    0.07    0.89
   8   9   8    1.03    0.77
   8   9   8    2.55    1.07
   0 -10  -8    2.47    1.08
  -1 -10  -8    4.04    0.98
  -2 -10  -8    4.56    0.91
  -3 -10  -8    3.52    0.85
  -4 -10  -8    2.39    0.80
  -5 -10  -8    1.42    0.77
   6  10   8   -1.61    0.94
   7  10   8    0.36    0.77
   7  10   8    0.97    1.06
   3   4  -9   -0.44    0.99
   3   4  -9   -0.48    1.12
   2   4  -9    0.60    1.08
   2   4  -9    0.21    1.02
  -2  -4   9    0.62    0.98
  -2  -4   9    0.18    0.70
   1   4  -9    3.18    1.14
   1   4  -9    5.11    1.01
  -1  -4   9    4.79    1.15
  -1  -4   9    4.08    1.07
   0   4  -9    3.66    1.13
   0  -4   9    3.67    1.13
   0  -4   9    5.02    0.77
   0  -4   9    5.79    1.16
  -1   4  -9    3.76    1.09
   1  -4   9    5.65    1.27
   1  -4   9    4.83    1.21
   5   3  -9   -0.13    1.09
   4   3  -9    1.79    0.93
   4   3  -9    1.22    0.97
  -4  -3   9    1.49    0.64
   3   3  -9    1.44    0.87
   3   3  -9    2.45    0.95
  -3  -3   9    2.03    0.59
  -3  -3   9    2.88    0.95
   2   3  -9    5.80    0.90
   2   3  -9    5.57    0.99
  -2  -3   9    6.79    0.98
  -2  -3   9    5.46    0.66
   1   3  -9    7.84    0.97
   1   3  -9    7.30    1.03
  -1  -3   9    9.65    1.04
  -1  -3   9    6.78    0.68
  -1  -3   9    8.90    0.99
  -1  -3   9    8.69    0.99
   0   3  -9    4.39    0.93
   0  -3   9    6.26    0.98
   0  -3   9    4.48    0.63
   0  -3   9    5.70    0.90
   0  -3   9    6.90    0.96
  -1   3  -9    2.30    0.81
   1  -3   9    3.70    0.82
   1  -3   9    2.24    0.90
   1  -3   9    2.86    0.93
  -2   3  -9    0.78    0.78
   2  -3   9    1.32    0.95
   2  -3   9    2.25    1.02
   2  -3   9    0.99    0.82
  -3   3  -9   -1.52    0.89
   3  -3   9   -1.16    1.04
   3  -3   9   -1.24    1.04
   6   2  -9    0.53    1.06
   5   2  -9    2.03    0.97
  -5  -2   9    1.51    0.86
  -5  -2   9    0.46    0.62
   4   2  -9    9.71    1.02
  -4  -2   9   10.94    0.91
  -4  -2   9   10.30    1.02
   3   2  -9   19.69    1.37
   3   2  -9   18.73    1.45
  -3  -2   9   19.16    0.98
  -3  -2   9   20.54    1.39
   2   2  -9    2.96    0.70
   2   2  -9    6.26    0.88
  -2  -2   9    5.71    0.85
  -2  -2   9    4.76    0.54
   1   2  -9    5.15    0.72
   1   2  -9    5.65    0.86
  -1  -2   9    3.21    0.51
  -1  -2   9    5.83    0.84
   0   2  -9    1.88    0.72
   0  -2   9    0.16    0.68
   0  -2   9    1.31    0.49
   0  -2   9    1.72    0.70
  -1   2  -9   -0.86    0.61
   1  -2   9   -0.24    0.62
   1  -2   9    0.08    0.70
   1  -2   9   -0.12    0.68
  -2   2  -9    0.43    0.61
   2  -2   9   -0.76    0.63
   2  -2   9    0.13    0.75
   2  -2   9   -0.03    0.71
  -3   2  -9    2.67    0.68
   3  -2   9    4.13    0.87
   3  -2   9    4.31    0.89
  -4   2  -9    0.58    0.79
   4  -2   9    3.08    0.78
   4  -2   9    2.14    0.98
   4  -2   9    1.89    0.91
   5  -2   9    1.29    0.95
   6   1  -9    6.94    1.16
  -6  -1   9    2.85    0.71
   5   1  -9    9.46    1.11
  -5  -1   9   11.24    1.22
  -5  -1   9    9.83    1.02
   4   1  -9    3.57    0.80
  -4  -1   9    3.55    0.59
  -4  -1   9    3.11    0.77
   3   1  -9   12.62    1.23
  -3  -1   9   12.73    0.84
  -3  -1   9   12.60    1.15
   2   1  -9    1.63    0.66
   2   1  -9    1.62    0.60
  -2  -1   9    0.52    0.67
  -2  -1   9    1.68    0.47
   1   1  -9    0.11    0.50
   1   1  -9    0.26    0.66
  -1  -1   9    0.21    0.46
  -1  -1   9   -0.09    0.61
   0   1  -9    0.29    0.57
   0   1  -9    0.61    0.50
   0  -1   9   -0.40    0.57
   0  -1   9   -0.44    0.41
  -1   1  -9   13.52    0.97
   1  -1   9   12.07    0.94
   1  -1   9   13.25    1.09
  -2   1  -9   10.15    0.91
   2  -1   9   15.99    0.94
   2  -1   9   14.72    1.13
  -3   1  -9    1.81    0.55
   3  -1   9    1.68    0.65
   3  -1   9    2.86    0.57
   3  -1   9   -0.01    0.67
  -4   1  -9    3.36    0.64
   4  -1   9    4.00    0.72
   4  -1   9    3.81    0.74
   4  -1   9    4.41    0.66
  -5   1  -9    3.40    0.78
   5  -1   9    4.74    0.84
   5  -1   9    3.76    0.88
   5  -1   9    3.84    0.76
   6  -1   9    2.23    1.02
   6  -1   9    1.39    0.90
   6  -1   9    1.79    0.93
   6   0  -9    6.76    1.10
  -6   0   9    5.75    0.85
   5   0  -9    6.62    0.97
  -5   0   9    5.73    0.75
  -5   0   9    5.72    0.85
   4   0  -9    2.10    0.78
  -4   0   9    0.74    0.55
  -4   0   9    0.87    0.70
   3   0  -9    0.04    0.59
  -3   0   9    0.13    0.64
  -3   0   9    0.28    0.48
   2   0  -9    0.45    0.51
  -2   0   9   -0.54    0.58
  -2   0   9   -0.10    0.45
   1   0  -9   22.47    1.15
   1   0  -9   21.34    0.98
  -1   0   9   22.72    1.18
  -1   0   9   23.54    0.99
   0   0  -9   14.32    0.98
   0   0   9   13.54    0.84
   0   0   9   13.58    0.97
  -1   0  -9    2.97    0.54
   1   0   9    3.14    0.55
  -2   0  -9   10.99    0.82
   2   0   9    8.76    0.81
  -3   0  -9   16.75    0.91
   3   0   9   16.03    0.90
   3   0   9   15.44    0.96
  -4   0  -9    3.38    0.62
   4   0   9    3.69    0.58
   4   0   9    3.71    0.61
  -5   0  -9    0.55    0.64
   5   0   9    1.05    0.61
   5   0   9   -0.15    0.63
  -6   0  -9    0.21    0.84
   6   0   9   -0.28    0.74
   6   0   9   -0.09    0.80
   6  -1  -9    0.89    0.91
  -6   1   9    1.69    0.89
   5  -1  -9    0.55    0.78
  -5   1   9    0.50    0.66
  -5   1   9    1.38    0.81
   4  -1  -9    0.09    0.64
  -4   1   9    0.36    0.68
  -4   1   9   -0.04    0.61
   3  -1  -9    9.62    1.10
  -3   1   9   10.94    1.09
  -3   1   9    8.51    0.94
   2  -1  -9   12.59    0.92
  -2   1   9   14.00    0.92
  -2   1   9   14.00    1.05
  -1   1   9   16.08    0.95
  -1   1   9   13.92    1.03
   0   1   9   17.19    0.94
   0   1   9   18.88    1.05
  -1  -1  -9   20.12    0.93
   1   1   9   20.50    0.97
   1   1   9   20.22    0.97
  -2  -1  -9    2.12    0.46
   2   1   9    2.12    0.46
  -3  -1  -9    0.41    0.45
   3   1   9   -0.53    0.45
  -4  -1  -9    0.07    0.52
   4   1   9    0.22    0.46
   4   1   9   -0.31    0.49
  -5  -1  -9    1.60    0.60
   5   1   9    0.57    0.55
   5   1   9    1.22    0.55
  -6  -1  -9    0.09    0.73
   6   1   9    2.38    0.65
   6   1   9    1.21    0.68
  -7  -1  -9   -0.21    0.98
   7   1   9    1.63    0.94
   7   1   9   -0.10    0.73
   6  -2  -9   -0.90    0.92
   6  -2  -9    0.30    0.89
  -6   2   9   -0.96    0.89
   5  -2  -9    2.13    0.78
  -5   2   9    0.98    0.81
  -5   2   9    2.02    0.86
   4  -2  -9   14.19    1.21
  -4   2   9   12.00    1.23
  -4   2   9   13.32    1.14
   3  -2  -9    8.38    1.01
  -3   2   9    8.87    0.98
  -3   2   9    8.88    0.83
   2  -2  -9    8.05    0.87
  -2   2   9    8.53    1.01
  -2   2   9    8.50    0.88
  -1   2   9   19.73    0.98
  -1   2   9   18.68    1.10
   0   2   9    6.09    0.64
   0   2   9    6.62    0.68
   1   2   9    0.41    0.48
   1   2   9    0.25    0.43
   2   2   9    1.47    0.41
  -3  -2  -9    3.92    0.53
   3   2   9    6.02    0.70
  -4  -2  -9    4.10    0.52
   4   2   9    4.95    0.55
  -5  -2  -9    4.09    0.57
   5   2   9    2.63    0.55
   5   2   9    3.79    0.53
  -6  -2  -9    6.31    0.80
   6   2   9    5.44    0.60
   6   2   9    5.89    0.84
  -7  -2  -9   -0.27    0.84
   7   2   9    0.39    0.68
   7   2   9   -0.92    0.78
  -8  -2  -9    1.37    1.11
   8   2   9    2.61    0.83
   8   2   9    2.00    1.04
   6  -3  -9    2.19    0.96
  -6   3   9    2.88    1.05
  -6   3   9    1.33    0.96
  -5   3   9    3.16    0.85
  -5   3   9    3.57    0.96
   4  -3  -9    7.61    0.81
  -4   3   9    8.61    0.85
  -4   3   9    9.45    0.89
   3  -3  -9   20.72    1.18
  -3   3   9   20.57    1.14
  -3   3   9   22.05    1.26
   2  -3  -9    2.18    0.48
  -2   3   9    1.98    0.61
  -2   3   9    2.76    0.68
  -1   3   9    1.02    0.56
  -1   3   9    0.66    0.51
   0   3   9    4.67    0.57
   0   3   9    4.20    0.57
   1   3   9    6.19    0.69
   1   3   9    5.18    0.58
   2   3   9    5.86    0.59
   3   3   9    2.34    0.43
   4   3   9    9.08    0.76
   5   3   9    4.65    0.58
   5   3   9    3.62    0.50
   6   3   9    5.17    0.78
   6   3   9    4.55    0.60
   7   3   9    4.89    0.86
   7   3   9    7.90    0.78
   8   3   9   -0.89    0.92
   8   3   9    0.74    0.81
   6  -4  -9    2.51    1.06
  -6   4   9    4.04    1.11
  -6   4   9    2.01    1.09
   5  -4  -9    6.35    0.96
  -5   4   9    6.95    1.02
  -5   4   9    6.97    0.99
  -4   4   9   -0.29    0.77
  -4   4   9    0.62    0.75
  -3   4   9    0.60    0.64
  -3   4   9    0.84    0.69
  -2   4   9    2.90    0.59
  -2   4   9    3.20    0.70
  -1   4   9    2.34    0.60
  -1   4   9    0.77    0.52
   0   4   9    5.23    0.55
   0   4   9    4.72    0.59
   1   4   9    4.31    0.54
   1   4   9    3.73    0.51
   2   4   9   21.28    0.92
   2   4   9   21.94    0.96
   3   4   9    5.79    0.56
   4   4   9    5.07    0.55
   5   4   9   11.00    0.89
   6   4   9    6.25    0.76
   6   4   9    7.19    0.69
   7   4   9    0.69    0.78
   7   4   9    1.01    0.63
   8   4   9    1.72    0.81
   8   4   9    0.99    0.91
   5  -5  -9    0.13    0.92
  -5   5   9   -0.50    1.00
  -5   5   9    0.38    1.00
  -4   5   9    0.40    0.86
  -4   5   9   -0.09    0.85
  -3   5   9    0.44    0.70
  -3   5   9    0.08    0.71
  -2   5   9    3.11    0.63
  -2   5   9    2.77    0.70
  -1   5   9    5.34    0.61
  -1   5   9    5.22    0.70
   0   5   9    8.42    0.80
   0   5   9    8.48    0.79
   1   5   9    1.11    0.41
   1   5   9    2.03    0.48
   2   5   9    9.06    0.74
   2   5   9    9.97    0.73
   3   5   9   21.99    0.92
   3   5   9   23.72    0.97
   4   5   9   16.82    0.89
   5   5   9   -0.05    0.49
   6   5   9    0.34    0.67
   6   5   9    0.36    0.61
   7   5   9    1.46    0.80
   7   5   9    2.30    0.70
   8   5   9    5.11    0.90
   8   5   9    5.08    1.00
   9   5   9   -0.03    1.13
   9   5   9    3.68    1.01
   9   5   9    1.61    1.00
  -4   6   9    0.24    0.95
  -3   6   9    3.06    0.80
  -3   6   9    2.95    0.85
  -2   6   9    2.58    0.65
  -2   6   9    2.20    0.71
  -1   6   9    4.14    0.67
  -1   6   9    3.97    0.61
   0   6   9    4.67    0.60
   1   6   9   10.88    0.79
   2   6   9   14.77    0.83
   3   6   9    0.61    0.43
   4   6   9    1.87    0.49
   5   6   9    3.06    0.58
   6   6   9    9.34    0.92
   7   6   9    4.41    0.78
   7   6   9    5.19    0.91
   8   6   9    5.38    0.81
   8   6   9    5.89    0.95
   8   6   9    4.87    0.99
   9   6   9    3.56    1.20
   9   6   9    3.36    0.97
   9   6   9    3.30    1.08
   2  -7  -9    0.46    0.78
   1  -7  -9    4.44    0.71
   1   7   9    1.53    0.50
   2   7   9   -0.04    0.46
   3   7   9    1.85    0.49
   4   7   9   12.92    0.87
   5   7   9    9.54    0.97
   6   7   9    9.05    0.95
   7   7   9    4.29    0.81
   7   7   9    5.33    0.71
   7   7   9    5.41    0.97
   8   7   9    0.90    0.85
   8   7   9    1.16    1.02
   8   7   9    0.04    0.72
   2  -8  -9    3.35    1.03
   1  -8  -9   -0.26    0.78
   3   8   9    5.60    0.62
   4   8   9    6.66    0.66
   5   8   9   12.25    1.11
   6   8   9    4.17    0.81
   7   8   9    1.68    0.95
   7   8   9   -0.86    0.73
   8   8   9    1.33    1.14
   8   8   9    1.92    0.87
   1  -9  -9    0.73    1.03
   0  -9  -9    1.89    0.86
   4   9   9    3.30    0.69
   5   9   9   -0.93    0.72
   6   9   9    2.63    0.94
   7   9   9   -1.16    0.78
   7   9   9    0.26    1.01
  -1 -10  -9    1.59    0.96
  -2 -10  -9    2.44    0.87
   5  10   9   -0.86    0.92
   6  10   9    1.86    1.03
   2   3 -10    3.33    1.22
  -2  -3  10    3.43    1.21
   1   3 -10    1.75    1.24
  -1  -3  10    1.02    1.09
  -1  -3  10    2.38    1.17
   0   3 -10    0.12    1.14
   0  -3  10    1.13    1.10
   0  -3  10    1.33    1.12
   0  -3  10    3.22    1.13
   4   2 -10    3.10    1.12
  -4  -2  10    5.40    1.12
   3   2 -10    5.19    1.03
   3   2 -10    5.87    1.12
  -3  -2  10    3.88    0.67
  -3  -2  10    5.18    1.13
   2   2 -10    2.43    1.01
   2   2 -10    2.58    0.89
  -2  -2  10    2.05    0.64
  -2  -2  10    2.26    0.99
   1   2 -10    1.84    0.97
   1   2 -10    1.49    0.87
  -1  -2  10    2.28    0.99
  -1  -2  10    2.35    0.68
   0   2 -10    0.95    0.94
   0  -2  10   -0.10    0.91
   0  -2  10   -0.24    0.92
   0  -2  10    0.97    0.63
  -1   2 -10    0.62    0.91
   1  -2  10    0.63    0.88
   1  -2  10    0.50    0.91
   1  -2  10    1.85    0.94
   1  -2  10    1.56    0.68
  -2   2 -10    3.04    0.84
   2  -2  10    4.12    0.88
   2  -2  10    3.04    0.97
   2  -2  10    2.88    1.03
   3  -2  10    2.60    1.06
   3  -2  10    2.28    1.12
   3  -2  10    5.15    0.93
   5   1 -10    3.56    1.13
  -5  -1  10    3.25    1.07
   4   1 -10    3.09    1.00
  -4  -1  10   -0.18    0.71
  -4  -1  10    2.07    0.94
   3   1 -10    2.60    0.87
  -3  -1  10    3.43    0.96
  -3  -1  10    2.85    0.64
   2   1 -10    0.23    0.70
   2   1 -10    1.77    0.84
  -2  -1  10    1.13    0.88
  -2  -1  10    0.97    0.57
   1   1 -10    0.42    0.66
   1   1 -10    0.51    0.82
  -1  -1  10   -0.55    0.57
  -1  -1  10   -0.27    0.78
   0   1 -10    4.22    0.90
   0  -1  10    4.26    0.84
   0  -1  10    4.37    0.64
  -1   1 -10    9.97    1.17
   1  -1  10    9.81    1.13
   1  -1  10    5.80    0.69
  -2   1 -10    9.48    1.10
   2  -1  10    8.43    0.94
   2  -1  10   10.98    1.15
  -3   1 -10    5.12    0.79
   3  -1  10    5.78    0.99
   3  -1  10    6.11    0.77
  -4   1 -10    3.31    0.87
   4  -1  10    3.68    0.87
   4  -1  10    4.43    0.90
   5   0 -10    2.29    1.06
  -5   0  10    1.29    0.84
  -5   0  10    2.89    0.99
   4   0 -10    2.01    0.89
  -4   0  10    1.64    0.94
  -4   0  10    1.77    0.78
   3   0 -10    0.23    0.75
  -3   0  10   -0.15    0.85
  -3   0  10    0.61    0.66
   2   0 -10    7.93    0.80
  -2   0  10    9.56    1.00
  -2   0  10    9.89    1.02
  -1   0  10   10.68    1.03
  -1   0  10   11.55    1.02
   0   0 -10    8.31    0.83
   0   0  10    6.79    0.83
   0   0  10    6.67    0.72
  -1   0 -10    9.95    1.01
   1   0  10    9.23    0.86
   1   0  10    9.27    0.95
  -2   0 -10    6.00    0.68
   2   0  10    9.01    0.93
  -3   0 -10    1.22    0.63
   3   0  10    2.25    0.68
   3   0  10    1.28    0.63
  -4   0 -10    1.66    0.72
   4   0  10    0.46    0.72
   4   0  10    2.09    0.73
  -5   0 -10    0.04    0.81
   5   0  10   -0.77    0.79
   5   0  10    0.93    0.81
   5  -1 -10    0.69    0.97
  -5   1  10   -0.53    0.97
  -5   1  10    0.56    0.95
   4  -1 -10    3.68    0.92
  -4   1  10    4.17    0.89
  -4   1  10    4.22    0.94
   3  -1 -10    3.89    0.75
  -3   1  10    5.69    0.91
  -3   1  10    4.61    0.80
   2  -1 -10    5.90    0.69
  -2   1  10    7.16    0.88
  -2   1  10    7.15    0.77
  -1   1  10   28.20    1.25
  -1   1  10   26.57    1.38
   0   1  10    6.62    0.74
   0   1  10    7.22    0.81
  -1  -1 -10    2.75    0.62
   1   1  10    2.42    0.60
   1   1  10    2.33    0.61
  -2  -1 -10    3.04    0.55
   2   1  10    2.60    0.57
  -3  -1 -10    1.30    0.57
   3   1  10    0.20    0.56
  -4  -1 -10    3.66    0.64
   4   1  10    3.85    0.62
   4   1  10    1.99    0.62
  -5  -1 -10    4.75    0.75
   5   1  10    4.44    0.66
   5   1  10    4.51    0.71
  -6  -1 -10    3.81    0.92
   6   1  10    2.67    0.79
   6   1  10    2.94    0.86
   5  -2 -10    2.51    0.96
  -5   2  10    3.11    0.99
  -5   2  10    3.54    1.04
   4  -2 -10    7.55    0.92
  -4   2  10    5.65    0.92
  -4   2  10    8.05    1.03
   3  -2 -10   13.58    1.29
  -3   2  10   14.44    1.26
  -3   2  10   13.57    1.36
  -2   2  10    3.02    0.69
  -2   2  10    3.12    0.78
  -1   2  10    1.62    0.67
  -1   2  10    3.23    0.67
   0   2  10    7.68    0.79
   0   2  10    8.23    0.79
   1   2  10    0.53    0.54
   1   2  10   -0.47    0.55
   2   2  10    2.63    0.55
   3   2  10    8.34    0.87
  -4  -2 -10   13.62    0.97
   4   2  10   12.69    1.01
  -5  -2 -10    5.74    0.70
   5   2  10    5.17    0.66
   5   2  10    4.62    0.61
  -6  -2 -10    1.39    0.85
   6   2  10   -0.05    0.76
   6   2  10    2.27    0.67
  -7  -2 -10    2.30    1.07
   7   2  10   -0.81    1.01
   7   2  10    1.40    0.88
   5  -3 -10    4.72    1.01
  -5   3  10    4.60    1.10
  -5   3  10    4.92    1.13
   4  -3 -10    3.74    0.83
  -4   3  10    3.63    0.98
  -4   3  10    4.23    0.94
   3  -3 -10    1.94    0.68
  -3   3  10    1.71    0.85
  -3   3  10    0.61    0.76
  -2   3  10    4.47    0.77
  -2   3  10    5.57    0.85
  -1   3  10    0.39    0.61
  -1   3  10    0.53    0.66
   0   3  10    2.63    0.63
   0   3  10    2.50    0.62
   1   3  10   10.26    0.92
   1   3  10   10.34    1.02
   2   3  10   14.51    1.02
   2   3  10   14.09    0.91
   3   3  10    7.80    0.82
   4   3  10    2.24    0.54
   5   3  10    9.30    1.01
   5   3  10    5.83    0.64
   6   3  10   -0.05    0.65
   6   3  10    0.24    0.72
   7   3  10   -2.08    0.92
   7   3  10    2.54    0.79
   5  -4 -10   -1.99    0.97
  -5   4  10    2.81    1.16
  -5   4  10    0.63    1.17
   4  -4 -10    0.60    0.84
  -4   4  10    2.48    1.00
  -4   4  10    1.43    0.95
   3  -4 -10    0.51    0.70
  -3   4  10    1.32    0.82
  -3   4  10    0.98    0.85
  -2   4  10    2.05    0.70
  -2   4  10    3.77    0.82
  -1   4  10    2.53    0.70
  -1   4  10    4.30    0.77
   0   4  10   11.00    1.07
   0   4  10   10.15    0.97
   1   4  10   14.22    1.00
   1   4  10   14.03    0.98
   2   4  10    5.90    0.61
   2   4  10    6.66    0.69
   3   4  10    7.19    0.84
   4   4  10    1.60    0.54
   5   4  10    0.20    0.59
   6   4  10    1.43    0.71
   6   4  10    1.35    0.60
   7   4  10    2.87    0.97
   7   4  10    2.16    0.81
  -4   5  10    1.51    1.01
  -4   5  10    0.72    1.12
  -3   5  10    0.42    0.92
  -3   5  10    1.05    0.92
  -2   5  10    8.27    0.95
  -2   5  10    7.57    0.86
  -1   5  10   12.17    1.10
  -1   5  10   15.39    1.22
   0   5  10    1.93    0.63
   0   5  10    2.69    0.62
   1   5  10    3.99    0.58
   1   5  10    3.64    0.61
   2   5  10    6.40    0.68
   2   5  10    7.72    0.84
   3   5  10   -0.32    0.51
   3   5  10   -0.52    0.56
   4   5  10    1.38    0.53
   5   5  10    3.08    0.65
   6   5  10    2.53    0.75
   6   5  10    1.94    0.73
   7   5  10    3.29    0.86
   7   5  10    2.63    0.94
   8   5  10    4.24    1.18
   8   5  10    3.50    1.03
  -3   6  10    3.76    1.01
  -3   6  10    4.21    1.06
  -2   6  10    2.32    0.83
  -2   6  10    1.21    0.88
  -1   6  10    6.24    0.74
  -1   6  10    5.31    0.88
   0   6  10    4.57    0.67
   0   6  10    5.04    0.67
   1   6  10    0.61    0.56
   1   6  10    0.74    0.52
   2   6  10    1.48    0.52
   2   6  10    2.01    0.55
   3   6  10    2.98    0.54
   4   6  10    5.82    0.68
   4   6  10    7.16    0.66
   5   6  10    3.97    0.71
   6   6  10    3.50    0.79
   7   6  10    4.75    1.05
   7   6  10    5.40    0.92
   8   6  10    1.09    0.90
   8   6  10    1.06    1.14
   8   6  10    0.88    1.02
  -3   7  10    3.35    1.15
   2  -7 -10   -1.12    0.83
  -2   7  10   -0.65    0.89
  -1   7  10   -0.60    0.77
   0   7  10    0.39    0.65
   1   7  10    0.05    0.58
   2   7  10    5.82    0.65
   3   7  10    4.03    0.59
   4   7  10    7.68    0.69
   5   7  10   10.01    1.15
   6   7  10    1.94    0.89
   7   7  10    0.68    0.73
   7   7  10    0.19    0.90
   7   7  10   -0.23    0.96
   1  -8 -10    1.26    0.87
  -1   8  10    1.23    0.97
   0   8  10    1.43    0.81
   1   8  10    5.66    0.72
   2   8  10    3.90    0.68
   3   8  10    3.71    0.67
   4   8  10    0.57    0.64
   5   8  10   -1.01    0.70
   6   8  10    2.46    0.95
   7   8  10    1.50    1.14
   7   8  10   -0.13    0.92
   2   9  10    2.66    0.79
   3   9  10   -0.35    0.72
   4   9  10    2.62    0.76
   5   9  10    1.49    0.87
   6   9  10   -0.33    1.02
   2   1 -11    2.34    0.95
  -2  -1  11    3.87    1.13
   1   1 -11    0.43    0.85
   1   1 -11    1.75    1.09
  -1  -1  11   -1.50    0.80
  -1  -1  11    0.89    1.05
   0   1 -11    1.32    1.07
   0  -1  11    0.85    1.02
  -1   1 -11    4.11    1.12
   1  -1  11    0.82    0.89
   1  -1  11    3.54    1.04
   1  -1  11    1.07    1.12
   3   0 -11   -1.63    0.91
  -3   0  11   -0.12    1.10
  -3   0  11    0.99    0.90
   2   0 -11    0.37    0.76
  -2   0  11    0.71    0.83
  -2   0  11   -0.49    0.99
  -1   0  11    4.25    1.03
  -1   0  11    2.39    0.85
   0   0 -11    4.24    0.96
   0   0  11    3.86    0.92
   0   0  11    3.02    0.90
  -1   0 -11    4.35    0.89
   1   0  11    3.42    0.88
   1   0  11    2.12    0.82
  -2   0 -11    2.42    0.83
   2   0  11    0.26    0.85
   2   0  11   -1.88    0.85
   2   0  11    1.16    0.82
  -3   0 -11   -0.33    0.86
   3   0  11    2.41    0.95
   3   0  11   -0.99    0.84
   3  -1 -11    1.11    0.87
  -3   1  11    0.00    0.97
  -3   1  11    2.69    1.08
  -2   1  11    4.66    0.87
  -2   1  11    3.44    1.00
  -1   1  11    7.26    1.03
  -1   1  11    8.31    0.95
   0   1  11    1.42    0.78
   0   1  11    0.27    0.78
   1   1  11    0.35    0.77
   1   1  11    0.45    0.73
  -2  -1 -11    1.00    0.72
   2   1  11    0.48    0.78
   2   1  11   -0.28    0.72
  -3  -1 -11    5.50    0.79
   3   1  11    3.28    0.76
   3   1  11    1.18    0.73
  -4  -1 -11    6.66    0.82
   4   1  11    5.32    0.81
   4   1  11    5.46    0.82
   4  -2 -11    4.83    1.09
  -4   2  11    6.57    1.23
  -4   2  11    5.18    1.19
  -3   2  11    2.32    1.04
  -3   2  11    1.85    0.95
  -2   2  11    1.08    0.81
  -2   2  11    1.55    0.93
  -1   2  11    0.67    0.82
  -1   2  11    1.83    0.90
   0   2  11    0.79    0.80
   0   2  11    0.26    0.78
   1   2  11    3.05    0.74
   1   2  11    3.08    0.81
   2   2  11    4.89    0.71
   2   2  11    4.36    0.82
   3   2  11   10.28    0.80
   4   2  11    9.25    0.75
   4   2  11   10.05    1.17
  -5  -2 -11    2.89    0.81
   5   2  11    0.37    0.80
   5   2  11   -0.07    0.83
   4  -3 -11    2.20    1.00
  -4   3  11    0.72    1.20
  -4   3  11    1.62    1.12
  -3   3  11   -2.04    1.05
  -3   3  11   -0.92    0.92
  -2   3  11   -0.36    0.87
  -2   3  11   -0.66    0.93
  -1   3  11    0.68    0.80
  -1   3  11    0.67    0.89
   0   3  11    5.39    0.86
   0   3  11    5.45    0.84
   1   3  11   26.24    1.38
   1   3  11   28.07    1.37
   2   3  11   11.14    0.98
   2   3  11   11.49    1.01
   3   3  11    4.93    0.68
   4   3  11    1.84    0.68
   5   3  11   -0.95    0.71
   5   3  11   -0.98    0.80
   6   3  11   -0.97    0.85
   6   3  11   -0.70    0.93
  -3   4  11   -0.16    1.05
  -3   4  11    0.16    0.98
  -2   4  11    1.67    0.93
  -2   4  11    2.36    0.92
  -1   4  11   15.30    1.36
  -1   4  11   17.29    1.47
   0   4  11    9.50    0.89
   0   4  11   10.14    1.00
   1   4  11    9.26    0.88
   1   4  11    8.23    0.80
   2   4  11    1.82    0.76
   2   4  11    0.37    0.62
   3   4  11   -0.23    0.65
   3   4  11    0.95    0.76
   4   4  11    0.68    0.67
   5   4  11    2.57    0.73
   6   4  11    6.21    0.97
   6   4  11    5.77    0.83
  -3   5  11    8.42    1.30
  -3   5  11    8.83    1.26
  -2   5  11   13.61    1.53
  -2   5  11   12.73    1.29
  -1   5  11    6.04    0.92
  -1   5  11    9.32    1.08
   0   5  11    1.47    0.79
   0   5  11    2.29    0.76
   1   5  11    1.45    0.73
   1   5  11    1.35    0.72
   2   5  11    0.41    0.71
   2   5  11   -0.70    0.63
   3   5  11    3.83    0.78
   3   5  11    2.78    0.64
   4   5  11    5.98    0.73
   5   5  11    3.04    0.73
   6   5  11    7.08    1.00
   6   5  11    3.90    0.89
  -2   6  11    0.73    1.06
  -2   6  11    1.98    1.03
  -1   6  11   -0.03    0.85
  -1   6  11   -0.56    0.92
   0   6  11   -0.40    0.76
   0   6  11    1.37    0.84
   1   6  11    1.91    0.73
   1   6  11    1.39    0.72
   2   6  11    7.44    0.74
   2   6  11    7.15    0.77
   3   6  11   12.55    1.08
   3   6  11   11.12    1.16
   4   6  11    8.50    0.81
   4   6  11    7.24    0.88
   5   6  11    3.01    0.78
   6   6  11   -1.17    0.92
  -1   7  11    0.69    1.02
   0   7  11    4.75    0.94
   1   7  11   12.07    1.21
   2   7  11    5.65    0.74
   3   7  11    3.04    0.70
   4   7  11    2.52    0.75
   5   7  11    0.91    0.85
   6   7  11    0.21    0.95
   0   8  11    4.49    1.00
   1   8  11    4.31    0.87
   2   8  11    1.84    0.78
   3   8  11   -0.69    0.76
   4   8  11   -0.15    0.82
   5   8  11   -0.76    0.90
   0   1  12   -0.35    1.09
   1   1  12   -2.65    1.09
  -1   2  12    2.61    1.07
  -1   2  12   -0.25    1.14
   0   2  12    6.28    1.18
   0   2  12    4.55    1.08
   1   2  12   10.06    1.11
   1   2  12    7.08    1.18
   2   2  12    9.26    1.19
   2   2  12   10.44    1.06
   3   2  12    2.48    1.14
   3   2  12    3.07    0.91
  -1   3  12    8.27    1.18
  -1   3  12    7.16    1.11
   0   3  12   20.82    1.69
   0   3  12   21.06    1.69
   1   3  12   11.90    1.20
   1   3  12   12.80    1.52
   2   3  12    1.12    0.83
   2   3  12   -0.64    1.01
   3   3  12    2.94    0.85
   3   3  12   -0.73    0.98
   4   3  12   -0.66    0.93
  -1   4  12    8.73    1.20
  -1   4  12    4.85    1.25
   0   4  12    0.52    0.97
   0   4  12   -1.41    0.97
   1   4  12   -0.12    0.90
   1   4  12    0.63    0.92
   2   4  12   -0.36    0.92
   2   4  12   -0.64    0.82
   3   4  12   -0.84    0.98
   3   4  12    0.42    0.81
   4   4  12    2.56    0.88
  -1   5  12   -1.29    1.06
  -1   5  12    0.04    1.20
   0   5  12   -0.22    1.04
   0   5  12   -0.72    0.98
   1   5  12    0.82    0.91
   1   5  12   -0.26    0.88
   2   5  12    2.83    0.82
   2   5  12    3.87    0.97
   3   5  12    4.61    1.05
   3   5  12    3.34    0.87
   4   5  12    2.92    0.86
   4   5  12    3.96    1.06
   0   6  12    1.39    1.00
   0   6  12    2.68    1.12
   1   6  12    1.76    1.00
   1   6  12    2.38    0.99
   2   6  12    4.11    0.95
   2   6  12    1.86    0.89
   3   6  12    8.80    1.04
   3   6  12    7.02    0.91
   4   6  12    2.51    1.06
   4   6  12    1.94    0.87
   2   7  12    5.02    0.94
   3   7  12    0.64    0.94
   0   0   0    0.00    0.00
;
_shelx_hkl_checksum              97758
loop_
_space_group_symop_operation_xyz
'x, y, z'
'-x, -y, -z'
loop_
_atom_site_label
_atom_site_type_symbol
_atom_site_fract_x
_atom_site_fract_y
_atom_site_fract_z
_atom_site_U_iso_or_equiv
_atom_site_adp_type
_atom_site_occupancy
_atom_site_site_symmetry_order
_atom_site_calc_flag
_atom_site_refinement_flags_posn
_atom_site_refinement_flags_adp
C1 C 0.8295(3) 0.2087(4) 0.2665(3) 0.0263(7) Uani 1 1 d . .
C2 C 0.8177(3) 0.1659(4) 0.1336(3) 0.0228(6) Uani 1 1 d . .
C3 C 0.8645(3) 0.2602(4) -0.0057(3) 0.0227(6) Uani 1 1 d . .
H3 H 0.9034 0.3486 -0.0153 0.027 Uiso 1 1 calc R U
C4 C 0.8534(3) 0.2227(4) -0.1296(3) 0.0218(6) Uani 1 1 d . .
C5 C 0.8005(3) 0.0875(4) -0.1164(3) 0.0238(6) Uani 1 1 d . .
H5 H 0.7959 0.0609 -0.1998 0.029 Uiso 1 1 calc R U
C6 C 0.9044(3) 0.3246(4) -0.2797(3) 0.0233(6) Uani 1 1 d . .
C7 C 0.7542(3) -0.0082(4) 0.0231(3) 0.0230(6) Uani 1 1 d . .
C8 C 0.7629(3) 0.0325(4) 0.1471(3) 0.0235(6) Uani 1 1 d . .
H8 H 0.7315 -0.0306 0.2400 0.028 Uiso 1 1 calc R U
C9 C 0.6540(3) -0.1934(4) -0.0562(3) 0.0271(7) Uani 1 1 d . .
C10 C 0.6047(4) -0.3509(4) 0.0042(4) 0.0412(8) Uani 1 1 d . .
H10A H 0.4916 -0.3209 0.0255 0.062 Uiso 1 1 calc R U
H10B H 0.6624 -0.4265 0.0938 0.062 Uiso 1 1 calc R U
H10C H 0.6286 -0.4066 -0.0680 0.062 Uiso 1 1 calc R U
C11 C 0.6114(4) 0.6402(4) 0.4533(4) 0.0399(8) Uani 1 1 d . .
H11 H 0.6269 0.5671 0.5516 0.048 Uiso 1 1 calc R U
N1 N 0.7042(3) -0.1513(3) 0.0459(3) 0.0278(6) Uani 1 1 d . .
H1N H 0.7063 -0.2202 0.1361 0.033 Uiso 1 1 d R U
N2 N 0.4821(4) 0.7686(4) 0.4240(4) 0.0531(10) Uani 1 1 d . .
H2A H 0.465(5) 0.849(5) 0.343(5) 0.064 Uiso 1 1 d . U
H2B H 0.421(5) 0.788(5) 0.489(5) 0.064 Uiso 1 1 d . U
O1 O 0.8864(3) 0.3291(3) 0.2431(2) 0.0379(5) Uani 1 1 d . .
O2 O 0.7831(3) 0.1294(3) 0.3908(2) 0.0410(6) Uani 1 1 d . .
O3 O 0.9558(3) 0.4402(3) -0.2829(2) 0.0451(6) Uani 1 1 d . .
O4 O 0.8876(3) 0.2902(3) -0.3885(2) 0.0360(6) Uani 1 1 d . .
O5 O 0.6458(3) -0.1070(3) -0.1903(2) 0.0406(6) Uani 1 1 d . .
O6 O 0.7159(3) 0.6061(3) 0.3625(2) 0.0414(6) Uani 1 1 d . .
O7 O 1.1696(3) 0.2020(3) 0.4338(2) 0.0427(6) Uani 1 1 d . .
H7A H 1.2180 0.1872 0.3538 0.064 Uiso 1 1 d . U
H7B H 1.2079 0.1121 0.5088 0.064 Uiso 1 1 d . U
Zn1 Zn 0.94009(4) 0.38735(5) 0.40110(3) 0.02768(13) Uani 1 1 d . .
loop_
_atom_site_aniso_label
_atom_site_aniso_U_11
_atom_site_aniso_U_22
_atom_site_aniso_U_33
_atom_site_aniso_U_23
_atom_site_aniso_U_13
_atom_site_aniso_U_12
C1 0.0256(15) 0.0302(17) 0.0214(14) -0.0103(12) -0.0010(11) -0.0047(13)
C2 0.0219(14) 0.0243(15) 0.0212(13) -0.0083(12) 0.0007(11) -0.0058(12)
C3 0.0257(15) 0.0274(16) 0.0196(13) -0.0092(12) 0.0017(11) -0.0133(13)
C4 0.0240(14) 0.0248(15) 0.0165(12) -0.0064(11) 0.0018(10) -0.0092(12)
C5 0.0297(15) 0.0310(17) 0.0154(12) -0.0104(11) 0.0022(11) -0.0136(13)
C6 0.0235(14) 0.0265(16) 0.0190(14) -0.0069(12) 0.0025(11) -0.0090(12)
C7 0.0265(15) 0.0227(15) 0.0220(14) -0.0081(12) 0.0021(11) -0.0107(12)
C8 0.0274(15) 0.0246(15) 0.0164(13) -0.0040(11) 0.0035(11) -0.0104(13)
C9 0.0303(16) 0.0273(16) 0.0271(15) -0.0128(13) 0.0012(12) -0.0099(14)
C10 0.050(2) 0.0288(18) 0.047(2) -0.0090(15) -0.0109(16) -0.0154(16)
C11 0.044(2) 0.037(2) 0.0312(17) -0.0058(15) 0.0023(15) -0.0116(17)
N1 0.0397(14) 0.0263(14) 0.0194(11) -0.0029(10) 0.0000(10) -0.0185(12)
N2 0.047(2) 0.052(2) 0.0377(17) -0.0071(15) 0.0120(14) -0.0020(17)
O1 0.0604(15) 0.0432(14) 0.0236(11) -0.0158(10) -0.0016(10) -0.0279(12)
O2 0.0652(16) 0.0440(14) 0.0177(10) -0.0137(10) 0.0109(10) -0.0230(12)
O3 0.0740(17) 0.0496(15) 0.0270(11) -0.0096(10) 0.0112(11) -0.0467(14)
O4 0.0552(14) 0.0453(14) 0.0145(10) -0.0086(9) 0.0052(9) -0.0285(12)
O5 0.0604(15) 0.0427(14) 0.0256(11) -0.0099(10) -0.0026(10) -0.0260(12)
O6 0.0459(14) 0.0406(14) 0.0265(11) -0.0098(10) 0.0062(10) -0.0044(11)
O7 0.0486(14) 0.0444(14) 0.0264(11) -0.0072(10) 0.0037(10) -0.0110(12)
Zn1 0.0444(2) 0.0336(2) 0.01316(16) -0.00767(13) 0.00430(13) -0.02453(17)
loop_
_atom_type_symbol
_atom_type_description
_atom_type_scat_dispersion_real
_atom_type_scat_dispersion_imag
_atom_type_scat_source
C C 0.0033 0.0016 'International Tables Vol C Tables 4.2.6.8 and 6.1.1.4'
H H 0.0000 0.0000 'International Tables Vol C Tables 4.2.6.8 and 6.1.1.4'
N N 0.0061 0.0033 'International Tables Vol C Tables 4.2.6.8 and 6.1.1.4'
O O 0.0106 0.0060 'International Tables Vol C Tables 4.2.6.8 and 6.1.1.4'
Zn Zn 0.2839 1.4301 'International Tables Vol C Tables 4.2.6.8 and 6.1.1.4'
loop_
_geom_angle_atom_site_label_1
_geom_angle_atom_site_label_2
_geom_angle_atom_site_label_3
_geom_angle
_geom_angle_site_symmetry_1
_geom_angle_site_symmetry_3
O2 C1 O1 123.7(3) . .
O2 C1 C2 120.3(3) . .
O1 C1 C2 116.0(2) . .
C8 C2 C3 119.5(3) . .
C8 C2 C1 121.0(2) . .
C3 C2 C1 119.5(3) . .
C4 C3 C2 120.2(3) . .
C4 C3 H3 119.9 . .
C2 C3 H3 119.9 . .
C3 C4 C5 120.6(2) . .
C3 C4 C6 120.0(3) . .
C5 C4 C6 119.4(3) . .
C4 C5 C7 119.5(3) . .
C4 C5 H5 120.2 . .
C7 C5 H5 120.2 . .
O4 C6 O3 126.1(2) . .
O4 C6 C4 117.8(3) . .
O3 C6 C4 116.1(3) . .
C8 C7 C5 119.5(3) . .
C8 C7 N1 117.8(2) . .
C5 C7 N1 122.6(3) . .
C2 C8 C7 120.7(2) . .
C2 C8 H8 119.7 . .
C7 C8 H8 119.7 . .
O5 C9 N1 122.9(3) . .
O5 C9 C10 121.8(3) . .
N1 C9 C10 115.3(3) . .
C9 C10 H10A 109.5 . .
C9 C10 H10B 109.5 . .
H10A C10 H10B 109.5 . .
C9 C10 H10C 109.5 . .
H10A C10 H10C 109.5 . .
H10B C10 H10C 109.5 . .
O6 C11 N2 125.6(3) . .
O6 C11 H11 117.2 . .
N2 C11 H11 117.2 . .
C9 N1 C7 128.2(2) . .
C9 N1 H1N 115.8 . .
C7 N1 H1N 116.0 . .
C11 N2 H2A 124(3) . .
C11 N2 H2B 121(3) . .
H2A N2 H2B 113(4) . .
C1 O1 Zn1 123.42(18) . .
C6 O3 Zn1 147.0(2) . 2_765
C6 O4 Zn1 130.90(19) . 1_554
C11 O6 Zn1 128.3(2) . .
Zn1 O7 H7A 115.00 . .
Zn1 O7 H7B 130.00 . .
H7A O7 H7B 109.00 . .
O1 Zn1 O4 124.64(9) . 1_556
O1 Zn1 O3 99.81(9) . 2_765
O4 Zn1 O3 135.53(10) 1_556 2_765
O1 Zn1 O7 93.61(10) . .
O4 Zn1 O7 90.19(9) 1_556 .
O3 Zn1 O7 88.23(10) 2_765 .
O1 Zn1 O6 90.64(10) . .
O4 Zn1 O6 92.44(9) 1_556 .
O3 Zn1 O6 85.00(10) 2_765 .
O7 Zn1 O6 172.54(9) . .
loop_
_geom_bond_atom_site_label_1
_geom_bond_atom_site_label_2
_geom_bond_distance
_geom_bond_site_symmetry_2
C1 O2 1.244(3) .
C1 O1 1.266(4) .
C1 C2 1.495(4) .
C2 C8 1.384(4) .
C2 C3 1.393(4) .
C3 C4 1.380(4) .
C3 H3 0.9300 .
C4 C5 1.389(4) .
C4 C6 1.504(4) .
C5 C7 1.397(4) .
C5 H5 0.9300 .
C6 O4 1.239(3) .
C6 O3 1.245(4) .
C7 C8 1.393(4) .
C7 N1 1.417(4) .
C8 H8 0.9300 .
C9 O5 1.237(3) .
C9 N1 1.347(4) .
C9 C10 1.493(4) .
C10 H10A 0.9600 .
C10 H10B 0.9600 .
C10 H10C 0.9600 .
C11 O6 1.228(4) .
C11 N2 1.287(4) .
C11 H11 0.9300 .
N1 H1N 0.8598 .
N2 H2A 0.84(4) .
N2 H2B 0.80(4) .
O1 Zn1 1.943(2) .
O3 Zn1 1.970(2) 2_765
O4 Zn1 1.9551(18) 1_554
O6 Zn1 2.217(2) .
O7 Zn1 2.114(2) .
O7 H7A 0.86000 .
O7 H7B 0.86000 .
Zn1 O4 1.9551(19) 1_556
Zn1 O3 1.970(2) 2_765
loop_
_geom_hbond_atom_site_label_D
_geom_hbond_atom_site_label_H
_geom_hbond_atom_site_label_A
_geom_hbond_distance_DH
_geom_hbond_distance_HA
_geom_hbond_distance_DA
_geom_hbond_angle_DHA
_geom_hbond_site_symmetry_A
C5 H5 O5 0.93 2.28 2.853(4) 119.3 .
C10 H10B O1 0.96 2.51 3.400(4) 154.8 1_545
N1 H1N O6 0.86 2.16 3.016(3) 179.0 1_545
N2 H2A O5 0.84(4) 2.18(4) 2.967(4) 157(4) 2_665
N2 H2B O2 0.80(4) 2.08(4) 2.859(4) 164(4) 2_666
O7 H7A O5 0.8600 2.0500 2.904(3) 169.25(16) 2_755
O7 H7B O2 0.8600 1.9800 2.720(3) 143.73(18) 2_756
loop_
_geom_torsion_atom_site_label_1
_geom_torsion_atom_site_label_2
_geom_torsion_atom_site_label_3
_geom_torsion_atom_site_label_4
_geom_torsion
_geom_torsion_site_symmetry_4
O2 C1 C2 C8 -3.3(4) .
O1 C1 C2 C8 177.6(3) .
O2 C1 C2 C3 177.6(3) .
O1 C1 C2 C3 -1.5(4) .
C8 C2 C3 C4 1.2(4) .
C1 C2 C3 C4 -179.6(2) .
C2 C3 C4 C5 -2.1(4) .
C2 C3 C4 C6 -179.9(2) .
C3 C4 C5 C7 1.7(4) .
C6 C4 C5 C7 179.5(3) .
C3 C4 C6 O4 -177.7(3) .
C5 C4 C6 O4 4.4(4) .
C3 C4 C6 O3 0.2(4) .
C5 C4 C6 O3 -177.6(3) .
C4 C5 C7 C8 -0.4(4) .
C4 C5 C7 N1 -177.8(3) .
C3 C2 C8 C7 0.0(4) .
C1 C2 C8 C7 -179.1(3) .
C5 C7 C8 C2 -0.4(4) .
N1 C7 C8 C2 177.1(3) .
O5 C9 N1 C7 0.4(5) .
C10 C9 N1 C7 -178.3(3) .
C8 C7 N1 C9 164.3(3) .
C5 C7 N1 C9 -18.3(5) .
O2 C1 O1 Zn1 9.4(4) .
C2 C1 O1 Zn1 -171.45(18) .
O4 C6 O3 Zn1 -10.6(6) 2_765
C4 C6 O3 Zn1 171.6(3) 2_765
O3 C6 O4 Zn1 3.2(5) 1_554
C4 C6 O4 Zn1 -179.06(19) 1_554
N2 C11 O6 Zn1 -179.1(3) .
