#------------------------------------------------------------------------------
#$Date: 2016-02-13 21:28:24 +0200 (Sat, 13 Feb 2016) $
#$Revision: 176429 $
#$URL: svn://www.crystallography.net/cod/cif/4/51/33/4513315.cif $
#------------------------------------------------------------------------------
#
# This file is available in the Crystallography Open Database (COD),
# http://www.crystallography.net/
#
# All data on this site have been placed in the public domain by the
# contributors.
#
data_4513315
loop_
_publ_author_name
'Lusi, Matteo'
'Vitorica-Yrezabal, Inigo J.'
'Zaworotko, Michael J.'
_publ_section_title
;
 Expanding the Scope of Molecular Mixed Crystals Enabled by Three
 Component Solid Solutions
;
_journal_issue                   8
_journal_name_full               'Crystal Growth &amp; Design'
_journal_page_first              4098
_journal_paper_doi               10.1021/acs.cgd.5b00685
_journal_volume                  15
_journal_year                    2015
_chemical_formula_sum            'C12.3 H8.3 N1.7'
_chemical_formula_weight         179.91
_chemical_name_systematic
;
 ?
;
_space_group_crystal_system      monoclinic
_space_group_IT_number           14
_space_group_name_Hall           '-P 2yn'
_space_group_name_H-M_alt        'P 1 21/n 1'
_symmetry_space_group_name_Hall  '-P 2yn'
_symmetry_space_group_name_H-M   'P 1 21/n 1'
_atom_sites_solution_hydrogens   geom
_audit_creation_method           SHELXL-2014
_cell_angle_alpha                90
_cell_angle_beta                 103.028(5)
_cell_angle_gamma                90
_cell_formula_units_Z            2
_cell_length_a                   7.0829(17)
_cell_length_b                   4.9885(12)
_cell_length_c                   12.565(3)
_cell_measurement_temperature    100(2)
_cell_volume                     432.53(18)
_computing_structure_refinement  'SHELXL-2014 (Sheldrick, 2014)'
_diffrn_ambient_temperature      100(2)
_diffrn_measured_fraction_theta_full 1.000
_diffrn_measured_fraction_theta_max 0.998
_diffrn_radiation_type           MoK\a
_diffrn_radiation_wavelength     0.71073
_diffrn_reflns_av_R_equivalents  0.0654
_diffrn_reflns_av_unetI/netI     0.0377
_diffrn_reflns_Laue_measured_fraction_full 1.000
_diffrn_reflns_Laue_measured_fraction_max 0.998
_diffrn_reflns_limit_h_max       8
_diffrn_reflns_limit_h_min       -8
_diffrn_reflns_limit_k_max       6
_diffrn_reflns_limit_k_min       -6
_diffrn_reflns_limit_l_max       15
_diffrn_reflns_limit_l_min       -15
_diffrn_reflns_number            7462
_diffrn_reflns_point_group_measured_fraction_full 1.000
_diffrn_reflns_point_group_measured_fraction_max 0.998
_diffrn_reflns_theta_full        25.242
_diffrn_reflns_theta_max         25.766
_diffrn_reflns_theta_min         3.044
_exptl_absorpt_coefficient_mu    0.083
_exptl_absorpt_correction_T_max  0.75
_exptl_absorpt_correction_T_min  0.64
_exptl_absorpt_correction_type   multi-scan
_exptl_absorpt_process_details   sadabs
_exptl_crystal_colour            yellow
_exptl_crystal_density_diffrn    1.381
_exptl_crystal_description       needle
_exptl_crystal_F_000             188
_refine_diff_density_max         0.181
_refine_diff_density_min         -0.222
_refine_diff_density_rms         0.049
_refine_ls_extinction_method     none
_refine_ls_goodness_of_fit_ref   1.162
_refine_ls_hydrogen_treatment    constr
_refine_ls_matrix_type           full
_refine_ls_number_parameters     65
_refine_ls_number_reflns         826
_refine_ls_number_restraints     0
_refine_ls_restrained_S_all      1.162
_refine_ls_R_factor_all          0.0816
_refine_ls_R_factor_gt           0.0579
_refine_ls_shift/su_max          0.000
_refine_ls_shift/su_mean         0.000
_refine_ls_structure_factor_coef Fsqd
_refine_ls_weighting_details
'w=1/[\s^2^(Fo^2^)+(0.0148P)^2^+0.4881P] where P=(Fo^2^+2Fc^2^)/3'
_refine_ls_weighting_scheme      calc
_refine_ls_wR_factor_gt          0.0981
_refine_ls_wR_factor_ref         0.1044
_reflns_Friedel_coverage         0.000
_reflns_number_gt                651
_reflns_number_total             826
_reflns_threshold_expression     'I > 2\s(I)'
_cod_data_source_file            cg5b00685_si_012.cif
_cod_data_source_block           D:\#11
_cod_depositor_comments
'Adding full bibliography for 4513301--4513322.cif.'
_cod_original_cell_volume        432.54(18)
_cod_original_formula_sum        'C12.30 H8.30 N1.70'
_cod_database_code               4513315
#BEGIN Tags that were not found in dictionaries:
_shelx_space_group_comment
;
The symmetry employed for this shelxl refinement is uniquely defined
by the following loop, which should always be used as a source of
symmetry information in preference to the above space-group names.
They are only intended as comments.
;
_shelxl_version_number           2014-3
_shelx_res_file
;
REM  ml043b_0m in P2(1)/n
REM R1 =  0.0599 for     651 Fo > 4sig(Fo)  and  0.0833 for all     826 data
REM     64 parameters refined using      0 restraints
REM Highest difference peak  0.202,  deepest hole -0.235,  1-sigma level  0.053
REM  ml043b_0m in P2(1)/n
REM R1 =  0.0620 for     651 Fo > 4sig(Fo)  and  0.0855 for all     826 data
REM     65 parameters refined using      0 restraints
REM Highest difference peak  0.274,  deepest hole -0.219,  1-sigma level  0.055
REM  ml040b_0m in P2(1)/n
REM R1 =  0.0568 for    1456 Fo > 4sig(Fo)  and  0.0928 for all    2106 data
REM     65 parameters refined using      0 restraints
REM Highest difference peak  0.504,  deepest hole -0.276,  1-sigma level  0.072
TITL ml043b_0m in P2(1)/n
CELL 0.71073 7.0829 4.9885 12.5653 90.000 103.028 90.000
ZERR 2.0000 0.0017 0.0012 0.0030 0.000 0.005 0.000
LATT 1
SYMM 0.5-X, 0.5+Y, 0.5-Z
SFAC C H N
UNIT 24.6 16.6 3.4
MERG 2
FMAP 2
GRID
PLAN 5
TEMP -173
BOND
EXYZ N1 C1
EADP N1 C1
L.S. 20
ACTA
WGHT    0.014800    0.488100
FVAR       0.47629   0.85012
PART 1
N1    3    0.197521    0.058221    0.048637    21.00000    0.01759    0.01191 =
         0.01732    0.00091    0.00580   -0.00055
PART 2
C1    1    0.197521    0.058221    0.048637   -21.00000    0.01759    0.01191 =
         0.01732    0.00091    0.00580   -0.00055
AFIX  43
H1    2    0.329130    0.097121    0.081287   -21.00000   -1.20000
PART 0
AFIX   0
C2    1    0.147751   -0.131649   -0.028580    11.00000    0.01995    0.01231 =
         0.01500    0.00564    0.00537   -0.00018
C3    1    0.295662   -0.280155   -0.062788    11.00000    0.01828    0.01725 =
         0.02486    0.00333    0.00741   -0.00020
AFIX  43
H3    2    0.428064   -0.243559   -0.031200    11.00000   -1.20000
AFIX   0
C4    1    0.248343   -0.473291   -0.140150    11.00000    0.02446    0.01581 =
         0.02538    0.00022    0.01250    0.00269
AFIX  43
H4    2    0.348187   -0.572399   -0.161543    11.00000   -1.20000
AFIX   0
C5    1    0.050680    0.190029    0.077097    11.00000    0.02013    0.01121 =
         0.01607    0.00620    0.00509   -0.00037
C6    1    0.092808    0.394350    0.158257    11.00000    0.02184    0.01733 =
         0.01846   -0.00064    0.00356   -0.00386
AFIX  43
H6    2    0.223853    0.436619    0.190885    11.00000   -1.20000
AFIX   0
C7    1   -0.052134    0.529283    0.189487    11.00000    0.02939    0.01524 =
         0.01781   -0.00220    0.00849   -0.00229
AFIX  43
H7    2   -0.021722    0.662237    0.244840    11.00000   -1.20000
AFIX   0
HKLF 4

REM  ml043b_0m in P2(1)/n
REM R1 =  0.0579 for     651 Fo > 4sig(Fo)  and  0.0816 for all     826 data
REM     65 parameters refined using      0 restraints

END

WGHT      0.0142      0.4880

REM Highest difference peak  0.181,  deepest hole -0.222,  1-sigma level  0.049
Q1    1   0.1052  0.3829  0.3008  11.00000  0.05    0.18
Q2    1   0.3903 -0.6514 -0.2432  11.00000  0.05    0.18
Q3    1  -0.0837  0.8683  0.2823  11.00000  0.05    0.16
Q4    1   0.2762 -0.0005  0.1153  11.00000  0.05    0.16
Q5    1   0.2450  0.1246  0.1220  11.00000  0.05    0.15
;
_shelx_res_checksum              60213
_shelx_hkl_file
;
  -1   0   0   -0.28    0.22
  -1   0   0   -0.03    0.23
   1   0   0   -0.07    0.25
   1   0   0   -0.19    0.33
  -1   0   0    0.10    0.36
   2   0   0   70.78    3.29
   2   0   0   72.53    3.20
   2   0   0   72.74    3.22
   2   0   0   68.41    3.22
   2   0   0   71.14    3.24
  -2   0   0   74.57    3.44
  -2   0   0   64.91    3.21
  -2   0   0   70.09    3.24
  -2   0   0   69.98    3.22
   2   0   0   76.68    3.31
  -2   0   0   71.35    3.19
  -2   0   0   76.69    3.33
   3   0   0    0.14    0.55
  -3   0   0    0.20    0.40
  -3   0   0   -0.04    0.69
   3   0   0    0.96    0.55
  -3   0   0   -0.64    0.50
   3   0   0   -0.50    0.61
   3   0   0    0.20    0.74
  -3   0   0    0.23    0.82
  -3   0   0   -0.84    0.51
   3   0   0    0.95    0.54
   4   0   0   12.06    1.22
   4   0   0   12.44    1.38
  -4   0   0   12.34    1.49
  -4   0   0   12.72    1.17
  -4   0   0   12.98    1.40
   4   0   0   13.02    1.32
   4   0   0   12.46    1.42
  -5   0   0   -0.76    1.10
   5   0   0    0.74    1.20
   5   0   0   -0.33    0.81
   5   0   0    0.73    1.17
  -5   0   0    1.20    0.89
   6   0   0   11.23    1.64
  -6   0   0    9.81    1.35
   6   0   0   10.95    1.67
  -6   0   0    7.68    1.71
  -6   0   0   10.63    2.11
   6   0   0    8.15    1.25
   7   0   0    0.12    1.40
  -7   0   0    3.50    1.73
   7   0   0   -1.87    1.34
  -7   0   0    3.44    1.69
   7   0   0    1.06    1.63
   8   0   0   20.56    3.48
  -8   0   0    9.92    2.54
   8   0   0   13.16    1.99
  -8   0   0   12.08    2.45
   0  -1   0    0.93    0.39
   0  -1   0   -0.48    0.28
   0  -1   0   -0.13    0.41
   0  -1   0    0.32    0.47
   0  -1   0   -0.68    0.43
   0   1   0   -0.35    0.41
   0   1   0   -0.02    0.42
   0   1   0    0.29    0.46
   0   1   0    0.30    0.28
   0   1   0    0.37    0.34
   1  -1   0   18.22    0.98
  -1  -1   0   18.03    1.13
  -1  -1   0   15.20    0.97
   1  -1   0   15.33    1.03
  -1  -1   0   17.06    1.04
  -1  -1   0   16.51    0.88
   1  -1   0   15.59    0.95
   1  -1   0   13.93    0.94
  -1  -1   0   14.41    1.06
   1  -1   0   15.25    0.97
   1  -1   0   17.22    1.16
  -1  -1   0   14.29    0.89
  -1   1   0   16.33    0.94
  -1   1   0   14.81    0.92
   1   1   0   13.52    0.93
  -1   1   0   16.01    1.19
  -1   1   0   16.63    0.91
   1   1   0   16.24    0.86
  -1   1   0   15.19    0.92
   1   1   0   15.36    0.99
   1   1   0   15.40    0.98
  -1   1   0   14.82    0.98
   1   1   0   17.57    1.01
   1   1   0   17.21    1.23
   2  -1   0   98.61    4.53
   2  -1   0  107.14    4.56
   2  -1   0  101.46    4.51
  -2  -1   0  105.78    4.52
  -2  -1   0  100.55    4.46
  -2  -1   0  105.07    4.57
   2  -1   0   94.43    4.47
  -2  -1   0  101.89    4.48
   2  -1   0  104.18    4.54
   2  -1   0  105.62    4.52
  -2  -1   0  100.90    4.43
  -2  -1   0  103.36    4.57
  -2  -1   0   95.09    4.55
   2   1   0  101.68    4.47
  -2   1   0   99.41    4.48
   2   1   0   93.59    4.53
  -2   1   0  102.85    4.57
  -2   1   0  102.70    4.52
   2   1   0  101.07    4.54
  -2   1   0  100.65    4.54
  -2   1   0  100.77    4.46
   2   1   0  101.60    4.53
   2   1   0  102.47    4.47
  -2   1   0   96.03    4.50
   2   1   0  103.16    4.59
  -3  -1   0  126.93    5.40
   3  -1   0  118.08    5.50
   3  -1   0  133.52    5.55
   3  -1   0  131.01    5.60
  -3  -1   0  115.79    5.53
  -3  -1   0  120.07    5.45
  -3  -1   0  130.29    5.62
   3  -1   0  121.53    5.45
  -3   1   0  116.26    5.41
   3   1   0  121.02    5.56
   3   1   0  118.12    5.56
   3   1   0  114.15    5.43
  -3   1   0  121.48    5.55
  -3   1   0  124.92    5.57
  -3   1   0  125.88    5.48
   3   1   0  129.26    5.57
   4  -1   0   10.43    1.55
   4  -1   0   11.21    1.27
  -4  -1   0   14.21    1.38
  -4  -1   0   10.80    1.41
  -4  -1   0   11.02    1.37
   4  -1   0   10.10    1.23
  -4  -1   0   10.82    0.90
  -4   1   0   10.99    1.36
   4   1   0   10.63    1.05
  -4   1   0    9.59    0.93
  -4   1   0   10.10    1.05
   4   1   0   11.75    1.27
  -5  -1   0   34.58    2.17
  -5  -1   0   39.09    2.49
   5  -1   0   35.95    2.39
  -5  -1   0   38.85    3.27
   5  -1   0   35.58    2.14
   5  -1   0   37.41    2.24
   5   1   0   37.04    2.29
   5   1   0   34.99    2.18
  -5   1   0   43.07    2.65
  -5   1   0   35.84    2.23
  -5   1   0   34.89    2.18
   5   1   0   38.29    2.22
   6  -1   0   43.21    2.65
   6  -1   0   54.18    3.18
   6  -1   0   44.10    2.85
  -6  -1   0   44.87    2.66
  -6  -1   0   46.88    3.02
  -6  -1   0   50.14    3.70
   6   1   0   54.78    3.72
  -6   1   0   46.35    3.19
   6   1   0   43.08    2.73
  -6   1   0   45.87    2.88
   6   1   0   54.76    3.65
  -6   1   0   40.91    2.93
  -7  -1   0    0.03    1.92
   7  -1   0    4.26    1.86
   7  -1   0    1.27    1.67
   7   1   0    1.59    1.45
  -7   1   0    1.77    1.91
   7   1   0    2.60    1.64
  -7   1   0    5.80    3.45
   7   1   0    2.26    1.51
  -7   1   0   -1.16    1.30
   8  -1   0   10.14    2.13
   8  -1   0    4.00    2.37
   8  -1   0   15.86    2.66
  -8   1   0    8.41    2.18
   8   1   0    4.59    2.32
  -8   1   0   12.23    2.92
   0  -2   0   67.92    3.22
   0  -2   0   74.68    3.21
   0  -2   0   69.09    3.09
   0  -2   0   68.06    3.23
   0  -2   0   73.44    3.53
   0   2   0   68.10    3.09
   0   2   0   63.61    3.21
   0   2   0   65.87    3.15
   0   2   0   67.07    3.23
   1  -2   0   -0.32    0.51
  -1  -2   0    1.09    0.69
   1  -2   0   -0.17    0.45
  -1  -2   0   -0.38    0.40
   1  -2   0   -0.10    0.62
  -1  -2   0    0.51    0.59
  -1  -2   0   -0.24    0.72
   1  -2   0    0.60    0.45
   1  -2   0    0.61    0.67
  -1  -2   0   -0.20    0.59
  -1   2   0   -0.30    0.58
   1   2   0   -0.30    0.69
  -1   2   0    0.20    0.46
  -1   2   0   -0.14    0.77
  -1   2   0    0.06    0.52
   1   2   0   -0.46    0.47
   1   2   0    0.22    0.48
   1   2   0   -0.12    0.72
   1   2   0   -0.27    0.53
   2  -2   0   23.53    1.38
  -2  -2   0   23.50    1.59
  -2  -2   0   24.03    1.30
   2  -2   0   26.68    1.69
  -2  -2   0   23.33    1.61
  -2  -2   0   23.63    1.48
  -2  -2   0   23.69    1.34
  -2  -2   0   23.34    1.66
   2  -2   0   24.04    2.01
   2  -2   0   24.53    1.46
   2  -2   0   24.13    1.47
  -2   2   0   23.80    1.44
   2   2   0   24.42    1.73
   2   2   0   22.02    1.49
   2   2   0   23.91    1.28
  -2   2   0   22.72    1.44
   2   2   0   23.84    1.42
   2   2   0   23.57    1.42
  -2   2   0   23.56    1.70
  -2   2   0   23.10    1.46
  -2   2   0   23.59    1.32
   2   2   0   22.74    1.70
   3  -2   0   79.89    3.80
   3  -2   0   77.84    3.86
  -3  -2   0   80.09    3.58
  -3  -2   0   79.73    3.56
  -3  -2   0   78.22    3.86
   3  -2   0   76.92    3.65
  -3  -2   0   78.05    3.81
   3  -2   0   81.66    3.67
  -3   2   0   78.98    3.77
   3   2   0   81.13    3.84
   3   2   0   72.61    3.67
  -3   2   0   79.64    3.81
   3   2   0   82.99    3.77
   3   2   0   78.55    3.68
  -3   2   0   77.80    3.65
  -3   2   0   74.62    3.59
   4  -2   0    5.00    0.94
  -4  -2   0    5.13    1.09
  -4  -2   0    6.10    0.96
   4  -2   0    6.22    1.15
   4  -2   0    5.88    0.92
  -4  -2   0    7.73    1.27
  -4  -2   0    5.10    0.94
  -4   2   0    6.75    1.26
   4   2   0    7.30    1.21
  -4   2   0    4.54    0.86
  -4   2   0    2.31    1.52
  -4   2   0    6.07    1.18
   4   2   0    4.43    1.14
  -5  -2   0   17.42    1.64
   5  -2   0   13.80    1.63
  -5  -2   0   14.78    1.42
   5  -2   0   16.79    1.50
   5  -2   0   16.28    2.94
  -5  -2   0   17.50    1.66
   5   2   0   18.63    1.61
  -5   2   0   18.53    1.68
  -5   2   0   19.07    1.84
  -5   2   0   15.62    1.55
   5   2   0   15.27    1.68
  -6  -2   0    4.44    1.34
  -6  -2   0    5.26    1.20
   6  -2   0    4.73    2.31
   6  -2   0    3.44    1.45
  -6  -2   0    6.67    1.45
  -6   2   0    1.73    1.32
  -6   2   0    3.69    1.58
   6   2   0    2.74    1.40
  -7  -2   0    3.97    1.99
   7  -2   0    4.02    1.43
   7  -2   0    6.66    1.78
  -7   2   0   12.93    3.72
   7   2   0    8.27    2.18
  -7   2   0    1.95    2.29
   0  -3   0   -0.59    1.16
   0  -3   0    0.11    0.51
   0  -3   0   -0.09    0.87
   0   3   0    0.29    0.86
   0   3   0    0.04    1.04
   0   3   0    0.17    0.54
   1  -3   0   45.07    2.34
  -1  -3   0   51.17    2.33
   1  -3   0   46.94    2.46
   1  -3   0   51.24    2.37
  -1  -3   0   48.60    2.55
   1  -3   0   47.02    3.38
  -1  -3   0   48.70    2.56
   1   3   0   47.66    2.36
  -1   3   0   46.99    2.52
   1   3   0   48.67    2.55
   2  -3   0    3.74    1.20
  -2  -3   0    2.26    0.85
   2  -3   0    1.80    0.81
  -2  -3   0    2.47    1.04
   2  -3   0    1.14    1.06
  -2  -3   0    2.08    0.77
   2   3   0    1.92    1.33
   2   3   0    2.46    0.79
  -2   3   0    1.17    0.99
  -2   3   0    2.61    1.29
   2   3   0    2.55    0.92
  -3  -3   0    1.69    1.12
   3  -3   0    1.92    1.90
  -3  -3   0    0.99    0.84
  -3  -3   0    1.45    0.87
   3  -3   0    0.43    0.91
   3  -3   0   -0.31    0.80
  -3   3   0    0.62    1.15
   3   3   0    1.04    1.03
   3   3   0    2.49    0.85
  -3   3   0    1.78    1.12
  -3   3   0    1.80    0.91
   4  -3   0    3.20    1.00
   4  -3   0    4.20    1.48
   4  -3   0    3.54    0.94
  -4  -3   0    3.89    1.01
  -4  -3   0    5.24    1.21
  -4  -3   0    4.30    1.05
  -4   3   0    4.26    1.33
   4   3   0    1.97    1.39
  -4   3   0    4.68    1.12
   4   3   0    3.71    1.07
   4   3   0    5.62    1.04
  -5  -3   0    0.13    1.11
  -5  -3   0   -1.09    1.24
  -5  -3   0    0.50    1.39
   5  -3   0    1.94    1.71
   5  -3   0    0.63    1.15
  -5   3   0    0.77    1.03
   5   3   0    1.83    1.33
  -5   3   0    2.20    1.49
  -5   3   0    0.10    1.19
   6  -3   0   -3.01    1.63
  -6  -3   0   -0.92    2.60
   6  -3   0    0.02    1.53
  -6   3   0   -0.57    2.09
   6   3   0   -0.37    1.75
   6   3   0    3.00    1.61
  -6   3   0   -0.24    1.37
  -7  -3   0   -1.07    2.19
  -7  -3   0   -1.05    2.22
   7  -3   0    2.35    1.99
   7  -3   0    1.01    2.09
   7   3   0    2.40    2.08
   7   3   0   -1.46    2.08
  -7   3   0    0.04    2.46
  -7   3   0   -2.94    2.04
   0  -4   0    3.00    0.83
   0  -4   0    1.43    0.73
   0  -4   0    2.80    0.99
   0   4   0    3.47    1.08
   0   4   0    5.02    0.96
  -1  -4   0    2.07    1.05
   1  -4   0    1.53    0.97
   1  -4   0    2.43    0.88
  -1  -4   0    2.04    0.74
  -1   4   0    0.87    0.87
   1   4   0    1.91    0.91
   1   4   0    1.71    1.01
   1   4   0    1.90    0.90
  -1   4   0    3.40    1.05
  -2  -4   0    6.34    1.01
  -2  -4   0    7.26    1.43
   2  -4   0    4.65    1.65
   2  -4   0    7.36    1.38
   2  -4   0    5.34    1.04
  -2   4   0    5.86    1.21
  -2   4   0    5.87    1.00
   2   4   0    7.58    1.20
   2   4   0    7.62    1.13
  -3  -4   0   41.82    2.71
  -3  -4   0   43.25    2.67
   3  -4   0   39.01    2.61
   3  -4   0   41.35    2.64
  -3  -4   0   42.80    2.47
   3  -4   0   40.77    2.63
  -3   4   0   44.61    2.46
   3   4   0   41.94    2.68
   3   4   0   44.28    2.45
   3   4   0   41.28    2.65
  -3   4   0   40.78    2.70
  -4  -4   0   40.35    2.25
  -4  -4   0   42.21    2.65
  -4  -4   0   45.06    2.95
   4  -4   0   38.73    2.43
   4  -4   0   37.91    2.94
   4  -4   0   36.55    2.54
   4   4   0   43.61    2.47
  -4   4   0   34.27    2.37
   4   4   0   40.92    3.00
  -4   4   0   41.55    3.26
   4   4   0   39.17    2.43
  -5  -4   0    7.76    1.44
   5  -4   0    9.26    1.50
   5  -4   0   11.05    3.07
  -5  -4   0   16.45    3.06
  -5   4   0    8.37    1.43
  -5   4   0    9.35    2.65
   5   4   0   16.47    3.45
   5   4   0   12.23    1.96
  -6  -4   0    0.33    2.16
   6  -4   0    1.66    2.38
   6  -4   0   -0.49    1.96
   6   4   0    7.47    2.26
  -6   4   0    2.41    1.73
  -6   4   0   -0.93    2.71
   0  -5   0    0.23    1.05
   0  -5   0   -0.43    1.36
   0  -5   0   -1.30    1.04
   0   5   0   -0.40    1.46
   0   5   0    1.85    1.72
   1  -5   0    6.82    0.97
  -1  -5   0    4.71    1.09
  -1  -5   0    8.03    1.74
  -1  -5   0    7.56    1.38
   1  -5   0    7.79    1.55
   1  -5   0    5.55    1.30
   1   5   0    7.34    1.63
  -1   5   0    7.22    1.46
  -1   5   0    8.21    1.75
   1   5   0    5.00    1.65
  -2  -5   0   19.15    2.83
   2  -5   0   20.16    1.78
   2  -5   0   16.48    2.42
   2  -5   0   19.40    2.50
  -2  -5   0   16.09    1.69
  -2   5   0   18.97    2.53
  -2   5   0   22.33    2.99
   2   5   0   21.70    1.78
   2   5   0   24.87    3.03
   3  -5   0    1.03    1.72
  -3  -5   0    0.72    2.52
   3  -5   0    0.55    1.54
   3   5   0    1.98    1.87
  -3   5   0   -0.81    1.85
   3   5   0   -0.53    1.49
   3   5   0    2.03    1.47
  -4  -5   0   16.94    3.15
   4  -5   0   12.45    1.90
   4  -5   0    9.34    2.12
  -4  -5   0   17.01    3.35
   4  -5   0   12.65    2.41
   4   5   0   13.35    2.40
  -4   5   0    8.89    2.38
   4   5   0   12.99    1.86
  -4   5   0   12.02    2.88
   4   5   0   13.94    2.35
   0  -6   0    2.57    2.16
   0   6   0   -0.37    1.99
   0   6   0   -2.90    2.08
  -1  -6   0   38.02    2.92
   1  -6   0   45.24    4.43
  -1  -6   0   51.40    3.63
   1  -6   0   38.85    2.98
   1   6   0   54.75    3.84
   1   6   0   48.50    3.41
  -1   6   0   42.14    3.31
  -1   6   0   46.02    4.84
  -8   0   1    1.22    2.20
   8   0  -1    2.36    1.81
   8   0  -1    3.59    1.77
  -8   0   1    3.88    2.26
   7   0  -1   -1.22    1.73
  -7   0   1   -0.96    1.24
   7   0  -1    2.01    1.55
  -7   0   1   -0.47    1.64
   6   0  -1    0.18    1.04
  -6   0   1   -0.24    1.02
  -6   0   1   -0.90    1.10
   6   0  -1   -0.87    1.00
  -6   0   1    0.65    1.30
  -5   0   1   11.30    1.75
   5   0  -1   10.49    1.72
  -5   0   1    9.36    1.38
   5   0  -1   11.75    1.34
  -4   0   1    0.69    0.93
  -4   0   1    0.17    0.75
  -4   0   1   -0.71    0.79
   4   0  -1    0.21    0.86
   4   0  -1    0.04    0.72
   4   0  -1    0.68    0.69
   4   0  -1   -0.16    0.77
  -4   0   1   -0.30    0.70
   3   0  -1    5.30    1.03
  -3   0   1    3.51    0.73
   3   0  -1    5.12    0.70
  -3   0   1    5.73    0.87
  -3   0   1    4.34    0.84
   3   0  -1    4.60    0.81
  -3   0   1    4.53    0.80
   3   0  -1    4.84    0.70
  -3   0   1    3.99    0.70
  -3   0   1    3.80    0.73
  -2   0   1    0.53    0.46
   2   0  -1   -0.31    0.55
   2   0  -1    0.50    0.47
   2   0  -1   -0.02    0.42
   2   0  -1   -0.03    0.46
   2   0  -1   -0.35    0.46
  -2   0   1    0.02    0.45
  -2   0   1    1.03    0.59
  -2   0   1   -0.36    0.38
  -2   0   1   -0.06    0.43
  -2   0   1   -0.03    0.50
  -1   0   1  241.94   10.64
  -1   0   1  262.20   10.65
   1   0  -1  235.90   10.64
   1   0   1  707.50   29.27
  -1   0  -1  674.08   29.27
  -1   0  -1  660.66   29.22
   1   0   1  700.21   29.27
   1   0   1  666.45   29.27
  -1   0  -1  652.45   29.26
  -1   0  -1  663.38   29.26
  -1   0  -1  684.53   29.27
   1   0   1  732.51   29.23
   1   0   1  664.22   29.26
   1   0   1  674.74   29.26
   2   0   1    0.80    0.40
  -2   0  -1   -0.01    0.41
   2   0   1   -0.06    0.51
  -2   0  -1    0.02    0.91
  -2   0  -1   -0.07    0.65
   2   0   1    0.58    0.57
   2   0   1    0.39    0.57
  -2   0  -1    0.47    0.48
  -2   0  -1   -0.13    0.63
   2   0   1   -0.58    0.39
   2   0   1    0.24    0.53
   2   0   1    0.45    0.58
  -3   0  -1   74.87    3.14
  -3   0  -1   74.47    3.40
   3   0   1   71.08    3.15
  -3   0  -1   71.76    3.30
   3   0   1   61.56    3.33
   3   0   1   74.82    3.36
  -3   0  -1   67.56    3.26
   3   0   1   71.29    3.30
   3   0   1   67.27    3.29
   3   0   1   57.80    3.31
  -4   0  -1    0.73    0.76
   4   0   1    0.84    0.72
   4   0   1    0.77    0.92
   4   0   1    0.03    0.75
  -4   0  -1    1.34    0.69
  -4   0  -1    0.51    1.09
   4   0   1    0.25    0.75
  -4   0  -1   -0.07    0.58
  -5   0  -1    0.81    1.03
   5   0   1    2.84    0.90
  -5   0  -1    2.47    0.88
   5   0   1    1.45    1.15
  -5   0  -1    1.57    1.09
   5   0   1    1.58    0.88
   6   0   1    1.52    1.45
  -6   0  -1    0.08    1.19
   6   0   1    0.78    1.20
  -6   0  -1   -0.66    1.82
   6   0   1   -0.29    1.94
  -6   0  -1   -2.87    1.76
  -7   0  -1   -1.33    1.33
  -7   0  -1   -1.77    1.85
   7   0   1    4.17    1.94
   7   0   1   -0.99    2.43
  -7   0  -1    2.93    2.03
  -8   0  -1    1.05    2.17
  -8   0  -1    1.06    2.77
   8   0   1    0.03    1.99
   8   0   1   -0.88    2.66
   8  -1  -1    2.19    1.87
   8  -1  -1   -0.88    2.13
  -8  -1   1    0.18    2.11
   8   1  -1    4.99    1.98
   8   1  -1   -1.81    1.83
  -8   1   1    0.18    2.41
   7  -1  -1    2.11    1.66
  -7  -1   1    0.24    1.75
  -7  -1   1   -1.93    1.36
   7  -1  -1    0.40    1.56
   7   1  -1    0.61    1.60
   7   1  -1    2.15    1.54
  -7   1   1   -2.02    1.28
  -7   1   1   -1.12    1.76
   7   1  -1   -2.29    1.36
  -7   1   1    1.36    1.78
  -6  -1   1   75.07    3.99
  -6  -1   1   74.19    3.79
   6  -1  -1   76.36    3.78
   6  -1  -1   66.64    3.83
   6   1  -1   74.44    4.22
  -6   1   1   76.81    3.81
   6   1  -1   75.49    3.84
  -6   1   1   84.15    3.99
   6   1  -1   75.89    3.81
  -6   1   1   73.11    3.94
  -5  -1   1   47.99    2.57
   5  -1  -1   43.88    2.49
   5  -1  -1   45.58    2.47
   5  -1  -1   40.59    2.43
  -5  -1   1   43.34    2.45
  -5   1   1   43.81    2.45
   5   1  -1   43.64    2.54
   5   1  -1   43.48    2.49
   5   1  -1   43.34    2.73
  -5   1   1   41.33    2.54
  -5   1   1   48.27    2.55
  -4  -1   1    2.46    0.99
   4  -1  -1    1.11    0.56
   4  -1  -1    2.18    0.63
   4  -1  -1    2.14    0.95
  -4   1   1    0.62    0.73
   4   1  -1    1.67    0.70
   4   1  -1    1.25    0.76
  -4   1   1   -0.04    1.06
  -4   1   1    1.68    0.77
   4   1  -1    2.62    1.00
  -3  -1   1   40.79    2.25
   3  -1  -1   42.30    2.15
   3  -1  -1   44.05    2.10
   3  -1  -1   41.03    2.04
   3  -1  -1   45.32    2.30
  -3  -1   1   47.16    2.09
  -3  -1   1   45.72    2.39
   3  -1  -1   42.48    2.22
  -3   1   1   45.46    2.31
   3   1  -1   43.56    2.29
  -3   1   1   45.15    2.12
  -3   1   1   42.93    2.33
   3   1  -1   43.91    2.13
   3   1  -1   44.05    2.31
  -3   1   1   41.09    2.16
  -2  -1   1    9.17    0.93
  -2  -1   1   10.55    1.10
  -2  -1   1    9.87    0.94
   2  -1  -1    9.42    0.89
   2  -1  -1   11.34    0.92
  -2  -1   1   10.73    0.84
   2  -1  -1   10.50    0.90
   2  -1  -1    9.62    0.71
  -2  -1   1   12.17    0.93
   2  -1  -1   11.36    0.91
   2   1  -1    8.75    0.94
   2   1  -1   10.12    0.87
   2   1  -1   10.39    0.92
   2   1  -1   10.15    1.05
  -2   1   1    9.45    0.70
  -2   1   1   10.70    0.84
  -2   1   1   10.16    1.00
  -2   1   1   10.01    0.87
   2   1  -1    9.63    0.88
  -2   1   1    8.44    1.03
   1  -1  -1  128.79    5.70
  -1  -1   1  137.96    5.79
  -1  -1   1  131.86    5.68
   1  -1  -1  116.07    5.65
   1  -1  -1  125.16    5.71
   1  -1  -1  129.50    5.72
   1  -1  -1  149.15    5.80
   1  -1  -1  134.79    5.66
  -1  -1   1  132.89    5.68
  -1  -1   1  128.61    5.74
  -1  -1   1  129.09    5.70
  -1   1   1  131.23    5.78
  -1   1   1  126.30    5.71
   1   1  -1  138.49    5.81
  -1   1   1  134.10    5.66
  -1   1   1  116.51    5.66
   1   1  -1  128.06    5.70
   1   1  -1  127.34    5.67
  -1   1   1  128.49    5.70
  -1   1   1  127.26    5.71
   1   1  -1  130.15    5.72
   0  -1  -1   13.33    0.83
   0  -1   1   11.52    0.89
   0  -1  -1   13.23    0.86
   0  -1  -1   12.76    0.90
   0  -1   1   13.89    0.85
   0  -1   1   12.48    0.80
   0  -1   1   12.96    0.88
   0  -1  -1   12.53    0.92
   0  -1   1   13.82    0.83
   0  -1  -1   11.36    0.92
   0   1   1   12.90    0.90
   0   1   1   11.74    0.87
   0   1  -1   14.80    0.84
   0   1   1   13.54    0.78
   0   1   1   12.94    0.94
   0   1  -1   13.08    0.81
   0   1   1   11.95    0.87
   0   1  -1   12.22    0.78
   0   1  -1   12.28    0.89
   0   1  -1   13.29    0.90
  -1  -1  -1    0.86    0.52
   1  -1   1    1.08    0.57
   1  -1   1    1.29    0.61
  -1  -1  -1    0.63    0.62
  -1  -1  -1    1.54    0.39
   1  -1   1    0.95    0.46
   1   1   1    1.50    0.59
   1   1   1    1.21    0.51
   1   1   1    1.27    0.52
  -1   1  -1    1.41    0.50
   1   1   1    0.24    0.39
  -1   1  -1    0.71    0.72
   1   1   1    0.95    0.61
   1   1   1    1.17    0.54
  -1   1  -1    1.27    0.44
  -1   1  -1    0.94    0.46
   2  -1   1    8.13    1.01
  -2  -1  -1    8.16    0.75
   2  -1   1    6.54    0.80
  -2  -1  -1    6.69    0.95
  -2  -1  -1    7.09    0.92
  -2  -1  -1    6.79    0.91
   2  -1   1    6.48    0.90
   2  -1   1    6.87    0.94
  -2  -1  -1    6.15    1.07
  -2   1  -1    7.91    0.99
   2   1   1    7.26    0.90
   2   1   1    6.72    0.83
   2   1   1    6.91    0.94
  -2   1  -1    8.51    0.84
   2   1   1    7.94    1.10
  -2   1  -1    7.68    0.78
  -2   1  -1    6.63    0.97
  -2   1  -1    7.92    0.82
   3  -1   1   29.11    1.77
   3  -1   1   27.39    1.66
   3  -1   1   33.80    1.99
  -3  -1  -1   30.61    1.72
  -3  -1  -1   30.55    1.92
   3  -1   1   30.79    1.75
  -3  -1  -1   28.73    1.81
  -3   1  -1   32.97    1.92
  -3   1  -1   31.22    1.91
  -3   1  -1   29.77    1.75
   3   1   1   32.47    1.96
   3   1   1   29.26    1.84
   3   1   1   27.04    1.69
   4  -1   1   19.12    1.56
   4  -1   1   17.53    1.43
   4  -1   1   19.12    1.55
  -4  -1  -1   18.27    1.66
  -4  -1  -1   16.93    1.62
  -4  -1  -1   17.55    1.45
   4   1   1   16.33    1.68
  -4   1  -1   13.21    2.29
   4   1   1   20.34    1.49
  -4   1  -1   17.56    1.54
  -5  -1  -1    1.87    0.69
  -5  -1  -1    2.78    1.02
  -5  -1  -1    1.92    0.95
   5  -1   1    3.41    0.94
   5  -1   1    2.91    1.09
   5  -1   1    1.21    0.92
   5   1   1    4.13    1.01
  -5   1  -1    0.67    1.20
   5   1   1    1.57    0.98
  -5   1  -1    2.33    0.93
   6  -1   1   -0.31    1.10
  -6  -1  -1    3.54    1.48
  -6  -1  -1    1.50    1.25
  -6  -1  -1    1.11    1.12
   6  -1   1    2.04    1.13
   6  -1   1    2.08    1.25
  -6   1  -1    2.89    1.64
   6   1   1    1.40    1.22
   6   1   1    0.34    1.35
  -6   1  -1    1.28    1.24
  -7  -1  -1   -0.95    1.87
   7  -1   1    4.47    2.84
   7  -1   1    4.49    1.52
   7   1   1    1.57    1.60
  -7   1  -1   -0.49    1.98
  -7   1  -1    3.70    1.90
  -8  -1  -1    7.51    1.99
   8  -1   1    8.12    2.05
  -8  -1  -1    6.50    4.40
  -8  -1  -1    9.25    2.40
   8  -1   1   13.55    2.19
   8   1   1   11.50    3.67
   8  -2  -1    0.95    1.98
  -8  -2   1   -0.09    2.60
  -8  -2   1   -2.11    2.55
   8  -2  -1    1.69    2.48
   8   2  -1    7.25    3.17
  -8   2   1    0.59    2.38
   8   2  -1    2.97    2.44
   7  -2  -1    7.79    1.89
  -7  -2   1    6.49    3.14
  -7  -2   1    5.43    1.15
  -7  -2   1    8.88    1.85
   7  -2  -1   13.21    2.42
  -7   2   1    8.00    1.54
   7   2  -1    9.52    2.28
  -7   2   1    5.54    2.32
  -7   2   1    9.38    2.17
   7   2  -1    7.37    1.80
   6  -2  -1   -0.32    2.09
   6  -2  -1    3.63    1.29
   6  -2  -1    1.01    1.17
  -6  -2   1   -0.06    1.30
  -6   2   1    5.51    1.43
   6   2  -1    4.76    1.41
   6   2  -1    2.32    1.25
   6   2  -1    2.20    1.49
  -6   2   1    0.99    1.21
  -6   2   1    2.77    1.52
  -5  -2   1    0.90    1.00
  -5  -2   1   -0.91    0.95
  -5  -2   1    2.10    0.95
   5  -2  -1   -0.52    0.81
   5  -2  -1   -0.69    0.92
  -5   2   1   -1.32    1.02
   5   2  -1   -0.43    1.40
   5   2  -1    0.35    0.98
  -5   2   1    0.93    1.33
   5   2  -1    0.68    0.91
  -5   2   1    0.66    0.90
  -4  -2   1   -0.20    1.17
   4  -2  -1    0.26    0.63
   4  -2  -1    0.22    0.67
   4  -2  -1    0.72    0.94
   4  -2  -1    0.62    0.78
  -4  -2   1    0.43    0.73
  -4   2   1    0.04    0.80
  -4   2   1    1.48    0.94
   4   2  -1    0.53    0.84
  -4   2   1    0.72    0.75
   4   2  -1    1.10    0.78
  -3  -2   1   77.29    3.56
  -3  -2   1   79.35    3.77
   3  -2  -1   81.48    3.72
   3  -2  -1   80.00    3.67
   3  -2  -1   71.39    3.52
  -3  -2   1   78.17    3.83
   3  -2  -1   73.63    3.71
   3   2  -1   78.32    3.76
  -3   2   1   77.49    3.92
   3   2  -1   79.73    3.81
  -3   2   1   76.27    3.65
  -2  -2   1   48.32    2.31
  -2  -2   1   47.16    2.43
   2  -2  -1   47.34    2.34
   2  -2  -1   51.68    2.54
  -2  -2   1   47.98    2.52
  -2  -2   1   50.86    2.33
   2  -2  -1   45.18    2.28
   2  -2  -1   48.81    2.42
  -2   2   1   47.17    2.38
  -2   2   1   47.32    2.32
   2   2  -1   45.67    2.33
  -2   2   1   46.37    2.29
   2   2  -1   49.45    2.41
   2   2  -1   45.33    2.46
   2   2  -1   51.07    2.60
  -2   2   1   49.99    2.56
   1  -2  -1    0.82    0.43
   1  -2  -1   -0.20    0.70
   1  -2  -1    0.62    0.39
  -1  -2   1    0.90    0.53
   1  -2  -1    0.80    0.51
  -1  -2   1    1.02    0.68
   1  -2  -1    1.19    0.72
  -1  -2   1    0.14    0.63
  -1  -2   1    0.17    0.44
  -1   2   1    0.73    0.80
  -1   2   1   -0.14    0.96
   1   2  -1    0.96    0.79
   1   2  -1    0.00    0.69
  -1   2   1    0.33    0.58
  -1   2   1    0.95    0.52
   1   2  -1    0.88    0.53
   1   2  -1    1.37    0.56
  -1   2   1    0.43    0.39
   0  -2  -1    0.35    0.85
   0  -2   1   -0.06    0.43
   0  -2   1    0.26    0.59
   0  -2   1    0.15    0.66
   0  -2  -1   -0.74    0.67
   0  -2  -1    0.32    0.34
   0  -2  -1    0.04    0.57
   0  -2   1   -0.19    0.72
   0  -2   1    0.39    1.21
   0  -2  -1   -0.41    0.59
   0  -2  -1    0.33    0.56
   0   2   1    0.06    0.51
   0   2  -1    0.17    0.45
   0   2   1   -0.11    0.73
   0   2  -1   -0.09    0.71
   0   2   1   -0.15    0.34
   0   2  -1    1.05    1.01
   0   2  -1   -0.14    0.63
   0   2   1   -0.21    0.64
   0   2  -1   -0.25    0.59
   0   2   1   -0.13    0.48
   1  -2   1   18.47    1.16
   1  -2   1   17.28    1.23
  -1  -2  -1   17.44    1.40
  -1  -2  -1   19.23    1.39
  -1  -2  -1   18.47    1.01
   1  -2   1   18.93    1.29
  -1  -2  -1   18.89    1.39
  -1  -2  -1   20.35    1.16
   1   2   1   18.26    1.05
  -1   2  -1   18.13    1.43
   1   2   1   18.94    1.42
  -1   2  -1   19.12    1.17
   1   2   1   18.40    1.38
  -1   2  -1   17.89    1.28
   1   2   1   17.83    1.22
   1   2   1   20.10    1.10
  -2  -2  -1    2.87    0.66
   2  -2   1    3.86    0.65
  -2  -2  -1    3.21    0.87
   2  -2   1    2.00    0.81
   2  -2   1    2.56    0.69
   2  -2   1    2.56    0.84
  -2  -2  -1    3.41    0.60
  -2  -2  -1    2.97    0.93
  -2   2  -1    2.44    0.66
   2   2   1    1.40    0.52
  -2   2  -1    2.76    0.63
   2   2   1    2.84    1.10
   2   2   1    1.98    0.63
  -2   2  -1    2.30    0.53
   2   2   1    3.17    0.85
  -2   2  -1    3.64    1.11
  -3  -2  -1   17.99    2.18
  -3  -2  -1   17.50    1.60
   3  -2   1   15.83    1.51
   3   2   1   15.71    1.50
   3   2   1   14.92    1.44
  -3   2  -1   16.70    1.43
   3   2   1   16.80    1.44
  -3   2  -1   16.31    1.51
  -3   2  -1   16.65    1.32
  -4  -2  -1    2.55    1.01
   4  -2   1    1.99    1.32
  -4  -2  -1    1.97    1.72
  -4  -2  -1    2.00    0.92
   4  -2   1    2.40    0.82
  -4   2  -1    2.75    0.85
   4   2   1    2.41    0.87
  -4   2  -1    1.93    1.18
   4   2   1    3.31    0.88
  -4   2  -1    1.89    0.93
   5  -2   1   75.14    3.74
  -5  -2  -1   76.38    3.79
   5  -2   1   73.11    3.70
   5  -2   1   75.22    3.90
  -5  -2  -1   73.77    3.98
  -5  -2  -1   75.36    4.18
  -5   2  -1   73.97    3.78
   5   2   1   72.97    3.70
  -5   2  -1   75.55    3.74
   5   2   1   73.13    3.66
  -5   2  -1   76.75    4.24
  -6  -2  -1   31.65    2.70
   6  -2   1   35.18    2.40
   6  -2   1   34.72    2.39
   6  -2   1   32.45    2.95
  -6  -2  -1   39.83    2.83
  -6   2  -1   30.89    2.64
   6   2   1   33.60    2.30
   6   2   1   31.49    2.68
   6   2   1   36.06    2.76
  -6   2  -1   34.81    3.11
  -7  -2  -1   10.29    2.31
   7  -2   1    9.35    1.99
   7  -2   1    6.09    2.50
   7  -2   1    6.24    1.63
  -7  -2  -1    8.92    1.90
   7   2   1    6.91    2.13
  -7  -3   1    4.72    2.23
   7  -3  -1    5.51    2.05
   7  -3  -1    6.01    2.12
  -7  -3   1    1.34    2.17
  -7   3   1   -2.45    2.59
   7   3  -1    6.23    2.09
   7   3  -1    2.62    2.03
  -6  -3   1    3.34    1.02
  -6  -3   1    0.98    1.84
   6  -3  -1    2.30    2.08
  -6  -3   1    4.38    1.80
   6  -3  -1    3.34    1.67
  -6   3   1    1.26    2.05
  -6   3   1    4.03    1.40
   6   3  -1    3.91    1.53
   6   3  -1    3.92    1.78
  -6   3   1    6.17    1.47
   5  -3  -1    0.45    1.07
  -5  -3   1    1.84    1.20
   5  -3  -1   -2.12    1.09
  -5  -3   1   -0.49    1.28
   5  -3  -1    1.57    1.17
  -5   3   1   -0.60    1.38
  -5   3   1   -0.95    1.64
  -4  -3   1    0.34    1.10
  -4  -3   1   -0.95    1.12
   4  -3  -1    0.43    0.87
   4  -3  -1    2.17    1.23
  -4  -3   1    1.60    0.98
   4  -3  -1    0.31    0.91
   4   3  -1   -1.38    0.87
   4   3  -1    1.75    1.05
  -4   3   1    0.60    1.05
  -4   3   1   -1.82    1.03
  -4   3   1   -0.13    0.76
  -3  -3   1    6.13    1.20
   3  -3  -1    6.95    1.09
   3  -3  -1    6.18    1.68
  -3   3   1    4.29    0.99
  -3   3   1    4.72    0.99
   3   3  -1    4.27    0.96
   3   3  -1    5.90    1.04
  -3   3   1    3.79    0.81
  -2  -3   1    0.20    0.79
   2  -3  -1    0.02    0.70
   2  -3  -1    1.41    0.77
  -2   3   1    0.37    0.83
  -2   3   1    0.83    0.94
   2   3  -1    0.96    0.82
   2   3  -1   -1.22    0.97
   2   3  -1    0.37    0.69
  -2   3   1   -0.05    0.80
  -1  -3   1   17.93    1.42
   1  -3  -1   18.57    1.05
   1  -3  -1   18.66    1.12
   1  -3  -1   16.55    1.65
   1  -3  -1   18.74    1.42
   1   3  -1   17.79    1.28
  -1   3   1   16.24    1.40
   1   3  -1   16.70    1.41
   1   3  -1   16.89    1.65
  -1   3   1   17.72    1.39
  -1   3   1   16.80    1.57
   0  -3  -1   31.75    1.56
   0  -3   1   31.06    1.75
   0  -3   1   29.39    1.88
   0  -3  -1   31.44    1.90
   0  -3  -1   31.72    1.97
   0   3  -1   32.94    1.99
   0   3   1   32.92    2.36
   0   3  -1   32.35    1.75
  -1  -3  -1   46.07    2.48
   1  -3   1   47.55    2.41
   1  -3   1   46.31    2.56
  -1  -3  -1   47.46    2.18
  -1  -3  -1   48.05    2.43
   1  -3   1   46.09    2.38
  -1  -3  -1   46.30    2.54
  -1   3  -1   47.89    2.47
  -1   3  -1   43.35    2.53
   1   3   1   47.44    2.49
   1   3   1   45.14    2.24
  -2  -3  -1   36.42    2.46
   2  -3   1   42.43    2.38
  -2  -3  -1   43.43    2.22
   2  -3   1   43.26    2.24
   2   3   1   39.65    2.15
  -2   3  -1   40.62    2.37
   2   3   1   41.71    3.13
  -2   3  -1   40.22    2.73
   2   3   1   44.17    2.31
   3  -3   1   34.04    2.19
  -3  -3  -1   36.74    2.49
  -3  -3  -1   35.33    2.12
   3  -3   1   35.56    2.16
  -3  -3  -1   35.34    1.97
   3  -3   1   36.62    2.07
  -3   3  -1   32.59    2.10
   3   3   1   35.62    2.21
   3   3   1   34.50    2.21
  -3   3  -1   34.00    2.13
   4  -3   1   -1.17    1.15
  -4  -3  -1   -0.56    1.05
  -4  -3  -1    1.44    0.99
   4  -3   1   -1.56    0.90
  -4   3  -1    1.46    0.87
   4   3   1   -1.04    1.06
  -4   3  -1   -0.70    1.13
   4   3   1    0.28    1.07
  -4   3  -1    0.25    1.10
   4   3   1    1.64    1.05
  -5  -3  -1   -1.63    1.38
   5  -3   1   -0.80    1.13
  -5  -3  -1    0.84    1.29
   5  -3   1    1.16    1.28
  -5   3  -1    1.25    1.34
  -5   3  -1    1.88    1.56
  -6  -3  -1   -0.94    1.80
   6  -3   1   -2.00    1.40
   6  -3   1   -1.35    1.77
   6  -3   1    0.35    1.81
  -6  -3  -1   -0.98    1.76
  -6   3  -1   -2.52    1.45
   6   3   1    1.11    1.53
   6   3   1   -0.56    2.17
  -7  -3  -1   -0.52    2.30
   7  -3   1   -2.75    2.24
   7  -3   1    1.25    2.19
  -7  -3  -1   -3.04    2.12
   7   3   1    5.75    2.77
  -7   3  -1   -0.55    2.45
  -7   3  -1   -0.94    1.91
   7   3   1   -0.71    2.35
   6  -4  -1   -0.93    1.79
  -6  -4   1   -1.05    2.61
   6  -4  -1    0.65    1.95
  -6  -4   1    6.67    2.10
  -6   4   1    1.26    2.41
   6   4  -1    1.97    2.48
   6   4  -1    4.63    2.04
  -6   4   1    1.54    1.77
  -5  -4   1    5.32    1.09
   5  -4  -1    5.75    1.38
  -5   4   1    7.22    2.35
  -5   4   1    6.25    1.39
   4  -4  -1   48.76    2.99
  -4  -4   1   49.79    2.84
  -4  -4   1   47.68    3.17
   4  -4  -1   45.74    2.83
   4  -4  -1   43.42    2.59
  -4  -4   1   45.68    2.48
  -4   4   1   45.65    3.10
  -4   4   1   39.24    3.75
   4   4  -1   52.16    2.91
   4   4  -1   47.39    3.17
  -4   4   1   42.54    2.80
   3  -4  -1   11.54    1.41
   3  -4  -1   13.21    1.54
   3  -4  -1   11.56    1.58
  -3  -4   1   11.67    1.35
  -3  -4   1   10.90    1.74
  -3   4   1   12.33    1.58
   3   4  -1   12.39    2.19
  -3   4   1   10.84    1.44
   3   4  -1   10.18    1.51
   3   4  -1   13.08    1.82
  -3   4   1    8.79    1.30
   2  -4  -1    2.08    1.00
   2  -4  -1    3.23    1.04
  -2  -4   1    2.68    1.04
   2  -4  -1    2.61    0.99
  -2   4   1    2.47    0.77
   2   4  -1    1.89    1.19
   2   4  -1    0.42    0.87
   2   4  -1    1.45    1.01
  -2   4   1    2.82    1.13
   1  -4  -1   45.58    2.49
  -1  -4   1   44.46    2.45
  -1  -4   1   42.30    2.32
   1  -4  -1   41.48    2.20
   1   4  -1   42.78    2.53
   1   4  -1   39.33    2.56
  -1   4   1   42.71    2.54
  -1   4   1   42.03    2.69
   0  -4   1    0.39    0.88
   0  -4  -1    1.59    0.68
   0  -4  -1   -0.10    0.75
   0  -4   1   -0.40    1.23
   0  -4  -1    1.87    0.92
   0  -4  -1    1.41    0.65
   0   4  -1   -0.44    0.82
   0   4  -1    1.30    0.96
   0   4   1    0.54    0.85
   1  -4   1    1.81    0.81
   1  -4   1    1.71    1.20
   1  -4   1    1.20    1.10
  -1  -4  -1    0.44    0.82
  -1  -4  -1    3.18    1.32
  -1   4  -1    1.32    1.05
  -1   4  -1    2.21    0.87
   1   4   1    2.02    0.76
   1   4   1    1.77    0.99
   1   4   1    1.33    0.94
  -2  -4  -1    1.44    1.12
   2  -4   1    0.31    0.75
   2  -4   1   -0.44    0.91
  -2  -4  -1    1.01    0.78
   2   4   1   -0.16    1.02
   2   4   1    1.69    1.09
   2   4   1    1.16    1.05
  -2   4  -1    0.34    1.08
  -2   4  -1   -0.12    0.88
  -3  -4  -1   22.71    1.69
  -3  -4  -1   24.82    2.70
   3  -4   1   22.54    1.96
   3  -4   1   23.37    2.03
   3  -4   1   26.88    1.78
  -3  -4  -1   26.34    2.06
   3   4   1   25.94    1.88
   3   4   1   23.31    1.91
   3   4   1   24.01    2.19
  -3   4  -1   27.08    2.82
  -3   4  -1   25.68    1.87
   4  -4   1   49.98    3.69
   4  -4   1   58.73    3.51
  -4  -4  -1   43.66    2.78
  -4  -4  -1   53.98    3.38
   4  -4   1   51.06    2.91
  -4  -4  -1   52.11    3.30
  -4   4  -1   57.98    3.30
  -4   4  -1   55.21    3.53
   4   4   1   53.61    3.50
   4   4   1   50.22    3.71
   4   4   1   45.74    2.91
  -4   4  -1   49.81    2.79
   5  -4   1    9.69    1.72
  -5  -4  -1    8.12    2.09
   5  -4   1   10.65    2.15
   5   4   1    9.35    2.03
  -5   4  -1    7.81    1.67
  -5   4  -1   10.82    2.43
   5   4   1    9.32    1.97
   5   4   1    8.72    1.64
  -6  -4  -1    8.11    2.43
   6  -4   1    7.99    2.06
  -6  -4  -1    8.59    2.33
  -6   4  -1    4.85    2.60
  -6   4  -1    1.06    1.88
   6   4   1    4.95    2.37
   6   4   1    3.56    2.12
  -4  -5   1    9.58    2.37
   4  -5  -1    8.40    1.88
   4  -5  -1    8.92    1.87
  -4  -5   1    7.31    1.39
  -4   5   1    5.87    2.12
   4   5  -1    8.93    2.13
  -4   5   1    5.59    1.68
   4   5  -1    5.28    1.77
   4   5  -1    9.94    2.47
  -3  -5   1    1.39    1.15
  -3  -5   1    4.64    1.97
   3  -5  -1    4.25    1.60
   3  -5  -1    2.00    1.66
   3  -5  -1   -0.47    1.07
  -3   5   1    1.99    1.91
   3   5  -1    1.81    1.89
   3   5  -1    2.01    1.68
   3   5  -1    3.76    1.18
  -3   5   1    5.36    1.58
  -2  -5   1   48.86    3.01
  -2  -5   1   57.23    3.79
   2  -5  -1   53.47    3.45
   2  -5  -1   57.19    3.39
   2  -5  -1   61.55    3.99
   2   5  -1   53.83    3.21
  -2   5   1   58.48    3.68
  -2   5   1   62.46    3.47
   2   5  -1   59.67    3.92
   1  -5  -1   11.83    1.80
   1  -5  -1   12.86    1.69
  -1  -5   1   14.74    1.39
  -1  -5   1   12.95    2.33
  -1  -5   1   11.90    1.62
   1  -5  -1   18.41    2.24
  -1   5   1   14.00    2.47
   1   5  -1   17.28    2.46
   1   5  -1   13.36    2.14
   1   5  -1   15.26    1.87
   0  -5  -1    2.05    1.09
   0  -5  -1    4.29    1.23
   0  -5   1    5.19    0.94
   0  -5   1    3.02    1.17
   0  -5  -1    4.47    1.61
   0   5  -1    4.67    1.46
   0   5   1    2.98    1.79
   0   5   1    3.63    1.87
   0   5  -1    3.59    1.41
   1  -5   1    1.82    1.45
   1  -5   1   -0.62    0.84
   1  -5   1    0.61    1.63
  -1  -5  -1   -1.28    1.32
  -1  -5  -1    1.90    1.72
   1   5   1    2.90    1.62
  -1   5  -1    2.59    1.46
  -1   5  -1    2.16    1.34
   1   5   1   -1.96    1.58
   2  -5   1    3.37    1.44
  -2  -5  -1    3.46    2.67
   2  -5   1    5.29    1.61
  -2  -5  -1    3.12    1.02
  -2   5  -1    5.51    1.88
   2   5   1    5.93    2.24
   2   5   1    4.52    1.50
  -3  -5  -1    5.45    1.99
   3  -5   1   -0.60    1.63
   3  -5   1    2.45    1.58
  -3  -5  -1   -3.50    2.38
   3   5   1   -1.20    1.56
   3   5   1    1.44    1.94
  -3   5  -1    4.55    1.56
  -3   5  -1    4.98    1.94
   4  -5   1   15.60    2.35
  -4  -5  -1   21.54    2.97
   4  -5   1   20.99    3.01
  -4  -5  -1   17.83    2.88
   4   5   1   21.53    4.38
  -4   5  -1   15.49    2.84
  -4   5  -1   25.78    4.10
   4   5   1   14.38    2.39
  -1  -6   1    1.73    1.45
   1  -6  -1    1.41    1.68
  -1   6   1    0.97    2.34
   1   6  -1    0.57    2.06
   1   6  -1    0.11    2.04
  -1   6   1    3.43    2.13
   0  -6  -1    5.85    2.18
   0  -6   1    1.18    2.24
   0  -6   1    2.18    1.51
   0  -6  -1    0.06    1.51
   0   6   1    1.68    2.25
   0   6  -1    6.29    2.18
   0   6   1    3.75    2.12
   1  -6   1    4.75    1.62
  -1   6  -1    6.32    2.17
  -1   6  -1    2.92    2.03
   1   6   1    5.84    2.21
   1   6   1    4.97    2.31
  -8   0   2   26.40    2.68
   8   0  -2   27.67    2.59
   8   0  -2   34.57    2.77
   8   0  -2   34.10    2.89
  -8   0   2   27.33    3.20
   7   0  -2    1.92    1.44
  -7   0   2   -0.61    1.30
  -7   0   2    0.00    1.83
   7   0  -2    0.57    1.41
   7   0  -2   -1.90    1.21
  -6   0   2   71.81    3.88
   6   0  -2   72.97    3.74
  -6   0   2   73.77    3.84
   6   0  -2   75.04    3.70
   5   0  -2   -1.24    1.02
  -5   0   2    0.12    0.83
   5   0  -2   -0.03    0.77
  -5   0   2    1.58    1.01
   5   0  -2   -0.24    0.92
  -4   0   2   10.58    0.99
   4   0  -2    9.71    1.05
   4   0  -2    8.90    1.45
   4   0  -2    7.44    1.25
  -4   0   2    9.67    1.42
  -4   0   2    8.89    1.19
   3   0  -2   -0.43    0.63
  -3   0   2   -0.45    0.48
   3   0  -2   -0.45    0.49
   3   0  -2   -0.95    0.62
  -3   0   2   -0.25    0.73
  -3   0   2    0.32    0.51
   3   0  -2   -0.75    0.69
  -3   0   2   -0.76    0.64
  -3   0   2   -0.20    0.58
  -2   0   2    1.58    0.49
   2   0  -2    1.03    0.50
   2   0  -2    0.76    0.52
  -2   0   2    0.40    0.55
   2   0  -2    0.32    0.52
  -2   0   2    1.63    0.57
  -2   0   2    1.13    0.42
  -2   0   2    0.67    0.51
  -2   0   2    1.79    0.40
   2   0  -2    0.43    0.55
  -1   0   2   -0.81    0.44
  -1   0   2   -0.05    0.29
   1   0  -2   -0.62    0.36
   1   0  -2   -0.35    0.38
  -1   0   2    0.10    0.44
  -1   0   2   -0.35    0.32
  -1   0   2   -0.16    0.37
   1   0  -2    0.09    0.43
   1   0  -2   -0.12    0.28
   0   0  -2  219.71   10.44
   0   0   2  272.67   10.49
   0   0  -2  253.91   10.44
   0   0  -2  223.26   10.44
   0   0   2  272.79   10.47
   0   0  -2  235.08   10.43
   0   0  -2  224.35   10.45
   0   0   2  244.32   10.47
   0   0  -2  232.46   10.44
  -1   0  -2   -1.05    0.53
  -1   0  -2    0.40    0.53
   1   0   2   -0.55    0.60
   1   0   2   -0.44    0.48
   1   0   2   -0.16    0.29
   1   0   2    0.04    0.47
  -1   0  -2   -0.09    0.41
   1   0   2   -0.30    0.46
   1   0   2   -0.58    0.53
  -1   0  -2   -0.64    0.47
  -1   0  -2   -0.16    0.59
   2   0   2  476.12   21.12
  -2   0  -2  492.29   21.11
   2   0   2  507.44   21.13
  -2   0  -2  506.19   21.11
  -2   0  -2  502.33   21.11
   2   0   2  479.84   21.01
   2   0   2  440.21   21.08
   2   0   2  492.07   21.13
   2   0   2  490.25   21.10
  -2   0  -2  498.84   21.11
   3   0   2    0.25    0.59
  -3   0  -2    0.98    0.54
   3   0   2    0.70    0.81
   3   0   2   -0.63    0.75
  -3   0  -2   -0.41    0.42
  -3   0  -2   -0.71    1.29
  -3   0  -2    0.59    0.89
   4   0   2   -1.02    0.74
   4   0   2    1.49    1.39
  -4   0  -2   -0.04    1.18
  -4   0  -2    0.01    0.82
   4   0   2   -0.84    0.68
  -4   0  -2    0.29    0.53
  -4   0  -2   -0.72    0.69
   4   0   2   -1.77    1.54
   5   0   2    2.05    1.58
   5   0   2   -0.69    0.88
  -5   0  -2    0.39    0.95
   5   0   2   -0.50    0.87
  -5   0  -2   -0.36    0.97
  -5   0  -2    2.85    1.41
  -6   0  -2    1.83    1.22
  -6   0  -2    0.05    1.52
   6   0   2    0.90    1.30
  -6   0  -2   -2.41    1.40
   7   0   2    2.90    1.93
  -7   0  -2    1.25    2.56
   7   0   2   -1.28    1.61
  -8   0  -2    1.71    2.59
   8   0   2    1.03    2.06
   8   0   2   -4.12    2.53
   8  -1  -2    4.08    2.62
   8  -1  -2    1.59    1.81
  -8  -1   2    1.00    2.11
   8   1  -2    5.93    1.77
  -8   1   2   -0.60    2.20
  -8   1   2    1.95    2.27
   8   1  -2    2.20    1.89
   8   1  -2    1.53    1.71
  -7  -1   2   -1.90    1.58
  -7  -1   2    1.10    1.71
   7  -1  -2    1.13    1.55
   7  -1  -2   -0.82    1.96
   7   1  -2    1.32    1.49
   7   1  -2    1.79    1.37
   7   1  -2   -1.88    1.30
  -7   1   2    0.02    1.70
  -6  -1   2   44.10    2.56
  -6  -1   2   43.78    2.71
   6  -1  -2   40.18    2.51
   6  -1  -2   43.83    2.64
   6  -1  -2   41.86    2.58
   6   1  -2   38.66    2.52
  -6   1   2   43.44    2.71
  -6   1   2   46.18    2.46
   6   1  -2   40.15    2.51
  -6   1   2   38.78    3.83
   6   1  -2   50.20    2.87
   5  -1  -2   69.33    3.37
  -5  -1   2   67.29    3.48
   5  -1  -2   62.93    3.06
   5  -1  -2   64.74    3.28
  -5  -1   2   67.40    3.31
   5  -1  -2   59.65    3.12
   5   1  -2   66.63    3.29
   5   1  -2   67.33    3.42
  -5   1   2   67.23    3.34
   4  -1  -2    4.63    0.68
  -4  -1   2    6.49    1.14
   4  -1  -2    6.22    1.15
   4  -1  -2    4.95    1.03
   4  -1  -2    5.06    1.09
  -4  -1   2    4.95    1.03
   4   1  -2    5.32    0.90
  -4   1   2    5.66    0.94
  -4   1   2    4.83    0.86
   4   1  -2    3.76    0.85
  -4   1   2    6.76    1.15
   4   1  -2    6.88    1.37
  -3  -1   2  151.79    6.75
   3  -1  -2  160.74    6.84
  -3  -1   2  151.92    6.81
   3  -1  -2  151.37    6.79
   3  -1  -2  145.38    6.77
  -3  -1   2  167.30    6.87
  -3  -1   2  145.13    6.85
   3  -1  -2  154.87    6.82
   3   1  -2  154.63    6.76
  -3   1   2  150.27    6.83
  -3   1   2  144.67    6.77
   3   1  -2  157.19    6.86
  -3   1   2  156.76    6.81
  -2  -1   2    5.69    0.66
  -2  -1   2    5.17    0.86
   2  -1  -2    4.57    0.85
   2  -1  -2    5.13    0.84
  -2  -1   2    4.61    0.73
  -2  -1   2    4.88    0.82
   2  -1  -2    6.29    1.08
   2  -1  -2    5.49    0.76
   2  -1  -2    4.85    0.66
  -2   1   2    4.73    0.70
  -2   1   2    4.57    0.66
  -2   1   2    4.76    0.70
   2   1  -2    4.52    0.76
  -2   1   2    4.92    0.76
   2   1  -2    5.73    0.79
  -2   1   2    5.40    0.92
   2   1  -2    4.65    0.92
   2   1  -2    5.39    0.89
  -1  -1   2  785.83   34.30
   1  -1  -2  868.77   34.38
   1  -1  -2  831.26   34.28
   1  -1  -2  787.21   34.22
  -1  -1   2  801.19   34.27
  -1  -1   2  805.72   34.33
  -1  -1   2  815.93   34.29
   1  -1  -2  831.23   34.28
  -1   1   2  812.96   34.33
   1   1  -2  782.82   34.28
  -1   1   2  776.72   34.21
   1   1  -2  716.01   34.33
  -1   1   2  753.95   34.22
  -1   1   2  813.22   34.29
   1   1  -2  795.21   34.27
  -1   1   2  807.24   34.28
  -1   1   2  761.79   34.26
   0  -1   2  523.34   22.50
   0  -1   2  524.15   22.48
   0  -1   2  513.92   22.45
   0  -1  -2  527.34   22.43
   0  -1   2  501.74   22.45
   0  -1  -2  532.77   22.48
   0  -1  -2  520.11   22.46
   0  -1  -2  512.04   22.52
   0   1  -2  520.21   22.45
   0   1   2  531.61   22.48
   0   1  -2  515.86   22.46
   0   1   2  531.34   22.47
   0   1  -2  533.93   22.47
   0   1   2  485.27   22.48
   0   1  -2  554.27   22.52
   0   1   2  517.76   22.43
   1  -1   2   10.88    0.92
  -1  -1  -2   12.94    0.97
   1  -1   2   10.98    0.93
   1  -1   2   10.25    0.91
   1  -1   2   11.23    0.91
  -1  -1  -2   11.22    1.13
   1  -1   2   11.77    0.95
  -1  -1  -2    9.70    0.95
  -1  -1  -2   12.47    1.03
   1   1   2   10.28    0.92
  -1   1  -2    9.76    0.83
  -1   1  -2   10.70    0.93
  -1   1  -2   11.61    0.90
   1   1   2   13.50    1.09
   1   1   2   10.01    0.98
   1   1   2   13.49    0.77
  -1   1  -2   12.06    1.03
   1   1   2   12.29    0.95
  -2  -1  -2    3.68    0.80
  -2  -1  -2    3.56    0.78
  -2  -1  -2    2.09    0.53
   2  -1   2    2.91    0.62
   2  -1   2    3.41    0.76
  -2  -1  -2    2.60    0.67
   2  -1   2    2.59    0.63
   2  -1   2    2.69    0.55
   2   1   2    3.15    0.63
  -2   1  -2    3.67    0.87
   2   1   2    3.38    0.65
   2   1   2    3.33    0.77
  -2   1  -2    2.97    0.77
   2   1   2    2.06    0.70
  -2   1  -2    3.81    0.69
  -3  -1  -2    1.92    0.80
  -3  -1  -2    1.70    0.91
   3  -1   2    1.70    0.82
   3  -1   2    2.81    1.08
  -3   1  -2    1.55    0.78
  -3   1  -2    2.72    1.12
   3   1   2    2.63    0.87
  -4  -1  -2   -0.82    0.99
   4  -1   2    0.27    0.99
   4  -1   2   -0.17    0.82
  -4  -1  -2   -0.26    0.74
  -4   1  -2   -0.51    0.91
  -4   1  -2    0.68    1.29
   4   1   2    1.81    0.81
   4   1   2    0.02    0.81
  -5  -1  -2    7.82    1.59
   5  -1   2    5.79    1.15
  -5  -1  -2   10.84    1.80
  -5  -1  -2    6.55    1.20
   5  -1   2    6.05    1.13
   5  -1   2    8.26    1.43
   5   1   2    9.79    1.33
  -5   1  -2    7.59    1.22
   5   1   2    6.11    1.16
  -6  -1  -2    5.05    1.77
   6  -1   2    9.99    1.93
  -6  -1  -2   10.70    1.62
  -6  -1  -2    9.11    1.74
   6  -1   2   14.99    2.56
   6  -1   2    8.65    1.37
  -6   1  -2   11.90    2.10
  -6   1  -2   10.50    1.97
   6   1   2    7.69    1.45
   6   1   2    9.37    1.95
  -7  -1  -2    6.60    1.57
   7  -1   2   10.72    1.78
  -7  -1  -2   12.09    2.71
   7  -1   2   11.59    2.12
  -7  -1  -2    9.31    3.28
  -7   1  -2    7.69    3.06
   7   1   2    9.83    2.22
   8   1   2    4.60    2.44
   8  -2  -2    3.06    2.03
   8  -2  -2    2.52    3.09
  -8  -2   2    2.25    2.18
   8   2  -2    5.64    2.36
   8   2  -2    8.20    2.20
   7  -2  -2    3.04    1.68
   7  -2  -2    4.16    1.79
  -7  -2   2    3.06    1.15
  -7  -2   2   -0.73    1.73
  -7  -2   2    5.47    1.89
  -7   2   2    4.66    2.03
   7   2  -2    5.68    2.14
  -7   2   2    3.01    1.44
   7   2  -2    6.46    1.66
   7   2  -2    3.88    1.83
   6  -2  -2    1.11    1.84
  -6  -2   2    3.50    0.92
   6  -2  -2    0.49    1.17
  -6  -2   2    3.41    1.38
   6  -2  -2   -1.17    1.11
  -6  -2   2    3.67    1.32
  -6   2   2    1.38    1.19
   6   2  -2    4.02    1.22
  -6   2   2    4.36    1.55
  -6   2   2    0.36    1.38
   6   2  -2    1.39    1.22
   5  -2  -2    0.95    1.27
  -5  -2   2    0.84    0.97
   5  -2  -2   -0.21    0.80
  -5  -2   2    1.34    1.37
   5  -2  -2   -0.59    0.90
  -5  -2   2    1.04    0.96
   5  -2  -2    0.21    0.81
   5  -2  -2    1.12    0.69
  -5   2   2   -0.03    1.06
   5   2  -2   -0.23    0.86
   5   2  -2   -0.70    1.15
  -5   2   2    0.43    0.86
  -5   2   2    2.55    1.29
   5   2  -2    1.47    0.99
  -4  -2   2   26.22    1.86
   4  -2  -2   21.80    1.34
  -4  -2   2   24.52    1.73
   4  -2  -2   22.48    1.98
   4  -2  -2   27.43    1.89
   4  -2  -2   25.17    1.84
  -4  -2   2   24.42    1.62
   4  -2  -2   22.45    1.69
  -4   2   2   26.50    1.64
  -4   2   2   25.35    1.73
   4   2  -2   27.26    1.64
   4   2  -2   22.48    2.07
   4   2  -2   24.17    1.86
   3  -2  -2    2.17    0.95
  -3  -2   2    1.28    0.77
   3  -2  -2    2.16    0.46
   3  -2  -2    1.42    0.80
   3  -2  -2    0.75    0.62
  -3  -2   2    1.01    0.66
  -3  -2   2    2.10    0.89
  -3   2   2    1.65    0.54
  -3   2   2    1.33    1.01
   3   2  -2    1.64    0.98
  -2  -2   2   41.93    2.12
   2  -2  -2   41.60    2.26
   2  -2  -2   43.66    2.28
   2  -2  -2   42.12    2.09
  -2  -2   2   42.34    2.29
   2  -2  -2   40.14    2.02
  -2   2   2   42.03    2.03
   2   2  -2   42.27    2.19
  -2   2   2   42.85    2.24
  -2   2   2   45.90    2.35
   2   2  -2   43.44    2.56
  -2   2   2   42.23    2.34
  -1  -2   2    3.29    0.65
   1  -2  -2    2.75    0.47
   1  -2  -2    3.44    0.53
  -1  -2   2    2.91    0.67
  -1  -2   2    3.15    0.65
  -1  -2   2    3.88    0.77
   1  -2  -2    3.99    0.77
   1  -2  -2    3.10    0.58
   1  -2  -2    3.30    0.82
  -1   2   2    2.28    0.68
  -1   2   2    2.07    0.61
   1   2  -2    2.92    0.60
  -1   2   2    2.69    0.40
   1   2  -2    2.29    0.76
   1   2  -2    3.49    0.69
  -1   2   2    3.04    0.87
   0  -2   2   89.20    3.94
   0  -2   2   81.66    3.91
   0  -2  -2   83.96    3.95
   0  -2  -2   89.02    4.02
   0  -2   2   80.69    4.10
   0  -2   2   87.94    3.93
   0   2  -2   86.55    3.90
   0   2   2   83.46    3.85
   0   2   2   83.87    3.95
   0   2   2   86.46    3.98
   0   2  -2   88.81    3.91
   0   2  -2   84.73    3.93
   0   2  -2   86.56    3.99
  -1  -2  -2   30.90    1.88
  -1  -2  -2   36.76    2.05
  -1  -2  -2   40.01    2.17
   1  -2   2   36.18    1.90
   1  -2   2   30.38    1.81
  -1  -2  -2   35.01    2.02
   1  -2   2   36.13    1.96
   1   2   2   37.19    2.07
  -1   2  -2   35.56    2.01
  -1   2  -2   36.07    1.76
   1   2   2   32.56    1.66
   1   2   2   36.38    1.99
   1   2   2   36.46    1.71
  -1   2  -2   35.51    1.95
  -2  -2  -2    0.64    0.91
  -2  -2  -2    1.03    0.52
   2  -2   2    1.99    1.02
   2  -2   2    1.21    0.80
  -2   2  -2    0.65    0.73
   2   2   2    0.22    0.55
   3  -2   2    0.93    0.72
  -3  -2  -2   -0.90    0.75
   3  -2   2   -0.27    0.85
  -3  -2  -2    0.13    1.03
   3   2   2   -0.08    0.74
  -3   2  -2    0.00    0.81
  -3   2  -2   -0.22    0.97
  -3   2  -2    0.58    0.88
   3   2   2    1.15    0.86
  -4  -2  -2    4.52    0.93
   4  -2   2    3.59    1.02
  -4  -2  -2    3.60    1.01
  -4  -2  -2    6.81    1.30
  -4   2  -2    3.11    1.08
  -4   2  -2    5.64    1.01
   4   2   2    5.46    1.06
   4   2   2    4.66    0.94
  -4   2  -2    4.23    0.93
   4   2   2    3.60    0.90
   5  -2   2   63.64    3.38
  -5  -2  -2   69.09    3.44
   5  -2   2   69.87    3.37
  -5  -2  -2   68.71    3.57
   5  -2   2   65.43    3.48
  -5   2  -2   61.52    3.38
   5   2   2   62.49    3.51
  -5   2  -2   63.82    3.51
   5   2   2   65.36    3.35
   5   2   2   61.69    3.35
   6  -2   2   23.91    2.19
  -6  -2  -2   20.76    2.11
   6  -2   2   25.59    2.31
   6  -2   2   21.64    2.52
  -6  -2  -2   22.36    2.49
  -6  -2  -2   24.31    2.61
   6   2   2   27.68    2.69
   6   2   2   23.47    2.49
   6   2   2   19.87    2.13
  -6   2  -2   24.44    2.27
  -7  -2  -2   -0.20    4.01
   7  -2   2    3.55    1.79
  -7  -2  -2    0.05    2.04
   7  -2   2    3.06    1.93
   7  -2   2   -0.97    2.39
  -7   2  -2    2.39    2.83
   7   2   2    2.41    2.03
   7   2   2   -1.34    2.92
  -7  -3   2   11.29    2.36
  -7   3   2   10.48    2.07
  -7   3   2   10.01    3.55
   6  -3  -2    5.16    1.62
   6  -3  -2    2.76    1.61
  -6  -3   2    4.61    1.06
   6  -3  -2    2.29    1.36
  -6  -3   2    4.19    1.59
  -6  -3   2    1.27    1.86
  -6   3   2    1.68    2.05
  -6   3   2    3.44    1.93
  -6   3   2    4.61    1.37
   6   3  -2    4.34    1.56
   6   3  -2    3.80    1.72
   5  -3  -2    1.51    1.50
  -5  -3   2    3.14    0.94
  -5  -3   2    2.56    1.32
   5  -3  -2    0.33    1.09
   5  -3  -2    2.70    1.43
  -5  -3   2    4.51    1.35
  -5   3   2    1.22    1.19
  -5   3   2    1.59    1.06
  -5   3   2    2.29    1.73
   5   3  -2    1.56    1.12
  -4  -3   2    3.45    1.12
   4  -3  -2    2.03    0.85
   4  -3  -2    4.04    0.94
  -4  -3   2    2.69    0.78
  -4  -3   2    3.23    1.03
   4  -3  -2    3.84    1.12
   4   3  -2    0.94    0.92
  -4   3   2    2.40    0.83
  -4   3   2    2.67    0.94
   4   3  -2    4.86    1.07
  -4   3   2    4.25    1.14
   3  -3  -2    0.83    0.93
   3  -3  -2    0.88    0.90
  -3  -3   2    1.46    0.71
   3  -3  -2    0.30    0.74
  -3  -3   2    0.81    0.87
  -3   3   2   -0.30    0.74
  -3   3   2    1.39    1.72
  -3   3   2    0.60    0.82
   3   3  -2    1.79    0.78
   3   3  -2    1.40    0.76
   2  -3  -2    1.17    0.56
   2  -3  -2    1.27    0.87
   2  -3  -2    1.32    0.83
  -2  -3   2    0.57    1.09
  -2  -3   2   -0.33    0.75
   2  -3  -2    0.83    0.62
   2   3  -2    1.07    1.00
  -2   3   2    2.55    0.82
  -2   3   2    0.76    1.07
  -2   3   2    1.96    0.83
   1  -3  -2    6.45    0.72
   1  -3  -2    7.40    1.21
  -1  -3   2    7.85    1.05
  -1  -3   2    7.47    1.19
   1  -3  -2    7.10    1.20
   1  -3  -2    7.56    0.65
  -1   3   2    6.94    1.15
   1   3  -2    8.83    1.18
  -1   3   2    6.24    1.25
  -1   3   2    6.93    1.35
   1   3  -2    5.92    1.04
   1   3  -2    5.90    1.09
   0  -3  -2   10.54    1.54
   0  -3  -2    9.82    1.38
   0  -3   2    8.48    1.06
   0  -3   2    9.29    1.21
   0  -3   2   13.82    2.05
   0  -3  -2    8.38    1.24
   0   3  -2    9.66    1.16
   0   3  -2   12.16    1.12
   0   3   2   10.74    1.19
   1  -3   2   48.62    2.75
  -1  -3  -2   48.51    2.48
   1  -3   2   46.45    2.58
  -1  -3  -2   49.05    2.57
  -1  -3  -2   48.58    2.24
   1  -3   2   47.12    2.46
  -1   3  -2   48.11    2.55
  -1   3  -2   49.83    2.54
   1   3   2   44.55    2.51
   1   3   2   47.13    2.55
   1   3   2   51.03    2.50
   2  -3   2   48.14    2.54
  -2  -3  -2   49.01    2.55
  -2  -3  -2   48.14    2.60
   2  -3   2   48.43    2.46
  -2  -3  -2   42.11    2.33
  -2  -3  -2   45.77    2.37
   2  -3   2   47.30    2.47
  -2   3  -2   48.00    2.48
   2   3   2   47.69    2.64
   2   3   2   49.42    2.53
  -2   3  -2   48.72    2.59
   2   3   2   44.52    2.36
  -3  -3  -2   10.11    1.35
  -3  -3  -2   10.21    1.48
   3  -3   2    9.77    1.20
   3  -3   2   10.99    1.72
  -3   3  -2   10.16    1.58
   3   3   2   10.71    1.40
  -3   3  -2    8.60    1.33
   3   3   2    7.83    1.85
   3   3   2    8.56    1.41
   4  -3   2   11.31    1.63
   4  -3   2   11.59    1.56
  -4  -3  -2   16.20    1.70
  -4  -3  -2   12.75    1.65
  -4   3  -2   13.60    1.75
   4   3   2   12.04    1.57
  -4   3  -2   14.50    1.83
  -4   3  -2   12.10    1.45
   4   3   2   16.81    1.79
   4   3   2   14.03    1.86
   5  -3   2    3.78    1.40
   5  -3   2   -0.48    1.29
  -5  -3  -2    2.39    1.47
  -5  -3  -2    1.17    1.40
   5   3   2    0.54    1.32
  -5   3  -2    0.51    1.67
   5   3   2    2.97    1.25
  -5   3  -2   -1.84    1.20
   5   3   2    0.46    1.49
   6  -3   2   -0.99    1.85
  -6  -3  -2   -1.95    2.47
   6  -3   2    1.50    2.90
   6  -3   2    0.27    1.67
   6   3   2   -0.58    2.09
  -6   3  -2    0.90    1.76
  -6   3  -2   -0.52    2.54
   6   3   2    4.70    1.72
  -6   3  -2    0.43    1.57
   7  -3   2    2.63    2.37
   7   3   2    1.64    2.22
  -6  -4   2    0.84    2.18
  -6  -4   2    1.30    1.72
  -6  -4   2    3.54    3.26
   6  -4  -2    5.23    1.87
   6   4  -2    3.69    2.04
  -5  -4   2    2.41    1.08
  -5  -4   2    5.58    1.53
   5  -4  -2    3.86    1.47
   5  -4  -2    2.76    1.28
  -5   4   2    2.58    1.33
   5   4  -2    8.48    2.75
  -4  -4   2    4.77    1.63
   4  -4  -2    6.23    1.47
   4  -4  -2    4.54    1.14
  -4  -4   2    6.48    1.01
   4  -4  -2    7.22    1.81
  -4   4   2    5.46    1.06
  -4   4   2    6.43    1.78
  -4   4   2    6.81    1.50
   4   4  -2    7.60    1.67
   3  -4  -2   -0.38    1.04
   3  -4  -2   -0.29    1.09
  -3  -4   2   -0.64    0.93
  -3  -4   2    0.23    1.18
   3   4  -2   -0.06    0.97
  -3   4   2   -0.03    1.03
  -3   4   2    0.77    0.87
   3   4  -2    0.59    1.21
  -2  -4   2    4.62    0.89
   2  -4  -2    2.89    0.87
   2  -4  -2    3.70    1.09
   2  -4  -2    4.51    1.09
  -2  -4   2    3.59    1.14
  -2   4   2    4.80    1.22
   2   4  -2    3.16    1.08
  -2   4   2    3.83    1.45
   2   4  -2    4.26    1.07
  -2   4   2    4.41    0.84
   2   4  -2    5.56    0.93
   1  -4  -2   14.48    1.63
  -1  -4   2   18.57    1.47
   1  -4  -2   18.91    1.12
   1  -4  -2   15.07    1.50
  -1  -4   2   16.28    1.58
  -1   4   2   16.46    1.69
  -1   4   2   15.71    2.31
   1   4  -2   20.55    2.43
  -1   4   2   20.04    1.47
   1   4  -2   18.68    1.41
   0  -4  -2    1.88    0.80
   0  -4   2    2.88    0.76
   0  -4  -2    3.36    0.98
   0  -4   2    3.76    0.81
   0  -4   2    2.84    0.98
   0   4  -2    3.53    0.95
   0   4   2    4.09    0.98
   0   4   2    3.37    0.83
   0   4  -2    3.43    0.82
   0   4   2    3.67    1.04
   0   4  -2    3.95    1.01
  -1  -4  -2    1.04    0.79
  -1  -4  -2   -0.20    0.99
  -1  -4  -2    1.95    1.03
  -1  -4  -2    0.50    0.65
   1  -4   2   -0.91    0.76
   1  -4   2    2.39    0.93
   1  -4   2    0.20    0.81
   1   4   2    0.22    1.01
  -1   4  -2    0.49    1.25
  -1   4  -2    1.12    0.89
   1   4   2   -0.14    0.90
  -2  -4  -2    2.04    1.26
  -2  -4  -2    0.27    0.81
   2  -4   2    0.47    1.07
  -2  -4  -2    1.56    1.12
   2  -4   2    0.66    0.91
   2  -4   2   -0.47    0.76
   2   4   2    1.40    0.93
   2   4   2   -0.61    1.10
  -2   4  -2    1.78    0.96
  -2   4  -2   -0.63    1.10
  -3  -4  -2    0.66    1.31
   3  -4   2    0.78    0.95
   3  -4   2    0.71    1.17
  -3  -4  -2    2.84    1.21
   3  -4   2    2.22    1.37
   3   4   2    1.37    1.23
  -3   4  -2    0.58    1.05
  -3   4  -2    0.00    1.40
   3   4   2   -0.63    1.78
   3   4   2    0.82    1.28
  -4  -4  -2   25.10    2.57
   4  -4   2   21.38    2.44
  -4  -4  -2   21.15    2.30
   4  -4   2   16.29    2.06
   4   4   2   21.56    1.96
   4   4   2   17.86    2.15
   4   4   2   21.86    2.85
  -4   4  -2   26.25    2.24
  -4   4  -2   20.25    2.76
   5  -4   2    3.39    1.65
  -5  -4  -2    2.37    1.90
   5  -4   2    3.41    1.83
  -5  -4  -2   -3.20    2.03
   5   4   2    2.31    1.92
  -5   4  -2   -0.96    1.75
   5   4   2    2.94    1.50
  -5   4  -2   -1.98    2.18
   5   4   2   -0.63    1.73
   6  -4   2    6.71    2.30
   6   4   2    5.65    2.28
  -4  -5   2   47.88    3.76
   4  -5  -2   47.57    3.43
   4  -5  -2   49.47    3.32
  -4  -5   2   46.22    2.88
   4   5  -2   51.13    3.93
  -4   5   2   48.65    3.03
   4   5  -2   46.80    3.31
  -4   5   2   49.56    4.02
  -3  -5   2   18.51    2.99
   3  -5  -2   17.94    2.34
   3  -5  -2   16.69    2.69
  -3  -5   2   11.39    1.79
   3   5  -2   13.69    1.90
   3   5  -2   13.18    2.80
   3   5  -2   16.85    1.88
  -3   5   2   15.45    1.88
  -3   5   2   19.47    2.58
  -3   5   2   19.67    2.06
   2  -5  -2   56.26    3.23
  -2  -5   2   58.62    3.50
  -2  -5   2   49.61    3.00
   2   5  -2   48.79    3.86
  -2   5   2   55.59    3.69
   2   5  -2   47.71    3.71
  -2   5   2   55.46    3.55
   2   5  -2   64.40    4.59
   1  -5  -2   27.49    2.56
   1  -5  -2   27.92    2.20
  -1  -5   2   34.23    2.56
  -1  -5   2   32.93    1.94
  -1  -5   2   28.73    2.15
  -1   5   2   36.48    4.10
   1   5  -2   24.54    2.50
   1   5  -2   33.76    2.88
  -1   5   2   33.05    2.78
   1   5  -2   27.36    2.12
   0  -5  -2    1.27    1.06
   0  -5   2    0.70    1.18
   0  -5  -2    2.00    1.65
   0  -5   2    1.40    1.33
   0  -5   2    1.59    0.92
   0   5  -2   -0.06    1.79
   0   5   2    0.06    1.69
   0   5  -2    2.80    1.39
   0   5   2    1.45    1.42
   1  -5   2   12.07    2.39
   1  -5   2    9.87    1.45
  -1  -5  -2   11.37    1.28
  -1  -5  -2   13.99    2.50
   1  -5   2    9.39    1.67
  -1  -5  -2   11.32    2.05
  -1   5  -2   11.02    1.96
  -1   5  -2   11.00    2.08
   2  -5   2    5.11    1.42
   2  -5   2    3.59    1.10
  -2  -5  -2    2.43    1.05
   2   5   2    3.76    1.63
  -2   5  -2    7.94    2.19
   2   5   2    3.68    2.43
  -2   5  -2    6.43    1.64
   3  -5   2   -1.27    1.28
  -3  -5  -2   -0.94    1.05
  -3  -5  -2    1.41    2.04
  -3  -5  -2    0.33    1.74
   3  -5   2    2.21    1.63
   3  -5   2    4.30    1.60
  -3   5  -2    0.73    1.65
   3   5   2    0.41    1.76
  -3   5  -2   -1.16    2.01
   3   5   2    1.63    1.95
   4  -5   2    3.41    1.83
   4  -5   2    6.56    1.83
  -4  -5  -2    7.74    2.22
  -4  -5  -2   10.76    2.39
   4   5   2    6.23    2.09
   4   5   2    8.37    2.08
  -4   5  -2   -0.61    3.53
  -4   5  -2    2.42    2.19
   1  -6  -2    1.56    1.62
  -1  -6   2   -2.50    1.60
  -1   6   2   -0.42    3.04
  -1   6   2    0.46    2.19
   1   6  -2    5.09    2.21
   0  -6  -2   -0.68    1.60
   0  -6   2   -1.07    1.47
   0   6  -2    0.00    1.85
   0   6   2    2.32    2.22
   0   6   2    2.02    2.44
   0   6  -2    0.03    1.98
   8   0  -3    4.71    1.77
   8   0  -3    2.45    1.81
  -8   0   3    0.90    2.23
  -8   0   3    1.53    1.74
   7   0  -3   56.71    3.14
  -7   0   3   45.90    3.57
  -7   0   3   52.37    3.07
   7   0  -3   52.10    3.23
   7   0  -3   54.32    3.03
  -6   0   3    3.88    1.14
   6   0  -3    2.70    1.03
   6   0  -3    2.14    1.04
   6   0  -3    0.84    1.29
  -6   0   3    3.42    1.02
  -5   0   3   72.65    3.89
   5   0  -3   70.58    3.38
  -5   0   3   69.95    3.40
   5   0  -3   66.08    3.38
   5   0  -3   69.93    3.33
  -5   0   3   63.78    3.83
   4   0  -3   -0.11    0.83
   4   0  -3    0.34    0.59
  -4   0   3   -0.40    0.89
  -4   0   3   -1.14    0.98
   4   0  -3    1.10    1.14
  -3   0   3    1.83    0.75
   3   0  -3    0.88    0.74
  -3   0   3    0.86    0.63
   3   0  -3    0.80    0.45
  -3   0   3    0.63    0.71
   3   0  -3    0.31    0.66
   2   0  -3   -0.46    0.60
   2   0  -3   -0.26    0.37
   2   0  -3   -0.43    0.52
  -2   0   3   -0.56    0.60
  -2   0   3   -0.35    0.45
   2   0  -3   -1.02    0.54
  -2   0   3   -0.43    0.41
   2   0  -3    0.76    0.77
  -2   0   3   -0.15    0.56
  -2   0   3    0.02    0.56
  -1   0   3  150.96    6.29
   1   0  -3  161.11    6.34
  -1   0   3  131.90    6.35
  -1   0   3  138.35    6.26
  -1   0   3  141.92    6.23
   1   0  -3  142.79    6.36
  -1   0   3  138.86    6.26
  -1   0   3  141.96    6.26
   1   0  -3  135.60    6.26
   1   0  -3  145.05    6.26
   1   0  -3  143.21    6.23
  -1   0   3  148.16    6.26
   0   0  -3    0.18    0.43
   0   0   3   -0.81    0.42
   0   0   3   -0.02    0.49
   0   0  -3    0.00    0.37
   0   0   3    0.42    0.43
   0   0  -3   -0.74    0.45
   0   0   3    0.24    0.34
   0   0  -3   -0.88    0.54
   0   0  -3   -0.04    0.42
   0   0  -3    0.01    0.40
   0   0   3   -0.12    0.42
   0   0   3   -0.04    0.37
   1   0   3   19.87    1.25
   1   0   3   18.90    1.05
   1   0   3   20.70    1.29
   1   0   3   20.80    1.38
  -1   0  -3   21.30    1.34
   1   0   3   21.75    1.25
  -1   0  -3   22.56    1.35
  -1   0  -3   20.35    1.19
  -1   0  -3   20.02    1.05
   1   0   3   22.32    1.24
  -1   0  -3   21.15    1.31
   2   0   3    0.81    0.70
   2   0   3   -0.50    0.89
  -2   0  -3   -0.28    0.81
   2   0   3    0.11    0.65
  -2   0  -3    0.12    0.70
  -3   0  -3  196.06    8.79
  -4   0  -3    0.72    0.59
   4   0   3   -0.12    0.71
  -4   0  -3    0.47    0.76
   4   0   3   -0.82    1.10
  -4   0  -3    0.90    0.97
   4   0   3    1.05    0.93
  -5   0  -3    0.15    1.10
   5   0   3    1.42    1.04
   5   0   3    0.40    1.01
  -5   0  -3   -0.10    0.98
   5   0   3    0.49    1.00
   6   0   3    3.31    1.62
  -6   0  -3    1.01    1.53
  -6   0  -3    2.69    1.32
   6   0   3   -0.52    1.39
  -7   0  -3    1.22    2.21
   7   0   3   -0.71    1.92
  -7   0  -3    3.09    2.45
   7   0   3    2.17    1.92
   8  -1  -3    3.07    3.77
   8  -1  -3    4.51    2.24
  -8  -1   3    4.98    2.26
  -8   1   3   -1.47    2.23
   8   1  -3    3.97    2.04
  -8   1   3   -3.24    2.02
   8   1  -3    4.87    1.94
  -8   1   3   -2.28    1.76
   8   1  -3    1.66    1.91
  -7  -1   3   -1.30    1.56
  -7  -1   3   -0.21    1.47
   7  -1  -3    1.26    1.45
   7   1  -3    0.35    1.24
  -7   1   3   -1.76    1.35
   7   1  -3    1.17    1.25
   7   1  -3    1.53    1.63
  -7   1   3   -1.63    1.63
   6  -1  -3   -0.17    0.93
   6  -1  -3    0.59    1.05
  -6  -1   3    1.84    1.12
  -6  -1   3   -0.48    1.16
   6  -1  -3    2.53    1.49
  -6   1   3    0.21    1.14
   6   1  -3    0.70    1.06
   6   1  -3    0.61    1.26
   6   1  -3    0.09    1.02
  -5  -1   3   15.65    1.53
   5  -1  -3   11.26    1.40
   5   1  -3   14.94    1.66
  -5   1   3   12.85    1.41
   5   1  -3   12.53    1.34
   4  -1  -3    5.56    1.09
   4  -1  -3    3.64    0.83
  -4  -1   3    3.89    0.89
  -4  -1   3    6.05    1.30
  -4   1   3    4.33    1.03
   4   1  -3    4.96    0.98
   4   1  -3    3.81    0.97
   4   1  -3    3.81    0.97
  -4   1   3    4.96    0.83
  -4   1   3    5.70    1.05
  -3  -1   3   88.49    4.02
   3  -1  -3   86.31    3.99
   3  -1  -3   84.46    3.90
  -3  -1   3   89.17    4.00
  -3  -1   3   82.03    4.00
   3  -1  -3   87.20    3.99
  -3   1   3   86.00    3.93
   3   1  -3   81.20    3.93
   3   1  -3   81.96    4.04
  -3   1   3   84.45    4.01
   3   1  -3   86.99    3.92
  -2  -1   3   20.80    1.23
  -2  -1   3   19.56    1.21
   2  -1  -3   16.94    1.51
  -2  -1   3   21.01    1.35
  -2  -1   3   16.82    1.20
  -2  -1   3   19.47    1.30
   2  -1  -3   18.84    1.38
   2  -1  -3   19.39    1.27
   2  -1  -3   20.97    1.24
  -2   1   3   16.36    1.11
  -2   1   3   20.15    1.26
   2   1  -3   18.95    1.11
   2   1  -3   19.82    1.20
   2   1  -3   21.32    1.50
  -2   1   3   17.75    1.31
  -2   1   3   18.53    1.36
   2   1  -3   18.34    1.30
  -2   1   3   16.26    1.23
   2   1  -3   17.84    1.21
   1  -1  -3  288.24   12.05
   1  -1  -3  261.36   11.93
  -1  -1   3  279.68   12.02
  -1  -1   3  283.28   12.02
   1  -1  -3  270.61   12.03
  -1  -1   3  276.31   12.03
  -1  -1   3  276.21   12.04
  -1  -1   3  267.00   12.02
   1  -1  -3  286.78   11.96
   1  -1  -3  276.84   12.06
   1  -1  -3  289.65   12.01
   1   1  -3  267.85   12.03
   1   1  -3  284.13   12.05
  -1   1   3  281.71   12.04
  -1   1   3  252.58   11.93
   1   1  -3  281.02   12.02
  -1   1   3  275.79   12.03
  -1   1   3  275.81   12.03
  -1   1   3  284.83   12.04
  -1   1   3  282.99   12.00
  -1   1   3  277.72   11.95
   1   1  -3  271.86   12.01
   0  -1  -3 1000.00   42.01
   0  -1   3  991.29   42.01
   0  -1  -3  997.40   42.02
   0  -1   3  972.25   41.98
   0  -1   3  982.91   41.95
   0  -1  -3  988.44   41.94
   0  -1   3  962.30   42.01
   0  -1  -3  963.87   41.99
   0  -1  -3  977.76   41.98
   0  -1   3  984.34   41.97
   0   1   3  997.85   42.00
   0   1   3  933.48   41.98
   0   1   3  983.55   42.00
   0   1  -3  996.21   41.98
   0   1  -3  949.72   42.00
   0   1   3  934.89   41.93
   0   1   3  974.28   42.00
   0   1  -3  981.59   42.02
  -1  -1  -3    2.18    0.79
   1  -1   3    2.19    0.65
  -1  -1  -3    1.10    0.65
   1  -1   3    1.95    0.54
   1  -1   3    1.75    0.60
  -1  -1  -3    1.31    0.60
   1  -1   3    1.84    0.59
   1  -1   3    2.01    0.68
  -1  -1  -3    0.52    0.69
  -1  -1  -3    1.67    0.41
   1   1   3    1.45    0.67
  -1   1  -3    1.99    0.61
   1   1   3    1.85    0.68
   1   1   3    2.29    0.64
   1   1   3    0.80    0.56
  -1   1  -3    1.22    0.72
   1   1   3    2.27    0.48
   1   1   3    1.89    0.74
  -1   1  -3    2.05    0.57
  -1   1  -3    1.41    0.49
  -2  -1  -3   10.00    1.28
   2  -1   3   11.11    1.00
  -2  -1  -3   11.12    0.95
  -2  -1  -3    9.41    1.05
  -2  -1  -3   11.80    1.21
   2  -1   3   11.01    1.21
   2  -1   3   10.71    1.00
  -2   1  -3   10.12    1.16
   2   1   3   12.25    1.01
  -2   1  -3   10.45    1.31
  -2   1  -3   12.12    0.94
   2   1   3    9.92    1.05
  -2   1  -3   11.39    1.10
   2   1   3   12.71    1.27
   3  -1   3    3.04    0.90
  -3  -1  -3    2.53    0.88
  -3  -1  -3    2.42    0.79
   3  -1   3    2.39    0.82
   3   1   3    3.60    0.94
  -3   1  -3    1.77    0.97
   3   1   3    2.20    1.03
  -3   1  -3    2.53    1.03
  -4  -1  -3    8.73    1.63
   4  -1   3    7.74    1.32
   4  -1   3    6.95    1.15
   4  -1   3   11.14    1.52
  -4  -1  -3    6.12    1.22
  -4  -1  -3   11.22    1.34
   4   1   3    6.78    1.35
  -4   1  -3    9.01    1.27
  -4   1  -3    8.70    1.29
  -4   1  -3   10.77    1.35
   5  -1   3    1.83    1.03
  -5  -1  -3    0.13    1.15
  -5  -1  -3   -0.70    1.02
   5  -1   3    0.86    1.09
  -5  -1  -3    0.42    1.30
   5  -1   3    2.78    1.03
  -5   1  -3    1.79    1.06
  -5   1  -3    0.32    1.14
   5   1   3   -0.48    1.61
   5   1   3    1.79    1.04
   6  -1   3   13.07    1.87
  -6  -1  -3   14.45    2.35
  -6  -1  -3   16.48    2.28
  -6  -1  -3   14.46    1.70
   6  -1   3   16.67    2.30
  -6   1  -3   17.65    3.09
  -6   1  -3   13.73    2.06
   6   1   3   17.18    2.03
   6   1   3   17.00    2.23
   7  -1   3    2.10    1.93
   7  -1   3    2.29    1.84
   7  -1   3    4.02    1.84
  -7  -1  -3    1.60    2.48
  -7  -1  -3   -1.41    1.98
   7   1   3   -0.87    2.01
   7   1   3   -0.75    1.95
   8  -2  -3    8.34    2.34
  -8  -2   3   -0.51    2.27
   8  -2  -3    4.08    1.94
  -8  -2   3    3.87    2.11
  -8  -2   3    4.15    2.18
   8   2  -3    4.51    2.16
   8   2  -3    6.85    2.17
  -8   2   3    3.00    2.93
  -8   2   3   -0.65    2.07
  -8   2   3    0.89    2.37
  -7  -2   3    3.87    1.87
   7  -2  -3    5.37    1.77
  -7  -2   3    1.95    1.14
   7  -2  -3    4.13    1.67
  -7  -2   3    0.80    1.85
  -7   2   3    4.07    2.09
  -7   2   3    4.35    1.58
  -7   2   3    5.42    2.30
   7   2  -3    3.87    1.56
   7   2  -3    3.02    1.38
  -6  -2   3    0.59    0.88
   6  -2  -3    0.40    1.15
  -6  -2   3    0.88    1.24
   6  -2  -3   -0.63    1.20
  -6  -2   3   -0.68    1.26
  -6   2   3    1.36    1.16
  -6   2   3   -2.25    1.19
   6   2  -3    1.18    1.10
   6   2  -3    2.70    1.20
   6   2  -3    2.71    1.19
  -6   2   3   -0.84    1.48
   5  -2  -3   -0.14    0.88
  -5  -2   3    1.63    0.99
   5  -2  -3    0.48    0.83
   5  -2  -3    1.84    1.00
  -5  -2   3    1.20    0.96
  -5  -2   3    0.21    0.75
   5   2  -3    1.45    0.92
  -5   2   3   -0.09    0.95
   5   2  -3   -1.72    0.93
  -5   2   3    0.17    0.88
  -5   2   3    0.17    1.04
   5   2  -3    1.99    0.97
   4  -2  -3   31.09    2.01
  -4  -2   3   31.71    1.92
   4  -2  -3   30.37    1.83
   4  -2  -3   29.54    2.16
  -4  -2   3   32.42    1.92
  -4  -2   3   34.09    2.46
   4   2  -3   31.55    1.99
  -4   2   3   29.04    1.97
   4   2  -3   33.34    1.94
  -4   2   3   28.92    2.31
   4   2  -3   30.27    2.19
   3  -2  -3   63.43    2.98
  -3  -2   3   62.81    3.03
   3  -2  -3   57.12    3.45
  -3  -2   3   60.84    3.06
   3  -2  -3   57.95    2.97
  -3   2   3   60.07    3.09
  -3   2   3   61.53    3.12
   3   2  -3   61.94    3.15
   3   2  -3   65.51    3.09
   2  -2  -3    6.32    1.01
   2  -2  -3    5.86    0.92
  -2  -2   3    6.06    1.12
   2  -2  -3    5.55    1.04
  -2  -2   3    5.50    0.88
   2  -2  -3    7.09    0.69
  -2   2   3    4.58    0.71
   2   2  -3    6.98    1.01
   2   2  -3    5.19    0.80
  -2   2   3    8.35    1.42
  -2   2   3    5.95    0.97
  -2   2   3    5.70    0.89
  -1  -2   3    5.90    0.98
   1  -2  -3    4.87    0.77
   1  -2  -3    4.79    0.76
   1  -2  -3    3.58    0.86
  -1  -2   3    4.27    1.09
  -1  -2   3    5.08    0.77
   1  -2  -3    4.51    0.83
   1   2  -3    5.03    0.75
   1   2  -3    5.35    0.90
   1   2  -3    6.01    0.78
  -1   2   3    3.66    1.54
  -1   2   3    3.69    0.80
  -1   2   3    4.28    0.82
   0  -2   3   39.57    2.06
   0  -2   3   38.77    2.10
   0  -2   3   38.45    2.08
   0  -2  -3   37.90    2.15
   0  -2  -3   40.57    2.24
   0  -2  -3   39.63    1.97
   0  -2  -3   38.79    2.13
   0  -2   3   39.58    2.03
   0   2   3   38.98    2.19
   0   2   3   41.06    2.03
   0   2  -3   40.16    2.05
   0   2   3   40.77    2.12
   0   2  -3   40.52    1.98
   0   2  -3   38.30    2.19
   0   2  -3   40.44    2.28
   1  -2   3   78.92    3.74
  -1  -2  -3   87.46    3.96
  -1  -2  -3   79.84    3.50
   1  -2   3   79.54    3.72
  -1  -2  -3   78.48    3.57
  -1  -2  -3   75.65    3.80
   1   2   3   78.61    3.79
   1   2   3   79.01    3.78
  -1   2  -3   85.99    3.63
  -1   2  -3   79.71    3.76
   1   2   3   73.54    3.51
   1   2   3   78.70    3.54
  -1   2  -3   73.31    3.73
  -2  -2  -3    4.42    1.02
   2  -2   3    2.33    1.01
  -2  -2  -3    4.07    0.62
   2  -2   3    5.86    0.96
  -2   2  -3    5.46    1.12
   2   2   3    4.46    0.68
   2   2   3    5.59    1.38
  -3  -2  -3    2.94    1.39
  -3  -2  -3    1.54    1.07
  -3  -2  -3    1.48    0.86
   3  -2   3    2.10    0.83
   3   2   3    2.11    0.95
  -3   2  -3    2.93    0.84
  -3   2  -3    2.05    1.02
   3   2   3    3.08    0.94
  -3   2  -3    1.51    0.82
  -4  -2  -3    8.06    1.29
   4  -2   3    8.57    1.36
   4  -2   3    9.34    1.46
  -4  -2  -3    9.08    1.43
  -4  -2  -3    5.11    1.06
   4   2   3    8.17    1.36
   4   2   3    7.67    1.21
  -4   2  -3    8.75    1.52
  -4   2  -3    7.37    1.19
  -4   2  -3    6.76    1.25
   5  -2   3   22.82    2.05
   5  -2   3   21.68    1.83
  -5  -2  -3   19.45    2.00
   5  -2   3   20.15    2.69
  -5  -2  -3   22.65    2.07
  -5  -2  -3   23.45    2.35
  -5   2  -3   17.00    1.86
  -5   2  -3   18.33    2.17
   5   2   3   23.04    2.10
   5   2   3   23.83    2.40
   5   2   3   21.33    1.97
  -5   2  -3   24.47    2.23
   6  -2   3   16.39    2.14
  -6  -2  -3    9.77    1.96
  -6  -2  -3   11.69    2.17
   6  -2   3   11.01    1.68
   6  -2   3   10.55    1.97
   6   2   3   14.12    2.14
   6   2   3   13.93    2.52
  -6   2  -3   10.72    1.70
  -6   2  -3   10.95    2.25
   6   2   3   12.64    2.02
   7  -2   3   -0.51    1.98
  -7  -2  -3    7.60    2.04
  -7  -2  -3    1.22    1.78
  -7  -2  -3    3.04    2.60
   7  -2   3   -1.64    1.94
   7   2   3    0.86    2.29
   7   2   3    8.05    2.34
   7   2   3    4.10    2.07
  -7   2  -3    2.86    1.98
   7  -3  -3    4.35    2.63
  -7  -3   3    5.80    1.42
  -7  -3   3    4.01    2.20
  -7   3   3    4.42    2.31
  -7   3   3    3.99    2.01
   6  -3  -3    9.51    1.49
   6  -3  -3    8.90    1.85
  -6  -3   3   10.36    1.75
  -6  -3   3    8.32    1.23
  -6  -3   3   10.55    2.08
   6  -3  -3    8.97    1.92
   6   3  -3    8.70    1.87
  -6   3   3   12.13    1.79
   6   3  -3   12.76    1.85
  -6   3   3    8.55    1.63
  -6   3   3    8.22    1.97
   5  -3  -3    6.31    1.30
  -5  -3   3   10.30    1.74
   5  -3  -3    5.59    1.08
  -5  -3   3    7.25    1.50
   5  -3  -3    8.25    1.26
   5   3  -3    9.55    2.14
  -5   3   3    4.89    1.14
  -5   3   3    7.80    1.47
   5   3  -3    7.30    1.25
   4  -3  -3    1.38    0.68
   4  -3  -3    0.48    0.78
   4  -3  -3   -0.18    1.78
  -4  -3   3    1.75    1.03
  -4  -3   3    1.66    0.83
   4  -3  -3   -0.50    1.00
   4   3  -3    1.16    0.99
   4   3  -3    1.03    0.87
  -4   3   3    0.90    1.12
  -4   3   3    0.20    1.27
  -4   3   3    1.50    0.81
   3  -3  -3    2.51    0.69
   3  -3  -3    4.18    0.94
   3  -3  -3    2.61    0.72
   3  -3  -3    4.67    1.03
  -3  -3   3    4.16    0.90
  -3  -3   3    3.97    0.79
   3   3  -3    4.82    0.93
  -3   3   3    4.36    0.84
  -3   3   3    6.36    1.22
  -3   3   3    3.59    0.88
   3   3  -3    4.47    0.87
   2  -3  -3    1.76    0.52
  -2  -3   3    1.00    0.78
   2  -3  -3    2.88    0.89
  -2  -3   3    3.40    1.14
  -2   3   3    2.80    0.54
   2   3  -3    2.64    0.86
  -2   3   3    1.71    0.71
  -2   3   3    1.21    1.03
   2   3  -3    1.48    0.73
  -2   3   3    1.83    0.82
   1  -3  -3    4.55    1.46
  -1  -3   3    5.70    1.06
   1  -3  -3    4.50    0.95
  -1  -3   3    3.88    0.76
   1  -3  -3    3.97    0.91
   1   3  -3    4.61    1.09
   1   3  -3    4.64    0.84
  -1   3   3    4.35    0.96
  -1   3   3    4.24    0.96
  -1   3   3    3.10    1.12
   0  -3  -3   13.62    1.57
   0  -3   3   11.58    1.12
   0  -3  -3   11.89    1.32
   0  -3   3   12.63    1.70
   0  -3   3   12.45    1.42
   0  -3  -3   12.38    1.42
   0   3   3   11.13    1.38
   0   3  -3   12.17    1.19
   0   3  -3    9.97    1.62
  -1  -3  -3    8.52    1.52
   1  -3   3    8.80    1.33
  -1  -3  -3    7.96    1.04
   1  -3   3    8.24    1.24
  -1  -3  -3    8.08    1.21
   1  -3   3    9.17    1.03
  -1   3  -3    8.90    1.14
   1   3   3    9.27    1.24
  -1   3  -3    7.01    1.18
   1   3   3    6.84    1.25
   2  -3   3   10.32    1.24
  -2  -3  -3   10.24    1.12
  -2  -3  -3    8.88    1.00
  -2  -3  -3   11.72    1.64
   2  -3   3    9.62    1.31
  -2  -3  -3    9.58    1.30
   2  -3   3   10.46    1.16
   2   3   3   10.60    1.13
  -2   3  -3   10.20    1.49
  -2   3  -3   10.13    1.31
   2   3   3   10.71    1.07
  -2   3  -3    9.20    1.35
   2   3   3   11.74    1.30
   2   3   3   13.87    1.56
  -3  -3  -3  135.96    6.40
   3  -3   3  138.31    6.32
  -3  -3  -3  138.64    6.31
   3  -3   3  139.92    6.32
  -3   3  -3  131.22    6.41
   3   3   3  131.97    6.58
   3   3   3  140.90    6.52
  -3   3  -3  141.20    6.32
   3   3   3  136.23    6.29
  -3   3  -3  138.76    6.32
  -4  -3  -3  105.84    5.35
   4  -3   3  116.83    5.37
  -4  -3  -3  106.66    5.44
   4  -3   3  108.09    5.37
  -4   3  -3  110.27    5.43
   4   3   3  107.62    5.27
   4   3   3  104.02    5.47
  -4   3  -3  120.00    5.31
  -4   3  -3  112.62    5.30
   4   3   3  120.64    5.52
   5  -3   3   18.23    2.14
   5  -3   3   11.14    2.19
  -5  -3  -3   18.42    2.05
   5  -3   3   15.17    2.07
  -5  -3  -3   17.51    2.37
   5   3   3   11.28    2.38
   5   3   3   17.32    1.99
  -5   3  -3   13.89    2.73
  -5   3  -3   13.86    1.84
   5   3   3   20.36    1.93
  -5   3  -3   10.87    2.06
   6  -3   3    0.41    1.94
  -6  -3  -3    4.93    2.05
  -6  -3  -3    0.53    1.88
   6  -3   3    0.02    1.83
   6  -3   3    0.53    1.78
  -6   3  -3    5.67    2.39
  -6   3  -3    0.48    1.76
   6   3   3   -0.11    2.04
  -6   3  -3    1.43    1.57
   6   3   3   -0.14    1.88
   6  -4  -3    3.18    1.96
  -6  -4   3    0.07    2.10
  -6  -4   3    2.06    1.65
   6  -4  -3    0.32    1.88
  -6  -4   3    1.98    1.91
   6  -4  -3   -0.32    1.60
  -6   4   3   -0.97    2.26
   6   4  -3    1.45    1.99
   5  -4  -3   11.39    2.26
   5  -4  -3    9.54    2.92
  -5  -4   3   12.20    1.64
  -5  -4   3    5.40    2.71
  -5   4   3    9.18    1.50
   5   4  -3   10.64    2.06
  -5   4   3    7.16    2.94
  -4  -4   3   -0.50    1.70
   4  -4  -3    0.61    1.20
   4  -4  -3    1.28    1.61
  -4   4   3    0.09    1.06
  -4   4   3    1.70    1.60
   4   4  -3    1.28    1.21
   4   4  -3    1.68    1.50
  -4   4   3    1.32    1.84
   3  -4  -3   20.03    2.06
   3  -4  -3   15.29    1.70
   3  -4  -3   10.95    1.65
  -3  -4   3   16.51    2.02
  -3  -4   3   15.10    1.46
  -3   4   3   14.11    1.96
   3   4  -3   15.08    1.68
   3   4  -3   15.15    1.68
  -3   4   3   15.26    1.52
   3   4  -3   14.46    2.09
  -3   4   3   14.42    1.86
   2  -4  -3   88.02    4.36
  -2  -4   3   86.11    4.23
  -2  -4   3   80.92    4.37
   2  -4  -3  104.03    4.95
   2   4  -3   90.42    4.21
   2   4  -3   90.06    4.45
  -2   4   3   81.13    4.50
  -2   4   3   88.60    4.21
   2   4  -3   91.21    4.23
  -2   4   3   84.88    4.25
   1  -4  -3    9.96    1.56
  -1  -4   3   11.91    1.75
  -1  -4   3    9.93    1.40
   1  -4  -3   10.18    1.24
  -1   4   3   11.51    1.54
   1   4  -3   11.96    1.62
   1   4  -3    9.84    1.19
  -1   4   3    8.33    1.53
  -1   4   3   11.15    1.53
   1   4  -3   11.76    1.54
   0  -4  -3    0.94    1.27
   0  -4   3    1.01    0.79
   0  -4  -3   -0.05    1.11
   0  -4  -3    2.03    0.89
   0  -4   3   -0.33    0.76
   0  -4   3    1.34    0.89
   0   4  -3    0.74    0.73
   0   4  -3    1.14    0.95
   0   4   3    1.74    0.94
   0   4   3    1.81    1.31
   0   4  -3    1.27    0.95
   1  -4   3    0.43    0.82
  -1  -4  -3    0.67    1.02
  -1  -4  -3    0.27    1.09
  -1  -4  -3    1.01    0.81
   1  -4   3    1.67    0.80
  -1   4  -3   -0.38    1.02
  -1   4  -3   -1.13    0.90
   1   4   3   -0.61    1.55
   1   4   3    0.63    1.02
  -2  -4  -3    2.59    2.02
   2  -4   3    1.94    0.96
   2  -4   3    1.03    0.85
   2  -4   3    4.67    1.26
  -2  -4  -3    3.10    1.16
  -2  -4  -3    3.71    1.33
   2   4   3    2.74    0.91
  -2   4  -3    3.63    1.75
   2   4   3    3.29    1.59
   2   4   3    3.47    1.23
  -2   4  -3    1.25    1.25
  -3  -4  -3    2.89    1.49
  -3  -4  -3    2.37    1.31
   3  -4   3    2.53    1.05
  -3  -4  -3    0.87    1.09
   3  -4   3    3.20    1.26
  -3   4  -3    1.63    1.20
  -3   4  -3    2.15    1.79
   3   4   3    2.32    1.43
  -3   4  -3    2.29    1.47
  -4  -4  -3    1.21    2.08
  -4  -4  -3    0.37    1.55
   4  -4   3   -0.08    1.70
   4  -4   3    1.05    1.35
  -4   4  -3   -0.28    1.48
  -4   4  -3   -3.70    1.96
   4   4   3    1.04    1.56
  -5  -4  -3    7.56    2.20
   5  -4   3    1.39    1.83
  -5   4  -3    3.72    1.92
   5   4   3    0.54    2.20
  -5   4  -3    2.71    2.35
   5   4   3    1.64    1.85
  -4  -5   3   33.85    3.27
   4  -5  -3   39.24    3.01
  -4  -5   3   41.87    3.37
   4  -5  -3   41.33    3.90
   4   5  -3   40.15    3.15
  -4   5   3   38.92    3.52
  -4   5   3   40.74    3.37
   4   5  -3   42.34    3.40
  -3  -5   3    7.58    1.40
  -3  -5   3    5.18    2.12
   3  -5  -3   10.38    2.39
  -3   5   3    8.00    1.94
  -3   5   3    8.30    1.43
  -3   5   3    5.55    2.12
   3   5  -3    5.16    1.37
   3   5  -3    6.76    1.60
   3   5  -3    9.20    1.99
   2  -5  -3    5.20    2.58
  -2  -5   3   -1.57    1.65
  -2  -5   3   -0.53    1.19
   2  -5  -3    1.77    1.37
  -2   5   3    1.80    1.10
   2   5  -3   -0.06    1.11
  -2   5   3    1.46    1.33
  -1  -5   3   14.99    1.52
   1  -5  -3   11.52    1.70
  -1  -5   3   16.19    2.09
  -1  -5   3   13.02    1.79
   1  -5  -3   16.97    2.54
  -1   5   3   18.28    2.79
  -1   5   3   14.14    3.49
  -1   5   3   13.40    1.91
   1   5  -3   13.34    2.54
   1   5  -3   11.43    1.82
   1   5  -3   10.78    1.60
   0  -5   3    3.57    1.42
   0  -5   3    1.87    1.00
   0  -5  -3    3.61    2.73
   0  -5  -3    4.40    1.78
   0  -5   3    3.61    1.44
   0   5   3    1.74    1.90
   0   5   3    4.17    1.52
   0   5  -3    4.75    1.36
   0   5   3   -0.11    1.68
   0   5  -3    3.52    1.50
   1  -5   3    7.02    1.42
  -1  -5  -3    9.40    1.53
   1  -5   3    8.73    1.60
  -1  -5  -3   11.50    2.82
  -1  -5  -3    7.08    1.20
  -1   5  -3    7.70    1.77
   1   5   3    8.04    1.85
   1   5   3   10.38    1.87
  -1   5  -3    8.02    1.94
  -2  -5  -3    1.37    2.05
  -2  -5  -3   -1.18    1.06
   2  -5   3    4.46    1.44
   2  -5   3   -0.46    1.30
  -2  -5  -3   -0.32    1.59
   2  -5   3    0.59    1.44
  -2   5  -3    1.75    1.74
   2   5   3   -1.22    1.74
  -3  -5  -3    6.08    2.64
  -3  -5  -3    8.78    2.20
   3  -5   3    2.80    1.45
   3  -5   3    5.13    1.72
   3   5   3    5.53    2.07
  -3   5  -3    5.90    2.03
  -3   5  -3    4.78    1.99
   3   5   3    5.86    2.10
  -4  -5  -3   -0.42    2.46
   4  -5   3   -1.55    1.80
   4   5   3   -0.58    2.08
  -4   5  -3    1.74    2.31
  -8   0   4    2.24    2.29
  -8   0   4   -1.20    1.82
   8   0  -4    5.48    1.95
   8   0  -4    4.83    1.89
  -7   0   4    1.09    1.34
   7   0  -4    2.62    1.47
  -7   0   4   -3.45    2.04
   6   0  -4  326.78   14.18
   6   0  -4  319.15   14.08
   6   0  -4  317.21   14.24
  -6   0   4  325.09   14.24
  -6   0   4  321.08   14.29
   5   0  -4    0.37    0.77
  -5   0   4   -1.04    1.53
  -5   0   4    1.23    1.05
  -5   0   4    1.02    0.84
   5   0  -4    0.48    0.71
   5   0  -4    0.57    0.82
  -4   0   4   23.93    1.77
   4   0  -4   22.20    1.67
  -4   0   4   24.80    1.79
   4   0  -4   25.16    1.68
  -4   0   4   23.24    1.33
  -3   0   4    0.77    0.71
   3   0  -4   -0.74    0.70
   3   0  -4   -0.40    0.75
  -3   0   4    0.14    0.82
   3   0  -4    0.04    0.43
  -3   0   4   -0.05    0.79
  -2   0   4   55.91    2.60
  -2   0   4   52.12    2.64
   2   0  -4   52.80    2.61
  -2   0   4   54.05    2.64
   2   0  -4   55.96    2.63
   2   0  -4   56.92    2.61
  -2   0   4   54.03    2.47
   2   0  -4   55.76    2.48
  -2   0   4   51.85    2.55
   2   0  -4   56.18    2.57
  -2   0   4   51.88    2.58
   1   0  -4   -0.02    0.60
  -1   0   4   -0.12    0.55
   1   0  -4   -0.19    0.62
  -1   0   4    0.28    0.42
   1   0  -4    0.09    0.43
   1   0  -4   -0.14    0.45
   1   0  -4    0.17    0.54
  -1   0   4    0.24    0.42
   1   0  -4   -0.12    0.55
  -1   0   4    0.95    0.56
  -1   0   4    0.18    0.47
  -1   0   4   -0.33    0.48
  -1   0   4   -0.19    0.41
   0   0  -4   16.82    1.07
   0   0   4   12.18    1.13
   0   0  -4   15.17    1.10
   0   0   4   14.86    1.05
   0   0   4   15.28    0.94
   0   0   4   14.63    0.96
   0   0   4   15.93    1.02
   0   0   4   15.27    1.02
   0   0   4   16.09    1.00
   0   0  -4   17.05    1.01
   0   0  -4   15.55    1.01
   0   0  -4   15.89    0.98
  -1   0  -4   -0.18    0.61
   1   0   4   -0.56    0.68
  -1   0  -4    0.40    0.65
   1   0   4    0.39    0.73
  -1   0  -4    0.20    0.44
  -1   0  -4   -0.30    0.78
   1   0   4   -0.62    0.49
   1   0   4   -0.92    0.56
   1   0   4    0.42    0.38
  -1   0  -4    0.64    0.49
   1   0   4    0.42    0.55
   1   0   4   -0.35    0.68
   1   0   4   -0.47    0.37
   2   0   4   26.24    1.69
  -2   0  -4   27.07    2.40
  -2   0  -4   30.87    2.50
  -2   0  -4   25.19    1.73
   2   0   4   27.11    1.84
  -3   0  -4   -0.77    1.07
  -3   0  -4    1.16    1.00
   3   0   4   -1.20    0.74
   3   0   4   -0.80    0.82
  -4   0  -4    8.07    1.89
  -4   0  -4    4.47    0.90
   4   0   4    6.63    1.17
   4   0   4    4.72    0.95
   5   0   4    0.94    1.11
  -5   0  -4    0.40    1.35
  -5   0  -4    0.00    1.23
   5   0   4   -0.74    1.07
  -6   0  -4   21.34    2.35
   6   0   4   20.18    2.35
   6   0   4   18.94    2.41
  -7   0  -4    3.74    2.10
  -7   0  -4    4.73    3.93
   7   0   4   -2.55    1.97
   7   0   4   -1.28    2.13
  -8  -1   4    5.71    2.32
   8  -1  -4   12.77    3.22
   8  -1  -4    8.28    2.01
   8   1  -4    9.74    1.93
   8   1  -4    8.38    1.68
  -8   1   4    9.63    1.85
  -7  -1   4    1.57    1.49
  -7  -1   4   -2.81    1.61
   7  -1  -4   -0.92    1.50
   7  -1  -4    1.85    1.42
  -7   1   4   -2.15    1.34
   7   1  -4    2.47    1.21
  -7   1   4    0.33    1.76
  -7   1   4    2.37    1.64
   7   1  -4    1.88    1.51
   7   1  -4   -0.42    1.39
   6  -1  -4    1.86    1.10
   6  -1  -4    2.55    1.08
  -6  -1   4    2.00    1.24
   6   1  -4    3.43    1.11
  -6   1   4   -0.68    1.37
  -6   1   4    1.61    1.09
  -6   1   4    0.70    1.16
   6   1  -4    2.27    1.00
  -5  -1   4    3.26    0.85
   5  -1  -4    2.66    0.83
  -5  -1   4    3.31    0.94
   5  -1  -4    1.82    0.86
  -5   1   4    3.05    0.87
   5   1  -4    2.42    0.86
  -5   1   4    0.75    0.86
  -5   1   4    4.39    1.73
   5   1  -4    1.99    0.89
   4  -1  -4   11.86    1.20
   4  -1  -4    9.88    1.33
  -4  -1   4   13.51    1.25
   4   1  -4   13.63    1.20
  -4   1   4   14.98    1.46
   4   1  -4   11.20    1.29
   4   1  -4   11.31    1.37
  -4   1   4   13.29    1.21
   3  -1  -4   68.41    3.35
  -3  -1   4   74.88    3.41
   3  -1  -4   69.68    3.33
  -3  -1   4   75.91    3.40
   3  -1  -4   71.06    3.46
   3   1  -4   68.03    3.36
  -3   1   4   66.97    3.98
  -3   1   4   72.60    3.37
   3   1  -4   71.49    3.39
  -2  -1   4    5.89    1.03
   2  -1  -4    5.61    0.70
  -2  -1   4    5.39    0.85
  -2  -1   4    5.54    0.91
   2  -1  -4    6.47    1.01
   2  -1  -4    5.06    0.94
   2  -1  -4    6.22    0.88
   2   1  -4    5.27    0.86
   2   1  -4    6.01    0.80
  -2   1   4    5.04    0.62
   2   1  -4    6.07    0.92
  -2   1   4    6.34    1.05
   1  -1  -4   69.66    3.29
  -1  -1   4   71.05    3.43
   1  -1  -4   75.44    3.43
  -1  -1   4   74.98    3.44
   1  -1  -4   73.95    3.49
  -1  -1   4   76.59    3.43
  -1  -1   4   70.58    3.42
  -1  -1   4   75.90    3.43
   1  -1  -4   79.11    3.40
   1  -1  -4   77.25    3.48
   1  -1  -4   75.97    3.33
   1   1  -4   74.48    3.44
  -1   1   4   75.14    3.45
  -1   1   4   73.32    3.48
   1   1  -4   74.72    3.39
  -1   1   4   67.10    3.28
  -1   1   4   71.46    3.33
   1   1  -4   75.02    3.43
  -1   1   4   78.46    3.36
  -1   1   4   76.60    3.48
  -1   1   4   75.27    3.37
   1   1  -4   73.63    3.43
  -1   1   4   73.92    3.47
   0  -1   4  284.29   12.50
   0  -1   4  281.47   12.55
   0  -1  -4  297.77   12.55
   0  -1  -4  305.70   12.47
   0  -1  -4  291.58   12.54
   0  -1   4  279.61   12.54
   0  -1   4  275.39   12.54
   0  -1   4  298.17   12.47
   0  -1   4  295.18   12.50
   0   1   4  298.41   12.55
   0   1   4  294.70   12.55
   0   1  -4  284.18   12.55
   0   1   4  287.43   12.45
   0   1   4  294.27   12.53
   0   1  -4  291.22   12.54
   0   1   4  277.05   12.43
   0   1   4  273.66   12.53
   0   1  -4  304.57   12.56
   0   1   4  283.85   12.54
   0   1  -4  296.61   12.47
   0   1   4  254.25   12.51
   0   1  -4  287.40   12.50
  -1  -1  -4    0.16    0.85
   1  -1   4    0.52    0.51
  -1  -1  -4    0.12    0.66
  -1  -1  -4   -0.31    0.75
   1  -1   4    0.42    0.69
  -1  -1  -4    0.35    0.42
   1   1   4   -0.24    0.82
   1   1   4    0.07    0.62
   1   1   4    0.92    0.75
  -1   1  -4    0.46    0.81
  -1   1  -4    0.00    0.54
  -1   1  -4    0.57    0.62
   2  -1   4   44.19    2.16
  -2  -1  -4   40.77    2.18
   2  -1   4   41.83    2.19
  -2  -1  -4   40.80    3.13
  -2  -1  -4   39.39    2.20
   2   1   4   39.46    2.21
  -2   1  -4   47.05    2.90
   2   1   4   44.32    2.18
  -2   1  -4   43.45    2.21
  -2   1  -4   39.93    2.22
  -2   1  -4   40.89    3.15
  -3  -1  -4    3.71    0.91
   3  -1   4    3.91    0.89
  -3  -1  -4    2.78    0.91
  -3  -1  -4    2.46    0.81
   3  -1   4    2.68    0.86
   3  -1   4    3.14    0.86
  -3   1  -4    3.08    0.80
   3   1   4    3.29    0.87
  -3   1  -4    3.00    1.30
  -3   1  -4    1.73    0.87
  -4  -1  -4   -0.12    0.96
  -4  -1  -4    0.72    1.11
   4  -1   4    0.78    1.23
   4  -1   4    0.89    0.84
  -4  -1  -4    1.99    0.83
   4  -1   4   -0.34    0.87
  -4   1  -4   -1.33    1.35
  -4   1  -4    1.08    0.92
  -4   1  -4    1.10    0.85
   4   1   4   -0.45    0.82
   4   1   4    1.67    1.07
   5  -1   4    0.06    1.09
   5  -1   4   -0.64    1.12
   5  -1   4   -1.15    1.29
  -5  -1  -4   -0.04    1.16
  -5  -1  -4   -1.92    1.25
  -5   1  -4    0.35    1.06
   5   1   4    0.40    1.10
   5   1   4    1.15    1.15
  -5   1  -4    0.46    1.31
   6  -1   4    5.19    1.62
  -6  -1  -4    7.47    1.57
  -6  -1  -4    8.22    1.78
  -6  -1  -4    6.93    1.89
   6  -1   4    9.74    1.82
   6  -1   4    6.15    1.91
   6   1   4    6.26    1.61
  -6   1  -4    4.98    1.90
   6   1   4    6.24    1.74
  -6   1  -4    9.35    1.91
   7  -1   4   -3.80    2.12
   7  -1   4    2.68    2.16
  -7  -1  -4    3.70    2.82
  -7  -1  -4    0.00    1.86
  -7   1  -4   -0.48    2.49
  -7   1  -4    1.49    1.90
   7   1   4    2.23    1.93
   7   1   4    0.15    2.28
   8  -2  -4    1.40    1.95
   8  -2  -4    4.08    2.21
  -8  -2   4    2.95    2.38
  -8  -2   4    0.03    2.20
  -8   2   4    4.40    2.57
  -8   2   4   -1.99    2.39
   8   2  -4    1.23    1.97
   8   2  -4    7.84    2.10
   8   2  -4    4.49    2.25
  -8   2   4    7.39    3.80
   7  -2  -4    0.73    1.52
  -7  -2   4    1.13    1.14
  -7  -2   4    2.84    1.84
   7  -2  -4    0.16    1.94
   7   2  -4    0.48    1.42
  -7   2   4    0.49    3.38
  -7   2   4   -1.74    1.51
   7   2  -4   -1.51    1.55
  -6  -2   4    5.05    1.01
  -6  -2   4    5.49    1.34
   6  -2  -4    6.21    1.27
   6  -2  -4    7.80    1.43
  -6  -2   4    3.21    1.56
  -6   2   4    5.21    1.23
   6   2  -4    7.20    1.36
   6   2  -4    9.91    1.91
   6   2  -4    3.55    1.36
  -6   2   4    4.43    1.31
  -6   2   4    7.54    1.50
   5  -2  -4   -0.17    1.06
  -5  -2   4    1.14    0.83
  -5  -2   4    0.38    0.96
   5  -2  -4    1.93    0.97
   5  -2  -4    1.97    1.38
  -5  -2   4    1.55    1.14
   5   2  -4    0.54    0.97
   5   2  -4   -1.05    1.05
  -5   2   4    0.78    0.96
  -5   2   4    0.18    1.04
  -5   2   4    2.27    0.88
   5   2  -4    0.33    0.93
  -4  -2   4    3.71    0.88
  -4  -2   4    5.09    0.80
   4  -2  -4    6.00    1.21
   4  -2  -4    3.37    0.75
   4   2  -4    5.67    0.95
  -4   2   4    5.01    1.07
  -4   2   4    4.02    0.79
   4   2  -4    5.43    0.92
   3  -2  -4   62.03    2.94
  -3  -2   4   61.91    3.07
   3  -2  -4   61.41    2.99
   3  -2  -4   62.22    3.34
  -3  -2   4   61.74    2.99
   3   2  -4   63.85    3.03
   3   2  -4   59.67    3.22
  -3   2   4   61.65    3.01
  -3   2   4   55.67    3.11
  -3   2   4   62.55    3.22
   2  -2  -4    9.77    0.75
   2  -2  -4   10.07    0.73
  -2   2   4    9.38    0.78
  -2   2   4    9.12    0.81
   1  -2  -4  112.74    5.36
   1  -2  -4  122.83    5.30
  -1  -2   4  114.84    5.13
  -1  -2   4  116.04    5.25
   1  -2  -4  114.18    5.38
  -1  -2   4  116.02    5.24
  -1   2   4  116.21    5.37
  -1   2   4  118.80    5.16
  -1   2   4  114.21    5.27
   1   2  -4  116.78    5.37
   1   2  -4  115.33    5.24
   1   2  -4  102.70    5.16
   0  -2   4   10.89    1.27
   0  -2  -4   10.87    0.96
   0  -2   4   14.50    1.09
   0  -2  -4   11.48    2.15
   0  -2  -4   10.95    1.39
   0  -2   4   11.50    1.20
   0   2   4   12.02    1.83
   0   2  -4   12.47    0.95
   0   2  -4   11.50    1.15
   0   2   4   13.46    1.17
   0   2  -4   11.69    1.64
   0   2   4   11.04    0.96
   0   2  -4   13.16    1.18
  -1   2  -4   39.87    2.41
   1   2   4   36.76    2.33
  -1   2  -4   38.04    2.54
   1   2   4   34.20    2.57
  -2  -2  -4    8.25    0.87
   2  -2   4    7.96    1.07
  -2  -2  -4    7.35    1.17
   2  -2   4   10.04    1.61
  -2   2  -4    8.80    1.12
   2   2   4    8.93    1.19
  -2   2  -4    7.13    1.19
   2   2   4    8.34    1.23
   2   2   4    8.91    1.00
   3  -2   4   21.96    1.55
  -3  -2  -4   18.22    1.84
   3  -2   4   16.98    1.42
  -3  -2  -4   18.06    1.60
  -3  -2  -4   20.50    1.56
   3   2   4   17.82    1.58
   3   2   4   15.44    1.84
  -3   2  -4   18.04    1.50
   3   2   4   17.35    1.69
  -3   2  -4   16.51    1.79
  -3   2  -4   17.44    1.46
  -4  -2  -4    2.43    1.88
  -4  -2  -4   -0.03    1.17
   4  -2   4    1.90    1.05
   4  -2   4    1.06    1.07
   4  -2   4    2.56    0.99
  -4  -2  -4    1.94    0.99
   4   2   4    3.67    1.08
   4   2   4    2.73    1.13
   4   2   4    3.61    1.00
  -4   2  -4    1.45    1.12
  -4   2  -4    3.58    1.00
  -4   2  -4    0.95    0.94
   5  -2   4   -0.39    1.29
  -5  -2  -4    2.12    1.54
   5  -2   4    5.08    1.61
  -5  -2  -4    3.41    1.20
   5  -2   4    1.76    1.33
  -5  -2  -4    1.10    1.30
   5   2   4    2.51    1.18
  -5   2  -4   -0.02    1.59
  -5   2  -4    1.52    1.22
   5   2   4    4.64    1.41
   5   2   4    2.58    1.41
  -5   2  -4    3.70    1.29
  -6  -2  -4    6.55    2.16
   6  -2   4    4.79    1.71
   6  -2   4    6.26    1.58
  -6  -2  -4    2.31    1.46
   6   2   4    5.19    1.85
   7  -2   4    4.95    2.19
   7  -2   4    7.72    2.18
   7  -2   4    7.85    2.48
  -7  -2  -4    3.04    1.92
  -7  -2  -4    5.31    2.55
   7   2   4    3.37    2.09
  -7   2  -4    2.90    2.51
   7   2   4    5.34    2.26
   7  -3  -4    6.64    2.09
  -7  -3   4    5.34    2.40
  -7  -3   4    9.99    2.23
  -7  -3   4    7.16    1.60
   7   3  -4    8.77    2.13
  -7   3   4   11.65    2.32
  -7   3   4    6.66    1.95
  -6  -3   4   -0.38    1.45
   6  -3  -4    1.39    1.42
  -6  -3   4   -1.63    1.91
   6  -3  -4   -1.81    2.27
  -6  -3   4    3.73    1.51
   6  -3  -4   -0.13    1.26
  -6   3   4    1.74    1.46
   6   3  -4    3.67    1.64
  -6   3   4    0.35    1.53
  -6   3   4    1.58    2.43
   6   3  -4    1.00    1.65
  -5  -3   4   26.81    2.11
   5  -3  -4   23.68    1.98
  -5  -3   4   20.15    2.80
  -5  -3   4   25.75    1.78
   5  -3  -4   23.28    2.01
   5   3  -4   26.64    2.71
  -5   3   4   20.61    2.01
  -5   3   4   23.03    2.20
   5   3  -4   24.02    2.08
   4  -3  -4    0.47    0.83
   4  -3  -4    1.75    1.05
  -4  -3   4    0.95    1.04
  -4  -3   4    0.03    0.73
  -4   3   4   -0.51    0.87
   4   3  -4    1.18    0.95
  -4   3   4    1.20    1.17
  -3  -3   4    4.30    0.96
   3  -3  -4    3.85    0.80
   3  -3  -4    2.15    0.74
   3  -3  -4    4.04    1.03
  -3  -3   4    2.52    0.69
   3  -3  -4    1.71    1.02
  -3   3   4    2.44    0.99
  -3   3   4    2.94    0.76
   3   3  -4    3.50    0.88
  -3   3   4    3.26    0.79
   3   3  -4    2.48    0.78
  -3   3   4    1.42    0.87
  -2  -3   4    1.45    0.83
  -2  -3   4    2.13    0.61
   2  -3  -4    2.85    1.34
   2  -3  -4    1.77    0.96
  -2   3   4    1.43    0.82
  -2   3   4    2.48    0.73
   2   3  -4    1.85    0.94
  -2   3   4    2.53    0.99
   2   3  -4    3.39    0.77
  -1  -3   4    7.29    1.03
  -1  -3   4    7.36    1.04
   1  -3  -4    7.49    1.11
   1  -3  -4    7.18    1.00
   1  -3  -4    6.70    0.95
  -1   3   4    6.09    1.10
   1   3  -4    6.30    1.01
   1   3  -4    5.78    0.93
  -1   3   4    8.77    1.12
  -1   3   4    6.43    1.11
   1   3  -4    9.12    1.21
   0  -3  -4    0.96    0.80
   0  -3   4   -0.58    0.64
   0  -3   4    0.43    1.17
   0  -3  -4    0.72    0.88
   0  -3   4    0.61    0.65
   0   3   4    0.29    1.17
   0   3  -4    0.73    0.67
   0   3  -4    0.98    0.63
   0   3  -4    1.35    1.11
   0   3   4    0.79    1.06
   1  -3   4    3.14    0.81
  -1  -3  -4    1.77    0.80
  -1  -3  -4    2.82    0.99
   1  -3   4    1.60    0.67
  -1  -3  -4    1.52    0.74
   1  -3   4    2.87    0.92
  -1   3  -4    2.06    0.80
   1   3   4    2.68    0.88
   1   3   4    3.53    0.91
  -2  -3  -4    7.82    1.33
  -2  -3  -4    8.94    1.38
   2  -3   4    7.62    1.27
   2  -3   4    8.02    1.40
  -2  -3  -4    8.61    1.17
   2   3   4   11.59    1.48
  -2   3  -4    9.31    1.19
  -2   3  -4   10.16    1.26
   2   3   4    7.92    1.03
  -3  -3  -4   25.71    2.17
   3  -3   4   25.74    1.89
  -3  -3  -4   24.21    2.15
   3   3   4   23.07    2.02
  -3   3  -4   23.96    1.92
  -3   3  -4   21.94    2.02
   3   3   4   23.32    1.86
   3   3   4   23.90    2.03
  -3   3  -4   23.65    1.85
   4  -3   4    2.64    1.57
   4  -3   4    4.11    1.21
  -4  -3  -4    2.40    1.27
  -4  -3  -4    2.55    1.29
   4   3   4    4.25    1.52
   4   3   4    1.59    1.76
  -4   3  -4    0.89    1.03
   4   3   4    3.67    1.40
  -4   3  -4    2.14    1.45
  -4   3  -4    2.99    1.26
   5  -3   4   47.08    3.31
   5  -3   4   34.38    3.54
   5  -3   4   52.12    3.11
  -5  -3  -4   43.26    2.94
  -5  -3  -4   40.32    3.43
   5   3   4   52.19    3.04
   5   3   4   34.40    4.46
  -5   3  -4   43.47    3.02
  -5   3  -4   39.38    2.66
   5   3   4   46.96    2.99
   6  -3   4   23.84    3.48
  -6  -3  -4   22.03    3.48
   6  -3   4   15.18    2.36
  -6  -3  -4   16.27    2.73
   6   3   4   17.00    3.07
  -6   3  -4   23.02    3.33
  -6   3  -4   17.20    2.74
  -6   3  -4   18.03    2.44
   6   3   4   22.62    3.17
  -6  -4   4    1.59    2.14
   6  -4  -4    0.96    1.71
   6  -4  -4    2.21    2.09
  -6  -4   4    2.49    1.90
   6  -4  -4    1.83    1.90
  -6  -4   4   -0.62    1.45
  -6   4   4    2.08    2.29
   6   4  -4    0.16    2.02
   6   4  -4    1.39    2.47
  -6   4   4    0.75    1.79
  -5  -4   4    1.53    1.89
  -5  -4   4    0.42    1.19
   5  -4  -4   -0.77    1.15
   5  -4  -4    2.21    2.17
   5   4  -4    6.02    2.85
  -5   4   4    0.37    1.39
   5   4  -4    0.98    1.64
   4  -4  -4    2.45    1.28
   4  -4  -4    1.33    1.36
   4  -4  -4    3.48    1.64
  -4  -4   4    3.04    1.06
  -4  -4   4   -0.85    1.61
  -4   4   4   -0.23    1.14
   4   4  -4    0.83    1.30
  -4   4   4    1.10    1.63
  -4   4   4    1.96    2.02
   4   4  -4    3.37    1.55
  -3  -4   4   33.24    2.11
  -3  -4   4   30.59    2.42
   3  -4  -4   32.52    1.97
   3  -4  -4   31.67    2.18
   3  -4  -4   36.18    2.38
   3   4  -4   33.93    2.47
  -3   4   4   33.45    2.54
   3   4  -4   36.52    2.23
  -3   4   4   32.19    3.22
   2  -4  -4   77.30    3.83
  -2  -4   4   76.10    3.96
   2  -4  -4   79.86    3.97
  -2  -4   4   78.03    3.81
   2   4  -4   78.73    3.75
   2   4  -4   77.51    3.92
  -2   4   4   78.45    3.79
  -2   4   4   66.47    4.23
  -2   4   4   78.93    4.02
   2   4  -4   78.62    4.04
   1  -4  -4   14.67    1.61
   1  -4  -4   16.07    1.73
  -1  -4   4   13.13    1.54
   1  -4  -4   15.29    1.38
  -1  -4   4   18.99    1.61
   1   4  -4   13.52    1.67
   1   4  -4   17.78    1.44
  -1   4   4   11.70    1.51
  -1   4   4   11.42    1.65
   1   4  -4   15.88    1.36
   0  -4   4    5.81    0.93
   0  -4  -4    7.21    1.10
   0  -4  -4    6.46    1.27
   0  -4   4    4.76    1.03
   0  -4   4    4.99    1.08
   0  -4  -4    5.36    1.08
   0   4  -4    5.36    1.10
   0   4   4    7.04    1.26
   0   4  -4    6.84    1.10
   0   4   4    7.24    1.49
   0   4  -4    5.53    0.94
   1  -4   4    4.62    0.97
  -1  -4  -4    5.38    1.16
   1  -4   4    4.96    1.13
  -1  -4  -4    7.89    1.39
   1  -4   4    3.63    1.00
  -1  -4  -4    4.86    0.91
  -1   4  -4    6.69    1.21
   1   4   4    6.51    1.22
  -1   4  -4    7.78    1.52
   2  -4   4    7.28    1.76
   2  -4   4    7.46    1.23
  -2  -4  -4   10.65    1.88
  -2  -4  -4    6.20    1.59
  -2  -4  -4    9.18    1.90
   2   4   4   12.42    1.70
  -2   4  -4    9.21    1.65
   2   4   4   10.68    1.57
  -3  -4  -4    2.66    2.70
   3  -4   4   -1.98    1.13
  -3  -4  -4    1.22    1.65
   3  -4   4   -1.84    1.34
  -3   4  -4    0.36    1.61
   3   4   4    1.33    1.39
  -3   4  -4    0.02    1.38
  -3   4  -4    0.73    1.39
   3   4   4    1.41    1.48
  -4  -4  -4    3.39    1.76
   4  -4   4    0.72    1.54
  -4  -4  -4    3.22    2.03
   4   4   4    1.62    1.76
  -4   4  -4   -1.84    1.56
  -4   4  -4    1.99    1.61
   4   4   4    1.58    2.11
  -4   4  -4    2.01    2.08
   5  -4   4    2.22    1.97
  -5  -4  -4   -3.25    1.96
  -5  -4  -4    2.12    2.14
   5  -4   4   -0.79    1.86
   5   4   4    2.01    2.12
  -5   4  -4   -0.89    2.26
  -5   4  -4    3.93    2.31
   5   4   4   -0.46    2.14
   4  -5  -4    4.43    1.74
  -4  -5   4    4.46    1.64
  -4  -5   4    4.49    2.10
   4   5  -4    7.70    2.01
  -4   5   4    8.85    2.15
   4   5  -4    7.94    2.07
  -4   5   4    5.49    1.64
   3  -5  -4   -0.92    2.07
   3  -5  -4    2.38    1.69
  -3  -5   4    0.15    1.39
  -3  -5   4    1.23    1.84
   3   5  -4   -2.28    1.84
   3   5  -4    0.17    1.29
   3   5  -4    1.20    1.40
  -3   5   4   -3.13    2.12
  -3   5   4    2.00    1.31
  -3   5   4   -0.08    1.92
   2  -5  -4   14.15    2.58
   2  -5  -4   10.83    1.66
  -2  -5   4   11.26    2.37
  -2  -5   4    9.38    1.79
  -2   5   4    9.37    1.39
  -2   5   4   14.72    1.98
  -2   5   4   17.67    3.16
   2   5  -4   10.53    1.43
   2   5  -4   12.74    1.78
  -1  -5   4    7.00    1.20
   1  -5  -4    6.96    1.28
   1  -5  -4    8.02    2.01
  -1  -5   4    7.86    1.51
  -1  -5   4    6.24    1.92
  -1   5   4    4.91    1.60
  -1   5   4    5.45    1.26
   1   5  -4    5.54    1.40
  -1   5   4    5.53    2.71
   0  -5   4   11.81    1.98
   0  -5   4    9.15    1.67
   0  -5  -4    9.37    1.66
   0  -5  -4    8.79    1.30
   0  -5   4    8.88    1.67
   0   5  -4    9.70    1.54
   0   5   4   13.91    2.47
   0   5   4   11.17    2.19
   0   5  -4    9.18    1.95
   0   5   4   10.68    1.39
  -1  -5  -4    6.93    1.22
   1  -5   4   10.25    2.52
  -1  -5  -4    9.66    2.52
   1  -5   4   11.01    1.45
   1  -5   4    9.09    1.89
  -1   5  -4    7.50    1.83
   1   5   4   13.13    2.13
  -1   5  -4   10.64    2.26
   1   5   4   14.40    2.43
   2  -5   4    3.57    1.55
   2  -5   4    2.54    1.43
  -2  -5  -4    3.07    1.94
   2  -5   4    5.54    1.87
  -2  -5  -4   -1.74    2.02
   2   5   4   -0.85    2.68
   3  -5   4   -0.93    1.66
   3  -5   4    1.80    1.67
  -3  -5  -4    4.62    2.15
   3   5   4   -2.68    3.07
   3   5   4    2.44    2.14
  -8   0   5   -0.20    2.19
  -8   0   5   -0.36    1.90
   8   0  -5    2.04    1.78
   8   0  -5   -0.21    2.03
   7   0  -5    1.64    1.37
  -7   0   5    4.69    1.67
   7   0  -5    0.81    1.43
  -7   0   5    2.73    1.48
   7   0  -5    3.33    1.44
   5   0  -5   50.36    2.48
  -5   0   5   45.79    2.52
  -5   0   5   52.50    2.68
   5   0  -5   49.93    2.66
   5   0  -5   52.96    2.66
  -5   0   5   52.76    2.70
   4   0  -5   -0.25    0.66
  -4   0   5   -0.24    0.75
   4   0  -5   -0.38    0.62
  -4   0   5    1.04    0.74
   4   0  -5    1.85    0.71
  -4   0   5    0.11    0.56
  -3   0   5  153.72    6.44
   3   0  -5  142.70    6.42
  -3   0   5  129.12    6.36
   3   0  -5  145.63    6.25
   2   0  -5    0.45    0.56
   2   0  -5    0.36    0.69
  -2   0   5    0.58    0.63
   2   0  -5   -0.07    0.57
   2   0  -5   -0.05    0.44
  -2   0   5   -0.49    0.72
  -2   0   5    0.85    0.44
  -2   0   5    0.18    0.66
  -2   0   5    0.15    0.70
  -1   0   5   59.13    2.83
  -1   0   5   61.10    2.79
   1   0  -5   62.23    2.83
   1   0  -5   57.67    2.77
  -1   0   5   53.55    2.74
  -1   0   5   60.34    2.88
  -1   0   5   60.44    2.74
   1   0  -5   61.60    2.85
   1   0  -5   62.32    2.78
  -1   0   5   54.56    2.74
  -1   0   5   58.96    2.77
   0   0  -5   -0.65    0.71
   0   0   5   -0.56    0.70
   0   0   5   -0.60    0.54
   0   0   5   -0.37    0.52
   0   0  -5   -0.20    0.52
   0   0   5    0.32    0.41
   0   0   5    0.55    0.53
   0   0   5   -0.10    0.58
   0   0  -5    0.61    0.60
   0   0   5   -0.99    0.45
   0   0  -5   -0.81    0.56
  -1   0  -5    3.88    0.67
  -1   0  -5    4.90    0.77
  -1   0  -5    6.80    1.05
   1   0   5    4.67    0.67
  -1   0  -5    6.61    1.11
   1   0   5    4.91    0.92
   1   0   5    4.65    0.76
  -2   0  -5   -0.88    0.93
  -2   0  -5   -0.52    1.24
   2   0   5   -0.40    0.46
   2   0   5   -0.07    0.85
  -2   0  -5   -0.42    0.85
   3   0   5    4.06    0.87
  -3   0  -5    3.54    0.81
  -3   0  -5    4.25    0.95
   3   0   5    4.51    0.97
  -4   0  -5   -0.51    0.85
  -4   0  -5    0.49    1.05
   4   0   5   -0.38    0.86
   4   0   5   -1.26    0.86
   5   0   5   15.53    2.31
  -5   0  -5   14.43    2.56
   5   0   5   14.24    2.81
   6   0   5    1.03    1.76
  -6   0  -5    1.29    1.96
   6   0   5    0.71    1.65
   7   0   5   -0.40    2.23
  -7   0  -5    0.24    2.08
   7   0   5   -0.65    2.25
   8  -1  -5    1.30    2.64
   8  -1  -5    1.53    1.80
  -8  -1   5    1.23    2.13
  -8  -1   5    1.62    2.46
  -8   1   5    1.46    2.01
   8   1  -5   -0.23    2.49
   8   1  -5    1.90    2.16
  -8   1   5   -0.06    2.69
   7  -1  -5   13.64    1.68
   7  -1  -5   11.84    1.75
  -7  -1   5   11.43    2.27
  -7  -1   5   11.10    1.97
   7   1  -5   11.45    1.72
   7   1  -5   12.77    1.69
  -7   1   5   11.61    2.23
   7   1  -5   10.87    1.93
  -6  -1   5   16.49    1.89
   6  -1  -5   11.93    1.65
   6  -1  -5   11.12    1.76
   6   1  -5   18.63    1.73
   6   1  -5   15.75    1.77
  -6   1   5   16.48    1.70
  -6   1   5   14.66    1.86
  -5  -1   5    0.52    0.99
   5  -1  -5   -1.10    0.79
   5  -1  -5    0.19    1.02
  -5  -1   5    0.02    0.86
  -5   1   5    1.61    1.51
  -5   1   5    1.15    0.82
   5   1  -5   -0.48    1.42
  -5   1   5    0.74    0.84
   5   1  -5   -1.05    0.82
   5   1  -5    0.87    1.00
   4  -1  -5    2.73    0.96
  -4  -1   5    3.17    0.79
  -4  -1   5    4.00    1.26
   4  -1  -5    4.92    0.90
   4  -1  -5    3.64    0.73
  -4   1   5    5.27    1.04
  -4   1   5    3.02    0.87
   4   1  -5    2.53    0.78
   4   1  -5    3.92    0.91
   4   1  -5    3.20    0.96
  -4   1   5    2.83    0.78
  -3  -1   5   27.64    2.14
   3  -1  -5   21.80    1.53
   3  -1  -5   25.49    1.85
  -3  -1   5   27.03    1.71
   3  -1  -5   26.86    1.91
   3   1  -5   22.14    1.55
   3   1  -5   26.97    1.76
  -3   1   5   27.09    1.59
  -3   1   5   23.68    1.67
   3   1  -5   20.49    1.81
  -2  -1   5    8.64    1.16
   2  -1  -5    9.56    1.10
   2  -1  -5    8.13    1.16
  -2  -1   5    7.07    1.16
  -2  -1   5    6.39    1.06
   2  -1  -5    7.79    1.11
   2  -1  -5    6.37    0.91
   2   1  -5    7.01    1.30
   2   1  -5    9.41    1.06
   2   1  -5    8.38    0.98
  -2   1   5    9.52    1.10
  -2   1   5    6.21    0.76
  -2   1   5    8.23    1.12
   1  -1  -5    0.29    0.43
   1  -1  -5    1.27    0.76
  -1  -1   5    1.38    0.68
   1  -1  -5    0.20    0.72
  -1  -1   5    0.18    0.65
   1  -1  -5    0.62    0.57
  -1  -1   5    0.97    0.62
   1   1  -5   -0.06    0.61
  -1   1   5    1.33    0.49
  -1   1   5    1.30    0.37
  -1   1   5    0.98    0.82
  -1   1   5    0.07    0.53
  -1   1   5    1.17    0.77
   1   1  -5   -0.04    0.59
   1   1  -5    1.12    0.58
   1   1  -5    0.62    0.66
   0  -1  -5   18.70    1.41
   0  -1  -5   18.21    1.23
   0  -1  -5   17.86    1.31
   0  -1   5   17.54    1.16
   0  -1  -5   18.32    1.11
   0  -1   5   17.59    1.25
   0  -1   5   17.82    1.11
   0  -1  -5   17.00    1.45
   0  -1   5   17.68    1.38
   0  -1   5   17.39    1.14
   0   1   5   18.93    1.05
   0   1   5   18.35    1.32
   0   1  -5   19.04    1.28
   0   1   5   15.55    1.20
   0   1  -5   19.52    1.26
   0   1   5   17.02    1.07
   0   1   5   16.66    0.99
   0   1   5   20.19    1.46
   0   1  -5   18.00    1.30
   1  -1   5    0.31    0.82
  -1  -1  -5    1.01    0.87
  -1  -1  -5    2.72    1.04
  -1  -1  -5    0.66    0.46
   1  -1   5    0.94    0.57
  -1  -1  -5    0.79    0.68
   1   1   5    1.59    0.87
  -1   1  -5    1.32    0.91
   1   1   5    0.90    0.95
   1   1   5    0.58    0.51
   1   1   5    0.80    0.56
  -1   1  -5    1.01    0.75
   2  -1   5   97.19    4.37
   2  -1   5  100.82    4.65
  -2  -1  -5   83.60    4.47
  -2  -1  -5   90.67    4.58
  -2  -1  -5   96.14    4.41
  -2   1  -5   90.38    4.48
   2   1   5  103.54    4.76
  -2   1  -5   99.01    4.43
   2   1   5  101.19    4.43
  -2   1  -5   93.09    4.48
   3  -1   5    6.74    1.04
  -3  -1  -5    4.97    0.98
  -3  -1  -5    8.13    1.22
  -3  -1  -5    5.88    1.08
   3  -1   5    6.40    1.03
   3  -1   5    6.75    1.17
   3   1   5    4.70    0.99
  -3   1  -5    6.63    1.17
  -3   1  -5    6.97    1.14
  -3   1  -5    5.21    0.91
   3   1   5    8.13    1.36
  -4  -1  -5    1.36    1.02
  -4  -1  -5   -0.26    0.90
   4  -1   5   -1.02    0.91
  -4  -1  -5    0.31    1.18
  -4   1  -5    0.89    0.83
  -4   1  -5    0.43    1.08
   4   1   5   -0.92    0.87
  -4   1  -5    0.62    0.92
  -5  -1  -5    0.43    1.25
   5  -1   5   -1.27    1.36
   5  -1   5   -0.34    1.25
  -5  -1  -5    2.57    1.42
  -5  -1  -5    2.74    1.39
   5  -1   5    1.60    1.18
   5   1   5   -1.97    1.15
  -5   1  -5    0.38    1.47
  -5   1  -5    0.67    1.10
  -6  -1  -5   -1.97    2.07
   6  -1   5   -1.18    1.73
   6  -1   5    5.94    2.23
   6   1   5    0.85    1.90
   6   1   5    0.80    1.67
  -6   1  -5    0.33    1.95
  -6   1  -5   -0.19    2.89
  -7  -1  -5    0.99    3.23
  -7  -1  -5   -0.16    2.08
   7  -1   5   -0.25    2.27
   7  -1   5   -3.01    1.99
  -7   1  -5   -1.71    2.47
  -7   1  -5   -3.51    1.96
   7   1   5    0.99    2.98
   8  -2  -5    8.79    2.22
   8  -2  -5    7.30    1.95
  -8  -2   5    1.20    2.21
   8   2  -5    8.27    2.12
  -8   2   5    4.41    2.76
   8   2  -5    4.09    2.21
   8   2  -5    8.87    2.12
  -8   2   5    3.44    2.19
  -8   2   5    0.64    2.18
   7  -2  -5    2.75    1.63
  -7  -2   5   -1.21    2.52
  -7  -2   5    1.29    1.21
  -7  -2   5   -2.72    2.52
   7   2  -5    2.33    1.54
  -7   2   5    2.01    1.66
   7   2  -5    2.08    1.95
  -7   2   5    5.62    2.17
   7   2  -5   -0.98    1.52
  -7   2   5    1.18    2.20
   6  -2  -5    0.11    1.22
  -6  -2   5   -0.21    0.97
   6  -2  -5    0.51    1.09
   6  -2  -5    0.59    1.21
  -6  -2   5    2.69    1.41
  -6  -2   5    0.58    1.25
   6   2  -5    1.68    1.14
  -6   2   5    1.98    1.25
  -6   2   5    2.35    1.48
   6   2  -5    0.19    1.18
   6   2  -5    0.20    1.29
  -6   2   5    2.20    1.33
  -5  -2   5    0.57    0.81
  -5  -2   5    2.97    1.05
   5  -2  -5    1.26    1.11
   5  -2  -5    0.41    0.96
  -5  -2   5   -0.33    1.04
   5  -2  -5    1.62    0.97
   5   2  -5    0.63    1.01
  -5   2   5    1.53    1.11
   5   2  -5    0.20    0.95
  -5   2   5    0.72    1.02
   5   2  -5   -0.80    0.90
  -5   2   5    0.91    0.91
   4  -2  -5   -0.44    0.68
   4  -2  -5   -0.47    0.93
  -4  -2   5   -0.91    0.66
  -4  -2   5   -0.16    0.78
   4   2  -5    0.56    1.15
  -4   2   5   -0.05    0.97
   4   2  -5    0.83    0.80
   4   2  -5    1.30    0.84
  -4   2   5    0.01    0.73
  -3  -2   5   15.75    1.35
   3  -2  -5   15.41    1.28
   3  -2  -5   16.50    1.21
   3  -2  -5   15.57    1.43
  -3  -2   5   16.94    1.16
   3   2  -5   15.83    1.50
  -3   2   5   17.48    1.52
   3   2  -5   16.85    1.25
  -3   2   5   15.64    1.32
   3   2  -5   15.53    1.21
   2  -2  -5   19.31    1.46
  -2  -2   5   19.00    1.27
   2  -2  -5   21.40    1.49
   2  -2  -5   20.28    1.15
  -2  -2   5   21.11    1.57
   2  -2  -5   20.04    1.09
  -2   2   5   21.62    1.32
   2   2  -5   19.27    2.21
  -2   2   5   18.01    1.12
   2   2  -5   21.66    1.37
  -2   2   5   20.18    1.62
  -2   2   5   18.67    1.41
  -1  -2   5  324.88   14.59
  -1  -2   5  312.50   14.30
   1  -2  -5  335.23   14.36
   1  -2  -5  334.57   14.44
  -1  -2   5  340.36   14.41
   1  -2  -5  324.40   14.32
   1  -2  -5  317.96   14.56
  -1   2   5  350.69   14.47
  -1   2   5  332.82   14.34
   1   2  -5  342.98   14.48
  -1   2   5  314.26   14.77
   1   2  -5  328.12   14.32
   1   2  -5  328.40   14.43
   0  -2  -5  181.09    8.15
   0  -2   5  189.10    8.24
   0  -2  -5  174.99    8.13
   0  -2   5  186.92    8.10
   0  -2   5  187.85    8.04
   0  -2  -5  176.35    7.98
   0   2  -5  174.59    8.00
   0   2   5  167.08    7.98
   0   2  -5  191.24    8.10
   0   2  -5  186.94    8.13
   0   2   5  183.38    8.15
   0   2  -5  183.15    8.22
   0   2   5  186.51    8.13
   1  -2   5   23.92    1.51
   1  -2   5   21.78    1.54
  -1  -2  -5   23.52    1.60
  -1  -2  -5   20.85    1.14
  -1  -2  -5   22.95    1.70
   1   2   5   23.91    1.83
  -1   2  -5   19.20    1.89
   1   2   5   23.00    1.55
  -1   2  -5   22.36    1.47
   1   2   5   21.72    1.22
  -2  -2  -5   22.03    1.40
  -2  -2  -5   23.61    1.64
   2  -2   5   25.92    1.62
  -2  -2  -5   23.67    1.97
  -2  -2  -5   24.78    1.71
   2  -2   5   22.84    1.71
   2   2   5   23.75    1.52
   2   2   5   26.46    2.08
   2   2   5   21.83    1.65
  -2   2  -5   24.30    1.68
  -2   2  -5   22.60    1.68
   3  -2   5   97.51    4.48
  -3  -2  -5   87.01    4.29
   3  -2   5   87.43    4.30
  -3  -2  -5   92.66    4.32
  -3  -2  -5   92.48    4.32
   3   2   5   89.87    4.41
  -3   2  -5   88.00    4.31
   3   2   5   83.03    4.29
  -3   2  -5   86.54    4.45
  -3   2  -5   90.90    4.31
   4  -2   5   18.23    1.86
  -4  -2  -5   20.16    1.94
  -4  -2  -5   18.67    1.64
   4  -2   5   15.17    1.88
   4  -2   5   17.23    1.71
  -4  -2  -5   17.65    1.80
   4   2   5   20.07    1.86
  -4   2  -5   14.50    1.72
  -4   2  -5   14.69    1.57
  -4   2  -5   17.67    1.88
   4   2   5   13.29    2.43
   5  -2   5    1.91    1.39
   5  -2   5    3.83    1.60
  -5  -2  -5    5.22    1.89
  -5  -2  -5    8.15    1.78
  -5  -2  -5    3.35    1.28
   5  -2   5    6.70    1.52
  -5   2  -5    3.79    1.24
   5   2   5    5.73    1.38
   5   2   5    2.56    1.57
  -5   2  -5    4.72    1.54
   5   2   5    3.59    1.69
  -5   2  -5    5.79    2.49
   6  -2   5    4.02    1.64
  -6  -2  -5    2.55    1.55
  -6  -2  -5    3.57    1.86
  -6  -2  -5    1.78    2.57
   6  -2   5    3.55    2.12
   6   2   5    5.77    2.10
   6   2   5    2.74    2.09
  -6   2  -5   -0.38    2.29
  -6   2  -5    5.66    1.69
   6   2   5    3.71    2.14
  -7  -3   5    1.03    1.69
   7  -3  -5    4.36    2.15
   7  -3  -5    7.29    2.17
  -7   3   5    5.94    2.24
   7   3  -5   -0.24    2.46
  -7   3   5    4.75    1.96
   7   3  -5    7.82    2.08
   6  -3  -5    5.51    1.59
   6  -3  -5    4.23    2.88
   6  -3  -5    4.43    1.28
  -6  -3   5    2.24    1.51
  -6  -3   5    1.81    1.27
  -6   3   5    2.56    1.56
   6   3  -5    4.82    1.68
  -6   3   5   -0.26    2.25
  -6   3   5    4.56    1.92
   6   3  -5    3.18    2.37
   5  -3  -5    6.61    1.36
  -5  -3   5    2.83    1.47
   5  -3  -5    6.65    1.36
   5  -3  -5    5.89    1.25
  -5  -3   5    8.33    1.48
   5   3  -5    5.43    1.34
   5   3  -5    5.34    1.42
  -5   3   5   10.60    1.91
  -4  -3   5   27.50    2.08
   4  -3  -5   25.46    1.89
   4  -3  -5   26.81    2.11
   4  -3  -5   24.78    2.03
  -4  -3   5   26.58    1.78
  -4   3   5   30.11    2.08
   4   3  -5   32.24    2.11
   4   3  -5   32.22    1.96
  -4   3   5   26.21    2.31
   3  -3  -5   58.80    2.72
  -3  -3   5   56.54    3.04
   3  -3  -5   52.49    2.70
   3  -3  -5   58.66    3.03
   3  -3  -5   53.92    2.92
  -3   3   5   60.50    3.02
   3   3  -5   61.25    3.06
   3   3  -5   61.29    2.96
  -3   3   5   56.85    2.97
  -3   3   5   53.84    2.84
   2  -3  -5    0.88    0.64
  -2  -3   5    1.05    0.64
  -2  -3   5    2.46    0.87
   2  -3  -5    2.64    1.17
  -2   3   5    0.49    0.72
  -2   3   5    1.20    0.82
  -2   3   5    0.62    0.94
   2   3  -5    1.59    0.69
   2   3  -5    2.60    0.82
   1  -3  -5   -0.48    0.65
  -1  -3   5   -0.75    0.91
   1  -3  -5   -0.40    0.80
   1  -3  -5    0.85    0.78
  -1  -3   5    0.63    0.80
   1   3  -5    0.69    0.59
  -1   3   5    0.37    0.91
  -1   3   5   -0.06    0.80
   1   3  -5   -0.32    1.17
   1   3  -5    0.33    0.67
  -1   3   5    1.85    1.05
   0  -3  -5    1.60    0.83
   0  -3  -5    2.06    0.92
   0  -3   5    1.38    0.68
   0  -3  -5    2.22    0.97
   0  -3   5    3.09    1.35
   0  -3   5    3.70    1.12
   0   3   5    2.90    0.88
   0   3  -5    2.27    0.77
   0   3  -5    2.58    0.68
   0   3  -5    2.93    0.91
   0   3   5    3.03    0.94
  -1  -3  -5    0.92    0.70
   1  -3   5    0.73    0.71
  -1  -3  -5    0.46    0.84
   1  -3   5    0.01    0.73
   1  -3   5    1.14    0.92
  -1  -3  -5   -0.53    0.92
  -1   3  -5   -0.16    0.83
  -1   3  -5    1.00    0.82
   1   3   5    1.46    0.85
   1   3   5    1.07    0.91
   2  -3   5   -0.09    0.74
  -2  -3  -5    0.24    0.61
  -2  -3  -5   -0.59    1.04
   2  -3   5    0.36    0.82
  -2  -3  -5   -0.35    0.94
   2   3   5    2.28    0.98
  -2   3  -5    0.65    0.83
  -2   3  -5    2.69    1.02
   2   3   5    1.01    1.05
   2   3   5    0.78    0.74
  -3  -3  -5    6.37    1.31
   3  -3   5    8.54    1.54
  -3  -3  -5    4.73    1.30
  -3   3  -5    6.24    1.33
  -3   3  -5    5.43    1.37
   3   3   5    8.93    1.66
   3   3   5    7.18    1.33
   3   3   5    6.63    1.36
   4  -3   5   42.56    3.39
  -4  -3  -5   44.20    2.90
   4  -3   5   38.93    2.95
  -4  -3  -5   44.07    2.82
   4   3   5   44.82    2.57
   4   3   5   41.55    2.84
  -4   3  -5   41.89    2.44
   4   3   5   35.38    3.02
  -4   3  -5   38.98    2.99
   5  -3   5   62.79    3.88
  -5  -3  -5   55.53    4.91
  -5  -3  -5   68.94    3.82
   5  -3   5   63.77    4.10
  -5   3  -5   71.62    4.88
  -5   3  -5   68.91    4.25
   5   3   5   67.17    3.68
   5   3   5   59.83    4.13
   5   3   5   56.58    4.44
  -5   3  -5   58.82    3.44
   6  -3   5    0.99    2.16
  -6  -3  -5   -0.24    2.21
  -6   3  -5    0.20    2.49
   6   3   5    1.89    2.18
   6   3   5    3.86    2.16
  -6  -4   5    1.12    1.65
   6  -4  -5    0.17    2.30
   6  -4  -5   -0.64    2.02
   6  -4  -5    2.86    1.87
   6   4  -5    0.69    1.99
  -6   4   5   -2.77    2.32
  -6   4   5    0.43    1.79
   6   4  -5    0.96    2.12
   5  -4  -5    3.58    1.57
  -5  -4   5   -0.21    1.33
  -5  -4   5    2.90    2.20
   5  -4  -5    1.12    1.87
   5  -4  -5   -0.19    1.48
  -5   4   5    1.96    1.54
   5   4  -5    0.98    2.63
   4  -4  -5    0.98    1.56
  -4  -4   5    0.81    1.12
   4  -4  -5    0.39    1.70
   4  -4  -5   -0.13    1.31
  -4  -4   5    2.75    1.68
  -4   4   5    2.65    1.77
  -4   4   5    2.63    1.22
   4   4  -5    2.06    1.62
   4   4  -5   -2.10    1.34
  -3  -4   5   16.47    1.96
   3  -4  -5   15.51    2.09
  -3  -4   5   16.13    1.71
   3  -4  -5   16.71    2.04
   3   4  -5   13.25    2.13
   3   4  -5   17.00    1.75
  -3   4   5   14.58    2.18
   3   4  -5   15.97    2.07
  -3   4   5   17.29    1.79
  -3   4   5   18.67    2.09
  -2  -4   5   48.92    3.25
   2  -4  -5   40.67    2.40
  -2  -4   5   41.41    2.60
   2  -4  -5   42.93    2.79
  -2   4   5   44.63    2.46
   2   4  -5   40.55    2.35
  -2   4   5   41.35    2.48
   2   4  -5   39.54    2.73
  -2   4   5   41.40    2.72
   2   4  -5   37.76    2.83
   1  -4  -5   13.98    2.14
   1  -4  -5   13.92    1.37
   1  -4  -5   13.76    1.93
  -1  -4   5   16.45    1.55
  -1  -4   5   18.73    2.34
   1   4  -5   15.46    1.44
  -1   4   5   14.40    2.42
   1   4  -5   13.49    1.42
   1   4  -5   15.27    1.70
  -1   4   5   13.96    1.64
   0  -4  -5   17.31    1.39
   0  -4  -5   18.37    2.07
   0  -4  -5   19.39    1.89
   0  -4   5   15.50    1.62
   0  -4   5   14.87    1.63
   0  -4   5   17.91    1.56
   0   4   5   13.97    1.86
   0   4   5   16.64    1.91
   0   4  -5   17.37    1.52
   0   4  -5   16.19    1.83
   0   4  -5   19.81    1.56
  -1  -4  -5   13.11    1.39
  -1  -4  -5   11.91    2.28
   1  -4   5   11.48    1.55
   1  -4   5    9.34    1.57
  -1  -4  -5   12.18    1.85
   1  -4   5   10.59    1.59
  -1   4  -5   10.74    1.58
  -1   4  -5    8.95    1.72
   1   4   5    9.47    1.71
   1   4   5   14.31    1.86
  -2  -4  -5   34.66    3.03
   2  -4   5   33.06    2.43
   2  -4   5   37.35    2.36
  -2  -4  -5   36.59    2.71
   2   4   5   35.34    2.74
  -2   4  -5   35.17    2.52
   2   4   5   33.22    2.66
  -2   4  -5   37.75    2.62
   3  -4   5    0.55    1.41
   3  -4   5   -0.44    1.37
  -3  -4  -5    1.21    2.01
  -3  -4  -5    0.29    1.55
  -3   4  -5    1.69    1.86
   3   4   5    1.06    1.83
  -3   4  -5   -0.53    1.51
   3   4   5    3.68    2.87
  -4  -4  -5    6.81    3.09
   4  -4   5    0.71    2.25
   4   4   5    6.09    3.01
  -4   4  -5    3.98    2.15
   4   4   5    7.68    2.11
   5  -4   5   -0.72    1.98
   5  -4   5   -1.75    1.93
  -5  -4  -5    0.91    2.27
  -5  -4  -5   -0.60    2.08
   5   4   5    2.40    2.52
   5   4   5    1.07    2.28
  -5   4  -5   -0.51    2.38
  -5   4  -5    1.14    2.92
  -4  -5   5    0.77    2.13
  -4  -5   5    3.86    1.95
   4  -5  -5    2.09    2.72
   4  -5  -5    5.53    2.31
   4   5  -5    5.24    2.03
  -4   5   5    4.93    3.23
   3  -5  -5    4.81    3.47
  -3  -5   5   -0.62    1.83
   3  -5  -5    1.84    1.65
   3   5  -5    2.93    1.85
  -3   5   5   -0.68    2.19
   3   5  -5    1.18    1.53
  -3   5   5    2.48    1.51
   2  -5  -5   25.57    2.17
  -2  -5   5   17.76    2.88
  -2  -5   5   23.68    3.28
   2   5  -5   17.06    1.86
   2   5  -5   16.31    2.78
   2   5  -5   19.83    2.13
  -2   5   5   21.28    2.16
  -2   5   5   19.64    3.01
  -2   5   5   20.00    2.18
  -1  -5   5   11.72    1.77
  -1  -5   5   12.05    2.04
   1  -5  -5    8.69    1.38
   1   5  -5    9.18    1.80
  -1   5   5    8.74    1.41
  -1   5   5   10.16    2.57
   1   5  -5    8.37    2.22
   1   5  -5   10.79    1.70
  -1   5   5    9.94    2.00
   0  -5  -5    6.57    2.23
   0  -5   5    6.90    1.67
   0  -5  -5    3.58    1.19
   0  -5  -5    6.05    1.64
   0  -5   5    1.23    1.70
   0  -5   5    3.00    1.31
   0   5  -5    4.40    1.50
   0   5   5    4.02    1.35
   0   5   5    5.98    1.67
   1  -5   5    4.19    1.53
  -1  -5  -5    2.95    1.12
  -1  -5  -5    2.80    2.61
  -1  -5  -5    4.29    2.04
   1  -5   5    3.45    1.49
   1   5   5    4.01    2.53
   1   5   5    5.72    1.96
  -1   5  -5    6.69    1.84
  -2  -5  -5    3.07    3.41
  -2  -5  -5    3.22    2.22
   2  -5   5    3.01    1.49
   2  -5   5    0.37    1.60
  -2   5  -5    3.17    1.97
   2   5   5    5.32    2.08
   2   5   5   -1.28    2.10
  -2   5  -5    5.17    2.02
  -3  -5  -5    3.07    2.31
  -3  -5  -5    6.14    2.44
   3  -5   5    3.92    1.81
   3   5   5   -0.11    2.39
   3   5   5    5.73    2.28
  -3   5  -5    3.82    2.36
  -3   5  -5   -0.06    2.23
  -8   0   6   -0.98    2.11
   8   0  -6    2.31    1.98
  -7   0   6    2.00    1.66
   7   0  -6    2.09    1.47
   7   0  -6    4.13    1.62
  -7   0   6   -1.28    1.64
   6   0  -6    7.24    1.19
  -6   0   6    4.07    1.27
  -6   0   6    5.25    1.79
   6   0  -6    8.68    1.62
  -5   0   6   -0.70    1.15
   5   0  -6   -0.14    0.83
   5   0  -6   -1.51    0.79
  -5   0   6    0.50    0.89
  -5   0   6    1.54    0.86
   5   0  -6    0.37    0.72
  -4   0   6  122.01    5.93
   4   0  -6  133.11    6.10
  -4   0   6  133.23    6.19
   4   0  -6  147.32    6.16
  -4   0   6  139.51    6.13
  -3   0   6   -0.45    0.58
  -3   0   6    1.19    0.83
  -3   0   6    0.64    1.04
   3   0  -6    0.09    0.64
   2   0  -6    1.63    0.84
   2   0  -6    1.35    0.54
   2   0  -6    2.57    0.71
  -2   0   6    0.06    1.07
  -2   0   6    1.47    0.59
   2   0  -6    2.29    0.65
  -2   0   6    1.79    0.75
  -1   0   6   -0.10    0.57
  -1   0   6   -1.11    0.70
   1   0  -6    0.77    0.89
  -1   0   6    0.83    0.65
   1   0  -6    0.59    0.71
   1   0  -6    0.16    0.72
   1   0  -6    0.71    0.59
   1   0  -6    0.20    0.56
   1   0  -6    0.39    0.61
   0   0  -6   13.98    1.23
   0   0  -6   13.89    1.08
   0   0  -6   13.87    1.08
   0   0  -6   15.32    1.21
   0   0  -6   13.82    1.01
   0   0   6   10.58    1.13
   0   0   6   12.26    1.00
   0   0   6   12.31    1.20
   0   0   6   10.75    1.30
   0   0   6   11.04    1.19
   1   0   6   -0.37    0.49
   1   0   6   -1.37    0.82
   1   0   6   -0.13    0.73
  -1   0  -6   -0.11    0.58
  -2   0  -6    2.73    0.96
  -2   0  -6    0.78    0.77
   2   0   6    2.12    0.90
   2   0   6    2.51    0.86
  -3   0  -6   -0.81    0.85
   3   0   6    1.29    1.12
   3   0   6    0.85    0.84
  -3   0  -6    1.42    0.97
  -4   0  -6    4.34    1.44
   4   0   6    3.14    1.09
   4   0   6    3.33    1.05
  -4   0  -6    4.47    1.10
   5   0   6    2.44    1.70
   5   0   6    0.93    1.30
  -5   0  -6    1.12    1.27
   6   0   6   32.23    3.78
   7   0   6   -2.90    2.23
   8  -1  -6    6.04    2.06
   8  -1  -6    2.37    2.16
  -8  -1   6    1.14    2.18
  -8   1   6   -0.47    2.10
  -8   1   6    2.77    2.62
   8   1  -6    6.41    2.01
  -7  -1   6   57.57    3.84
  -7  -1   6   56.39    3.84
   7  -1  -6   61.67    3.71
   7  -1  -6   60.76    3.74
   7   1  -6   68.72    3.36
  -7   1   6   63.15    3.63
   7   1  -6   58.81    3.58
   7   1  -6   58.04    4.04
   6  -1  -6   43.54    2.60
   6  -1  -6   41.98    2.68
  -6  -1   6   45.33    2.76
  -6  -1   6   46.18    2.75
  -6   1   6   43.06    2.71
   6   1  -6   41.41    2.58
   6   1  -6   44.38    2.60
   6   1  -6   43.93    2.73
  -6   1   6   43.13    2.80
  -5  -1   6    6.23    1.05
   5  -1  -6    7.03    1.00
  -5  -1   6    6.68    1.30
   5  -1  -6    4.61    0.98
   5  -1  -6    6.10    1.00
  -5   1   6    7.44    2.30
   5   1  -6    7.30    1.64
  -5   1   6    6.26    1.01
   5   1  -6    5.54    1.26
   5   1  -6    6.13    0.94
  -5   1   6    7.29    1.79
   4  -1  -6    6.09    1.15
   4  -1  -6    7.26    1.07
  -4  -1   6    7.62    1.16
  -4  -1   6   10.38    1.52
   4  -1  -6    7.37    1.05
  -4   1   6    8.90    1.12
  -4   1   6    9.36    1.14
   4   1  -6    8.58    1.28
   4   1  -6    6.84    1.01
   4   1  -6    6.19    1.02
   3  -1  -6    3.37    0.74
  -3  -1   6    5.97    0.91
  -3  -1   6    6.33    0.91
   3  -1  -6    4.29    0.86
   3  -1  -6    4.94    0.86
   3   1  -6    5.71    0.79
  -3   1   6    6.77    1.18
   3   1  -6    4.66    0.76
  -3   1   6    4.28    0.79
   3   1  -6    5.17    0.87
   2  -1  -6    0.91    0.80
  -2  -1   6    2.81    1.04
   2  -1  -6    1.26    0.54
  -2  -1   6    1.82    0.94
   2   1  -6    1.62    0.73
  -2   1   6    0.66    0.48
  -2   1   6    1.04    0.48
  -2   1   6    2.53    0.87
  -2   1   6    1.65    0.59
   2   1  -6    1.54    0.83
   1  -1  -6   35.68    1.92
  -1  -1   6   37.51    1.84
  -1  -1   6   38.05    1.98
   1  -1  -6   31.44    1.74
   1  -1  -6   36.11    2.10
  -1  -1   6   37.87    2.13
   1  -1  -6   36.65    2.11
   1   1  -6   34.17    1.96
   1   1  -6   37.39    1.98
  -1   1   6   33.48    1.77
   1   1  -6   38.48    2.00
   1   1  -6   33.73    1.88
  -1   1   6   36.40    2.02
  -1   1   6   37.95    1.92
  -1   1   6   33.07    1.86
  -1   1   6   35.77    2.17
   0  -1  -6   62.92    3.14
   0  -1   6   67.73    3.21
   0  -1   6   68.67    3.18
   0  -1  -6   68.98    3.45
   0  -1  -6   69.25    3.30
   0  -1   6   67.92    3.16
   0  -1   6   63.38    3.57
   0  -1  -6   67.57    3.40
   0   1   6   67.21    3.25
   0   1   6   76.40    3.57
   0   1   6   70.68    3.30
   0   1  -6   67.25    3.39
   0   1   6   65.18    3.12
   0   1  -6   70.70    3.38
   0   1  -6   67.19    3.75
   1  -1   6   49.74    2.55
  -1  -1  -6   47.79    2.59
  -1  -1  -6   43.42    2.32
   1  -1   6   49.92    2.43
  -1  -1  -6   47.68    2.50
  -1  -1  -6   49.48    2.61
   1   1   6   45.46    2.39
   1   1   6   46.24    2.39
  -1   1  -6   50.08    2.54
   1   1   6   50.78    3.10
   2  -1   6   41.08    2.23
  -2  -1  -6   37.82    2.25
  -2  -1  -6   40.49    2.24
   2  -1   6   40.15    2.20
  -2  -1  -6   39.70    2.41
   2   1   6   41.56    2.30
  -2   1  -6   40.69    2.24
  -2   1  -6   39.54    2.20
   2   1   6   40.08    2.27
  -2   1  -6   39.50    2.32
   3  -1   6   14.65    2.00
  -3  -1  -6   11.18    1.55
  -3  -1  -6   15.49    1.68
  -3  -1  -6   13.38    1.40
   3  -1   6   16.29    1.73
   3  -1   6   12.78    1.43
  -3   1  -6   15.30    1.52
  -3   1  -6   16.95    1.44
   3   1   6   13.52    1.43
  -3   1  -6   15.04    1.80
   4  -1   6    1.10    2.19
  -4  -1  -6    1.59    1.33
   4  -1   6    1.46    1.17
  -4  -1  -6    1.59    1.51
   4  -1   6    0.11    1.14
  -4  -1  -6    1.56    1.06
  -4   1  -6    2.23    1.25
  -4   1  -6    2.15    0.99
   4   1   6   -0.10    0.95
   4   1   6    0.56    1.10
  -4   1  -6    0.64    1.09
  -5  -1  -6    1.28    1.43
  -5  -1  -6    2.66    1.71
   5  -1   6    3.20    1.48
   5  -1   6   -1.60    1.46
  -5  -1  -6    1.77    1.52
   5  -1   6    1.49    1.27
   5   1   6   -0.72    1.44
   5   1   6    0.60    1.44
  -5   1  -6    0.09    1.70
  -5   1  -6   -0.08    1.26
   6  -1   6    2.38    2.22
   6  -1   6    5.48    3.22
  -6  -1  -6    0.84    1.87
  -6   1  -6    2.70    1.79
   6   1   6   -0.02    2.90
  -6   1  -6    4.18    2.45
   6   1   6    0.05    3.16
   8   2  -6   10.16    2.16
  -7  -2   6   -4.15    2.67
   7  -2  -6    2.30    1.88
   7  -2  -6   -1.42    1.51
  -7  -2   6    2.97    1.30
  -7   2   6    8.12    3.55
  -7   2   6    1.04    1.83
   7   2  -6    1.34    1.69
   7   2  -6   -0.24    1.83
  -7   2   6    3.06    1.77
   7   2  -6    1.09    2.31
  -6  -2   6   16.48    1.68
  -6  -2   6   13.47    2.20
   6  -2  -6   14.38    2.12
   6  -2  -6   13.73    2.02
  -6  -2   6   15.36    1.94
   6  -2  -6   12.49    1.71
   6   2  -6   15.11    2.54
  -6   2   6   14.70    2.23
  -6   2   6   14.74    4.06
  -6   2   6   12.77    1.88
   5  -2  -6    5.65    1.19
  -5  -2   6    6.69    1.86
  -5  -2   6    6.38    1.05
   5  -2  -6    6.48    0.97
   5   2  -6    8.00    1.46
  -5   2   6   10.50    1.61
   5   2  -6    8.52    1.16
  -5   2   6    4.87    1.13
   5   2  -6    6.11    1.15
  -5   2   6    6.99    1.25
   4  -2  -6    0.30    0.73
  -4  -2   6    0.83    0.90
  -4  -2   6    1.83    0.77
   4  -2  -6   -0.11    0.88
   4   2  -6    1.24    0.80
   4   2  -6    0.15    0.79
   4   2  -6    0.74    0.91
  -4   2   6    0.37    0.79
   3  -2  -6    0.28    0.63
  -3  -2   6    0.24    0.50
   3  -2  -6    0.36    0.60
   3  -2  -6    0.94    0.74
  -3  -2   6   -0.03    0.77
  -3   2   6    0.05    0.69
   3   2  -6   -0.58    0.54
  -3   2   6    1.78    0.87
   3   2  -6   -1.11    0.76
   3   2  -6    0.56    0.60
   2  -2  -6    0.64    0.49
  -2  -2   6   -0.06    0.51
   2  -2  -6    1.14    0.73
  -2  -2   6   -0.48    0.77
   2  -2  -6   -0.15    0.46
  -2   2   6   -0.04    0.39
   2   2  -6   -0.27    0.62
  -2   2   6    0.74    0.81
  -2   2   6   -0.11    0.66
  -2   2   6    0.04    0.65
   2   2  -6   -0.20    0.55
  -2   2   6    0.16    0.56
  -1  -2   6  166.43    7.54
  -1  -2   6  171.02    7.60
   1  -2  -6  163.98    7.59
   1  -2  -6  161.88    7.56
   1  -2  -6  168.33    7.53
   1   2  -6  163.98    7.56
   1   2  -6  170.97    7.62
  -1   2   6  175.00    7.71
   1   2  -6  176.61    7.57
  -1   2   6  170.69    7.59
  -1   2   6  172.11    7.59
   0  -2   6  110.36    4.96
   0  -2  -6  107.91    4.95
   0  -2   6  112.92    4.90
   0  -2  -6   96.31    4.81
   0  -2   6  109.19    4.89
   0  -2  -6  104.92    4.94
   0   2  -6  112.08    4.95
   0   2   6  105.13    4.95
   0   2  -6  111.91    5.06
   0   2  -6  108.35    4.96
   0   2   6   95.56    5.13
   1  -2   6   -0.33    0.65
   1  -2   6   -0.03    1.09
  -1  -2  -6    0.74    0.71
   1   2   6   -1.00    1.07
  -1   2  -6   -0.66    1.21
   1   2   6    0.49    0.83
   1   2   6    0.09    0.52
   1   2   6   -0.46    0.79
  -2  -2  -6    5.35    1.13
   2  -2   6    3.76    0.85
  -2  -2  -6    4.33    1.00
  -2  -2  -6    2.51    0.95
   2  -2   6    3.86    1.20
   2   2   6    3.87    0.97
  -2   2  -6    2.39    0.96
   2   2   6    4.31    0.97
  -2   2  -6    3.98    0.82
   2   2   6    4.44    0.89
   3  -2   6   73.51    3.75
  -3  -2  -6   68.06    3.90
  -3  -2  -6   74.12    3.67
  -3  -2  -6   73.38    3.76
   3  -2   6   73.53    3.70
   3   2   6   70.65    3.69
   3   2   6   74.01    3.77
  -3   2  -6   75.38    3.67
   3   2   6   71.17    3.68
  -3   2  -6   71.98    3.68
  -3   2  -6   72.85    4.13
  -4  -2  -6   24.47    2.21
   4  -2   6   22.65    2.45
   4  -2   6   25.33    2.90
  -4  -2  -6   24.31    2.00
   4  -2   6   23.53    1.93
  -4  -2  -6   25.52    3.54
  -4   2  -6   22.08    1.89
   4   2   6   25.95    1.96
   4   2   6   23.52    2.74
  -4   2  -6   23.11    2.54
   4   2   6   26.64    2.36
  -4   2  -6   27.41    2.22
  -5  -2  -6   -0.51    1.37
   5  -2   6   -1.28    1.90
  -5  -2  -6   -1.69    2.51
   5  -2   6    1.32    2.66
  -5  -2  -6    1.74    2.13
   5  -2   6    2.94    1.52
  -5   2  -6   -0.21    1.68
  -5   2  -6   -1.67    1.29
   5   2   6    0.79    2.16
   5   2   6    2.39    2.36
   5   2   6    3.46    1.42
   6  -2   6   -1.27    2.41
  -6  -2  -6    2.31    2.07
   6  -2   6    2.80    2.54
   6  -2   6    2.66    3.22
  -6  -2  -6    1.61    1.97
  -6  -2  -6    2.42    4.09
   6   2   6    0.49    2.03
   6   2   6   -0.13    2.78
  -6   2  -6   -2.02    2.70
  -6   2  -6    2.51    1.81
   6   2   6    3.12    2.14
   7  -3  -6    1.36    2.33
  -7  -3   6    0.16    1.87
  -7  -3   6   -2.21    3.30
   7  -3  -6    2.44    3.49
  -7  -3   6   -1.90    2.18
  -7   3   6   -1.98    2.26
   7   3  -6    0.01    2.28
   7   3  -6    2.28    2.02
  -7   3   6   -1.02    2.10
   6  -3  -6    6.24    3.18
  -6  -3   6    0.20    2.15
   6  -3  -6    0.70    1.68
  -6  -3   6    1.92    1.52
  -6  -3   6    2.17    1.37
   6  -3  -6    1.78    1.25
   6   3  -6   -1.44    1.67
  -6   3   6    3.95    1.87
  -6   3   6    1.68    1.71
  -5  -3   6    8.14    1.20
   5  -3  -6    9.01    1.41
  -5  -3   6    7.63    1.87
   5  -3  -6    8.75    1.50
   5  -3  -6    7.64    1.86
  -5   3   6    9.17    1.42
   5   3  -6    8.24    1.56
  -5   3   6   10.86    1.95
   5   3  -6    9.73    1.99
   4  -3  -6   30.20    2.02
  -4  -3   6   29.08    1.90
   4  -3  -6   27.74    1.99
   4  -3  -6   25.58    2.15
  -4  -3   6   28.78    2.22
   4   3  -6   28.13    2.19
  -4   3   6   25.93    2.06
   4   3  -6   27.39    2.33
  -4   3   6   32.92    2.13
   3  -3  -6   15.20    1.77
   3  -3  -6   16.30    1.53
  -3  -3   6   16.04    1.58
   3  -3  -6   16.34    1.20
  -3  -3   6   16.74    1.37
   3   3  -6   14.48    1.64
   3   3  -6   17.34    1.65
  -3   3   6   14.84    1.60
  -3   3   6   14.53    1.65
  -2  -3   6   23.11    1.59
   2  -3  -6   23.11    1.79
  -2  -3   6   23.94    1.74
   2  -3  -6   25.89    1.58
  -2   3   6   23.25    1.70
   2   3  -6   23.56    1.65
   2   3  -6   24.76    1.74
  -2   3   6   24.40    1.88
  -2   3   6   21.06    2.18
  -1  -3   6    4.38    0.98
   1  -3  -6    3.59    0.84
   1  -3  -6    3.38    0.88
   1  -3  -6    3.65    0.92
  -1  -3   6    2.98    0.85
  -1   3   6    3.46    1.01
   1   3  -6    2.51    1.01
  -1   3   6    3.73    0.86
   1   3  -6    4.01    0.85
   0  -3   6    0.31    0.72
   0  -3  -6   -0.63    0.99
   0  -3   6   -0.22    0.65
   0  -3  -6    0.01    0.84
   0  -3  -6    0.61    0.85
   0   3  -6    0.38    0.77
   0   3   6    1.73    1.77
   0   3  -6    0.46    0.76
   0   3  -6   -1.51    0.88
  -1  -3  -6   -0.25    0.91
   1  -3   6    0.83    0.96
  -1  -3  -6   -0.02    0.95
  -1  -3  -6    0.42    0.71
   1  -3   6    1.05    0.82
   1  -3   6    1.52    0.80
  -1   3  -6    3.82    1.00
  -1   3  -6   -0.48    0.78
   1   3   6    1.88    1.06
   1   3   6    1.64    0.89
  -2  -3  -6    1.25    1.10
  -2  -3  -6    0.02    1.23
   2  -3   6    2.11    0.96
   2  -3   6    2.11    1.06
  -2   3  -6    2.19    1.38
   2   3   6   -0.81    1.18
  -2   3  -6   -0.07    0.93
   2   3   6    3.36    0.90
   2   3   6    0.26    1.09
   3  -3   6    3.61    1.22
   3  -3   6    3.27    1.08
  -3  -3  -6    4.48    1.38
  -3   3  -6    4.21    1.27
  -3   3  -6    3.55    1.40
   3   3   6    5.08    1.77
  -4  -3  -6    2.03    1.55
  -4  -3  -6    4.91    1.72
   4  -3   6    0.91    1.37
   4  -3   6    2.45    1.93
   4   3   6    3.70    2.30
   4   3   6    3.90    1.78
  -4   3  -6    1.92    1.20
  -4   3  -6    1.39    1.94
  -4   3  -6    3.11    1.57
   4   3   6    3.94    1.51
   5  -3   6    3.99    1.96
  -5  -3  -6    7.85    1.91
   5  -3   6    8.79    2.72
   5  -3   6    1.89    1.95
  -5  -3  -6    5.99    1.88
   5   3   6    4.30    3.93
  -5   3  -6    0.53    2.20
  -5   3  -6    0.35    1.43
   5   3   6    3.55    2.08
   6  -4  -6    5.93    1.97
   6  -4  -6    1.65    4.00
  -6  -4   6    1.93    2.24
  -6   4   6    3.38    2.49
  -6   4   6    1.02    1.89
   6   4  -6    3.84    2.23
   5  -4  -6    3.14    1.69
   5  -4  -6    3.00    2.17
  -5  -4   6   -0.76    3.18
  -5  -4   6    1.21    1.51
   5   4  -6    1.33    2.79
  -4  -4   6   -0.26    2.24
   4  -4  -6    0.20    1.77
   4  -4  -6   -0.89    1.36
  -4  -4   6    1.10    1.80
   4   4  -6    2.47    3.14
   4   4  -6   -2.33    1.47
  -4   4   6    1.29    1.84
  -4   4   6    0.84    1.41
  -3  -4   6    0.12    1.13
   3  -4  -6    0.06    1.50
  -3  -4   6    1.01    1.37
  -3   4   6    1.62    1.19
   3   4  -6    0.58    1.21
   3   4  -6   -0.75    1.41
  -3   4   6    0.05    1.33
  -3   4   6   -0.50    1.61
  -2  -4   6    8.40    1.70
   2  -4  -6   13.36    1.97
  -2  -4   6   12.85    1.58
   2  -4  -6   10.89    1.50
  -2   4   6   13.68    1.68
  -2   4   6   10.59    1.96
  -2   4   6   12.44    1.74
   2   4  -6   13.60    1.79
   2   4  -6   11.83    1.52
  -1  -4   6   -0.97    1.07
  -1  -4   6    0.94    0.96
  -1  -4   6    1.34    1.29
   1  -4  -6    2.17    1.13
   1  -4  -6   -0.25    0.91
   1  -4  -6   -0.26    1.32
   1   4  -6   -0.17    0.91
  -1   4   6    2.57    1.37
   1   4  -6   -0.44    1.02
  -1   4   6    0.00    1.01
  -1   4   6    0.59    1.10
   1   4  -6   -1.34    1.10
   0  -4  -6    7.09    1.30
   0  -4  -6    6.08    1.58
   0  -4   6    6.26    1.18
   0  -4   6    4.87    1.10
   0  -4  -6    5.29    1.48
   0  -4   6    6.10    1.27
   0   4  -6    7.18    1.41
   0   4  -6    8.37    1.29
   0   4   6    4.63    1.54
   0   4  -6    3.85    1.24
   1  -4   6    4.43    1.22
   1  -4   6    2.54    1.18
  -1  -4  -6    4.83    1.37
   1  -4   6    4.64    1.16
  -1  -4  -6    4.44    1.57
  -1   4  -6    3.78    1.30
   1   4   6    4.09    1.35
  -1   4  -6    3.94    1.26
   1   4   6    2.78    1.57
   2  -4   6    7.95    1.56
  -2  -4  -6    8.04    1.87
  -2  -4  -6    4.07    1.62
   2  -4   6    4.35    1.44
   2   4   6    9.01    2.27
   2   4   6    6.15    1.76
  -2   4  -6    5.50    1.55
  -2   4  -6    3.46    1.59
   3  -4   6    3.80    2.08
  -3  -4  -6    5.09    2.17
  -3  -4  -6    4.38    2.24
   3  -4   6    4.29    1.64
   3   4   6    7.03    2.44
  -3   4  -6    0.46    1.80
  -4  -4  -6   33.34    3.22
  -4  -4  -6   23.56    3.01
   4  -4   6   22.36    2.97
   4  -4   6   24.54    2.86
   4   4   6   27.14    3.07
   4   4   6   27.78    3.23
  -4   4  -6   27.82    3.71
  -4   4  -6   22.87    2.91
  -4  -5   6    0.10    2.11
   4  -5  -6    6.33    2.29
   4  -5  -6    3.50    1.69
  -4  -5   6    2.44    1.65
  -4   5   6    6.50    1.75
   4   5  -6    0.79    2.53
   4   5  -6    1.80    2.52
  -4   5   6   -0.04    2.38
  -3  -5   6    3.10    2.00
  -3  -5   6    1.18    1.62
   3  -5  -6    1.61    2.11
   3  -5  -6    6.54    1.70
   3   5  -6    0.33    1.86
  -3   5   6    4.27    2.29
  -2  -5   6   10.34    3.40
  -2  -5   6    4.10    1.62
   2  -5  -6    9.63    2.23
   2  -5  -6    6.97    1.62
   2   5  -6   11.40    1.93
  -2   5   6    6.60    2.40
  -2   5   6   13.61    2.34
   2   5  -6    9.10    1.74
   2   5  -6    7.44    1.47
  -2   5   6   14.14    2.40
  -1  -5   6    4.20    1.50
   1  -5  -6    2.57    2.26
  -1  -5   6    2.79    1.49
  -1  -5   6    1.43    1.61
   1  -5  -6    3.25    1.34
   1   5  -6    1.28    1.57
  -1   5   6    1.66    2.08
   1   5  -6    1.96    2.31
   1   5  -6   -1.20    1.84
  -1   5   6    3.16    1.60
  -1   5   6    5.87    1.57
   0  -5   6    0.14    1.48
   0  -5  -6    3.94    1.74
   0  -5  -6    0.94    2.20
   0  -5  -6    2.92    1.90
   0  -5   6    3.89    1.54
   0  -5   6    2.34    1.48
   0   5  -6    0.69    1.86
   0   5   6    1.05    2.12
   0   5   6    2.51    1.77
   0   5   6    1.61    1.54
   0   5  -6    0.96    1.82
   1  -5   6    4.36    2.10
   1  -5   6    5.52    1.54
  -1  -5  -6    3.63    1.35
  -1  -5  -6    7.09    2.15
  -1   5  -6    7.67    2.16
   1   5   6    2.14    2.79
   1   5   6    7.75    3.48
  -1   5  -6    6.11    1.99
   2  -5   6    1.96    1.58
  -2  -5  -6    1.36    2.20
  -2  -5  -6    4.63    2.11
   2  -5   6    3.07    1.71
   2   5   6    0.89    2.22
  -2   5  -6   -1.23    1.96
   2   5   6    2.45    2.15
  -2   5  -6    2.95    2.11
  -8   0   7   -2.15    1.98
   8   0  -7    4.33    2.12
  -8   0   7   -1.04    2.07
   8   0  -7    6.49    2.17
  -7   0   7    2.14    1.76
  -7   0   7    2.37    1.86
   7   0  -7    4.19    1.65
   7   0  -7    5.28    2.16
   6   0  -7   -1.35    1.59
   6   0  -7    0.65    1.06
  -6   0   7    0.35    1.27
  -6   0   7    1.05    1.25
  -5   0   7    1.08    1.02
  -5   0   7    2.55    0.91
   5   0  -7    1.86    1.21
   5   0  -7    1.27    0.88
  -4   0   7   -0.33    0.72
   4   0  -7    1.62    0.91
   4   0  -7    0.20    0.61
   4   0  -7   -0.14    0.56
  -4   0   7    0.32    0.77
  -4   0   7    0.45    0.64
   3   0  -7  112.17    4.93
  -3   0   7  104.09    4.93
  -3   0   7  115.24    5.08
   3   0  -7   97.30    5.35
  -3   0   7  108.75    5.05
   3   0  -7  110.33    4.98
   3   0  -7  113.04    5.04
  -2   0   7    0.60    0.71
  -2   0   7    0.39    0.71
   2   0  -7   -0.48    0.70
   2   0  -7    0.12    0.57
  -2   0   7   -0.83    0.87
  -2   0   7   -0.44    0.82
   2   0  -7    0.41    0.86
  -2   0   7   -0.76    0.62
   2   0  -7   -0.33    0.67
   1   0  -7   10.59    1.29
   1   0  -7    8.66    1.27
  -1   0   7    9.47    1.09
   1   0  -7    7.24    1.04
   1   0  -7    9.77    1.67
   1   0  -7    8.58    0.98
  -1   0   7    8.59    1.17
   0   0  -7    0.82    0.88
   0   0  -7   -0.21    0.64
   0   0   7   -0.58    0.60
   0   0   7   -0.87    0.74
   0   0  -7   -0.70    0.77
   0   0  -7    0.18    1.04
   0   0  -7   -0.39    0.66
   0   0   7   -1.41    1.01
   0   0  -7   -0.25    0.75
  -1   0  -7    5.39    0.93
  -1   0  -7    4.63    0.95
   1   0   7    4.84    0.90
  -1   0  -7    6.39    1.10
   1   0   7    5.98    1.12
   1   0   7    5.32    0.73
   1   0   7    3.92    1.03
  -2   0  -7   -1.46    0.93
   2   0   7   -1.28    0.81
   2   0   7    1.10    0.77
  -2   0  -7    0.72    0.74
  -2   0  -7    0.20    0.78
   2   0   7    0.46    0.73
   3   0   7    0.87    0.88
   3   0   7   -0.01    0.91
  -3   0  -7   -0.15    1.10
  -3   0  -7    0.45    0.84
  -4   0  -7   -0.58    1.06
  -4   0  -7   -2.14    1.47
   4   0   7    1.89    1.12
   5   0   7    1.43    1.69
  -5   0  -7    1.71    2.05
   5   0   7   -2.58    1.86
  -5   0  -7    2.38    1.46
   6   0   7   -2.82    1.94
  -6   0  -7   -0.25    2.50
  -6   0  -7    1.14    1.93
   6   0   7    0.66    2.12
  -8  -1   7    3.65    2.25
   8  -1  -7    6.12    2.05
   8  -1  -7    3.38    2.00
  -8  -1   7   -0.57    2.46
   8   1  -7   -0.93    2.03
  -8   1   7    0.18    2.06
   8   1  -7    2.59    1.99
  -7  -1   7   14.79    2.53
  -7  -1   7   20.81    3.60
   7  -1  -7   16.86    2.31
   7  -1  -7   17.69    2.83
   7   1  -7   17.92    2.59
   7   1  -7   12.49    1.88
   6  -1  -7   70.68    3.78
  -6  -1   7   67.02    3.70
   6  -1  -7   70.61    3.70
  -6  -1   7   71.19    3.85
  -6   1   7   71.51    3.85
  -6   1   7   68.60    3.76
   6   1  -7   66.22    3.64
   6   1  -7   72.56    3.63
   6   1  -7   69.99    3.77
  -5  -1   7    2.27    1.08
   5  -1  -7   -0.07    1.22
  -5  -1   7    4.08    1.05
   5  -1  -7    2.50    0.93
   5  -1  -7    2.88    0.92
   5   1  -7    1.37    1.27
  -5   1   7    1.52    0.96
   5   1  -7    1.52    0.94
  -5   1   7    4.41    1.17
   4  -1  -7    8.11    1.33
   4  -1  -7    6.63    1.14
  -4  -1   7    7.65    1.43
   4  -1  -7    8.82    1.23
  -4   1   7   10.92    2.07
   4   1  -7    9.77    1.46
  -4   1   7    9.43    1.24
   4   1  -7    6.58    1.14
  -4   1   7   10.06    1.27
   3  -1  -7    2.44    0.85
   3  -1  -7    1.42    0.73
  -3  -1   7    2.99    0.94
  -3  -1   7    0.49    0.90
   3  -1  -7    2.44    0.78
  -3   1   7    3.41    1.04
   3   1  -7    1.07    0.61
   3   1  -7    2.16    0.89
   3   1  -7    1.88    0.87
  -3   1   7    1.10    0.81
   2  -1  -7   15.19    1.61
  -2  -1   7   13.54    1.18
  -2  -1   7   15.82    1.46
   2  -1  -7   14.17    1.25
   2  -1  -7   13.08    1.09
   2   1  -7   14.44    1.34
  -2   1   7   11.85    1.19
  -2   1   7   13.88    1.03
  -2   1   7   15.11    1.53
   2   1  -7   15.48    1.14
   2   1  -7   14.25    1.13
  -2   1   7   13.90    1.34
  -2   1   7   13.81    1.29
   1  -1  -7    2.56    0.86
  -1  -1   7    2.09    0.93
   1  -1  -7    1.76    0.96
   1  -1  -7   -0.04    0.72
   1  -1  -7    0.74    0.56
  -1  -1   7    0.28    0.73
   1   1  -7    1.03    0.73
   1   1  -7    1.04    0.84
  -1   1   7    1.65    0.78
  -1   1   7    1.44    0.56
   1   1  -7    1.29    0.66
   0  -1  -7   54.05    2.66
   0  -1   7   50.37    2.61
   0  -1  -7   47.85    2.43
   0  -1  -7   49.10    2.67
   0  -1  -7   49.49    2.88
   0  -1   7   48.53    2.60
   0  -1   7   51.35    2.54
   0   1  -7   50.51    2.62
   0   1   7   47.08    2.87
   0   1  -7   53.80    2.59
   0   1   7   51.93    2.50
   0   1  -7   50.88    2.69
   0   1   7   53.30    2.69
   0   1   7   49.27    2.50
   1  -1   7    6.81    1.20
  -1  -1  -7    6.00    1.18
  -1  -1  -7    6.24    1.07
  -1  -1  -7    7.11    1.21
   1  -1   7    6.73    1.04
  -1   1  -7    4.67    0.84
   1   1   7    6.01    0.98
  -1   1  -7    5.85    1.15
   1   1   7    5.57    0.91
   1   1   7    6.12    1.16
  -2  -1  -7   13.35    1.33
  -2  -1  -7   14.15    1.38
   2  -1   7   14.54    1.75
   2  -1   7   11.84    1.90
  -2  -1  -7   12.79    1.60
   2  -1   7   12.09    1.34
  -2   1  -7   11.23    1.34
   2   1   7   10.14    1.34
  -2   1  -7   12.62    1.27
   3  -1   7   21.98    1.88
  -3  -1  -7   23.80    1.90
  -3  -1  -7   22.78    1.85
  -3  -1  -7   23.21    2.01
   3  -1   7   20.93    1.81
   3   1   7   24.24    1.98
  -3   1  -7   21.60    1.90
  -3   1  -7   23.51    1.82
  -3   1  -7   25.47    1.70
   3   1   7   23.85    1.94
  -4  -1  -7    2.92    1.24
   4  -1   7    3.04    1.35
   4  -1   7    3.56    1.70
  -4  -1  -7    0.38    1.44
   4  -1   7    1.43    1.34
  -4   1  -7    0.65    1.44
  -4   1  -7    2.41    1.25
   4   1   7    0.94    1.09
  -4   1  -7    2.68    1.09
   4   1   7   -0.81    1.46
   5  -1   7    6.10    1.45
  -5  -1  -7    4.56    2.16
   5  -1   7    3.20    1.92
  -5  -1  -7    4.36    2.47
   5  -1   7    6.27    1.98
   5   1   7    4.18    1.56
   5   1   7    5.33    1.90
  -5   1  -7    6.11    3.07
  -6  -1  -7   -1.03    1.99
  -6  -1  -7    1.98    2.61
   6  -1   7   -1.08    1.96
   6  -1   7    1.09    2.18
  -6   1  -7    2.22    2.37
   6   1   7    2.58    2.19
  -7  -2   7    4.12    2.24
   7  -2  -7    4.71    1.96
  -7  -2   7    1.11    2.18
   7  -2  -7    4.57    1.66
  -7  -2   7    3.71    1.51
  -7   2   7    0.92    1.96
  -7   2   7    3.34    2.00
   7   2  -7    6.05    1.91
  -7   2   7    7.01    2.15
   7   2  -7    6.85    1.93
   7   2  -7    4.41    1.64
   6  -2  -7   11.05    2.33
   6  -2  -7   14.04    2.16
  -6  -2   7   11.03    1.85
  -6  -2   7   10.99    1.65
   6  -2  -7    9.26    1.69
  -6  -2   7    9.18    1.97
   6   2  -7    8.34    1.99
  -6   2   7    8.69    1.73
  -6   2   7   11.80    2.14
   6   2  -7   12.47    1.90
  -6   2   7   11.52    1.74
   6   2  -7   10.83    1.88
  -5  -2   7   21.19    2.23
  -5  -2   7   22.51    2.08
   5  -2  -7   24.83    1.71
   5  -2  -7   17.74    1.92
  -5  -2   7   19.32    2.28
   5  -2  -7   21.87    2.38
  -5   2   7   16.64    2.45
   5   2  -7   17.95    2.03
   5   2  -7   25.04    1.97
  -5   2   7   22.75    1.91
   5   2  -7   22.07    1.80
   4  -2  -7    3.04    0.87
  -4  -2   7    0.55    0.77
   4  -2  -7    1.97    0.99
  -4  -2   7    2.53    1.04
   4   2  -7    1.08    0.84
  -4   2   7    2.03    0.91
   4   2  -7    1.04    0.78
   4   2  -7    2.04    1.62
   3  -2  -7    0.54    0.69
   3  -2  -7    0.02    0.70
  -3  -2   7    0.93    0.57
   3  -2  -7   -0.35    0.77
  -3   2   7    0.84    0.83
  -3   2   7    1.33    0.89
  -3   2   7    2.44    0.78
   3   2  -7   -0.38    0.74
   3   2  -7    0.50    0.59
   3   2  -7   -0.64    0.65
   2  -2  -7    2.04    0.85
  -2  -2   7    2.30    0.87
   2  -2  -7    2.28    0.73
  -2  -2   7    1.18    0.53
  -2   2   7    0.72    0.65
  -2   2   7    1.58    0.72
  -2   2   7    3.03    0.92
   2   2  -7    0.43    0.63
  -2   2   7    2.12    0.77
   1  -2  -7   21.21    1.50
  -1  -2   7   22.19    1.39
   1  -2  -7   21.44    1.76
  -1   2   7   22.09    1.59
   1   2  -7   22.97    1.43
   1   2  -7   22.62    1.67
  -1   2   7   22.97    1.55
   1   2  -7   22.20    1.51
  -1   2   7   19.17    1.73
   0  -2   7   13.93    1.27
   0  -2  -7   13.63    1.34
   0  -2  -7   13.94    1.26
   0  -2  -7   15.28    1.34
   0  -2   7   16.90    1.46
   0  -2   7   15.87    1.36
   0   2  -7   16.56    1.29
   0   2  -7   14.33    1.45
   0   2   7   16.41    1.54
   0   2   7   15.38    1.47
   0   2  -7   15.23    1.21
  -1  -2  -7   13.08    1.30
   1  -2   7   11.86    1.28
  -1  -2  -7   14.74    1.30
   1  -2   7   15.59    1.69
  -1   2  -7   12.62    1.21
   1   2   7    9.80    1.14
  -1   2  -7   12.48    1.22
   1   2   7   13.92    1.33
   1   2   7   13.88    1.76
   1   2   7   12.27    1.08
   2  -2   7   47.13    2.38
  -2  -2  -7   44.30    2.56
   2  -2   7   42.91    2.47
  -2  -2  -7   43.71    2.50
   2   2   7   41.27    2.46
   2   2   7   37.55    2.67
  -2   2  -7   42.26    2.39
  -2   2  -7   43.64    2.47
   2   2   7   41.96    2.54
   3  -2   7   28.04    2.15
  -3  -2  -7   30.52    2.05
  -3  -2  -7   29.87    2.27
   3  -2   7   33.09    2.07
   3   2   7   28.78    2.28
  -3   2  -7   25.91    2.19
   3   2   7   32.72    2.86
  -3   2  -7   31.41    2.18
   3   2   7   29.08    2.24
   4  -2   7    5.60    2.68
   4  -2   7    6.18    1.64
   4  -2   7    7.96    2.13
  -4  -2  -7    5.05    1.33
  -4  -2  -7    4.62    1.76
  -4   2  -7    6.37    1.52
   4   2   7    7.00    3.18
   4   2   7    5.19    1.70
   4   2   7    6.50    1.32
  -4   2  -7    5.63    1.81
  -4   2  -7    3.26    1.13
  -5  -2  -7    4.09    1.62
   5  -2   7    4.25    1.98
  -5  -2  -7   -0.14    3.47
   5  -2   7    5.94    1.62
  -5  -2  -7    5.49    1.99
   5  -2   7    3.57    2.68
  -5   2  -7    5.13    2.44
   5   2   7    7.21    3.30
   5   2   7    0.77    1.98
  -5   2  -7    3.48    2.51
  -5   2  -7    7.08    1.55
   5   2   7    1.73    1.55
  -6  -2  -7    5.24    2.81
   6  -2   7    6.60    2.33
  -6  -2  -7    7.64    2.22
   6   2   7   11.39    2.72
  -6   2  -7    2.21    2.53
  -7  -3   7    0.87    2.00
   7  -3  -7    2.51    1.92
   7  -3  -7    2.11    1.78
   7  -3  -7   -0.03    2.47
  -7  -3   7    1.76    3.53
  -7   3   7   -0.64    2.11
   7   3  -7    2.04    2.65
   7   3  -7    3.01    2.01
  -7   3   7   -0.87    2.63
   6  -3  -7    0.53    1.64
   6  -3  -7    4.35    1.35
  -6  -3   7    2.34    2.21
   6  -3  -7    3.70    1.98
  -6  -3   7    5.11    1.64
  -6   3   7    4.63    1.95
  -6   3   7    1.59    1.70
  -6   3   7   -0.07    2.14
   6   3  -7    4.56    1.91
   6   3  -7    1.67    1.87
   5  -3  -7    3.99    1.48
  -5  -3   7    1.33    1.78
  -5  -3   7    4.96    1.31
   5  -3  -7    4.05    1.06
   5  -3  -7    5.09    1.66
  -5   3   7    1.11    1.45
   5   3  -7    2.11    1.48
  -5   3   7    4.73    1.59
   4  -3  -7    4.42    1.18
   4  -3  -7    5.80    1.14
  -4  -3   7    5.15    1.47
   4  -3  -7    4.92    1.41
  -4   3   7    6.52    1.34
   4   3  -7    6.80    1.81
   4   3  -7    6.77    1.27
   3  -3  -7  110.35    5.34
  -3  -3   7  115.59    5.36
  -3  -3   7  115.26    5.51
   3  -3  -7  105.59    5.52
   3   3  -7  119.62    5.56
   3   3  -7  120.86    5.55
  -3   3   7  114.19    5.44
  -3   3   7  112.85    5.42
  -2  -3   7  182.17    8.02
  -2  -3   7  177.58    7.98
   2  -3  -7  173.32    7.91
   2  -3  -7  170.54    8.05
   2   3  -7  182.13    8.02
  -2   3   7  180.94    8.01
  -2   3   7  169.94    7.90
   2   3  -7  172.58    8.09
  -2   3   7  178.18    8.02
   1  -3  -7   55.22    3.17
   1  -3  -7   57.45    3.09
  -1  -3   7   57.92    3.03
   1  -3  -7   56.48    2.89
  -1  -3   7   55.88    2.97
  -1   3   7   57.19    3.11
   1   3  -7   55.19    2.97
  -1   3   7   59.62    3.07
   1   3  -7   57.63    3.07
  -1   3   7   63.29    3.10
   1   3  -7   59.90    3.17
   0  -3   7    1.34    0.80
   0  -3  -7    1.44    0.96
   0  -3   7    0.44    0.85
   0   3  -7    1.70    0.77
   0   3  -7   -0.07    0.80
   0   3  -7    1.26    1.93
   0   3   7    0.48    1.06
   0   3   7    4.69    1.81
  -1  -3  -7    0.94    1.22
   1  -3   7    1.76    0.96
   1  -3   7   -0.25    0.88
  -1  -3  -7    0.98    1.06
  -1   3  -7    1.84    1.00
  -1   3  -7    0.48    0.95
   1   3   7    3.62    1.22
   1   3   7    0.59    0.94
   2  -3   7    2.08    1.10
  -2  -3  -7    2.55    1.20
   2  -3   7    3.47    1.11
  -2  -3  -7    5.85    1.34
   2   3   7    4.58    1.48
  -2   3  -7    3.40    1.19
  -2   3  -7    3.80    2.11
   2   3   7    6.14    2.40
  -3  -3  -7    0.41    1.75
   3  -3   7    3.55    1.79
   3  -3   7    0.20    1.39
  -3  -3  -7   -0.48    1.47
  -3   3  -7   -2.40    1.53
   3   3   7   -0.23    1.53
  -3   3  -7   -2.18    1.39
   4  -3   7    3.73    2.02
  -4  -3  -7    3.71    2.13
   4  -3   7   -1.38    1.53
  -4  -3  -7    5.78    1.80
   4   3   7    0.74    2.04
  -4   3  -7    6.58    3.04
   4   3   7    1.51    2.22
  -4   3  -7    1.25    2.04
   4   3   7    4.46    2.16
  -4   3  -7    2.02    1.22
  -5  -3  -7    5.51    2.18
  -5  -3  -7    4.49    1.93
   5  -3   7    0.87    1.99
   5  -3   7    5.22    2.30
   5  -3   7    2.14    2.22
  -5   3  -7    4.64    2.45
  -5   3  -7    2.68    2.63
   5   3   7    0.40    2.37
   5  -4  -7    4.74    1.66
  -5  -4   7    0.56    1.99
   5  -4  -7   -0.78    2.87
   5   4  -7    1.21    1.94
   5   4  -7    0.99    2.04
  -5   4   7    0.02    2.28
  -5   4   7   -1.54    1.65
   4  -4  -7    4.92    2.02
  -4  -4   7    8.72    1.70
   4  -4  -7    6.69    2.87
   4   4  -7    9.75    2.37
   4   4  -7    8.43    2.30
  -4   4   7    7.32    1.66
  -3  -4   7    4.84    1.56
   3  -4  -7   10.05    2.04
  -3  -4   7    4.59    2.33
   3  -4  -7    8.97    1.70
  -3   4   7    7.38    1.44
   3   4  -7    8.53    1.70
  -3   4   7    8.39    1.94
   3   4  -7    6.79    1.48
   2  -4  -7   -0.89    1.27
  -2  -4   7   -0.34    1.40
  -2  -4   7    1.27    1.17
   2  -4  -7   -0.31    1.60
   2   4  -7    0.71    1.35
  -2   4   7    0.33    1.52
  -2   4   7    0.13    1.79
   2   4  -7    1.65    1.06
  -2   4   7    1.15    1.21
   2   4  -7    0.34    1.07
   1  -4  -7    5.70    1.04
   1  -4  -7    3.75    1.35
  -1  -4   7    5.92    1.23
  -1  -4   7    4.90    1.19
  -1  -4   7    1.91    1.18
   1  -4  -7    5.46    1.66
   1   4  -7    3.96    1.46
  -1   4   7    3.70    1.67
   1   4  -7    4.24    1.16
  -1   4   7    5.48    1.19
   1   4  -7    3.99    1.16
  -1   4   7    5.15    1.28
   0  -4  -7   13.96    2.08
   0  -4   7   15.26    1.80
   0  -4   7   11.80    1.84
   0  -4  -7   14.03    1.83
   0  -4   7   12.33    2.02
   0  -4  -7   12.59    2.23
   0   4  -7   12.44    1.67
   0   4   7   17.18    2.35
   0   4   7   17.95    2.37
   0   4  -7   15.53    1.74
   0   4  -7   15.66    3.19
   1  -4   7    6.62    1.44
  -1  -4  -7    8.62    1.85
  -1  -4  -7    6.51    1.60
  -1  -4  -7    9.40    1.61
   1  -4   7    4.63    1.49
   1  -4   7    6.13    1.41
  -1   4  -7    4.48    1.57
   1   4   7    5.73    1.58
   1   4   7    6.77    1.96
  -2  -4  -7    2.38    2.53
   2  -4   7    4.28    1.82
  -2  -4  -7   -0.08    1.98
   2  -4   7    2.40    1.55
   2   4   7   -0.75    1.80
  -2   4  -7    3.91    1.90
  -2   4  -7    4.95    1.80
   3  -4   7    0.86    1.71
  -3  -4  -7   -2.78    2.77
  -3  -4  -7    2.72    1.93
   3  -4   7    0.89    1.77
  -3   4  -7    3.44    2.13
   3   4   7    4.42    2.21
   3   4   7    2.50    2.16
  -3   4  -7    6.06    2.12
  -4  -4  -7   31.29    3.28
   4  -4   7   26.12    3.09
  -4  -4  -7   30.01    3.03
   4  -4   7   21.11    3.05
  -4   4  -7   29.95    3.55
   4   4   7   22.81    3.37
  -4   4  -7   25.11    4.24
   4   4   7   25.05    3.27
  -3  -5   7    0.27    1.50
   3  -5  -7    0.76    2.23
   3  -5  -7    3.13    1.71
  -3  -5   7    1.35    1.96
   3   5  -7    2.57    1.62
  -3   5   7    6.37    1.72
   3   5  -7    6.74    1.92
  -3   5   7    3.41    2.42
   2  -5  -7    0.12    2.15
   2  -5  -7    0.17    2.26
  -2  -5   7    4.45    1.66
  -2  -5   7    2.34    2.26
   2   5  -7   -0.51    2.30
  -2   5   7    2.31    2.99
   2   5  -7    0.83    1.78
  -2   5   7    1.69    1.69
   2   5  -7    0.80    2.29
  -2   5   7    2.29    2.64
  -1  -5   7    1.08    1.69
   1  -5  -7    0.14    2.07
   1  -5  -7    0.97    1.42
  -1  -5   7   -1.45    1.49
  -1   5   7    2.69    1.68
   1   5  -7   -0.44    1.92
  -1   5   7   -0.91    2.31
   1   5  -7    1.12    1.59
   0  -5  -7    0.18    2.28
   0  -5   7   -2.02    2.24
   0  -5   7    2.17    2.11
   0  -5  -7    1.61    1.97
   0  -5   7   -0.03    2.44
   0  -5  -7    3.86    2.25
   0   5   7    2.04    2.27
   0   5  -7    0.85    1.84
   0   5  -7    1.13    1.86
   0   5   7    3.83    1.82
  -1  -5  -7   10.46    2.47
  -1  -5  -7   15.52    2.96
   1  -5   7   13.65    2.12
  -1   5  -7   13.10    2.52
   1   5   7   11.56    2.72
  -1   5  -7    7.63    2.70
   1   5   7   13.94    3.45
  -2   5  -7    7.22    2.26
   2   5   7    8.84    2.31
  -8   0   8    1.19    2.28
  -8   0   8    5.02    2.49
   8   0  -8    4.81    2.03
   7   0  -8    1.87    1.84
   7   0  -8   -0.42    2.48
  -7   0   8   -0.10    2.41
  -7   0   8   -2.82    1.86
   6   0  -8    1.79    1.25
  -6   0   8    4.03    1.31
   6   0  -8   -0.06    1.22
  -6   0   8    1.51    1.41
   5   0  -8   -0.38    0.93
  -5   0   8    1.38    0.95
   5   0  -8   -0.39    0.86
  -5   0   8   -1.38    1.07
   4   0  -8    2.50    0.65
   4   0  -8    1.28    0.77
   4   0  -8    2.51    1.16
  -4   0   8    3.84    1.01
  -4   0   8    1.72    0.92
  -3   0   8    1.28    0.76
   3   0  -8   -0.57    0.61
   3   0  -8    0.88    0.64
  -3   0   8   -0.27    0.73
   3   0  -8   -0.46    0.62
   3   0  -8   -0.31    0.68
  -3   0   8    1.80    1.06
   2   0  -8    0.61    0.75
   2   0  -8    1.29    0.62
  -2   0   8    0.47    0.88
  -2   0   8    0.71    0.74
   2   0  -8   -0.48    0.68
   2   0  -8    0.20    0.83
   1   0  -8   -0.47    0.86
   1   0  -8   -0.64    1.00
   1   0  -8    0.55    1.10
   0   0  -8  126.46    5.84
   0   0   8  138.64    6.09
   0   0   8  130.91    5.85
   0   0  -8  129.20    5.89
   0   0  -8  122.81    5.91
   1   0   8    1.48    0.72
   1   0   8    0.59    0.82
  -1   0  -8   -0.56    0.88
  -1   0  -8    1.32    0.77
  -1   0  -8    1.19    0.88
  -1   0  -8    1.20    0.82
   1   0   8   -0.64    0.70
   2   0   8    5.65    1.07
  -2   0  -8    1.73    0.95
  -2   0  -8    3.50    0.90
  -2   0  -8    3.92    0.87
   2   0   8    1.51    0.81
   3   0   8    0.08    1.08
  -3   0  -8    0.75    0.96
   3   0   8    1.15    0.97
  -3   0  -8    0.09    1.20
  -4   0  -8    1.59    1.70
   4   0   8   -0.80    1.45
   4   0   8    2.11    1.88
  -4   0  -8    1.56    1.29
   5   0   8   -2.23    1.99
  -5   0  -8   -0.05    1.83
   6   0   8    1.65    2.04
   6   0   8   -0.57    2.24
  -6   0  -8    1.91    2.80
  -6   0  -8    2.85    2.60
   8  -1  -8    3.84    2.07
   8  -1  -8    6.34    2.20
  -8   1   8    0.26    2.47
  -8   1   8   -0.02    2.14
   8   1  -8    6.25    2.17
   8   1  -8    4.82    2.12
  -7  -1   8    1.78    2.08
   7  -1  -8    3.74    1.78
   7  -1  -8    3.76    2.07
  -7  -1   8    1.09    1.79
  -7   1   8    2.00    1.92
   7   1  -8    3.64    1.86
  -7   1   8   -2.32    2.19
   7   1  -8    2.82    2.73
  -6  -1   8   22.34    3.22
   6  -1  -8   24.99    2.77
   6  -1  -8   24.49    2.33
  -6  -1   8   25.07    2.48
  -6   1   8   23.84    2.44
   6   1  -8   26.21    2.00
   6   1  -8   26.91    2.40
   6   1  -8   24.22    2.18
   5  -1  -8    1.44    1.10
   5  -1  -8    1.88    1.05
  -5  -1   8    2.08    1.19
  -5  -1   8    3.29    1.05
   5   1  -8    4.04    1.96
   5   1  -8    1.77    1.04
   5   1  -8    1.34    1.25
  -5   1   8    1.93    1.10
  -5   1   8    1.20    1.65
   4  -1  -8   20.50    1.49
   4  -1  -8   16.89    1.54
   4  -1  -8   17.19    1.73
  -4  -1   8   19.42    1.66
  -4   1   8   20.57    1.64
   4   1  -8   18.89    1.64
  -4   1   8   21.40    1.75
   4   1  -8   18.73    1.52
  -3  -1   8   18.82    1.86
   3  -1  -8   15.37    1.31
   3  -1  -8   17.40    1.48
  -3  -1   8   17.17    2.14
  -3  -1   8   16.86    1.46
   3   1  -8   18.30    1.32
  -3   1   8   19.22    1.50
   3   1  -8   17.20    1.32
  -2  -1   8    6.50    1.05
   2  -1  -8    5.50    1.02
   2  -1  -8    6.05    0.91
   2  -1  -8    5.86    0.96
  -2  -1   8    6.68    1.19
  -2   1   8    5.86    1.00
   2   1  -8    6.71    0.98
  -2   1   8    5.02    1.28
   2   1  -8    6.99    1.53
   2   1  -8    7.70    1.22
  -2   1   8    6.22    1.17
  -2   1   8    6.94    1.20
  -1  -1   8    6.83    0.93
   1  -1  -8    8.62    1.02
   1  -1  -8    8.82    1.17
   1  -1  -8    6.60    1.08
   1   1  -8    6.67    0.98
  -1   1   8    9.84    1.13
  -1   1   8    7.18    1.33
   1   1  -8    7.83    1.39
   1   1  -8    6.89    1.13
  -1   1   8    9.44    1.21
   0  -1   8   17.62    1.37
   0  -1  -8   17.41    1.55
   0  -1  -8   16.58    1.34
   0  -1   8   18.64    1.32
   0  -1   8   17.06    1.56
   0  -1  -8   19.22    1.74
   0  -1  -8   20.04    1.55
   0   1   8   16.65    1.46
   0   1  -8   16.68    1.36
   0   1   8   15.44    1.56
   0   1   8   16.50    1.49
   0   1  -8   17.43    1.62
   0   1  -8   21.42    1.89
  -1  -1  -8    0.21    0.92
  -1  -1  -8    0.14    1.05
   1  -1   8    0.53    0.89
  -1  -1  -8   -0.45    0.69
   1   1   8    1.40    0.66
  -1   1  -8   -0.36    0.66
   1   1   8   -0.15    1.13
   1   1   8    1.13    0.89
   1   1   8    0.22    0.97
  -2  -1  -8   38.07    2.21
   2  -1   8   34.18    2.28
   2  -1   8   38.66    2.26
  -2  -1  -8   37.48    2.32
   2  -1   8   37.44    3.16
   2   1   8   34.85    2.35
  -2   1  -8   35.61    2.23
  -2   1  -8   38.35    2.18
   2   1   8   36.78    2.19
  -2   1  -8   39.60    2.61
   3  -1   8   69.06    3.84
  -3  -1  -8   78.66    4.16
  -3  -1  -8   70.24    3.68
   3  -1   8   73.66    3.70
   3  -1   8   70.37    3.80
  -3  -1  -8   75.11    3.97
  -3   1  -8   71.21    3.60
  -3   1  -8   66.87    3.77
   3   1   8   69.66    3.77
   3   1   8   72.13    4.17
  -3   1  -8   78.41    4.13
   4  -1   8    3.60    1.71
  -4  -1  -8    4.73    1.51
   4  -1   8    4.40    1.38
   4  -1   8    2.79    1.50
  -4  -1  -8    2.08    1.45
  -4  -1  -8    2.72    1.78
  -4   1  -8    2.93    1.78
  -4   1  -8    4.24    1.57
  -4   1  -8    1.42    1.18
   4   1   8    1.14    1.66
   4   1   8    5.31    1.28
  -5  -1  -8   21.86    4.25
  -5  -1  -8   12.47    2.33
   5  -1   8   12.16    2.26
   5   1   8    9.52    2.22
  -5   1  -8   10.31    2.41
   5   1   8    7.40    2.24
  -5   1  -8   13.86    2.28
  -6  -1  -8    2.97    2.65
   6  -1   8    5.40    2.35
   6  -1   8    6.96    2.26
   6   1   8    3.65    2.28
  -6   1  -8    5.81    2.28
   6   1   8    2.94    3.33
  -6   1  -8    4.77    2.57
  -7  -2   8   18.23    3.01
  -7  -2   8   19.50    3.14
   7  -2  -8   19.77    2.83
  -7   2   8   21.53    2.99
  -7   2   8   19.79    3.02
   7   2  -8   25.53    3.12
  -7   2   8   17.08    3.07
   7   2  -8   20.83    3.05
   6  -2  -8    3.22    1.82
  -6  -2   8    2.97    1.42
   6  -2  -8   -0.32    1.34
   6  -2  -8    1.94    2.16
  -6  -2   8    0.70    2.10
  -6  -2   8    0.16    1.50
   6   2  -8   -1.31    2.36
  -6   2   8    0.23    1.65
  -6   2   8    0.81    2.01
   6   2  -8    1.07    1.51
  -6   2   8    3.22    1.74
   5  -2  -8    8.55    1.23
  -5  -2   8    5.63    1.20
  -5  -2   8    6.38    1.60
   5  -2  -8    6.76    1.35
   5  -2  -8    5.99    1.48
   5   2  -8    6.91    1.18
   5   2  -8    7.06    1.32
  -5   2   8    6.73    1.35
  -5   2   8    9.32    1.85
   5   2  -8    7.89    1.39
   4  -2  -8    3.42    1.32
   4  -2  -8    6.57    1.38
  -4  -2   8    6.91    1.08
   4  -2  -8    4.31    1.04
  -4  -2   8    6.78    1.27
  -4   2   8    7.99    1.36
   4   2  -8    6.85    1.09
   4   2  -8    5.99    1.08
  -4   2   8    5.07    1.08
  -3  -2   8   20.01    1.52
   3  -2  -8   19.86    1.73
   3  -2  -8   25.28    2.31
  -3  -2   8   22.07    1.69
   3  -2  -8   23.34    1.55
  -3   2   8   25.90    1.68
   3   2  -8   21.67    1.61
   3   2  -8   23.11    1.67
  -3   2   8   22.20    1.87
   2  -2  -8    1.11    0.70
   2  -2  -8   -0.31    0.82
  -2  -2   8    0.29    0.61
  -2  -2   8    0.88    1.03
  -2   2   8    2.30    0.92
   2   2  -8    2.34    0.74
   2   2  -8    1.63    0.84
  -2   2   8   -0.36    0.82
  -2   2   8    1.20    0.78
   1  -2  -8    2.59    0.81
  -1  -2   8    2.43    1.05
   1  -2  -8   -0.05    0.84
   1  -2  -8    1.56    0.83
  -1  -2   8    0.05    1.06
   1   2  -8    0.64    0.68
  -1   2   8    1.94    0.96
   1   2  -8    0.77    0.65
  -1   2   8    0.41    0.83
   1   2  -8    1.47    1.19
   0  -2   8    1.94    0.77
   0  -2  -8    1.59    0.84
   0  -2  -8    0.15    0.81
   0  -2   8    2.33    1.15
   0  -2   8    1.26    0.70
   0  -2  -8    1.20    1.37
   0   2   8    1.36    0.64
   0   2  -8    2.06    0.74
   0   2  -8    2.24    0.78
   0   2   8    0.86    0.94
   0   2   8    3.37    0.92
   0   2  -8   -0.18    0.86
   0   2   8    1.77    0.55
   1  -2   8   13.21    1.54
  -1  -2  -8   11.43    1.51
   1  -2   8   14.53    1.32
  -1  -2  -8   10.53    1.46
  -1   2  -8   13.57    1.38
   1   2   8   16.33    1.51
  -1   2  -8   14.11    1.42
   1   2   8   11.98    1.76
   1   2   8   10.61    1.68
   2  -2   8   30.05    1.92
  -2  -2  -8   29.17    2.24
  -2  -2  -8   29.02    2.13
  -2  -2  -8   26.83    2.00
   2  -2   8   30.74    2.10
   2   2   8   27.97    2.25
  -2   2  -8   28.79    2.07
   2   2   8   28.99    2.55
   2   2   8   31.82    2.21
  -3  -2  -8    8.03    1.53
  -3  -2  -8   10.54    1.86
  -3  -2  -8    8.67    1.35
   3  -2   8    9.61    1.84
   3  -2   8   10.28    1.60
   3   2   8    9.01    1.65
  -3   2  -8   12.94    1.88
   3   2   8   11.23    1.92
  -3   2  -8    7.81    1.17
  -3   2  -8    9.94    1.98
   3   2   8   11.77    1.83
  -4  -2  -8    1.51    1.91
  -4  -2  -8    0.41    2.13
   4  -2   8    4.14    1.42
   4  -2   8   -0.08    1.97
  -4  -2  -8    1.08    1.41
   4   2   8   -0.45    2.13
   4   2   8    1.17    1.33
  -4   2  -8    0.00    1.20
   4   2   8    0.48    2.36
  -4   2  -8    0.59    1.75
  -4   2  -8    2.86    2.69
   5  -2   8   12.05    2.54
  -5  -2  -8   10.18    1.82
  -5  -2  -8   14.49    2.50
   5  -2   8    9.03    1.94
  -5  -2  -8    9.78    2.72
  -5   2  -8   12.61    2.36
  -5   2  -8   16.21    2.45
   5   2   8   11.81    2.02
   5   2   8   16.78    3.24
   5   2   8   11.06    3.18
  -5   2  -8   13.19    3.36
   6  -3  -8    0.19    1.77
   6  -3  -8   -1.16    1.38
   6  -3  -8    3.66    2.50
  -6  -3   8    0.84    2.52
  -6  -3   8    2.96    2.22
   6   3  -8    1.65    1.81
  -6   3   8    5.42    3.25
  -6   3   8    2.79    1.83
  -6   3   8   -0.34    2.17
  -5  -3   8    0.59    2.93
   5  -3  -8    1.64    1.69
  -5  -3   8    2.03    1.39
   5  -3  -8    1.72    1.10
   5  -3  -8    1.88    1.77
  -5   3   8    5.01    1.62
  -5   3   8   -0.28    1.67
   5   3  -8   -0.60    1.48
  -4  -3   8    2.30    1.11
   4  -3  -8    0.39    1.41
   4  -3  -8    2.32    1.57
  -4  -3   8    0.34    1.43
   4  -3  -8    0.54    1.10
  -4   3   8    3.54    2.27
  -4   3   8    1.38    1.24
   4   3  -8    2.04    1.29
   3  -3  -8   10.68    1.59
  -3  -3   8   12.81    1.63
  -3  -3   8   13.61    1.50
   3  -3  -8    9.06    1.46
   3   3  -8   12.59    2.57
  -3   3   8   12.76    1.83
  -3   3   8   10.03    1.77
   3   3  -8    9.84    1.64
   2  -3  -8    0.57    1.12
   2  -3  -8    1.76    0.86
  -2  -3   8    0.57    0.94
  -2   3   8    2.21    1.02
  -2   3   8    1.27    1.18
  -2   3   8    0.55    1.46
   2   3  -8   -0.27    1.18
   2   3  -8   -0.07    1.02
   1  -3  -8   88.43    4.17
   1  -3  -8   90.89    4.44
   1  -3  -8   84.93    4.66
  -1  -3   8   92.89    4.91
  -1  -3   8   89.10    4.33
  -1  -3   8   86.42    4.34
  -1   3   8   85.95    4.56
   1   3  -8   85.64    4.86
   1   3  -8   91.24    4.41
   1   3  -8   89.73    4.16
  -1   3   8   87.14    4.32
  -1   3   8   91.67    4.40
   0  -3   8   43.06    2.66
   0  -3   8   47.99    2.77
   0  -3  -8   44.28    2.78
   0  -3  -8   43.12    2.85
   0  -3   8   53.69    3.12
   0  -3  -8   44.10    2.73
   0   3  -8   49.57    2.85
   0   3  -8   48.84    2.76
   0   3  -8   49.71    3.46
   0   3   8   42.45    2.82
   0   3   8   49.56    2.76
  -1  -3  -8    1.92    1.19
  -1  -3  -8    3.51    2.00
   1  -3   8    1.51    1.29
   1  -3   8    2.70    1.13
   1   3   8    2.64    1.45
   1   3   8    1.62    1.50
  -1   3  -8    0.96    1.09
  -1   3  -8    1.24    1.17
  -2  -3  -8    3.79    1.45
   2  -3   8    1.13    1.27
   2  -3   8    3.46    1.31
  -2  -3  -8    5.92    1.45
  -2   3  -8    4.38    1.36
   2   3   8    2.62    1.46
  -2   3  -8    3.71    1.33
   2   3   8    3.80    1.73
  -3  -3  -8    1.24    1.65
   3  -3   8    2.77    2.68
   3  -3   8    2.08    1.58
   3   3   8    1.87    2.24
   3   3   8    2.58    2.12
  -3   3  -8    0.82    2.04
  -3   3  -8   -0.68    1.79
  -4  -3  -8    2.32    1.96
   4  -3   8    1.82    1.82
   4  -3   8    2.51    1.91
  -4  -3  -8    5.88    1.89
  -4   3  -8    4.99    2.16
   4   3   8    1.06    2.07
   4   3   8    6.01    2.36
  -4   3  -8    0.41    2.05
  -5  -4   8    2.15    2.01
   5  -4  -8    1.59    2.21
  -5  -4   8    2.58    1.73
   5  -4  -8    4.72    2.13
  -5   4   8    5.25    2.32
   5   4  -8    2.97    2.09
   5   4  -8    5.84    1.95
  -4  -4   8    6.38    1.85
  -4  -4   8    2.43    2.03
   4  -4  -8    4.92    2.50
   4  -4  -8    6.78    2.38
   4   4  -8    5.91    2.39
  -4   4   8    3.37    1.72
   4   4  -8    2.65    1.84
  -3  -4   8    4.38    1.86
   3  -4  -8    3.29    1.36
  -3  -4   8    2.06    2.42
   3  -4  -8    9.06    3.16
  -3   4   8    3.51    1.90
   3   4  -8    4.40    2.19
   3   4  -8    4.01    2.08
  -3   4   8    3.99    2.48
  -2  -4   8    1.84    1.63
   2  -4  -8    0.77    2.11
   2  -4  -8    2.23    1.14
  -2  -4   8    2.22    1.38
   2   4  -8    0.93    1.27
   2   4  -8    1.11    1.12
  -2   4   8    1.19    1.23
  -2   4   8    0.43    2.42
   2   4  -8    0.17    1.63
  -1  -4   8   -1.12    1.58
   1  -4  -8   -1.30    1.83
   1  -4  -8    1.57    1.04
  -1  -4   8    0.47    1.39
   1  -4  -8   -0.49    1.48
  -1  -4   8    1.09    1.24
  -1   4   8    1.01    1.48
   1   4  -8   -1.25    1.60
   1   4  -8    1.79    1.27
   1   4  -8    2.13    1.17
  -1   4   8    1.39    1.92
   0  -4  -8    3.59    1.96
   0  -4  -8    4.39    1.60
   0  -4   8    3.87    1.33
   0  -4   8    4.86    1.69
   0  -4   8    4.44    1.47
   0  -4  -8    5.86    1.05
   0   4  -8    5.59    2.84
   0   4  -8    6.13    1.44
   0   4  -8    5.99    1.33
   0   4   8    3.93    1.80
   0   4   8    5.73    2.20
  -1  -4  -8    3.03    2.60
   1  -4   8    3.60    1.85
   1  -4   8    5.43    1.93
  -1  -4  -8    5.37    2.58
  -1   4  -8    7.79    1.58
   1   4   8    4.45    1.78
   2  -4   8    4.81    2.23
  -2  -4  -8    1.54    1.92
   2  -4   8   -0.19    1.62
  -2  -4  -8    1.37    2.85
  -2   4  -8    2.33    1.95
   2   4   8    4.27    2.28
   3  -4   8    5.75    1.97
   3  -4   8    2.65    1.75
  -3  -4  -8    1.28    1.92
   3   4   8    6.52    2.28
  -3   4  -8    4.36    2.13
   3   4   8    8.45    2.33
  -3   4  -8    4.18    2.05
   3   5  -8   -0.45    2.10
  -2  -5   8    3.35    1.66
  -2  -5   8    2.40    1.76
   2  -5  -8    5.02    2.42
   2  -5  -8   -1.58    2.32
   2   5  -8   -2.19    1.96
  -2   5   8    2.20    1.75
   2   5  -8    1.25    1.68
  -2   5   8   -0.81    2.31
  -1  -5   8    2.35    1.55
  -1  -5   8   -0.82    2.55
  -1  -5   8    2.11    1.74
   1  -5  -8    2.31    1.54
   1  -5  -8    2.83    2.13
   1  -5  -8    0.23    1.96
  -1   5   8   -1.04    1.69
   1   5  -8    0.99    1.70
   1   5  -8    0.53    1.85
   1   5  -8    1.63    1.94
  -1   5   8   -1.33    4.15
  -1   5   8   -1.36    1.84
   0  -5   8   -1.03    2.02
   0  -5   8   -1.01    1.76
   0  -5  -8    3.28    2.06
   0  -5   8   -0.98    1.58
   0   5   8    0.46    1.81
   0   5   8   -3.03    2.37
   0   5   8   -0.47    2.25
   0   5  -8    1.87    1.86
   0   5  -8    2.70    1.94
   1   5   8    9.47    2.64
  -1   5  -8    6.14    2.15
   7   0  -9   12.29    2.17
  -7   0   9   14.22    2.53
   6   0  -9    0.89    1.99
  -6   0   9   -0.22    1.66
  -6   0   9    0.50    1.33
   6   0  -9    1.31    2.04
  -5   0   9    1.70    1.30
  -5   0   9    4.71    1.09
   5   0  -9    3.14    1.12
   5   0  -9    1.21    1.07
  -4   0   9    0.96    0.97
   4   0  -9   -1.14    0.76
   4   0  -9    0.07    0.79
  -4   0   9   -0.64    1.21
  -4   0   9    1.37    0.99
   4   0  -9   -0.89    0.71
   3   0  -9    2.38    0.76
   3   0  -9    4.22    0.91
  -3   0   9    4.73    1.10
   3   0  -9    3.24    0.75
   3   0  -9    2.51    0.90
  -2   0   9    2.08    1.46
   2   0  -9    0.19    0.68
  -2   0   9    0.63    1.14
   2   0  -9    0.83    1.52
  -1   0   9   58.20    3.19
   1   0  -9   61.82    3.01
  -1   0   9   63.62    3.01
   1   0  -9   62.41    2.99
  -1   0   9   60.81    3.13
  -1   0   9   61.98    3.14
   1   0  -9   63.06    3.09
   1   0  -9   64.09    3.13
   1   0  -9   58.78    3.13
  -1   0   9   56.76    3.09
   1   0  -9   62.99    3.07
   0   0  -9    0.78    0.90
   0   0  -9    0.17    0.72
   0   0   9    0.28    0.76
   0   0   9    0.10    0.97
   0   0   9    0.24    1.27
   0   0  -9    0.63    0.70
   0   0  -9   -0.07    0.79
   1   0   9    2.75    1.03
   1   0   9    3.83    0.98
  -1   0  -9    3.52    0.85
   1   0   9    3.63    1.28
  -1   0  -9    4.38    0.86
  -1   0  -9    3.78    0.96
  -1   0  -9    4.10    1.18
  -2   0  -9   -1.14    1.06
  -2   0  -9    0.84    0.91
   2   0   9    1.42    0.91
   2   0   9    0.64    1.14
  -3   0  -9   -0.53    1.66
   3   0   9   -1.18    1.09
   3   0   9    1.44    1.41
  -3   0  -9    1.74    1.09
   4   0   9   -3.12    2.49
  -4   0  -9    3.09    1.45
  -4   0  -9   -0.33    3.11
   5   0   9    1.15    2.05
  -5   0  -9    1.19    2.28
  -5   0  -9    1.71    2.32
   5   0   9   -0.53    2.13
   7  -1  -9    3.95    1.96
   7  -1  -9    0.87    1.91
  -7  -1   9    0.49    2.00
  -7  -1   9   -0.98    2.17
   7   1  -9   -1.39    1.90
  -7   1   9    0.00    1.99
   7   1  -9   -1.30    1.74
  -6  -1   9    4.73    1.49
   6  -1  -9    4.00    1.74
   6  -1  -9    5.46    1.42
  -6  -1   9    8.59    2.07
   6   1  -9    5.10    1.58
  -6   1   9    4.55    1.63
   6   1  -9    4.77    1.20
  -6   1   9    5.78    1.83
   6   1  -9    3.94    1.64
  -5  -1   9    3.90    1.40
  -5  -1   9    3.64    1.36
   5  -1  -9    3.11    1.40
   5  -1  -9    2.99    1.12
   5  -1  -9    1.15    1.21
   5   1  -9    1.69    1.18
  -5   1   9    2.34    1.29
   5   1  -9    3.38    1.17
   5   1  -9    2.23    1.10
   4  -1  -9   36.64    2.32
   4  -1  -9   38.28    2.28
  -4  -1   9   41.30    2.28
   4  -1  -9   31.94    2.19
  -4  -1   9   35.25    2.37
   4   1  -9   32.90    2.17
  -4   1   9   40.19    2.85
  -4   1   9   38.44    2.57
  -4   1   9   36.10    2.34
   4   1  -9   36.53    2.22
   4   1  -9   34.23    2.62
   3  -1  -9    4.77    0.86
   3  -1  -9    3.26    0.96
   3  -1  -9    3.55    1.38
  -3  -1   9    2.94    0.97
  -3  -1   9    4.45    0.82
   3   1  -9    4.63    0.82
  -3   1   9    2.51    1.11
  -3   1   9    5.59    1.16
  -3   1   9    4.13    0.90
   3   1  -9    4.62    0.86
   3   1  -9    3.91    0.81
  -3   1   9    6.53    1.36
  -2  -1   9    4.55    1.14
   2  -1  -9    2.75    0.85
   2  -1  -9    2.30    0.77
   2  -1  -9    4.11    0.98
  -2  -1   9    3.24    0.78
  -2   1   9    1.64    0.94
   2   1  -9    1.43    0.78
  -2   1   9    3.05    1.09
  -2   1   9    2.76    0.88
   2   1  -9    3.19    0.74
   1  -1  -9    0.23    0.72
  -1  -1   9   -0.39    0.87
   1  -1  -9   -0.41    0.86
  -1  -1   9    0.40    1.21
   1  -1  -9    0.27    0.74
   1  -1  -9   -1.04    0.75
   1   1  -9   -0.38    1.40
  -1   1   9   -1.21    1.07
   1   1  -9   -0.10    0.61
  -1   1   9    1.12    0.97
  -1   1   9   -0.94    0.92
   1   1  -9    0.74    0.68
   0  -1  -9    0.77    0.92
   0  -1  -9   -0.82    0.89
   0  -1   9   -0.49    1.62
   0  -1  -9    0.22    0.78
   0  -1   9   -1.04    1.23
   0  -1   9    1.49    0.79
   0  -1  -9    0.77    0.95
   0   1   9   -2.35    1.60
   0   1   9   -0.51    0.93
   0   1  -9    0.19    0.65
   0   1  -9   -0.32    0.72
   0   1   9   -0.39    1.05
   0   1  -9   -1.26    0.92
  -1  -1  -9    0.56    1.08
  -1  -1  -9   -0.07    0.96
   1  -1   9    0.50    0.81
  -1  -1  -9   -0.84    0.93
   1  -1   9   -0.49    0.85
   1   1   9    1.54    0.81
   1   1   9   -1.56    1.70
  -1   1  -9    0.17    0.79
  -1   1  -9   -0.64    1.04
   1   1   9    0.08    0.93
   1   1   9    1.52    1.08
  -2  -1  -9   32.61    2.50
  -2  -1  -9   36.42    2.26
   2  -1   9   38.07    2.44
   2  -1   9   37.23    2.21
   2  -1   9   35.11    2.33
  -2   1  -9   40.45    2.46
  -2   1  -9   34.59    2.17
  -2   1  -9   38.01    2.57
   2   1   9   41.63    2.46
   2   1   9   36.37    2.46
   3  -1   9   44.49    2.48
  -3  -1  -9   41.29    2.92
   3  -1   9   40.88    2.90
  -3  -1  -9   35.98    2.51
   3  -1   9   46.99    2.79
   3   1   9   42.65    2.57
   3   1   9   37.60    2.90
  -3   1  -9   38.08    2.86
  -3   1  -9   42.32    2.45
  -3   1  -9   43.28    2.78
  -4  -1  -9    2.81    1.83
   4  -1   9    6.00    1.49
   4  -1   9    4.98    2.78
   4  -1   9    1.66    1.85
  -4  -1  -9    8.85    1.77
  -4  -1  -9    5.45    3.02
  -4   1  -9    4.67    1.44
   5  -1   9    1.16    2.45
  -5  -1  -9    0.64    1.90
  -5  -1  -9   -1.41    2.44
   5  -1   9   -3.00    1.96
   5   1   9    0.06    1.97
  -5   1  -9    0.17    2.65
  -5   1  -9    1.90    1.93
  -7  -2   9   41.40    3.81
   7  -2  -9   50.21    3.48
   7  -2  -9   52.59    3.52
  -7  -2   9   39.31    4.62
  -7  -2   9   52.44    3.70
  -7   2   9   44.14    3.71
  -7   2   9   50.00    4.15
   7   2  -9   42.30    3.45
   7   2  -9   44.87    4.05
  -7   2   9   43.26    5.32
  -6  -2   9   36.29    3.26
   6  -2  -9   26.65    4.11
   6  -2  -9   32.66    2.48
  -6  -2   9   25.55    2.82
  -6  -2   9   30.37    3.88
   6  -2  -9   32.43    3.03
   6   2  -9   28.86    4.29
   6   2  -9   35.07    2.99
   6   2  -9   32.88    2.41
  -6   2   9   35.17    2.79
   5  -2  -9    5.56    1.39
  -5  -2   9    4.06    1.71
   5  -2  -9    6.61    1.15
   5  -2  -9    3.89    1.63
  -5  -2   9    4.63    1.32
  -5   2   9    6.84    1.70
   5   2  -9    6.47    1.27
   5   2  -9    3.02    1.41
  -5   2   9    6.09    1.61
   5   2  -9    4.28    1.38
  -5   2   9    7.32    1.95
   4  -2  -9   22.54    1.81
  -4  -2   9   19.43    1.83
   4  -2  -9   23.13    1.74
  -4  -2   9   19.96    2.00
   4  -2  -9   19.29    2.08
   4   2  -9   21.50    1.84
  -4   2   9   20.27    2.61
   4   2  -9   18.06    2.32
   4   2  -9   19.03    1.99
  -4   2   9   20.71    1.99
   3  -2  -9  101.33    4.89
   3  -2  -9  101.31    4.96
   3  -2  -9  104.57    5.22
  -3  -2   9  106.94    5.07
  -3  -2   9  102.18    4.98
   3   2  -9  103.88    5.05
   3   2  -9  110.18    5.05
  -3   2   9  111.98    4.99
  -3   2   9  107.09    5.07
  -2  -2   9   19.56    1.50
   2  -2  -9   19.69    1.51
   2  -2  -9   17.18    1.33
   2  -2  -9   21.10    1.83
  -2  -2   9   23.18    1.66
  -2   2   9   20.27    1.71
   2   2  -9   22.40    1.56
  -2   2   9   20.30    1.70
   2   2  -9   21.01    1.52
  -2   2   9   16.91    1.82
   1  -2  -9    7.69    1.39
   1  -2  -9    5.80    1.11
  -1  -2   9    7.60    1.16
   1  -2  -9    7.37    1.18
  -1  -2   9   10.34    1.36
  -1   2   9    9.53    1.47
   1   2  -9    7.26    1.42
  -1   2   9    7.96    1.32
  -1   2   9    6.99    1.18
   1   2  -9    7.35    1.24
   1   2  -9    8.60    1.13
  -1   2   9    9.38    1.53
  -1   2   9    5.78    1.17
   0  -2   9    0.74    0.89
   0  -2  -9   -1.18    0.93
   0  -2   9    0.42    1.40
   0  -2   9    0.78    1.08
   0  -2  -9    0.23    0.97
   0  -2  -9   -0.03    1.02
   0   2   9   -1.65    1.13
   0   2  -9   -0.83    0.83
   0   2  -9    1.41    1.30
   0   2  -9   -0.25    0.77
   0   2   9    0.06    1.11
   0   2   9    1.22    0.97
   0   2   9   -0.27    0.73
   1  -2   9    2.28    1.10
  -1  -2  -9    1.75    1.07
   1  -2   9    3.12    0.89
  -1  -2  -9    1.97    1.06
   1   2   9    1.30    1.09
  -1   2  -9    1.95    1.13
   1   2   9    1.96    1.08
   1   2   9    1.31    1.24
   2  -2   9    5.76    1.11
  -2  -2  -9    4.39    1.32
  -2  -2  -9    3.64    1.62
   2  -2   9    6.15    1.29
  -2  -2  -9    4.96    1.27
   2   2   9    7.23    1.44
   2   2   9    7.54    1.60
   2   2   9    4.76    1.36
  -2   2  -9    3.60    1.20
  -2   2  -9    5.67    1.46
  -3  -2  -9    4.98    1.59
   3  -2   9    5.78    1.64
   3  -2   9    9.76    1.77
  -3  -2  -9    7.52    2.11
  -3   2  -9    7.20    1.80
   3   2   9    3.63    1.25
   3   2   9    5.77    2.07
   3   2   9    5.50    1.78
  -3   2  -9    7.10    1.94
  -4  -2  -9    3.98    1.58
   4  -2   9   -1.33    1.95
  -4  -2  -9   -1.68    1.73
   4  -2   9    0.95    1.58
   4  -2   9    0.95    1.87
  -4  -2  -9    1.94    2.41
   4   2   9   -1.63    2.31
  -4   2  -9    4.44    1.99
  -4   2  -9    1.32    1.39
  -4   2  -9    0.64    2.16
   4   2   9   -0.48    1.51
   5  -2   9   10.85    2.39
   5  -2   9   19.15    3.41
  -5  -2  -9   13.23    3.82
  -5  -2  -9   15.56    2.70
   5   2   9   13.70    2.50
   5   2   9   11.24    2.45
  -5   2  -9    7.39    2.63
   5   2   9   19.60    3.39
  -5   2  -9   15.03    2.54
  -5   2  -9   10.44    2.73
  -6  -3   9    6.51    1.95
   6  -3  -9    4.39    1.80
   6  -3  -9    5.01    2.16
  -6  -3   9   -0.44    2.13
   6   3  -9    0.24    1.94
  -6   3   9    0.98    1.86
  -6   3   9    3.44    2.15
  -6   3   9    4.00    2.45
   6   3  -9    3.49    1.97
  -5  -3   9    0.21    2.12
   5  -3  -9    1.02    1.71
  -5   3   9    1.27    1.72
   5   3  -9    1.66    1.70
  -5   3   9   -1.03    1.67
  -4  -3   9    2.17    1.77
   4  -3  -9   -1.18    1.36
   4  -3  -9   -1.99    1.76
  -4  -3   9    1.55    1.33
   4   3  -9    1.15    1.43
   4   3  -9   -0.80    1.41
  -4   3   9    3.39    1.42
  -4   3   9   -0.48    1.50
  -3  -3   9    0.78    1.08
  -3  -3   9    0.40    1.36
   3  -3  -9    1.05    1.53
   3  -3  -9   -1.16    1.09
   3   3  -9   -0.60    1.29
   3   3  -9   -0.54    1.17
  -3   3   9   -0.02    1.68
  -3   3   9    2.97    1.25
  -3   3   9    1.70    1.79
   2  -3  -9   26.54    1.89
   2  -3  -9   30.13    2.96
  -2  -3   9   22.85    2.10
  -2   3   9   29.65    2.78
  -2   3   9   25.32    2.33
   2   3  -9   29.39    2.06
   1  -3  -9   84.04    4.55
  -1  -3   9   89.19    4.38
  -1  -3   9   93.97    4.53
   1  -3  -9   83.48    4.22
  -1  -3   9   88.54    4.43
   1  -3  -9   82.95    4.46
  -1   3   9   86.49    4.72
  -1   3   9  103.51    5.10
   1   3  -9   93.77    4.48
  -1   3   9   72.33    5.63
   1   3  -9   95.34    4.49
   0  -3   9    1.62    1.07
   0  -3   9    2.15    1.19
   0  -3  -9    2.67    1.27
   0  -3   9    1.09    1.15
   0   3  -9    0.75    1.07
   0   3  -9    0.83    1.02
   0   3  -9    2.43    1.24
   0   3   9    2.34    1.46
   0   3   9    2.07    1.13
  -1  -3  -9    3.81    1.57
   1  -3   9    5.33    1.42
  -1  -3  -9    1.87    1.49
   1  -3   9    0.51    1.17
  -1   3  -9    1.95    1.38
  -1   3  -9    3.47    1.26
   1   3   9    5.43    2.20
   1   3   9   -1.21    1.77
   2  -3   9   -0.39    1.69
   2  -3   9    0.53    1.32
  -2  -3  -9    2.69    1.61
   2   3   9   -0.92    2.24
  -2   3  -9    0.74    1.70
   2   3   9   -0.37    1.72
  -2   3  -9   -0.84    1.55
   3  -3   9   -3.39    2.02
  -3  -3  -9    1.79    1.77
  -3  -3  -9   -0.29    1.87
   3  -3   9    1.72    1.74
  -3   3  -9    0.71    1.93
  -3   3  -9    0.95    2.23
   3   3   9    2.27    2.15
   3   3   9   -2.53    2.27
   4  -3   9    2.77    3.09
   4  -3   9    1.48    1.98
   4  -3   9    4.27    2.42
  -4  -3  -9    1.49    2.34
  -4  -3  -9    0.80    1.95
  -4   3  -9    1.10    2.39
  -4   3  -9   -0.97    3.20
   4   3   9   -1.77    2.11
   4   3   9    5.82    2.58
  -5  -4   9   13.64    2.10
   5  -4  -9   13.23    2.54
   5  -4  -9   12.98    2.59
   5   4  -9   19.12    3.04
   5   4  -9   16.85    2.75
  -5   4   9   16.96    3.11
   4  -4  -9   29.89    2.67
   4  -4  -9   30.28    3.35
  -4  -4   9   22.12    2.92
  -4   4   9   24.49    3.16
  -4   4   9   28.60    3.17
   4   4  -9   29.05    2.93
  -3  -4   9    2.05    1.59
   3  -4  -9    2.64    2.55
   3  -4  -9    3.04    1.45
  -3  -4   9   -2.54    1.76
  -3   4   9    2.29    1.67
  -3   4   9   -2.67    2.28
   3   4  -9    0.86    1.48
   3   4  -9   -0.92    1.99
   2  -4  -9    4.03    2.15
  -2  -4   9    2.94    1.47
   2  -4  -9    7.68    1.32
  -2  -4   9    5.16    1.57
  -2   4   9    5.86    2.90
   2   4  -9    3.47    2.79
   1  -4  -9    9.33    1.64
   1  -4  -9    8.38    3.00
  -1  -4   9    5.33    2.31
  -1  -4   9    6.76    1.49
  -1   4   9   10.82    1.99
   1   4  -9    6.04    2.76
   1   4  -9    6.35    1.23
   0  -4  -9    1.56    1.12
   0  -4   9    0.39    1.36
   0  -4  -9   -0.30    2.56
   0  -4   9    0.42    1.56
   0  -4  -9   -1.43    2.38
   0   4  -9    1.47    1.69
   0   4   9    4.04    2.23
   0   4   9    3.20    1.66
   0   4  -9   -1.51    1.29
   1  -4   9   -0.17    1.64
  -1  -4  -9    2.85    2.17
   1  -4   9   -2.08    1.79
  -1  -4  -9   -0.96    1.85
  -1   4  -9    1.96    1.70
   1   4   9    7.18    2.28
  -1   4  -9   -2.05    2.10
   1   4   9    0.98    2.00
  -2  -4  -9   -3.62    2.26
   2  -4   9    0.69    1.64
  -2  -4  -9   -2.15    2.09
   2  -4   9    0.58    1.88
  -2   4  -9    1.49    2.04
  -2   4  -9   -3.20    1.94
   2   4   9    2.26    2.31
   2   4   9    5.19    2.37
   7   0 -10   -0.75    1.97
  -7   0  10    0.80    1.96
   7   0 -10    2.13    1.86
  -7   0  10    0.98    2.04
  -6   0  10    2.70    2.13
  -6   0  10   -0.09    2.33
   6   0 -10    0.59    1.86
   5   0 -10    0.41    1.16
  -5   0  10    0.35    1.53
   5   0 -10   -1.65    1.07
   5   0 -10   -0.58    0.86
  -5   0  10   -0.76    1.16
   4   0 -10   -0.84    0.91
   4   0 -10    0.57    0.96
  -4   0  10    2.14    1.75
   4   0 -10   -0.67    0.88
   3   0 -10    0.08    0.80
   3   0 -10    1.44    0.80
   3   0 -10   -0.99    0.92
  -3   0  10    0.69    1.06
  -3   0  10   -0.38    0.93
   2   0 -10    4.74    0.90
  -2   0  10    3.62    1.02
  -2   0  10    3.97    1.29
   2   0 -10    3.04    0.85
   2   0 -10    4.45    1.10
   2   0 -10    4.68    0.96
  -2   0  10    5.03    1.30
   1   0 -10    1.83    1.68
   1   0 -10   -0.24    0.91
   1   0 -10    2.24    1.16
   1   0 -10    0.28    1.12
  -1   0  10   -0.72    0.86
  -1   0  10   -0.33    0.71
  -1   0  10   -1.43    0.96
  -1   0  10   -1.03    1.02
   1   0 -10    0.12    1.23
   0   0  10   68.63    3.29
   0   0 -10   65.79    3.39
   0   0  10   69.51    3.36
   0   0  10   68.83    3.47
   0   0 -10   66.17    3.39
   0   0 -10   65.78    3.37
   0   0  10   66.47    3.46
   1   0  10   -0.14    1.11
  -1   0 -10    2.06    1.57
   1   0  10    0.64    1.18
   1   0  10   -0.75    0.88
  -1   0 -10   -0.44    0.91
  -1   0 -10   -1.02    0.97
  -2   0 -10  116.69    5.41
   2   0  10  125.19    6.09
   2   0  10  115.73    5.85
   2   0  10   97.12    5.34
   3   0  10    2.60    1.90
  -3   0 -10    1.00    1.74
   3   0  10    2.08    1.31
  -3   0 -10    3.17    1.31
  -4   0 -10    2.53    1.59
  -4   0 -10    1.61    2.17
   5   0  10   -0.41    2.11
  -5   0 -10    0.50    2.46
  -5   0 -10   -0.70    2.22
   7  -1 -10    3.17    1.88
  -7  -1  10    3.88    2.14
   7   1 -10    7.72    1.99
  -7   1  10    5.90    2.25
   6  -1 -10   13.84    2.99
  -6  -1  10   11.99    2.77
  -6  -1  10    8.41    1.66
  -6   1  10    8.15    2.31
   6   1 -10    9.93    1.43
   5  -1 -10    9.81    1.87
  -5  -1  10   11.57    1.82
   5  -1 -10    9.14    1.70
   5  -1 -10    9.71    1.36
   5   1 -10    9.16    1.67
   5   1 -10    7.12    2.00
  -5   1  10    9.69    1.55
  -5   1  10    9.87    1.74
   5   1 -10    8.37    1.13
   4  -1 -10   15.36    1.89
   4  -1 -10   14.70    1.89
  -4  -1  10   13.68    2.00
   4  -1 -10   16.44    1.67
  -4  -1  10   18.62    1.74
  -4  -1  10   16.03    1.67
  -4   1  10   18.53    1.92
  -4   1  10   15.93    1.65
   4   1 -10   17.74    1.68
   4   1 -10   17.60    1.50
  -4   1  10   16.23    2.43
   3  -1 -10    2.79    0.84
  -3  -1  10    4.59    1.16
   3  -1 -10    4.34    1.13
   3  -1 -10    1.22    1.06
  -3  -1  10    1.03    1.20
  -3  -1  10    2.48    0.90
  -3   1  10    4.94    1.21
   3   1 -10    2.80    0.90
  -3   1  10    3.93    1.13
   3   1 -10    1.60    1.54
  -3   1  10    2.57    1.07
  -2  -1  10    0.38    0.80
   2  -1 -10   -0.60    0.84
   2  -1 -10    0.21    0.74
   2  -1 -10    1.40    1.39
   2   1 -10   -0.25    0.86
   2   1 -10    0.06    0.82
  -2   1  10    0.77    1.13
  -2   1  10    1.28    0.91
  -1  -1  10    5.70    1.00
   1  -1 -10    6.22    1.08
   1  -1 -10    5.68    0.86
   1  -1 -10    5.92    1.07
   1  -1 -10    5.86    1.07
  -1  -1  10    5.72    1.07
  -1  -1  10    4.85    1.16
  -1   1  10    6.45    1.18
  -1   1  10    5.75    1.19
  -1   1  10    5.94    1.11
  -1   1  10    5.11    1.13
   1   1 -10    4.96    0.92
   1   1 -10    3.92    0.98
   0  -1 -10    6.43    1.11
   0  -1 -10    5.63    1.11
   0  -1  10    6.01    0.92
   0  -1 -10    5.90    1.31
   0  -1  10    6.67    1.09
   0   1  10    6.25    1.24
   0   1  10    7.10    1.11
   0   1 -10    4.37    1.09
   0   1  10    7.59    1.15
   1  -1  10    0.27    1.05
  -1  -1 -10    0.82    1.03
  -1  -1 -10    1.49    1.02
   1  -1  10    1.38    0.89
  -1  -1 -10    0.88    1.27
   1  -1  10    0.09    1.78
   1   1  10    1.88    1.80
   1   1  10    0.84    1.13
   1   1  10    1.47    1.15
  -1   1 -10   -0.69    1.18
   1   1  10    1.45    1.02
  -1   1 -10    1.84    1.00
   2  -1  10    9.27    1.48
  -2  -1 -10    9.92    1.76
  -2  -1 -10    9.79    1.77
   2  -1  10   12.92    2.01
  -2  -1 -10   12.24    1.53
  -2   1 -10    9.26    1.71
   2   1  10   11.18    1.70
   2   1  10   10.04    1.91
  -2   1 -10    9.02    1.49
  -2   1 -10    7.99    1.52
   3  -1  10   15.29    2.64
  -3  -1 -10   14.22    1.75
  -3  -1 -10   20.79    3.66
   3  -1  10   15.85    1.99
   3  -1  10   11.25    2.26
  -3  -1 -10   13.63    2.19
   3   1  10   17.31    2.59
  -3   1 -10   14.45    2.63
   3   1  10   13.36    2.83
  -3   1 -10   16.81    2.39
  -3   1 -10    8.93    2.22
   4  -1  10    2.60    2.25
  -4  -1 -10    1.10    2.61
   4  -1  10    0.80    2.00
  -4  -1 -10    2.18    1.84
  -4   1 -10    4.20    2.30
   4   1  10    0.60    1.69
   4   1  10   -1.95    1.97
  -4   1 -10    1.05    1.53
   6  -2 -10   23.85    2.65
  -6  -2  10   18.62    3.52
   6  -2 -10   22.98    2.70
  -6  -2  10   21.48    3.23
   6  -2 -10   23.18    3.10
  -6  -2  10   22.54    3.16
  -6   2  10   23.16    4.00
   6   2 -10   21.88    2.75
  -6   2  10   25.71    3.14
   6   2 -10   24.63    2.79
   6   2 -10   24.74    2.40
  -6   2  10   23.74    2.73
  -5  -2  10    0.55    1.43
  -5  -2  10    1.68    1.85
   5  -2 -10    1.26    2.07
   5  -2 -10   -1.27    1.73
  -5   2  10    3.73    1.87
   5   2 -10    3.33    2.08
   5   2 -10    0.10    1.48
  -5   2  10    3.05    1.66
  -5   2  10   -0.10    1.96
   5   2 -10   -4.09    2.81
   4  -2 -10    1.06    1.61
  -4  -2  10    1.18    1.38
  -4  -2  10    0.57    1.14
   4  -2 -10    0.88    1.34
   4   2 -10   -1.42    1.19
   4   2 -10    1.18    1.20
  -4   2  10   -0.06    1.12
   4   2 -10   -0.67    1.08
  -4   2  10   -0.56    1.32
   3  -2 -10   53.26    3.01
  -3  -2  10   61.09    3.21
  -3  -2  10   55.00    3.08
   3  -2 -10   50.26    3.28
   3  -2 -10   54.34    3.01
   3   2 -10   62.07    3.17
  -3   2  10   46.69    2.86
   3   2 -10   58.44    3.03
  -3   2  10   56.60    3.25
  -3   2  10   65.89    3.12
  -2  -2  10   36.75    2.31
   2  -2 -10   36.64    2.14
   2  -2 -10   35.94    2.50
   2  -2 -10   33.77    2.08
   2  -2 -10   38.71    2.40
  -2  -2  10   36.46    2.37
   2   2 -10   38.09    2.33
  -2   2  10   37.49    2.20
   2   2 -10   39.21    2.33
  -2   2  10   39.85    2.60
  -2   2  10   37.21    2.56
  -1  -2  10    5.10    1.25
   1  -2 -10    4.47    0.81
   1  -2 -10    2.07    1.29
   1  -2 -10    5.60    1.17
  -1  -2  10    2.81    1.16
   1   2 -10    4.80    1.06
  -1   2  10    5.06    1.59
   1   2 -10    5.56    1.36
   1   2 -10    3.16    0.95
  -1   2  10    3.01    0.94
  -1   2  10    5.31    1.30
   0  -2  10    0.88    0.94
   0  -2 -10    0.10    1.07
   0  -2 -10   -1.49    1.15
   0  -2  10    2.14    1.09
   0  -2  10   -0.44    1.43
   0  -2 -10    0.23    1.12
   0   2 -10    2.03    0.97
   0   2  10   -0.51    1.36
   0   2  10    2.18    1.13
   0   2 -10   -0.11    0.98
   0   2  10    0.36    0.95
   0   2 -10    0.45    1.19
   1  -2  10    3.03    1.28
  -1  -2 -10    2.15    1.25
  -1  -2 -10    2.38    1.29
   1  -2  10    1.20    1.00
   1   2  10   -0.64    1.72
  -1   2 -10    0.61    1.28
   1   2  10   -0.51    1.27
   1   2  10    0.78    1.50
  -1   2 -10   -0.35    1.17
   2  -2  10    2.39    1.18
   2  -2  10   -0.84    2.37
  -2  -2 -10   -0.55    1.41
  -2  -2 -10    3.01    1.96
  -2  -2 -10    0.96    1.35
   2   2  10   -0.13    1.88
  -2   2 -10    1.04    1.62
   2   2  10    1.24    1.57
   2   2  10   -0.08    1.25
  -2   2 -10    0.58    1.45
   3  -2  10    1.94    2.02
  -3  -2 -10   -0.81    2.36
   3  -2  10   -0.97    1.93
  -3  -2 -10    2.36    2.05
  -3  -2 -10   -2.39    1.53
   3  -2  10    0.09    1.68
   3   2  10   -1.83    2.25
   3   2  10   -1.17    1.27
  -3   2 -10   -0.26    1.94
   4  -2  10    4.42    2.03
  -4  -2 -10    2.28    1.85
  -4  -2 -10   -3.23    2.52
   4  -2  10    3.69    2.09
  -4  -2 -10    6.50    2.15
   4  -2  10    0.48    2.07
   4   2  10    1.37    2.31
   4   2  10    5.16    2.55
  -4   2 -10   -0.44    2.26
   4   2  10    1.89    1.77
   6  -3 -10    4.19    2.01
  -6  -3  10    1.38    1.90
  -6  -3  10   -1.90    2.36
   6  -3 -10    4.90    3.07
   6   3 -10    4.40    2.05
   6   3 -10    3.01    2.59
  -6   3  10   -0.47    1.95
  -6   3  10    1.44    2.20
  -5  -3  10    1.10    1.63
  -5  -3  10    0.22    2.24
   5  -3 -10    0.68    2.19
   5  -3 -10    2.27    3.37
   5   3 -10    2.02    1.91
  -5   3  10   -1.14    1.76
   5   3 -10   -0.56    1.74
  -5   3  10    2.57    2.08
   4  -3 -10   -2.73    2.67
   4  -3 -10    2.42    1.54
  -4  -3  10    0.42    1.99
  -4   3  10   -1.09    1.67
  -4   3  10    0.88    2.02
   4   3 -10   -0.75    1.62
  -3  -3  10    4.07    1.50
   3  -3 -10    3.99    2.05
  -3  -3  10    4.71    1.59
   3  -3 -10    4.45    1.30
   3   3 -10    3.12    2.07
  -3   3  10    6.10    1.59
   3   3 -10    4.85    1.40
  -3   3  10    4.77    1.70
   2  -3 -10    3.77    1.77
  -2  -3  10    0.85    1.42
   2  -3 -10   -0.30    1.04
  -2  -3  10   -0.64    1.35
  -2   3  10    1.91    1.42
  -2   3  10   -1.73    1.57
   2   3 -10    1.82    1.22
   2   3 -10    0.69    1.95
  -2   3  10    2.34    1.48
   1  -3 -10    3.01    1.64
   1  -3 -10   -0.22    1.46
   1  -3 -10    2.59    0.99
  -1  -3  10    3.66    1.45
  -1  -3  10    3.68    2.09
  -1  -3  10    3.18    1.38
   1   3 -10    1.86    1.30
  -1   3  10    3.64    2.03
   1   3 -10    1.74    1.87
  -1   3  10    3.45    1.56
  -1   3  10    1.84    1.70
   1   3 -10    0.61    1.07
   0  -3  10   13.55    2.08
   0  -3 -10   13.84    1.48
   0  -3 -10   13.96    1.92
   0  -3  10   10.57    1.98
   0  -3  10   11.81    1.89
   0  -3 -10   18.50    2.35
   0   3 -10   17.90    2.24
   0   3 -10   14.14    1.67
   0   3  10   16.01    2.20
   0   3 -10   17.32    2.56
   0   3  10   17.92    2.75
   1  -3  10   19.94    2.42
  -1  -3 -10   26.28    3.17
   1  -3  10   20.28    3.32
   1   3  10   23.33    2.89
  -1   3 -10   26.22    3.67
  -1   3 -10   25.59    2.14
  -2  -3 -10    2.34    1.93
   2  -3  10    6.00    1.74
   2  -3  10    7.09    1.87
  -2  -3 -10    5.77    2.08
   2   3  10    6.41    2.67
  -2   3 -10    4.12    1.93
   2   3  10    7.15    2.46
  -2   3 -10    7.50    2.41
  -3  -3 -10    1.57    2.19
  -3  -3 -10    5.03    2.14
   3  -3  10   -0.94    1.94
  -3   3 -10    1.51    2.08
   3   3  10    2.21    2.22
   3   3  10   -1.50    2.51
  -3   3 -10    5.52    2.13
  -4  -4  10    0.69    1.93
   4  -4 -10    4.14    2.56
  -4  -4  10    3.04    1.88
   4  -4 -10    1.96    1.77
  -4   4  10    1.68    2.15
   4   4 -10    3.40    1.93
  -4   4  10   -0.59    2.05
   4   4 -10    1.57    2.17
  -3  -4  10    4.01    1.78
   3  -4 -10    4.59    2.42
  -3   4  10    2.72    1.75
   3   4 -10    3.10    1.63
   3   4 -10    2.28    2.04
  -3   4  10    2.69    2.11
  -2  -4  10   39.24    3.23
  -2  -4  10   49.08    3.17
   2  -4 -10   40.47    2.80
  -2  -4  10   37.90    3.02
   2  -4 -10   44.67    3.59
   2   4 -10   38.48    3.24
  -2   4  10   41.68    3.32
   2   4 -10   48.93    3.32
  -2   4  10   43.55    3.67
  -1  -4  10   20.25    3.41
  -1  -4  10   19.15    2.47
   1  -4 -10   19.23    2.92
  -1  -4  10   15.80    2.19
   1  -4 -10   19.80    2.69
   1   4 -10   18.35    2.59
  -1   4  10   14.31    2.45
   1   4 -10   17.62    2.54
  -1   4  10   18.63    2.72
   1   4 -10   16.19    1.84
  -1   4  10   17.85    2.80
   0  -4 -10    2.19    3.08
   0  -4 -10    2.88    1.82
   0  -4  10   -0.56    1.70
   0  -4  10    1.09    1.67
   0   4 -10    1.85    2.15
   0   4  10    2.68    2.59
   0   4  10    2.27    1.85
   0   4 -10   -0.55    1.56
   1  -4  10    2.84    1.70
  -1  -4 -10    2.12    2.26
  -1  -4 -10   -2.37    2.40
   1  -4  10    0.69    1.82
  -1   4 -10    2.10    2.19
   7   0 -11   10.52    2.01
   7   0 -11    6.89    2.17
  -7   0  11    6.71    2.32
  -6   0  11   -1.24    2.06
  -6   0  11    0.91    1.73
   6   0 -11    1.39    1.69
   6   0 -11    2.02    1.63
  -5   0  11    6.49    1.99
   5   0 -11    5.62    1.45
   5   0 -11    5.78    1.43
  -5   0  11    7.37    1.40
  -4   0  11   -1.06    1.46
   4   0 -11   -1.54    1.07
   4   0 -11   -1.84    1.03
  -3   0  11    8.74    1.75
   3   0 -11   10.17    1.37
   3   0 -11    7.21    1.34
  -3   0  11   10.95    1.48
   2   0 -11   -0.71    0.84
   2   0 -11   -0.82    1.01
  -2   0  11    0.89    1.17
   2   0 -11    0.31    0.82
  -2   0  11    1.31    1.04
   2   0 -11   -0.87    0.81
   1   0 -11   -0.46    0.84
   1   0 -11   -0.38    0.83
  -1   0  11   -0.09    0.83
  -1   0  11   -1.83    1.09
   1   0 -11    1.67    1.03
   1   0 -11   -0.66    0.92
   1   0 -11   -0.15    0.83
  -1   0  11    0.51    0.98
   1   0 -11    0.45    1.03
   0   0 -11    0.52    0.98
   0   0  11    0.78    1.16
   0   0  11   -0.23    1.11
   0   0 -11   -0.46    0.99
   0   0  11   -0.24    1.01
   0   0  11    0.08    1.24
   0   0 -11    0.44    1.23
   0   0 -11    0.34    1.04
  -1   0 -11   12.60    1.73
  -1   0 -11   15.45    1.89
   1   0  11   18.10    2.09
   1   0  11   14.18    1.55
  -1   0 -11   14.22    2.01
   1   0  11   15.06    1.73
   2   0  11   -0.66    1.67
  -2   0 -11    4.55    1.82
   2   0  11    5.51    1.82
   2   0  11    0.43    1.31
  -2   0 -11   -0.28    1.20
   3   0  11   90.74    5.60
  -3   0 -11   95.99    4.83
   3   0  11   92.18    5.31
   4   0  11    2.36    2.16
  -4   0 -11    1.25    2.55
  -4   0 -11    2.41    2.38
  -7  -1  11    0.76    2.32
  -7  -1  11    0.49    2.40
   7  -1 -11    0.82    2.14
   7  -1 -11    2.68    2.06
   7   1 -11    6.02    2.12
   7   1 -11   -1.39    1.95
  -7   1  11    1.25    2.45
  -7   1  11    1.50    2.29
  -6  -1  11    5.17    2.14
   6  -1 -11    4.44    1.69
   6  -1 -11    4.04    1.68
  -6  -1  11    2.51    1.71
  -6   1  11    2.33    1.87
   6   1 -11    3.98    1.91
   6   1 -11    3.65    2.60
  -6   1  11    4.08    2.24
  -5  -1  11    2.27    2.38
   5  -1 -11    3.18    1.28
   5  -1 -11    5.21    1.60
   5  -1 -11    3.97    2.24
  -5  -1  11    5.31    1.32
  -5   1  11    3.89    1.68
   5   1 -11    3.08    1.98
  -5   1  11    7.04    2.77
   5   1 -11    4.95    1.63
   4  -1 -11   20.73    1.73
  -4  -1  11   16.62    2.26
   4  -1 -11   19.52    2.31
  -4  -1  11   22.68    1.93
  -4  -1  11   22.44    1.98
   4  -1 -11   15.68    2.24
  -4   1  11   18.41    2.28
  -4   1  11   18.55    2.13
   4   1 -11   16.59    1.71
   4   1 -11   17.87    1.97
   4   1 -11   21.82    2.01
   3  -1 -11   30.35    2.25
   3  -1 -11   23.13    1.80
  -3  -1  11   27.80    1.98
   3  -1 -11   25.08    1.89
  -3  -1  11   31.89    2.21
  -3   1  11   25.61    2.67
  -3   1  11   27.28    1.92
  -3   1  11   24.33    2.27
   3   1 -11   25.82    2.31
  -3   1  11   25.72    2.28
   3   1 -11   21.98    1.98
   3   1 -11   26.14    1.98
  -2  -1  11    1.53    0.96
   2  -1 -11    1.92    1.22
   2  -1 -11   -0.18    0.83
  -2  -1  11    1.48    1.39
   2  -1 -11   -0.45    0.83
  -2   1  11   -1.53    1.16
   2   1 -11   -0.02    0.84
   2   1 -11    0.19    0.90
  -2   1  11    0.80    1.13
   2   1 -11   -0.01    0.98
  -2   1  11   -0.06    1.20
   1  -1 -11   10.97    1.41
  -1  -1  11    9.67    1.55
  -1  -1  11    9.92    1.60
   1  -1 -11   14.14    1.65
   1  -1 -11   11.85    1.30
   1  -1 -11   11.12    1.24
  -1  -1  11   11.73    1.98
  -1   1  11   13.40    1.53
  -1   1  11   11.25    1.42
   1   1 -11   12.28    1.51
   1   1 -11    9.79    1.45
   1   1 -11   11.08    1.44
  -1   1  11   13.60    1.85
   0  -1 -11    9.70    2.09
   0  -1  11    9.54    1.35
   0  -1 -11   12.49    2.93
   0  -1 -11    9.17    1.69
   0  -1 -11    7.10    0.99
   0  -1  11    8.53    1.75
   0  -1  11    4.86    1.30
   0   1 -11    6.50    1.25
   0   1  11    7.96    1.59
   0   1  11    8.33    2.77
   0   1  11    7.58    1.42
  -1  -1 -11   -1.27    1.18
  -1  -1 -11   -0.32    1.25
   1  -1  11   -0.77    1.25
   1  -1  11   -0.22    0.95
   1  -1  11    0.58    1.45
   1   1  11   -0.59    1.01
   1   1  11    0.34    1.54
   1   1  11   -0.55    1.54
  -1   1 -11    1.39    1.20
  -1   1 -11   -2.02    1.36
   1   1  11    0.32    2.72
   2  -1  11    0.30    1.11
   2  -1  11    1.43    1.83
  -2  -1 -11    3.20    1.30
   2  -1  11    1.41    1.88
  -2  -1 -11   -1.98    1.94
  -2  -1 -11    0.00    1.38
   2   1  11    2.12    2.30
   2   1  11    2.46    1.72
  -2   1 -11    0.89    1.16
   2   1  11    2.17    1.29
  -2   1 -11    1.11    2.12
  -2   1 -11    2.12    1.56
  -3  -1 -11    7.52    1.79
   3  -1  11    5.50    1.47
  -3  -1 -11    7.03    2.40
   3  -1  11    3.80    2.34
  -3   1 -11    2.52    1.55
   3   1  11    2.27    2.15
  -3   1 -11    5.48    2.29
  -3   1 -11    1.95    1.90
   3   1  11    6.10    1.64
  -4  -1 -11   -0.16    2.61
   4  -1  11    2.39    2.51
   4  -1  11   -1.51    1.99
  -4  -1 -11    3.34    1.99
   4   1  11    1.36    2.12
  -4   1 -11    1.93    1.84
   4   1  11   -0.43    2.16
  -4   1 -11   -1.06    2.44
  -6  -2  11    2.28    2.21
   6  -2 -11    1.88    1.89
   6  -2 -11    1.03    1.62
   6  -2 -11    1.56    2.18
  -6  -2  11    3.74    1.81
   6   2 -11    3.50    1.91
  -6   2  11    0.76    2.80
   6   2 -11    4.73    1.95
  -6   2  11   -0.99    2.35
   5  -2 -11    4.70    1.30
   5  -2 -11    6.24    2.41
  -5  -2  11    6.76    2.29
   5  -2 -11    6.24    1.92
  -5  -2  11    2.93    1.59
   5   2 -11    4.85    1.84
  -5   2  11    8.97    1.98
   5   2 -11    3.77    2.16
  -5   2  11    7.60    2.12
   5   2 -11    6.88    1.72
  -5   2  11   10.34    3.17
   4  -2 -11   17.41    2.05
   4  -2 -11   15.57    2.85
  -4  -2  11   16.79    2.54
   4  -2 -11   15.64    1.60
  -4  -2  11   16.44    2.61
   4   2 -11   17.62    1.79
   4   2 -11   18.34    2.40
  -4   2  11   16.11    2.28
  -4   2  11   17.93    2.74
   4   2 -11   16.11    2.54
   3  -2 -11    7.91    1.60
  -3  -2  11   11.80    2.15
   3  -2 -11   11.04    2.29
  -3  -2  11   10.00    1.89
   3  -2 -11   11.53    1.61
  -3   2  11    9.04    1.52
   3   2 -11   13.46    1.66
  -3   2  11   16.19    2.04
   3   2 -11   12.91    1.67
  -3   2  11   11.17    1.66
   2  -2 -11    2.20    1.11
  -2  -2  11    5.42    1.42
  -2  -2  11    1.90    1.05
   2  -2 -11    3.28    1.51
   2  -2 -11    2.05    1.12
  -2   2  11    3.54    1.21
  -2   2  11    0.95    1.32
   2   2 -11    0.87    1.07
   2   2 -11   -0.08    1.10
  -2   2  11    3.16    1.44
  -2   2  11   -0.32    1.11
  -1  -2  11    3.60    1.30
   1  -2 -11    2.43    1.31
  -1  -2  11    4.21    1.21
  -1  -2  11    2.72    1.13
   1  -2 -11    2.20    0.91
   1  -2 -11    5.58    1.51
  -1   2  11    1.66    1.44
  -1   2  11    3.19    1.12
   1   2 -11    3.55    1.11
   1   2 -11    1.24    1.09
   1   2 -11    3.22    1.23
   0  -2 -11   10.52    1.59
   0  -2 -11   12.87    1.70
   0  -2  11   14.21    2.15
   0  -2  11   10.04    1.58
   0  -2  11   12.26    1.92
   0  -2 -11   11.46    1.41
   0   2 -11   10.18    1.80
   0   2  11   10.94    1.52
   0   2  11   12.41    2.18
   0   2 -11    9.70    1.68
   0   2  11   11.44    2.23
   0   2 -11   11.16    1.90
  -1  -2 -11    5.06    1.60
   1  -2  11    1.89    1.60
   1  -2  11    1.97    1.20
  -1  -2 -11    2.43    1.59
   1   2  11    0.52    1.76
  -1   2 -11    2.64    1.53
   1   2  11    2.01    1.57
   1   2  11    3.45    2.07
  -1   2 -11    3.79    1.44
  -2  -2 -11    0.90    2.29
   2  -2  11   -3.11    2.32
  -2  -2 -11    0.75    1.58
   2  -2  11    0.16    1.36
  -2   2 -11    1.23    1.82
   2   2  11    1.30    2.34
  -2   2 -11    1.42    1.97
   2   2  11   -2.10    1.34
  -3  -2 -11    5.27    3.40
   3  -2  11    1.81    1.85
   3  -2  11    0.77    1.59
  -3  -2 -11    2.41    1.85
  -3  -2 -11    4.32    1.89
   3  -2  11    4.20    2.27
   3   2  11    1.95    2.18
  -3   2 -11    8.42    2.66
  -3   2 -11    3.13    2.33
   3   2  11    0.90    3.30
  -5  -3  11    0.45    1.79
  -5  -3  11    2.59    2.32
   5  -3 -11    4.12    1.77
   5  -3 -11    2.25    2.81
  -5   3  11    4.62    1.96
   5   3 -11    4.48    1.95
   5   3 -11   -0.49    2.58
  -4  -3  11    2.71    3.28
   4  -3 -11    3.40    2.35
  -4  -3  11    8.16    1.79
  -4   3  11   10.85    1.98
   4   3 -11    6.17    1.76
  -4   3  11    7.27    2.03
   4   3 -11    8.47    1.89
   3  -3 -11   -1.52    2.00
   3  -3 -11    0.13    1.39
  -3  -3  11    2.25    1.63
  -3   3  11    1.51    1.69
  -3   3  11    1.13    1.87
   3   3 -11    2.23    1.44
  -2  -3  11    2.27    1.53
   2  -3 -11    3.54    1.21
  -2   3  11    1.94    1.97
  -2   3  11    4.35    1.83
   2   3 -11    0.53    1.46
   1  -3 -11   -1.65    1.01
  -1  -3  11   -4.90    2.87
   1  -3 -11    3.55    3.74
  -1  -3  11   -1.72    1.36
   1   3 -11    0.05    1.59
   1   3 -11   -0.44    1.19
  -1   3  11   -0.20    3.04
   0  -3 -11    2.56    1.74
   0  -3 -11    4.88    1.10
   0  -3 -11    1.63    2.17
   0  -3  11    3.72    2.62
   0  -3  11    3.43    1.78
   0   3 -11   -1.29    1.57
   0   3 -11    1.89    1.47
   0   3 -11    3.12    1.94
   0   3  11    0.49    2.58
   0   3  11    5.81    1.67
  -1  -3 -11    4.44    1.90
   1  -3  11    5.74    2.67
  -1  -3 -11    7.71    2.10
   1   3  11    7.05    2.48
   1   3  11    6.30    2.17
  -1   3 -11    8.14    1.97
  -1   3 -11    5.25    1.83
  -2  -3 -11   21.52    4.27
  -2  -3 -11   15.13    3.68
   2  -3  11   16.78    2.68
  -2   3 -11   18.22    3.83
   2   3  11   16.63    3.28
  -2   3 -11   18.16    2.73
   2   3  11   17.57    3.01
   3  -4 -11    0.44    2.47
  -3  -4  11   -0.96    1.86
  -3  -4  11   -0.88    2.06
   3  -4 -11    2.62    1.81
   3   4 -11   -0.68    1.72
  -3   4  11    1.62    1.93
  -3   4  11    0.79    2.15
   3   4 -11    3.97    1.87
   2  -4 -11   38.80    3.31
   2  -4 -11   43.87    3.56
  -2  -4  11   35.15    3.21
  -2  -4  11   43.20    3.09
   2   4 -11   39.77    3.38
  -2   4  11   37.74    3.37
  -2   4  11   38.90    4.28
   1  -4 -11   30.75    2.86
  -1  -4  11   28.17    3.42
   1  -4 -11   31.98    3.00
   1  -4 -11   31.04    3.25
  -1  -4  11   28.60    2.78
  -1  -4  11   27.90    2.76
   1   4 -11   30.99    3.52
  -1   4  11   28.65    3.57
  -1   4  11   27.07    3.19
   1   4 -11   25.52    2.91
  -1   4  11   22.64    2.88
   0  -4 -11    2.38    1.92
   0  -4 -11    3.03    2.36
   0  -4  11    4.09    1.84
   0   4  11    1.14    2.52
   0   4  11    2.95    2.42
   0   4 -11    1.64    1.92
   0   4 -11    4.54    1.82
   0   4  11    3.85    2.11
  -6   0  12   32.40    3.96
   6   0 -12   33.21    3.32
   5   0 -12    1.39    1.59
  -5   0  12    1.30    2.53
   5   0 -12   -0.20    1.73
  -5   0  12    2.22    1.51
  -4   0  12    4.06    1.48
   4   0 -12    2.14    1.24
   4   0 -12    1.25    1.34
  -4   0  12   -1.03    1.68
   4   0 -12    2.43    1.00
  -4   0  12    4.39    1.48
  -3   0  12    1.83    1.27
  -3   0  12    0.20    1.46
  -3   0  12    2.53    1.11
   3   0 -12   -0.37    1.12
   3   0 -12   -0.97    1.01
  -3   0  12    1.04    1.40
   2   0 -12    5.46    1.04
  -2   0  12    4.53    1.26
  -2   0  12    2.78    1.30
  -2   0  12    5.43    1.36
   2   0 -12    3.23    1.01
  -2   0  12    3.63    1.01
   2   0 -12    2.87    1.32
  -2   0  12    4.23    1.42
   1   0 -12    0.92    0.96
  -1   0  12   -1.16    1.22
  -1   0  12   -0.12    0.96
   1   0 -12   -0.29    1.80
  -1   0  12   -0.42    1.22
   1   0 -12   -0.28    1.42
   1   0 -12   -0.34    0.96
  -1   0  12   -1.69    1.37
   1   0 -12    1.35    1.26
   1   0 -12    0.24    1.01
   0   0  12   -0.01    0.96
   0   0  12   -1.52    1.17
   0   0 -12    0.76    1.46
   0   0 -12   -0.54    1.13
   0   0 -12    1.59    1.18
   0   0 -12   -0.07    1.16
   0   0  12   -0.39    1.27
   0   0  12   -0.54    1.97
   1   0  12    1.30    1.36
  -1   0 -12   -0.61    1.70
   1   0  12    2.07    2.06
  -1   0 -12   -1.25    1.35
  -1   0 -12    1.26    1.21
   1   0  12    1.67    1.06
   1   0  12    5.30    1.75
  -2   0 -12  109.11    5.34
   2   0  12  106.06    5.43
   3   0  12    2.04    2.11
  -3   0 -12    4.03    3.08
  -3   0 -12    6.21    2.37
   6  -1 -12    4.00    1.79
  -6  -1  12    4.12    2.32
  -6  -1  12    3.93    2.07
   6  -1 -12    3.67    1.87
  -6  -1  12    9.25    2.42
  -6   1  12    3.01    1.93
  -6   1  12    0.85    3.41
   6   1 -12    0.94    2.22
   6   1 -12    2.93    1.97
  -5  -1  12    1.59    1.48
  -5  -1  12   -1.70    2.07
   5  -1 -12    6.09    2.34
   5  -1 -12    3.16    2.04
   5  -1 -12    0.19    1.61
  -5  -1  12    2.74    1.56
  -5   1  12    2.89    2.07
   5   1 -12    6.12    1.77
  -4  -1  12   23.39    2.18
   4  -1 -12   23.95    2.83
   4  -1 -12   22.66    2.22
  -4  -1  12   19.79    3.33
  -4  -1  12   19.91    2.67
   4  -1 -12   21.20    1.96
  -4   1  12   18.75    2.87
   4   1 -12   27.87    2.39
   4   1 -12   20.81    2.37
  -4   1  12   23.58    3.25
  -4   1  12   27.18    2.54
   4   1 -12   18.58    1.80
  -3  -1  12   73.75    3.62
  -3  -1  12   56.92    4.46
   3  -1 -12   69.41    3.44
   3  -1 -12   65.27    3.27
   3   1 -12   70.64    3.70
   3   1 -12   62.02    3.36
   3   1 -12   67.46    3.77
  -3   1  12   68.82    3.72
  -3   1  12   61.01    3.71
  -3   1  12   64.84    3.84
  -3   1  12   57.22    3.67
  -2  -1  12    6.14    1.20
   2  -1 -12    6.59    1.29
  -2  -1  12    5.93    1.39
  -2   1  12    4.78    1.60
   2   1 -12    3.90    1.35
  -2   1  12    9.46    2.16
   2   1 -12    5.13    1.30
  -1  -1  12   30.26    2.62
   1  -1 -12   24.10    2.18
  -1  -1  12   17.11    2.38
   1  -1 -12   24.15    2.64
   1  -1 -12   21.48    1.72
  -1  -1  12   24.70    2.31
  -1   1  12   21.88    2.41
   1   1 -12   26.23    2.04
  -1   1  12   21.71    2.17
   1   1 -12   24.44    2.03
  -1   1  12   21.23    2.62
   1   1 -12   24.34    2.00
   0  -1  12    9.75    1.40
   0  -1 -12    9.91    1.22
   0  -1  12   11.78    2.00
   0  -1 -12   10.50    1.91
   0  -1 -12   11.70    1.92
   0  -1 -12    9.43    1.87
   0   1  12   12.64    1.87
   0   1 -12   10.70    1.91
   0   1  12   12.87    2.18
   0   1  12    9.34    2.17
   0   1 -12   10.39    1.87
  -1  -1 -12    0.10    2.80
   1  -1  12    3.85    2.03
   1  -1  12    4.30    1.60
  -1  -1 -12    3.76    1.62
  -1  -1 -12    2.52    1.44
   1  -1  12    4.88    2.17
   1   1  12    4.45    1.48
  -1   1 -12    1.64    1.67
   1   1  12    2.44    1.83
  -1   1 -12    4.02    2.91
   1   1  12    7.00    2.12
   1   1  12    1.07    1.14
  -2  -1 -12    7.91    1.90
   2  -1  12    6.54    1.46
   2  -1  12    9.48    2.39
  -2  -1 -12    7.57    2.32
  -2  -1 -12    5.12    1.53
   2   1  12   11.94    2.58
  -2   1 -12    6.50    1.89
   2   1  12    8.64    1.57
  -2   1 -12    6.22    1.88
  -3  -1 -12   -1.22    1.86
  -3  -1 -12    2.68    2.62
   3  -1  12   -0.45    1.91
   3  -1  12    1.12    2.60
  -3   1 -12    0.22    1.66
   3   1  12   -1.63    2.58
   3   1  12    2.30    2.81
  -3   1 -12    1.74    2.74
  -3   1 -12   -1.05    2.32
   3   1  12    0.82    2.19
   5  -2 -12    5.62    1.54
  -5  -2  12    9.27    2.29
   5  -2 -12    5.92    2.38
   5  -2 -12    8.83    1.76
   5   2 -12    4.48    1.41
  -5   2  12    7.67    1.74
  -5   2  12    7.39    2.00
  -5   2  12   11.58    2.96
   5   2 -12    6.03    1.98
   5   2 -12    8.86    1.91
   4  -2 -12   21.44    2.94
  -4  -2  12   17.01    2.78
   4  -2 -12   19.90    1.86
   4  -2 -12   21.60    2.92
  -4  -2  12   19.00    3.10
  -4   2  12   18.79    2.15
   4   2 -12   20.53    2.16
   4   2 -12   25.15    2.70
  -4   2  12   19.18    2.95
  -3  -2  12    0.96    1.92
   3  -2 -12    4.50    2.37
   3  -2 -12    2.15    1.06
  -3  -2  12    2.78    1.89
   3  -2 -12    2.32    1.22
   3   2 -12    3.20    1.26
   3   2 -12    3.72    1.59
   2  -2 -12    3.40    1.87
   2  -2 -12   -1.26    1.09
  -2  -2  12    2.24    1.48
  -2  -2  12   -0.04    1.31
   2   2 -12    0.12    2.03
   2   2 -12    1.81    1.22
  -2   2  12    0.39    2.04
  -2   2  12    1.87    1.78
   1  -2 -12    8.15    1.76
  -1  -2  12   10.99    1.81
   1  -2 -12    5.69    1.92
  -1  -2  12    7.43    1.51
  -1  -2  12    9.21    1.93
  -1   2  12    9.20    2.16
  -1   2  12    8.37    1.56
   1   2 -12   10.07    1.91
   1   2 -12    9.91    1.96
  -1   2  12    7.59    2.04
   0  -2  12   13.49    2.08
   0  -2 -12   16.36    2.33
   0  -2 -12   12.63    2.38
   0  -2  12   11.67    2.70
   0  -2 -12    9.67    1.31
   0   2  12   12.82    2.21
   0   2  12   13.36    2.79
   0   2 -12   12.29    2.05
   1  -2  12    2.18    1.44
  -1  -2 -12    1.17    2.36
  -1  -2 -12    2.51    1.82
   1  -2  12    0.61    1.84
  -1   2 -12   -1.60    1.62
   1   2  12    0.29    2.30
  -1   2 -12    0.14    1.88
   1   2  12    0.81    2.09
   2  -2  12    4.62    2.27
   2  -2  12   -0.20    1.87
   2  -2  12    2.13    1.69
  -2  -2 -12    3.13    1.89
  -2   2 -12    4.75    2.26
  -2   2 -12    0.56    1.80
   2   2  12    1.31    2.50
  -4  -3  12    4.94    2.27
   4  -3 -12    5.68    1.79
  -4  -3  12    2.86    2.24
   4  -3 -12    5.07    2.91
  -4   3  12    2.99    2.08
   4   3 -12    7.09    1.94
   4   3 -12    7.80    2.47
   3  -3 -12    4.73    1.64
  -3  -3  12    5.58    1.74
  -3  -3  12    6.08    2.83
   3  -3 -12   10.32    2.36
   3   3 -12   -0.10    3.06
  -3   3  12    7.46    2.08
   3   3 -12    7.47    2.52
  -2  -3  12    1.68    1.77
   2  -3 -12    1.54    1.28
   2  -3 -12    4.83    2.35
  -2  -3  12    4.54    1.74
  -2  -3  12    3.21    1.73
  -2   3  12    5.08    2.38
   2   3 -12    4.44    1.68
   2   3 -12   -0.57    1.75
   1  -3 -12    1.42    1.73
   1  -3 -12    5.14    2.31
  -1  -3  12   -2.52    1.65
  -1  -3  12   -1.10    1.61
  -1  -3  12    0.76    1.63
   1  -3 -12    1.35    1.17
  -1   3  12   -0.84    1.63
  -1   3  12   -1.12    2.20
   1   3 -12    2.56    1.86
   1   3 -12   -2.38    1.44
   1   3 -12   -0.03    1.54
  -1   3  12   -1.37    1.86
   0  -3  12    1.95    1.83
   0  -3  12   -0.90    1.68
   0  -3 -12   -1.07    2.24
   0  -3 -12    2.57    1.76
   0   3 -12    0.68    1.80
   0   3  12    2.33    2.00
   0   3  12    0.47    2.35
   0   3 -12   -2.07    1.68
   1  -3  12    1.44    1.88
  -1  -3 -12    2.31    1.88
  -1  -3 -12    4.55    2.33
  -1   3 -12   -1.37    1.90
   1   3  12    1.92    3.09
   1   3  12    3.85    2.59
  -6   0  13   -1.22    2.20
  -6   0  13   -1.84    2.42
   6   0 -13   -0.72    2.04
   6   0 -13    0.93    1.78
  -5   0  13    0.38    2.16
   5   0 -13    2.28    1.67
   5   0 -13   -0.56    2.25
  -5   0  13    1.52    2.48
   4   0 -13   -2.13    1.42
  -4   0  13    2.06    1.59
   4   0 -13    0.98    1.10
   3   0 -13   -0.17    1.49
  -3   0  13    1.48    1.34
   3   0 -13    0.43    1.17
   3   0 -13   -0.16    1.06
  -3   0  13    3.40    2.57
  -3   0  13    3.27    2.26
  -3   0  13    4.69    1.54
  -3   0  13    4.82    1.75
   2   0 -13    2.77    1.17
  -2   0  13    4.10    2.39
   2   0 -13   -0.41    1.16
   2   0 -13    1.30    2.08
  -2   0  13    1.73    1.50
  -2   0  13   -3.10    3.30
  -2   0  13   -0.16    1.32
  -2   0  13   -3.89    2.93
  -2   0  13    1.04    1.18
  -1   0  13    0.51    1.32
  -1   0  13    2.81    1.49
   1   0 -13    3.47    1.46
  -1   0  13   -0.31    1.61
   1   0 -13    1.14    1.23
   1   0 -13   -0.55    1.14
   1   0 -13   -0.28    1.20
  -1   0  13    0.99    1.55
   1   0 -13    0.25    1.38
  -1   0  13    0.79    1.51
   0   0 -13   -2.03    1.41
   0   0  13   -1.00    1.44
   0   0 -13    0.73    1.36
   0   0 -13   -1.11    1.29
   0   0 -13    4.57    1.82
   0   0  13    3.62    2.02
   0   0  13   -1.94    1.48
  -1   0 -13   -0.80    1.37
   1   0  13    2.64    1.71
  -1   0 -13   -1.61    1.80
   1   0  13    5.11    1.83
   2   0  13    2.68    2.47
  -2   0 -13    1.93    2.54
  -5  -1  13    0.55    1.58
  -5  -1  13   -3.83    2.13
  -5  -1  13    2.12    1.53
   5  -1 -13    0.76    3.04
   5  -1 -13    0.86    1.59
  -5   1  13    1.47    2.01
  -5   1  13    0.28    2.07
   5   1 -13    2.98    1.91
   5   1 -13    2.05    1.67
   4  -1 -13   13.65    2.22
   4  -1 -13   12.38    1.99
  -4  -1  13   12.38    2.37
  -4  -1  13    8.38    2.16
   4   1 -13    8.22    1.75
  -4   1  13   11.03    2.21
   4   1 -13   10.56    1.87
  -4   1  13    9.33    2.03
   3  -1 -13   38.84    2.48
  -3  -1  13   35.04    2.96
  -3  -1  13   33.25    3.48
   3  -1 -13   34.87    2.21
   3  -1 -13   32.12    3.11
  -3   1  13   37.68    3.50
  -3   1  13   32.09    2.93
   3   1 -13   31.41    2.35
   3   1 -13   33.61    2.66
  -3   1  13   37.72    3.12
   3   1 -13   34.87    3.01
  -3   1  13   31.01    3.72
  -2  -1  13    4.74    1.87
   2  -1 -13    6.35    1.22
   2  -1 -13    1.66    1.09
  -2  -1  13    6.53    1.63
   2  -1 -13    3.20    2.02
  -2  -1  13    3.97    1.62
  -2  -1  13    3.17    1.44
  -2   1  13    7.50    1.52
   2   1 -13    4.90    1.74
  -2   1  13    6.58    2.26
  -2   1  13    6.24    1.64
  -2   1  13    1.71    3.41
   2   1 -13    4.44    1.20
  -2   1  13    1.71    1.89
   2   1 -13    3.00    1.22
   1  -1 -13    2.10    1.55
  -1  -1  13    3.31    1.58
   1  -1 -13   -0.85    1.63
   1  -1 -13   -0.68    1.08
  -1  -1  13    1.91    1.25
  -1   1  13   -3.14    2.51
   1   1 -13    2.00    1.43
  -1   1  13    1.89    1.42
  -1   1  13   -0.59    2.32
   1   1 -13    1.98    1.33
  -1   1  13    2.09    1.16
   1   1 -13    0.56    1.59
  -1   1  13    0.27    1.73
   0  -1 -13    7.99    1.63
   0  -1 -13    4.63    1.73
   0  -1  13    5.87    2.49
   0  -1  13    6.59    1.77
   0  -1  13    4.93    1.57
   0  -1  13    3.17    1.61
   0  -1 -13    5.28    2.33
   0   1  13    4.82    2.25
   0   1 -13    7.59    1.78
   0   1  13    5.22    1.31
   0   1  13    9.39    1.80
   0   1  13    8.44    1.87
   1  -1  13    0.83    2.42
  -1  -1 -13    1.94    1.90
  -1  -1 -13    5.58    2.40
   1  -1  13    2.71    1.45
  -1  -1 -13    2.98    2.33
  -1   1 -13    7.03    3.07
   1   1  13    1.74    1.46
   1   1  13    2.55    2.37
  -1   1 -13    6.00    1.89
   2  -1  13   26.66    3.21
   2  -1  13   29.85    4.16
   2  -1  13   22.70    3.17
  -2  -1 -13   26.61    2.99
   2   1  13   32.64    3.40
  -2   1 -13   28.06    3.04
  -2   1 -13   29.82    3.01
   2   1  13   31.65    4.73
  -2   1 -13   23.93    2.50
   2   1  13   23.93    2.76
  -5  -2  13   -1.76    2.18
  -5  -2  13    2.85    1.97
   5  -2 -13    0.63    2.45
   5  -2 -13   -0.64    1.73
  -5   2  13    1.09    2.04
   5   2 -13    3.24    1.72
  -5   2  13    0.09    1.88
   5   2 -13    0.45    2.05
  -5   2  13    4.43    2.58
  -4  -2  13    6.77    1.71
   4  -2 -13    4.50    1.65
   4  -2 -13    2.70    2.21
  -4  -2  13   -0.67    2.13
  -4   2  13    3.73    2.22
  -4   2  13    2.66    2.13
  -4   2  13    2.16    1.96
   4   2 -13    4.53    2.13
   4   2 -13    6.50    1.97
   3  -2 -13    3.35    1.49
  -3  -2  13    2.33    1.98
   3  -2 -13    7.85    3.33
  -3  -2  13    5.66    1.68
  -3   2  13    5.66    1.93
   3   2 -13    5.49    1.76
   3   2 -13    4.72    1.47
  -3   2  13    4.02    2.08
  -2  -2  13   -0.10    1.87
   2  -2 -13    0.24    1.24
   2   2 -13   -0.46    1.44
  -2   2  13   -0.28    1.93
   2   2 -13   -1.30    1.66
  -2   2  13   -0.75    1.61
  -2   2  13    3.10    2.13
   1  -2 -13   17.00    2.86
  -1  -2  13   19.62    2.48
   1  -2 -13   12.36    1.76
  -1  -2  13   16.34    2.41
   1  -2 -13   14.34    2.25
   1   2 -13   13.55    2.54
   1   2 -13   13.78    2.33
  -1   2  13   15.57    2.90
  -1   2  13   15.16    2.01
   0  -2  13    2.81    1.93
   0  -2 -13    3.57    2.15
   0  -2  13    0.26    1.77
   0  -2 -13    2.54    1.83
   0   2 -13   -1.35    1.75
   0   2 -13    1.23    1.69
   0   2  13    2.14    2.24
   0   2  13    3.42    2.32
   1  -2  13    1.25    1.86
  -1  -2 -13    2.13    1.92
  -1  -2 -13    6.80    2.36
   1  -2  13    0.76    2.57
  -1   2 -13    1.65    1.85
   1   2  13    6.33    2.86
   1   2  13    2.53    2.48
  -1   2 -13    3.71    3.00
   3  -3 -13    2.41    2.27
  -3  -3  13   -0.16    1.79
  -3  -3  13   -0.09    2.39
   3   3 -13   -2.25    1.71
  -3   3  13   -2.50    2.00
  -3   3  13    0.47    2.35
   2  -3 -13    3.52    2.57
   2  -3 -13    3.20    1.57
  -2  -3  13    2.31    1.81
  -2  -3  13    3.01    1.84
  -2  -3  13   -1.51    2.15
   2   3 -13    1.08    2.00
  -2   3  13    1.03    2.22
   2   3 -13   -0.10    1.77
  -2   3  13    1.19    2.05
   1  -3 -13    2.62    1.88
  -1  -3  13    2.17    1.79
  -1  -3  13   -1.15    1.68
   1  -3 -13    2.26    2.51
   1   3 -13    3.38    1.80
   1   3 -13    2.47    1.76
  -1   3  13   -3.64    2.75
   1   3 -13   -0.97    1.73
  -1   3  13   -4.41    2.35
  -1   3  13    3.81    2.11
   0   3 -13   -0.26    1.90
   5   0 -14   -0.64    1.97
  -5   0  14    1.68    2.22
   5   0 -14    2.47    2.03
  -5   0  14    3.07    2.70
  -4   0  14  103.01    6.04
  -4   0  14  111.08    5.73
   4   0 -14  125.50    5.89
   4   0 -14  110.91    5.70
   3   0 -14    0.76    1.46
   3   0 -14   -0.84    1.24
  -3   0  14    4.90    2.07
  -3   0  14   -0.91    1.78
  -3   0  14    3.14    2.30
   2   0 -14   -0.32    1.54
   2   0 -14    0.77    1.41
  -2   0  14   -0.06    1.65
  -2   0  14   -0.07    1.86
  -2   0  14   -1.52    1.51
  -2   0  14   -1.02    1.61
  -2   0  14    4.02    1.84
   2   0 -14   -1.91    1.35
   1   0 -14   -0.30    1.49
  -1   0  14   -0.19    1.35
  -1   0  14   -1.75    1.59
  -1   0  14    3.08    1.71
  -1   0  14   -1.95    2.07
  -1   0  14    3.23    2.37
   1   0 -14    1.21    1.86
   1   0 -14   -1.33    1.47
   0   0  14    0.05    1.80
   0   0  14    2.98    2.45
   0   0 -14    4.63    1.62
   0   0  14    5.24    1.95
  -1   0 -14   -1.50    1.83
   1   0  14    1.62    2.39
   1   0  14   -0.31    2.47
  -1   0 -14    2.19    2.48
  -4  -1  14    5.17    1.82
  -4  -1  14    2.30    2.17
   4  -1 -14    4.50    1.65
   4  -1 -14    1.23    1.59
   4  -1 -14    3.96    2.56
  -4   1  14    0.20    2.59
  -4   1  14    4.57    2.00
   4   1 -14   -1.12    2.94
  -4   1  14   -1.64    2.41
   4   1 -14    2.25    1.68
  -3  -1  14    4.04    2.66
  -3  -1  14    3.94    1.61
   3  -1 -14    2.48    1.86
   3  -1 -14    1.53    2.10
   3  -1 -14    3.22    2.06
  -3   1  14    2.54    2.00
   3   1 -14    4.08    1.38
   3   1 -14    3.08    1.78
   3   1 -14    3.48    1.56
  -2  -1  14    4.57    1.87
   2  -1 -14    0.12    1.27
   2  -1 -14   -0.46    1.34
   2  -1 -14    0.66    2.58
  -2  -1  14    2.76    1.90
  -2   1  14    2.33    1.45
   2   1 -14   -2.15    1.45
  -2   1  14    1.04    1.66
  -2   1  14    3.78    3.05
   2   1 -14   -1.27    1.45
  -1  -1  14   12.42    1.99
   1  -1 -14   15.34    2.23
  -1  -1  14   18.58    3.53
   1  -1 -14   10.02    1.54
  -1  -1  14   12.72    1.85
   1   1 -14    8.59    2.03
  -1   1  14   15.13    2.13
   1   1 -14   12.29    2.34
  -1   1  14   12.10    2.22
  -1   1  14   13.32    2.17
  -1   1  14   16.95    2.09
   0  -1  14    0.71    2.06
   0  -1  14    7.02    2.70
   0  -1 -14   -0.07    1.94
   0  -1 -14    2.82    1.91
   0  -1  14    3.37    1.93
   0   1  14   -0.58    2.42
   0   1 -14    6.78    3.38
   0   1 -14    0.13    1.78
   0   1  14    5.02    2.61
  -1  -1 -14   15.16    2.61
  -1  -1 -14   24.34    2.76
   1  -1  14   19.83    3.60
   1  -1  14   18.51    2.58
  -1  -1 -14   20.19    3.10
   1  -1  14   16.95    2.62
  -1   1 -14   21.06    2.83
  -1   1 -14   17.54    2.91
   1   1  14   16.90    2.89
   1   1  14   23.25    3.40
   1   1  14   14.58    2.12
  -3  -2  14    0.80    1.77
   3  -2 -14    5.65    2.36
  -3   2  14    2.47    2.83
   3   2 -14   -0.61    1.79
  -2  -2  14    1.08    1.91
  -2  -2  14   -1.43    1.65
   2  -2 -14    0.28    2.53
  -2  -2  14   -2.38    3.23
   2  -2 -14    2.67    1.86
  -2   2  14    5.53    2.56
   2   2 -14    3.39    1.82
  -2   2  14    4.70    2.04
   2   2 -14   -0.29    1.65
   1  -2 -14   11.31    1.95
  -1  -2  14   10.79    2.14
  -1  -2  14   12.53    2.75
   1  -2 -14   15.93    3.04
   1  -2 -14    8.30    1.55
  -1  -2  14   13.04    2.26
   1   2 -14   11.63    3.27
   1   2 -14   12.47    2.60
  -1   2  14    8.27    2.15
  -1   2  14    8.25    2.16
   1   2 -14    7.85    1.97
   0  -2 -14    0.36    2.70
   0  -2  14    7.47    2.22
   0  -2  14    2.90    1.98
   0   2  14    8.58    2.56
   0   2 -14    3.31    1.89
  -3   0  15   85.95    4.71
  -3   0  15   87.92    5.07
   3   0 -15   80.48    4.59
  -2   0  15    2.49    2.77
  -2   0  15   -0.91    2.47
   2   0 -15   -3.34    3.26
  -2   0  15    0.98    2.70
   2   0 -15    2.09    1.75
  -1   0  15    6.72    2.36
  -1   0  15    2.04    2.51
  -1   0  15   -1.77    3.30
  -1   0  15    3.62    1.84
   3   1 -15   -1.65    1.67
   2  -1 -15    2.36    1.79
   2  -1 -15   -0.84    2.16
  -2  -1  15    3.78    1.73
  -2  -1  15    0.16    1.87
  -2   1  15    0.91    2.18
  -2   1  15    4.02    2.20
   2   1 -15   -0.14    1.73
  -2   1  15    0.66    2.60
  -2   1  15    6.46    2.95
  -1  -1  15   13.43    3.24
   1   1 -15    8.39    2.52
   1   1 -15    7.11    1.90
   0   0   0    0.00    0.00
;
_shelx_hkl_checksum              23977
#END Tags that were not found in dictionaries
loop_
_space_group_symop_operation_xyz
'x, y, z'
'-x+1/2, y+1/2, -z+1/2'
'-x, -y, -z'
'x-1/2, -y-1/2, z-1/2'
loop_
_atom_site_label
_atom_site_type_symbol
_atom_site_fract_x
_atom_site_fract_y
_atom_site_fract_z
_atom_site_U_iso_or_equiv
_atom_site_adp_type
_atom_site_occupancy
_atom_site_site_symmetry_order
_atom_site_calc_flag
_atom_site_refinement_flags_posn
_atom_site_refinement_flags_adp
_atom_site_refinement_flags_occupancy
_atom_site_disorder_assembly
_atom_site_disorder_group
N1 N 0.1975(3) 0.0582(4) 0.04864(14) 0.0153(5) Uani 0.85(3) 1 d . . P A 1
C1 C 0.1975(3) 0.0582(4) 0.04864(14) 0.0153(5) Uani 0.15(3) 1 d . . P A 2
H1 H 0.3291 0.0971 0.0813 0.018 Uiso 0.15(3) 1 calc R U P A 2
C2 C 0.1478(3) -0.1316(4) -0.02858(17) 0.0155(5) Uani 1 1 d . . . . .
C3 C 0.2957(3) -0.2802(5) -0.06279(18) 0.0197(6) Uani 1 1 d . . . . .
H3 H 0.4281 -0.2436 -0.0312 0.024 Uiso 1 1 calc R U . . .
C4 C 0.2483(3) -0.4733(5) -0.14015(18) 0.0208(5) Uani 1 1 d . . . . .
H4 H 0.3482 -0.5724 -0.1615 0.025 Uiso 1 1 calc R U . . .
C5 C 0.0507(3) 0.1900(4) 0.07710(17) 0.0156(5) Uani 1 1 d . . . . .
C6 C 0.0928(3) 0.3943(4) 0.15826(18) 0.0194(5) Uani 1 1 d . . . . .
H6 H 0.2239 0.4366 0.1909 0.023 Uiso 1 1 calc R U . . .
C7 C -0.0521(3) 0.5293(5) 0.18949(18) 0.0203(5) Uani 1 1 d . . . . .
H7 H -0.0217 0.6622 0.2448 0.024 Uiso 1 1 calc R U . . .
loop_
_atom_site_aniso_label
_atom_site_aniso_U_11
_atom_site_aniso_U_22
_atom_site_aniso_U_33
_atom_site_aniso_U_23
_atom_site_aniso_U_13
_atom_site_aniso_U_12
N1 0.0176(11) 0.0119(10) 0.0173(10) 0.0009(8) 0.0058(8) -0.0005(8)
C1 0.0176(11) 0.0119(10) 0.0173(10) 0.0009(8) 0.0058(8) -0.0005(8)
C2 0.0200(12) 0.0123(11) 0.0150(11) 0.0056(9) 0.0054(9) -0.0002(9)
C3 0.0183(12) 0.0172(12) 0.0249(13) 0.0033(10) 0.0074(10) -0.0002(10)
C4 0.0245(13) 0.0158(11) 0.0254(12) 0.0002(10) 0.0125(10) 0.0027(10)
C5 0.0201(12) 0.0112(11) 0.0161(11) 0.0062(9) 0.0051(9) -0.0004(9)
C6 0.0218(13) 0.0173(12) 0.0185(12) -0.0006(9) 0.0036(10) -0.0039(10)
C7 0.0294(14) 0.0152(11) 0.0178(11) -0.0022(10) 0.0085(10) -0.0023(10)
loop_
_atom_type_symbol
_atom_type_description
_atom_type_scat_dispersion_real
_atom_type_scat_dispersion_imag
_atom_type_scat_source
C C 0.0033 0.0016 'International Tables Vol C Tables 4.2.6.8 and 6.1.1.4'
H H 0.0000 0.0000 'International Tables Vol C Tables 4.2.6.8 and 6.1.1.4'
N N 0.0061 0.0033 'International Tables Vol C Tables 4.2.6.8 and 6.1.1.4'
loop_
_geom_angle_atom_site_label_1
_geom_angle_atom_site_label_2
_geom_angle_atom_site_label_3
_geom_angle
_geom_angle_site_symmetry_3
C2 N1 C5 116.32(19) .
N1 C2 C3 119.5(2) .
N1 C2 C5 121.57(19) 3
C3 C2 C5 118.9(2) 3
C4 C3 C2 120.4(2) .
C3 C4 C7 120.9(2) 3
N1 C5 C6 119.3(2) .
N1 C5 C2 122.11(19) 3
C6 C5 C2 118.5(2) 3
C7 C6 C5 120.8(2) .
C6 C7 C4 120.5(2) 3
loop_
_geom_bond_atom_site_label_1
_geom_bond_atom_site_label_2
_geom_bond_distance
_geom_bond_site_symmetry_2
N1 C2 1.345(3) .
N1 C5 1.345(3) .
C2 C3 1.426(3) .
C2 C5 1.430(3) 3
C3 C4 1.356(3) .
C4 C7 1.416(3) 3
C5 C6 1.425(3) .
C5 C2 1.430(3) 3
C6 C7 1.357(3) .
C7 C4 1.416(3) 3
