#------------------------------------------------------------------------------
#$Date: 2015-06-04 06:32:09 +0300 (Thu, 04 Jun 2015) $
#$Revision: 137844 $
#$URL: svn://www.crystallography.net/cod/cif/4/51/31/4513150.cif $
#------------------------------------------------------------------------------
#
# This file is available in the Crystallography Open Database (COD),
# http://www.crystallography.net/
#
# All data on this site have been placed in the public domain by the
# contributors.
#
data_4513150
loop_
_publ_author_name
'Abrahams, Brendan F.'
'Elliott, Robert W.'
'Hudson, Timothy A.'
'Robson, Richard'
'Sutton, Ashley L.'
_publ_section_title
;
 New CuI2(TCNQ--II) and CuI2(F4TCNQ--II) Coordination Polymers
;
_journal_issue                   5
_journal_name_full               'Crystal Growth &amp; Design'
_journal_page_first              2437
_journal_paper_doi               10.1021/acs.cgd.5b00220
_journal_volume                  15
_journal_year                    2015
_chemical_formula_sum            'C26 H18 Cu2 F4 N6'
_chemical_formula_weight         617.54
_chemical_name_common            '[Cu2(F4TCNQ)(2,6-lutidine)2]'
_space_group_crystal_system      triclinic
_space_group_IT_number           2
_space_group_name_Hall           '-P 1'
_space_group_name_H-M_alt        'P -1'
_symmetry_space_group_name_Hall  '-P 1'
_symmetry_space_group_name_H-M   'P -1'
_atom_sites_solution_hydrogens   geom
_audit_creation_method           SHELXL-2014/7
_cell_angle_alpha                100.363(6)
_cell_angle_beta                 101.345(6)
_cell_angle_gamma                101.104(6)
_cell_formula_units_Z            1
_cell_length_a                   7.6593(5)
_cell_length_b                   7.6693(6)
_cell_length_c                   11.3462(8)
_cell_measurement_reflns_used    2047
_cell_measurement_temperature    130(2)
_cell_measurement_theta_max      74.1690
_cell_measurement_theta_min      4.0776
_cell_volume                     624.59(8)
_computing_cell_refinement
;
CrysAlisPro, Agilent Technologies,
Version 1.171.36.20 (release 27-06-2012 CrysAlis171 .NET)
(compiled Jul 11 2012,15:38:31)
;
_computing_data_collection
;
CrysAlisPro, Agilent Technologies,
Version 1.171.36.20 (release 27-06-2012 CrysAlis171 .NET)
(compiled Jul 11 2012,15:38:31)
;
_computing_data_reduction
;
CrysAlisPro, Agilent Technologies,
Version 1.171.36.20 (release 27-06-2012 CrysAlis171 .NET)
(compiled Jul 11 2012,15:38:31)
;
_computing_structure_refinement  'SHELXL-2014/7 (Sheldrick, 2014)'
_computing_structure_solution    'SHELXS-97 (Sheldrick, 1997)'
_diffrn_ambient_temperature      130(2)
_diffrn_detector_area_resol_mean 10.2273
_diffrn_measured_fraction_theta_full 0.997
_diffrn_measured_fraction_theta_max 0.997
_diffrn_measurement_device_type  'SuperNova, Dual, Cu at zero, Atlas'
_diffrn_measurement_method       '\w scans'
_diffrn_radiation_monochromator  mirror
_diffrn_radiation_source         'SuperNova (Cu) X-ray Source'
_diffrn_radiation_type           CuK\a
_diffrn_radiation_wavelength     1.54184
_diffrn_reflns_av_R_equivalents  0.0377
_diffrn_reflns_av_unetI/netI     0.0545
_diffrn_reflns_laue_measured_fraction_full 0.997
_diffrn_reflns_laue_measured_fraction_max 0.997
_diffrn_reflns_limit_h_max       7
_diffrn_reflns_limit_h_min       -9
_diffrn_reflns_limit_k_max       9
_diffrn_reflns_limit_k_min       -9
_diffrn_reflns_limit_l_max       13
_diffrn_reflns_limit_l_min       -12
_diffrn_reflns_number            4182
_diffrn_reflns_point_group_measured_fraction_full 0.997
_diffrn_reflns_point_group_measured_fraction_max 0.997
_diffrn_reflns_theta_full        67.684
_diffrn_reflns_theta_max         68.494
_diffrn_reflns_theta_min         4.080
_exptl_absorpt_coefficient_mu    2.613
_exptl_absorpt_correction_T_max  0.984
_exptl_absorpt_correction_T_min  0.945
_exptl_absorpt_correction_type   gaussian
_exptl_absorpt_process_details
;
CrysAlisPro, Agilent Technologies,
Version 1.171.36.20 (release 27-06-2012 CrysAlis171 .NET)
(compiled Jul 11 2012,15:38:31)
Numerical absorption correction based on gaussian integration over
            a multifaceted crystal model
;
_exptl_crystal_colour            'Pale yellow'
_exptl_crystal_density_diffrn    1.642
_exptl_crystal_description       Plate
_exptl_crystal_F_000             310
_exptl_crystal_size_max          0.0777
_exptl_crystal_size_mid          0.0259
_exptl_crystal_size_min          0.0127
_refine_diff_density_max         0.444
_refine_diff_density_min         -0.376
_refine_diff_density_rms         0.077
_refine_ls_extinction_method     none
_refine_ls_goodness_of_fit_ref   0.963
_refine_ls_hydrogen_treatment    constr
_refine_ls_matrix_type           full
_refine_ls_number_parameters     174
_refine_ls_number_reflns         2294
_refine_ls_number_restraints     0
_refine_ls_restrained_S_all      0.963
_refine_ls_R_factor_all          0.0448
_refine_ls_R_factor_gt           0.0375
_refine_ls_shift/su_max          0.000
_refine_ls_shift/su_mean         0.000
_refine_ls_structure_factor_coef Fsqd
_refine_ls_weighting_details
'w=1/[\s^2^(Fo^2^)+(0.0538P)^2^+0.2093P] where P=(Fo^2^+2Fc^2^)/3'
_refine_ls_weighting_scheme      calc
_refine_ls_wR_factor_gt          0.0962
_refine_ls_wR_factor_ref         0.1008
_reflns_Friedel_coverage         0.000
_reflns_number_gt                1993
_reflns_number_total             2294
_reflns_threshold_expression     'I > 2\s(I)'
_cod_data_source_file            cg5b00220_si_002.cif
_cod_data_source_block           26-lutidine
_cod_database_code               4513150
_shelx_shelxl_version_number     2014/7
_shelx_space_group_comment
;
The symmetry employed for this shelxl refinement is uniquely defined
by the following loop, which should always be used as a source of
symmetry information in preference to the above space-group names.
They are only intended as comments.
;
_shelx_res_file
;

    shelx.res created by SHELXL-2014/7

TITL rweC130b in P-1
CELL  1.54184   7.6593   7.6693  11.3462  100.363  101.345  101.104
ZERR     1.00   0.0005   0.0006   0.0008    0.006    0.006    0.006
LATT   1
SFAC  C    H    N    CU   F
UNIT  26   18   6    2    4
MERG   2
FMAP   2
PLAN   20
ACTA
L.S.   8
TEMP  -143.00
omit 0 137
conf c2 c3 c4 c5
conf c1 c3 c4 c6_$3
EQIV $1   x, y-1, z
EQIV $2   x, y+1, z
EQIV $3   -x-1, -y-1, -z
omit    -8  -1   8
omit    -9   1   5
omit    -9   3   3
omit    -8  -1   7

list 4
WGHT    0.053800    0.209300
FVAR       6.96368
MOLE    1
CU1   4    0.167238    0.212042    0.262223    11.00000    0.02020    0.01835 =
         0.03110    0.00612    0.00038    0.00731
F1    5   -0.258501   -0.700060   -0.053085    11.00000    0.01924    0.02205 =
         0.03387    0.00251    0.00566    0.01174
F2    5   -0.602358   -0.807516   -0.181293    11.00000    0.02442    0.01916 =
         0.02738   -0.00359    0.00100    0.00755

N2    3    0.058885   -0.609059    0.204529    11.00000    0.02140    0.01798 =
         0.03930    0.00593   -0.00588    0.00364
N1    3    0.034723   -0.041600    0.216412    11.00000    0.02228    0.01893 =
         0.04352    0.00598   -0.00344    0.00641
N3    3    0.410813    0.232974    0.373462    11.00000    0.01643    0.01860 =
         0.02625    0.00711    0.00114    0.00503
C11   1    0.433872    0.259746    0.496635    11.00000    0.02183    0.02195 =
         0.02878    0.00564    0.00444    0.00591
C7    1    0.550628    0.200169    0.322106    11.00000    0.02328    0.01676 =
         0.02913    0.00591    0.00444    0.00426
C5    1   -0.375439   -0.597182   -0.024381    11.00000    0.01856    0.01996 =
         0.02243    0.00595    0.00568    0.00953
C3    1   -0.121176   -0.379616    0.142614    11.00000    0.01810    0.01915 =
         0.02719    0.00690    0.00177    0.00608
C1    1   -0.034520   -0.194437    0.183368    11.00000    0.01780    0.02152 =
         0.02906    0.00706    0.00054    0.00784
C2    1   -0.021375   -0.505166    0.175358    11.00000    0.01650    0.01785 =
         0.02902    0.00463   -0.00130    0.00182
C6    1   -0.555136   -0.654178   -0.090162    11.00000    0.01951    0.01476 =
         0.02268    0.00292    0.00399    0.00624
C4    1   -0.310309   -0.439406    0.069473    11.00000    0.01847    0.01579 =
         0.02430    0.00862    0.00396    0.00470
C8    1    0.714641    0.191009    0.393955    11.00000    0.02327    0.03028 =
         0.03630    0.00921    0.00802    0.00861
AFIX  43
H8    2    0.810778    0.166398    0.356806    11.00000   -1.20000
AFIX   0
C9    1    0.738421    0.217892    0.520582    11.00000    0.02059    0.04080 =
         0.03642    0.00920   -0.00068    0.00902
AFIX  43
H9    2    0.850533    0.211079    0.571041    11.00000   -1.20000
AFIX   0
C12   1    0.514014    0.174688    0.185263    11.00000    0.03329    0.03052 =
         0.02962    0.01029    0.00957    0.01218
AFIX 137
H12A  2    0.417321    0.063902    0.146032    11.00000   -1.50000
H12B  2    0.626111    0.163173    0.158396    11.00000   -1.50000
H12C  2    0.474559    0.280254    0.161477    11.00000   -1.50000
AFIX   0
C10   1    0.597536    0.254672    0.572645    11.00000    0.02811    0.03620 =
         0.02675    0.00799    0.00086    0.00986
AFIX  43
H10   2    0.612429    0.276276    0.659554    11.00000   -1.20000
AFIX   0
C13   1    0.273110    0.295836    0.546241    11.00000    0.03153    0.03963 =
         0.03244    0.01000    0.00866    0.01797
AFIX 137
H13A  2    0.219064    0.381099    0.504622    11.00000   -1.50000
H13B  2    0.314200    0.348944    0.635146    11.00000   -1.50000
H13C  2    0.181209    0.181004    0.531311    11.00000   -1.50000
AFIX   0
HKLF    4

REM  rweC130b in P-1
REM R1 =  0.0375 for    1993 Fo > 4sig(Fo)  and  0.0448 for all    2294 data
REM    174 parameters refined using      0 restraints

END

WGHT      0.0496      0.0000

REM Highest difference peak  0.444,  deepest hole -0.376,  1-sigma level  0.077
Q1    1   0.0787  0.1821  0.3233  11.00000  0.05    0.44
Q2    1   0.1335  0.2681  0.1759  11.00000  0.05    0.36
Q3    1   0.1866  0.1243  0.3161  11.00000  0.05    0.34
Q4    1   0.2872  0.2687  0.2168  11.00000  0.05    0.33
Q5    1   0.1227 -0.6744  0.2312  11.00000  0.05    0.31
Q6    1   0.0953  0.0419  0.2138  11.00000  0.05    0.29
Q7    1   0.1591  0.0412  0.1864  11.00000  0.05    0.28
Q8    1  -0.3879 -0.4253  0.0953  11.00000  0.05    0.28
Q9    1   0.0980  0.0605  0.2518  11.00000  0.05    0.26
Q10   1   0.5605  0.1799  0.2493  11.00000  0.05    0.26
Q11   1  -0.3520 -0.5214  0.0537  11.00000  0.05    0.24
Q12   1  -0.3117 -0.4659  0.0159  11.00000  0.05    0.24
Q13   1  -0.0294 -0.6150  0.1903  11.00000  0.05    0.24
Q14   1   0.3943  0.3025  0.5160  11.00000  0.05    0.23
Q15   1  -0.0088 -0.0221  0.2885  11.00000  0.05    0.23
Q16   1   0.4772  0.0029  0.3156  11.00000  0.05    0.23
Q17   1  -0.0817 -0.4119  0.1255  11.00000  0.05    0.23
Q18   1  -0.5438 -0.8806 -0.1249  11.00000  0.05    0.22
Q19   1  -0.2093 -0.4010  0.0871  11.00000  0.05    0.21
Q20   1   0.1656  0.2380  0.4747  11.00000  0.05    0.21
;
_shelx_res_checksum              1123
_shelx_hkl_file
;
   0   0  -1 2200.56 145.911   5
   0   0  -2 70541.2 2152.91   5
   0   0  -3 79825.2 2465.61   6
   0   0  -4 53203.3 1850.25   6
   0   0   4 50526.1 2308.61   3
   0   0  -5 11335.6 701.046   6
   0   0   5 10065.7 984.586   3
   0   0   6 2839.21 536.505   3
   0   0   7 2950.19 674.768   3
   0   0  -7 2311.18 569.180   2
   0   0   8-17.2990 341.750   3
   0   0   8 222.054 147.398   8
   0   0   9 27317.7 1715.07   8
   0   0  -9 25496.0 1653.93  20
   0   0 -10 2217.59 479.692  20
   0   0  10 2328.51 511.018   8
   0   0  11 9540.79 990.695  14
   0   0 -11 7087.65 781.332  20
   0   0  12 3960.70 575.803  14
   0   0  13 3557.50 436.696  14
   0  -1  13-250.611 184.488  14
   0  -1  12 1776.51 405.308  14
   0  -1  11 93.9040 212.617   8
   0   1 -10 2768.73 537.079  20
   0  -1  10 1938.41 447.713   8
   0  -1   9 12882.0 1116.05   8
   0   1  -9 9069.56 901.359  20
   0  -1   9 9955.28 1424.63   3
   0  -1   8 15247.3 1152.17   8
   0  -1   8 17084.6 1781.91   3
   0  -1   7 74038.7 3877.53   3
   0  -1   6 4658.40 793.052   3
   0   1  -6 3684.74 538.630   2
   0   1  -5 1528.58 317.315   2
   0  -1   5 1482.93 414.853   3
   0   1  -5 1146.04 248.082   5
   0   1  -4 47484.5 1913.70   2
   0  -1   4 48730.6 2316.67   3
   0  -1   3 277815. 8319.84   3
   0   1  -3 274410. 7812.46   2
   0  -1   2 392534. 11227.8   3
   0   1  -2 396798. 10759.2   2
   0   1  -1 278.170 63.1336   2
   0  -1   1 433.291 126.259   3
   0  -1   0 7081.93 459.850   1
   0  -1   0 6705.52 298.771   3
   0  -1  -1 249850. 7277.91   1
   0  -1  -2 7254.92 430.286   6
   0  -1  -3 228400. 6574.78   6
   0   1   4 4230.46 507.030   3
   0  -1  -4 4513.63 440.760   6
   0  -1  -5 916.857 226.363   6
   0   1   5 671.235 259.844   3
   0  -1  -6 959.786 248.393   6
   0   1   6 978.151 331.102   3
   0  -1  -7 85209.6 3325.90   6
   0  -1  -8 251.209 237.493  20
   0  -1  -8 908.575 522.764   2
   0   1   8 337.549 155.237   8
   0  -1  -9 9581.07 1006.35  20
   0   1  10 2809.87 540.407  14
   0  -1 -10 2451.97 490.907  20
   0   1  11 1268.07 394.158  14
   0   1  12 795.080 260.837  14
   0   1  13 1573.58 251.464  14
   0  -2  13 6213.94 620.155  14
   0  -2  12 2229.09 454.734   8
   0  -2  11 17164.6 1350.93   8
   0  -2  10 1111.07 369.848   8
   0  -2   9 52017.3 2522.76   8
   0  -2   9 47927.9 3491.98   3
   0  -2   8 387.764 329.060   3
   0  -2   8-172.244 182.413   8
   0  -2   7 20962.6 1962.75   3
   0   2  -6 637.672 243.394   5
   0  -2   6 815.803 346.439   3
   0  -2   5 50178.4 2692.77   3
   0  -2   4 13715.9 1167.49   3
   0  -2   3 33091.7 1739.45   3
   0  -2   2 2624.63 373.958   3
   0  -2   1 275808. 8141.81   1
   0  -2   1 266267. 7769.39   3
   0  -2   0 561380. 15195.1   3
   0  -2   0 552099. 15202.7   6
   0  -2   0 579320. 15895.0   1
   0  -2  -1 10390.5 565.798   6
   0  -2  -1 11529.9 924.390   1
   0  -2  -2 12096.6 1056.95   1
   0  -2  -2 11294.2 656.561   6
   0   2   3 20687.6 915.004   3
   0  -2  -3 28647.5 1207.46   6
   0  -2  -4 167582. 5277.19   6
   0  -2  -5 3706.76 496.390   6
   0  -2  -6 21368.0 1352.07   6
   0  -2  -7 1185.90 316.410  20
   0   2   7 1932.27 427.425  14
   0  -2  -7 1391.18 348.535   6
   0   2   8 18516.9 1444.38  14
   0  -2  -8 16286.1 1370.65  20
   0  -2  -9 1753.48 484.102  20
   0   2   9 1339.26 445.499  14
   0   2  10 4790.91 709.123  14
   0   2  11 364.704 211.486  14
   0   2  12 1679.59 306.546  14
   0  -3  13 441.339 166.897   8
   0  -3  13 161.410 127.181  14
   0  -3  12 7881.98 817.519   8
   0  -3  11 4858.54 704.339   8
   0  -3  10 2776.69 496.422   8
   0  -3   9 2.76071 175.847   8
   0  -3   9-327.079 539.006   3
   0  -3   8 10643.8 1498.40   3
   0  -3   8 11809.2 1017.53   8
   0  -3   7 16745.3 1784.18   3
   0  -3   6 178.958 222.978   3
   0  -3   5 20393.4 1685.77   3
   0  -3   4 83187.8 3651.83   3
   0  -3   3 41561.7 2129.73   3
   0  -3   3 41821.0 2302.80   1
   0  -3   2 160130. 5640.36   1
   0  -3   2 156172. 5176.55   3
   0  -3   1 14160.3 1173.08   1
   0  -3   1 12718.7 791.000   3
   0  -3   1 12640.1 631.377   6
   0  -3   0 69339.2 2955.86   1
   0  -3   0 67922.5 2086.90   6
   0  -3  -1 107203. 3443.79   6
   0  -3  -1 110448. 4415.85   1
   0  -3  -2 63533.4 3279.97   1
   0  -3  -2 67501.5 2432.19   6
   0  -3  -3 9975.20 775.174   6
   0  -3  -4 13930.6 1009.78   6
   0  -3  -5 187.870 208.638   6
   0  -3  -6 2403.25 466.184   6
   0   3   6 2895.09 518.361  14
   0  -3  -7 42897.2 2294.93   6
   0   3   7 44301.2 2381.83  14
   0   3   8 1252.83 369.555  14
   0   3   9 40002.0 2248.78  14
   0   3  10 696.183 262.958  14
   0  -3 -11 7548.20 614.294   7
   0   3  11 4508.77 420.989  15
   0  -4  13 2163.14 332.392   8
   0  -4  12 362.468 244.031   8
   0  -4  11 6496.42 781.080   8
   0  -4  10 441.535 294.518   8
   0  -4   9 26295.8 1727.34   8
   0  -4   8 508.081 317.813   3
   0  -4   8 553.111 280.551   8
   0  -4   8 46.6874 161.453   1
   0  -4   7 23128.6 2200.57   3
   0  -4   7 24129.1 1486.48   8
   0  -4   7 21587.2 2071.15   1
   0  -4   6 2260.02 631.092   1
   0  -4   6 2684.23 709.683   3
   0  -4   5 47834.8 3018.45   1
   0  -4   5 50217.8 2956.81   3
   0  -4   4 499.810 203.741   1
   0  -4   4 635.980 290.481   3
   0  -4   3 19554.2 1707.53   1
   0  -4   3 18824.3 1376.06   3
   0  -4   2 2791.94 652.655   1
   0  -4   2 2275.56 384.295   3
   0  -4   1 208291. 7415.98   1
   0  -4   1 199377. 5899.99   6
   0  -4   0 58606.5 3284.56   1
   0  -4   0 61787.2 2240.09   6
   0  -4  -1 7063.92 610.169   6
   0  -4  -1 6939.31 1056.67   1
   0  -4  -2 37859.2 1762.30   6
   0  -4  -2 34933.5 2603.23   1
   0  -4  -3 11244.4 910.713   6
   0  -4  -4 46369.3 2261.27   6
   0  -4  -5 17584.5 1313.06   6
   0   4   5 15040.0 1231.09  14
   0   4   6 4839.07 703.916  14
   0   4   7 10773.4 1085.99  14
   0  -4  -8 2526.12 455.998   7
   0   4   8 3483.37 615.212  14
   0  -4  -9-178.526 211.746   7
   0   4  10 1570.96 288.923  20
   0  -4 -10 1008.40 187.765   7
   0  -5  13 585.306 167.317   8
   0  -5  12 4986.03 566.022   8
   0  -5  11 3034.24 523.738   8
   0  -5  10 3590.07 621.754   8
   0  -5   9 396.099 295.059   8
   0  -5   8 18127.8 1390.32   8
   0  -5   7 809.148 260.055  10
   0  -5   7 979.082 334.227   8
   0  -5   7 288.051 213.258   1
   0  -5   7-70.4738 421.094   3
   0  -5   6 7714.28 1277.83   1
   0  -5   6 6415.05 691.315  10
   0  -5   6 6845.62 1097.50   3
   0  -5   6 7641.48 818.708  17
   0  -5   5 253.167 278.068   1
   0  -5   5 685.390 307.968   3
   0  -5   5 172.179 127.722  17
   0  -5   4 36644.6 2749.95   1
   0  -5   3 2784.39 739.342   1
   0  -5   2 85806.0 4497.56   1
   0  -5   1 1224.40 475.983   1
   0  -5   0 122544. 5894.69   1
   0  -5   0 125489. 4177.30   6
   0  -5  -1 4353.50 527.362   6
   0  -5  -1 4638.06 985.743   1
   0  -5  -2 68328.0 2844.81   6
   0   5   2 65384.6 2904.38  20
   0  -5  -3 256.218 203.508   6
   0  -5  -4 2562.44 495.332   6
   0  -5  -5 1739.46 374.513   7
   0  -5  -5 2596.01 524.956   6
   0  -5  -6 75.4874 169.219   7
   0  -5  -6 164.466 192.856   6
   0  -5  -7 5735.17 635.718   7
   0   5   8 741.560 237.356  20
   0  -5  -8 690.038 211.978   7
   0   5   9 6318.65 565.230  20
   0  -6  12 1498.25 264.935   8
   0  -6  11 776.579 232.020   8
   0  -6  10 1304.99 363.715   8
   0  -6   9 2870.16 537.794   8
   0  -6   8 570.936 275.064   8
   0  -6   7 13733.7 1088.73  10
   0  -6   6 520.196 326.418  10
   0  -6   5 38732.7 3176.45   1
   0   6  -5 37810.8 1999.61  20
   0  -6   5 43884.0 2249.63  17
   0   6  -4 5670.48 689.287  20
   0  -6   4 5572.65 1150.76   1
   0  -6   4 6320.75 756.708  17
   0  -6   3 18315.5 1305.70  17
   0   6  -3 17337.7 1259.43  20
   0  -6   3 18624.1 2097.88   1
   0  -6   2 26902.4 2583.10   1
   0   6  -2 26660.8 1604.06  20
   0  -6   2 25845.4 1587.83  17
   0  -6   1 43422.1 3400.41   1
   0  -6   1 35989.1 1930.30  17
   0   6  -1 43632.7 2166.62  20
   0  -6   0 667.045 222.251  17
   0   6   0-92.1198 221.427  20
   0  -6   0 433.014 448.102   1
   0  -6  -1 5097.95 1148.59   1
   0   6   1 6547.52 780.113  20
   0   6   2 2309.99 450.135  20
   0  -6  -2 1600.41 349.113   6
   0  -6  -3 920.411 304.358   6
   0   6   3 711.789 306.635  20
   0  -6  -4 20997.8 1458.23   6
   0   6   4 27671.7 1723.11  20
   0   6   5 12714.9 1122.23  20
   0   6   6 2042.97 430.396  20
   0   6   7 5456.90 598.520  20
   0   6   8 6501.95 528.026  20
   0  -7  11 6928.10 542.747   8
   0  -7  10 4407.61 528.512   8
   0  -7   9 8465.24 809.024   8
   0  -7   8 409.785 207.399   8
   0  -7   7 4819.80 682.993   8
   0  -7   7 4773.95 613.972  10
   0  -7   6 365.102 167.020  10
   0  -7   5-127.292 286.052  10
   0  -7   5-111.456 243.625  17
   0  -7   4 1520.47 404.747  17
   0   7  -4 1550.17 389.897  20
   0  -7   3 682.750 311.820  17
   0   7  -3 1140.11 353.465  20
   0  -7   2 21270.4 1472.36  17
   0   7  -2 25441.0 1606.33  20
   0  -7   1 150.761 146.952  17
   0   7  -1-114.484 215.892  20
   0   7   0 33708.8 1960.74  20
   0   7   1 3210.57 544.817  20
   0   7   2 54897.2 2636.71  20
   0   7   3 218.086 286.078  20
   0   7   4 4508.07 604.955  20
   0   7   5 292.106 168.432  20
   0   7   6 4936.87 482.462  20
   0  -8   9 4755.37 475.803   8
   0  -8   8 536.549 205.943   8
   0  -8   7 6834.28 696.680   8
   0  -8   6 2983.80 451.901  10
   0  -8   5 9358.38 849.863  10
   0  -8   4 9035.89 856.646  10
   0   8  -3 3257.36 473.210  20
   0   8  -2 8775.02 808.140  20
   0   8  -1 19924.0 1298.40  20
   0   8   0 4907.50 601.209  20
   0   8   1 4864.89 587.623  20
   0   8   2 189.556 187.323  20
   0   8   3 5642.93 544.732  20
   0   8   4 162.889 92.3804  20
   0  -9   6 2487.36 309.233   8
   0  -9   5 11879.0 761.068   8
   0  -9   5 9341.63 642.141  10
   0  -9   4 247.607 133.802  10
   0  -9   3 16931.2 979.242  10
   0  -9   2-62.7466 122.386  10
   0  -9   1 4480.65 446.966  10
   0  -9   0 967.468 204.985  10
  -1   9   1 4446.09 415.457  20
  -1   9   0 921.026 210.395  20
  -1   9  -1 7960.52 639.536  20
  -1   9  -2 7126.95 615.464  20
   1  -9   2 7383.93 631.844  10
   1  -9   3 21859.1 1123.64  10
  -1   9  -3 18595.0 1047.06  20
   1  -9   4 961.862 204.471  10
  -1   9  -4 947.567 224.392  20
   1  -9   5 5017.16 498.178   8
   1  -9   6 2878.09 350.393   8
   1  -9   7 6501.55 478.814   8
  -1   8   5 1144.17 207.407  20
  -1   8   4 12305.1 820.125  20
  -1   8   3 6187.08 627.280  20
  -1   8   2 3424.68 510.735  20
  -1   8   1 3848.17 577.523  20
  -1   8   0 8045.78 815.376  20
  -1   8  -1 2618.66 521.653  20
  -1   8  -2 1634.11 416.437  20
  -1   8  -3 6074.57 735.106  20
  -1   8  -4 6088.14 711.376  20
   1  -8   4 6093.04 682.293  10
   1  -8   5-31.2043 180.604  10
  -1   8  -5-150.731 180.300  20
  -1   8  -6 17806.4 1127.47  20
   1  -8   7 443.922 275.312   8
   1  -8   8 7174.63 652.160   8
   1  -8   9 7873.13 604.361   8
  -1   7   7 4584.64 407.295  20
  -1   7   6 8303.17 696.767  20
  -1   7   5 3624.52 510.590  20
  -1   7   4 7561.85 809.090  20
  -1   7   3 7595.51 832.477  20
  -1   7   2 9106.27 963.738  20
  -1   7   1 4615.21 665.278  20
  -1   7   0 6920.45 854.124  20
  -1   7  -1 4128.43 624.114  20
  -1   7  -2 468.707 279.595  20
   1  -7   2 244.222 193.037  17
  -1   7  -3 1912.37 439.615  20
  -1   7  -4-97.2388 218.473  20
   1  -7   5 6468.63 715.317  10
  -1   7  -5 6009.75 772.821  20
  -1   7  -6 9622.67 943.906  20
  -1   7  -7 20717.6 1380.18  20
   1  -7   7 22456.2 1511.21   8
   1  -7   8 526.722 267.828   8
   1  -7   9 33870.3 1755.11   8
   1  -7  10 6997.93 638.930   8
   1  -7  11 1585.80 240.270   8
  -1   6   8 810.813 213.947  20
  -1   6   7 5701.20 628.490  20
  -1   6   6 1233.12 346.292  20
  -1   6   5 4704.71 685.190  20
   1  -6  -5 3308.97 523.506   6
   1  -6  -4 10078.4 1002.82   6
  -1   6   4 10814.0 1061.98  20
  -1   6   3 10891.8 1045.81  20
   1  -6  -3 9810.71 974.047   6
   1  -6  -2 8014.06 825.707   6
  -1   6   2 6831.54 842.271  20
  -1   6   1 4808.41 690.646  20
   1  -6  -1 5126.13 616.972   6
   1  -6  -1 3869.84 914.498   1
   1  -6   0 24540.5 2452.13   1
   1  -6   0 25900.9 1467.42   6
  -1   6   0 29782.8 1749.15  20
  -1   6  -1 15152.0 1168.31  20
   1  -6   1 14231.1 1816.35   1
   1  -6   1 10615.2 908.062  17
   1  -6   2 14050.7 1094.21  17
  -1   6  -2 18081.4 1295.85  20
   1  -6   2 14968.2 1848.69   1
   1  -6   3 2041.91 421.168  17
   1  -6   3 2365.09 775.632   1
  -1   6  -3 2216.95 457.249  20
  -1   6  -4 5907.88 731.033  20
   1  -6   4 5567.25 1151.03   1
   1  -6   4 4457.82 639.891  17
   1  -6   5 6413.82 1262.31   1
   1  -6   5 5395.15 624.097  10
  -1   6  -5 7293.67 848.772  20
  -1   6  -6 8680.42 904.715  20
   1  -6   7 463.126 231.170   8
  -1   6  -7-422.385 289.311  20
  -1   6  -8 18194.7 1336.80  20
   1  -6   8 21053.3 1489.51   8
   1  -6   9 4082.86 630.080   8
   1  -6  10 17564.8 1232.99   8
   1  -6  11 1513.73 318.493   8
   1  -6  12 9125.07 589.325   8
  -1   5  10 2299.67 293.285  15
  -1   5   9 878.539 253.073  20
  -1   5   8 2255.02 449.918  20
  -1   5   7 5859.32 731.417  20
   1  -5  -7 4656.72 659.813   6
   1  -5  -6 31078.5 1903.62   6
   1  -5  -5 905.448 341.093   6
   1  -5  -4 19863.3 1418.82   6
   1  -5  -3 13926.9 1110.45   6
  -1   5   3 13606.1 1114.64  20
  -1   5   2 30727.4 1755.01  20
   1  -5  -2 34889.1 1787.61   6
   1  -5  -2 33526.0 2648.46   1
   1  -5  -1 5257.75 586.228   6
   1  -5  -1 4528.34 898.404   1
   1  -5   0 10288.0 784.523   6
   1  -5   0 9688.83 1334.19   1
   1  -5   1 16927.1 990.427   6
   1  -5   1 14590.8 1627.43   1
   1  -5   2 2029.54 595.265   1
   1  -5   3 38156.6 2781.70   1
   1  -5   4 17838.2 1901.63   1
   1  -5   5 43014.3 3117.71   1
  -1   5  -5 39349.1 2003.07  20
   1  -5   5 38603.2 2642.39   3
   1  -5   6 11621.3 1487.92   3
   1  -5   6 13416.3 1746.86   1
  -1   5  -6 12454.5 1061.95  20
  -1   5  -7 15111.9 1199.70  20
   1  -5   7 15384.3 1228.95   8
   1  -5   7 12236.3 1612.53   3
   1  -5   7 12835.9 1742.43   1
   1  -5   8 29713.9 1824.59   8
  -1   5  -8 28228.7 1764.98  20
   1  -5   9 27203.2 1721.48   8
  -1   5  -9 23251.6 1554.41  20
   1  -5  10 114.258 244.148   8
   1  -5  11 330.350 216.052   8
   1  -5  12 1675.81 299.568   8
  -1   4  10 98.7631 131.237  20
   1  -4  -9 17946.3 1161.23   7
   1  -4  -8 2585.65 496.842   6
  -1   4   8 2769.53 552.033  14
   1  -4  -7 5273.79 729.451   6
  -1   4   7 5823.34 825.426  14
  -1   4   6 203.384 182.934  14
   1  -4  -5 33039.0 1858.93   6
  -1   4   5 30477.2 1853.59  14
   1  -4  -4 1560.68 365.012   6
   1  -4  -3 32884.5 1687.16   6
   1  -4  -2 16615.5 1582.51   1
   1  -4  -2 17619.4 1077.86   6
   1  -4  -1 41838.7 2587.81   1
   1  -4  -1 44167.4 1852.43   6
   1  -4   0 49053.2 1912.54   6
   1  -4   0 46442.8 2665.62   1
   1  -4   1 83012.9 2806.94   6
   1  -4   1 82497.3 3847.54   1
   1  -4   2 6392.13 930.402   1
   1  -4   2 6927.37 707.250   3
   1  -4   2 7389.93 531.200   6
   1  -4   3 31092.9 1903.64   3
   1  -4   3 28843.7 2139.74   1
   1  -4   4 5268.49 820.756   3
   1  -4   5 31558.0 2328.50   3
   1  -4   6 14854.8 1666.30   3
  -1   4  -7 25839.8 1620.95  20
   1  -4   7 29292.3 2557.39   3
   1  -4   7 32018.2 1742.40   8
   1  -4   8 8363.75 895.999   8
  -1   4  -8 7568.56 861.705  20
   1  -4   8 7564.71 1343.75   3
   1  -4   9 2108.80 490.727   8
  -1   4  -9 1451.81 390.263  20
   1  -4  10 17102.3 1320.41   8
  -1   4 -10 15011.1 1201.44  20
   1  -4  11 5335.73 696.367   8
   1  -4  12 1444.62 333.750   8
   1  -4  13 664.482 164.071   8
  -1   3  11 11915.0 812.303  15
  -1   3  11 14913.9 1058.37  14
  -1   3  10 4906.14 697.580  14
  -1   3   9 167.488 280.322  14
  -1   3   8 10785.3 1093.14  14
   1  -3  -8 9318.19 961.603   6
   1  -3  -7 2473.20 496.859   6
  -1   3   7 3486.15 608.731  14
   1  -3  -6 39435.2 2063.49   6
  -1   3   6 38267.8 2069.23  14
   1  -3  -5 6882.75 716.169   6
   1  -3  -4 79912.2 3008.43   6
   1  -3  -3 1270.65 238.489   6
   1  -3  -2 78925.7 2738.28   6
   1  -3  -2 75775.3 3359.27   1
   1  -3  -1 3442.14 529.397   1
   1  -3  -1 3643.99 380.554   6
   1  -3   0 3900.57 305.350   3
   1  -3   0 5655.01 429.409   6
   1  -3   0 5332.47 675.179   1
   1  -3   1 1599.87 416.154   1
   1  -3   1 1638.05 294.138   3
   1  -3   2 5465.75 621.281   3
  -1   3  -3 17362.7 1033.92   2
   1  -3   3 18253.4 1349.36   3
   1  -3   4 40466.8 2350.96   3
   1  -3   5 11906.3 1302.77   3
   1  -3   6 6227.17 995.716   3
   1  -3   7 32785.9 2632.63   3
  -1   3  -8 43721.3 2283.92  20
   1  -3   8 49089.4 3513.25   3
   1  -3   8 50502.5 2382.51   8
   1  -3   9 18386.2 1385.93   8
  -1   3  -9 16660.2 1326.58  20
  -1   3 -10 1143.31 353.979  20
   1  -3  10 1090.92 390.667   8
   1  -3  11 10338.1 962.270   8
  -1   3 -11 8107.15 820.712  20
   1  -3  12 703.397 243.085   8
   1  -3  13 3046.78 393.116  14
  -1   2  12 60.2896 176.680  14
  -1   2  11 11483.2 1043.45  14
  -1   2  10 12399.1 1175.27  14
  -1   2   9 34847.9 2125.95  14
  -1   2   8 31680.6 1942.53  14
   1  -2  -8 29609.6 1771.27   6
   1  -2  -7 11891.8 1009.12   6
  -1   2   7 11636.4 1030.59  14
   1  -2  -6 62512.6 2610.55   6
   1  -2  -5 11678.7 845.813   6
   1  -2  -4 28990.8 1361.20   6
   1  -2  -3 11498.3 687.741   6
  -1   2   3 8937.79 474.476   3
   1  -2  -2 137.970 105.557   6
   1  -2  -2 119.630 157.312   1
   1  -2  -1 5201.02 525.493   1
   1  -2  -1 6087.58 425.268   6
  -1   2   0 91415.4 3242.10   2
   1  -2   0 91511.1 3225.09   1
  -1   2  -1 8539.63 667.077   2
  -1   2  -2 25320.2 1240.15   2
  -1   2  -3 44988.4 1878.73   2
  -1   2  -4 54874.3 2278.70   2
  -1   2  -5 148684. 5323.76   5
  -1   2  -5 143826. 4981.43   2
  -1   2  -6 2692.03 514.707   5
   1  -2   6 2461.26 659.073   3
   1  -2   7 56152.0 3475.07   3
  -1   2  -8 6500.12 763.673  20
   1  -2   8 6884.17 1232.18   3
   1  -2   8 5893.16 700.541   8
   1  -2   9 17958.1 2079.41   3
  -1   2  -9 18912.9 1428.60  20
   1  -2   9 20149.9 1416.92   8
   1  -2  10 5628.19 740.700   8
  -1   2 -10 5609.65 754.527  20
   1  -2  11 10670.3 999.254   8
  -1   2 -11 11214.6 1008.70  20
  -1   2 -12 31.0941 138.602  20
   1  -2  12-189.685 195.635   8
   1  -2  13 1354.22 278.276  14
  -1   1  13 2169.63 326.427  14
  -1   1  12 563.608 253.266  14
  -1   1  11 12502.7 1151.11  14
  -1   1  10 4242.60 694.696  14
  -1   1   9 755.439 305.239   8
  -1   1   9 416.651 205.761  14
   1  -1  -8 10763.1 919.064   6
  -1   1   8 10493.4 961.597   8
   1  -1  -7 3908.39 514.991   6
   1  -1  -6 58435.6 2291.69   6
  -1   1   6 52462.7 2626.07   3
  -1   1   5 101522. 3878.07   3
   1  -1  -5 107919. 3507.80   6
  -1   1   4 65696.9 2623.40   3
   1  -1  -4 71531.2 2375.72   6
  -1   1   3 5584.31 482.427   3
   1  -1  -3 6046.26 420.057   6
  -1   1   2 112035. 3440.32   3
   1  -1  -2 114087. 3342.54   6
   1  -1  -1 10.3574 73.9167   1
  -1   1   1-44.0204 171.333   2
  -1   1   1 135.421 117.804   3
  -1   1   0 66937.2 2323.06   2
  -1   1  -1 166.011 134.237   2
  -1   1  -2 90518.1 3082.79   2
  -1   1  -3 3495.50 446.220   2
  -1   1  -3 3181.55 463.491   5
  -1   1  -4 92067.0 3493.80   2
  -1   1  -4 91408.1 3466.13   5
  -1   1  -5 3392.61 520.182   5
  -1   1  -5 3449.24 561.425   2
  -1   1  -6 38972.4 2266.38   2
   1  -1   6 39910.4 2571.10   3
   1  -1   7 1261.07 454.996   3
  -1   1  -7 1063.88 411.549   2
  -1   1  -8 37956.6 2076.41  20
   1  -1   8 40223.5 2043.59   8
   1  -1   8 40138.9 2979.71   3
  -1   1  -9 956.485 363.129  20
   1  -1   9 330.110 328.696   3
   1  -1   9 1229.13 326.729   8
   1  -1  10 2743.97 565.914   8
  -1   1 -10 2565.11 508.721  20
   1  -1  11 10027.3 968.433   8
  -1   1 -11 10794.4 1005.80  20
   1  -1  12 10735.3 930.385  14
  -1   1 -12 8010.90 722.357  20
   1  -1  13-201.131 143.714  14
  -1   0  13-125.443 132.298  14
  -1   0  12 1750.00 387.433  14
  -1   0  11 465.431 296.534  14
  -1   0  10 7321.89 853.714   8
  -1   0   9 17737.1 1327.99   8
  -1   0   8 23214.0 1432.85   8
  -1   0   8 21784.5 1919.81   3
   1   0  -7 2196.15 336.133   6
  -1   0   7 1948.23 516.417   3
  -1   0   6 15658.3 1369.82   3
   1   0  -6 16719.7 902.976   6
   1   0  -5 141214. 4308.60   6
  -1   0   5 145800. 5166.90   3
   1   0  -4 148173. 4389.69   6
  -1   0   4 158909. 5146.86   3
  -1   0   3 165168. 5226.44   3
  -1   0   2 271222. 7833.95   3
  -1   0   1 98514.9 3134.35   3
  -1   0   1 102843. 3082.73   2
  -1   0   0 13809.8 694.521   2
  -1   0   0 14257.0 739.647   3
  -1   0  -1 5047.81 455.432   2
  -1   0  -2 119797. 4002.67   2
  -1   0  -3 17275.5 1162.36   2
  -1   0  -4 1478.24 418.748   2
  -1   0  -5 78459.6 3555.11   2
   1   0   6 8229.23 1051.80   3
  -1   0  -6 7839.51 1078.37   2
  -1   0  -7 28237.8 2230.77   2
   1   0   7 27173.3 2147.45   3
   1   0   8 413.842 278.372   3
   1   0   8-104.622 162.266   8
  -1   0  -8 363.433 328.246   2
  -1   0  -8 133.778 200.849  20
   1   0   9 18497.3 1399.69   8
  -1   0  -9 21275.9 1560.97  20
  -1   0 -10 932.335 346.610  20
  -1   0 -11 1570.89 424.095  20
   1   0  11 1461.77 411.789  14
   1   0  12 4082.86 540.517  14
   1   0  13 369.494 136.402  14
  -1  -1  13 2227.30 372.334  14
  -1  -1  12 61.8329 240.123   8
  -1  -1  12-152.081 220.297  14
  -1  -1  11 40606.3 2228.60   8
  -1  -1  10 135.193 197.187   8
  -1  -1   9 11294.7 1529.36   3
  -1  -1   9 13713.4 1130.78   8
  -1  -1   8 3155.29 766.578   3
  -1  -1   7 62024.2 3428.79   3
  -1  -1   6 26912.5 1923.02   3
  -1  -1   5 108604. 4330.67   3
  -1  -1   4 158.908 188.003   3
  -1  -1   3 28759.9 1520.08   3
  -1  -1   2 347360. 9776.09   1
  -1  -1   2 343563. 9402.21   2
  -1  -1   2 346365. 9979.58   3
  -1  -1   1 35024.4 1470.10   1
  -1  -1   1 37703.4 1310.98   2
  -1  -1   1 34134.6 1457.82   3
  -1  -1   0 79392.5 2847.36   1
  -1  -1   0 78150.2 2677.63   3
  -1  -1  -1 10465.1 543.083   6
  -1  -1  -1 11316.9 791.043   4
  -1  -1  -2 155841. 5107.17   4
  -1  -1  -2 157296. 4650.43   6
  -1  -1  -3 114532. 3600.58   6
  -1  -1  -3 109438. 4007.63   4
  -1  -1  -4 12424.3 816.676   6
  -1  -1  -4 11795.9 966.943   4
  -1  -1  -5 51104.1 2420.30   4
   1   1   6 8786.41 1005.83   3
  -1  -1  -6 9518.66 1259.79   2
  -1  -1  -7 336.060 249.845   2
  -1  -1  -7 829.138 305.156  20
   1   1   7 584.152 232.014   8
  -1  -1  -8 6136.85 810.853  20
  -1  -1  -8 5465.90 1095.80   2
  -1  -1  -9 1935.75 518.559  20
  -1  -1 -10 7978.59 914.686  20
   1   1  10 9359.43 1000.98  14
   1   1  11 982.184 331.039  14
   1   1  12 5099.36 541.399  14
  -1  -2  13 1349.00 283.450  14
  -1  -2  13 2259.16 388.030   8
  -1  -2  12 2673.35 513.630   8
  -1  -2  11 541.848 335.744   8
  -1  -2  10 30815.5 1882.31   8
  -1  -2   9 1809.51 582.402   3
  -1  -2   9 2349.43 482.362   8
  -1  -2   8 11978.2 993.726   8
  -1  -2   8 11161.1 1488.50   3
  -1  -2   7 9505.75 1265.76   3
  -1  -2   6 16539.2 1554.23   3
  -1  -2   5 23333.3 1711.74   3
  -1  -2   4 226773. 7438.46   3
  -1  -2   4 219433. 7118.18   1
  -1  -2   3 53807.4 2373.00   1
  -1  -2   3 57173.4 2494.23   3
  -1  -2   2 9304.62 801.038   1
  -1  -2   2 9394.25 775.126   3
  -1  -2   2 9299.38 459.249   2
  -1  -2   1 272782. 8142.90   3
  -1  -2   1 277725. 8476.33   1
  -1  -2   0 61549.4 2219.65   3
  -1  -2   0 60175.9 2621.90   1
  -1  -2  -1 13567.9 716.958   6
  -1  -2  -1 13991.1 1216.80   1
  -1  -2  -2 30788.5 1341.46   6
  -1  -2  -3 63254.3 2392.03   6
  -1  -2  -4 10418.5 826.236   6
  -1  -2  -5 93318.5 3521.34   6
  -1  -2  -6 39119.3 2095.90  20
   1   2   7 25373.1 1651.89  14
  -1  -2  -7 23673.7 1665.52  20
  -1  -2  -7 23210.1 2263.70   2
  -1  -2  -8 8259.79 988.979  20
   1   2   8 9133.90 981.153  14
  -1  -2  -9 5950.49 818.598  20
   1   2   9 6316.62 837.944  14
   1   2  10 2159.05 459.660  14
   1   2  11 3596.84 485.518  14
  -1  -2 -12 36.6272 65.6630   7
  -1  -3  13 931.234 277.638   8
  -1  -3  12 4821.19 639.522   8
  -1  -3  11 14452.2 1214.05   8
  -1  -3  10 366.859 240.101   8
  -1  -3   9 17320.5 1999.76   3
  -1  -3   9 17835.3 1346.70   8
  -1  -3   9 13136.0 1051.92   9
  -1  -3   8 360.087 125.780   9
  -1  -3   8 165.454 162.715   8
  -1  -3   7 49468.3 3204.24   3
  -1  -3   7 44401.8 2717.22   1
  -1  -3   6 107401. 4638.76   1
  -1  -3   6 112376. 5012.80   3
  -1  -3   5 9202.69 1051.33   1
  -1  -3   5 9669.06 1129.57   3
  -1  -3   4 20470.6 1548.96   3
  -1  -3   4 20364.5 1556.14   1
  -1  -3   3 68918.4 3015.97   3
  -1  -3   3 67625.6 3153.01   1
  -1  -3   2 35853.4 1807.42   3
  -1  -3   2 34943.9 2060.79   1
  -1  -3   2 32436.1 1361.96   2
  -1  -3   1 30622.5 1503.92   3
  -1  -3   1 29609.8 1903.41   1
  -1  -3   1 24770.7 1030.95   6
  -1  -3   0 8537.33 1036.99   1
  -1  -3   0 7793.90 536.332   6
  -1  -3  -1 1527.12 518.452   1
  -1  -3  -1 1455.55 267.996   6
  -1  -3  -2 92219.4 3242.02   6
  -1  -3  -3 56602.8 2357.42   6
  -1  -3  -4 3523.33 523.647   6
  -1  -3  -5 52618.9 2426.61   6
  -1  -3  -5 44928.3 2397.13  20
   1   3   6 25628.5 1639.68  14
  -1  -3  -6 27189.1 2529.23   2
  -1  -3  -6 26213.9 1773.29  20
   1   3   7 16072.8 1299.51  14
   1   3   8 7262.44 867.707  14
   1   3   9 9994.06 948.279  14
  -1  -3 -10 596.792 198.159   7
   1   3  10 733.800 240.045  14
  -1  -3 -11 1006.87 213.681   7
  -1  -4  13 2147.81 356.378   8
  -1  -4  12 3205.90 523.667   8
  -1  -4  11 6009.98 760.480   8
  -1  -4  10 18576.7 1423.78   8
  -1  -4   9 11487.6 1007.81   9
  -1  -4   9 13098.4 1154.71   8
  -1  -4   8 383.343 227.734   8
  -1  -4   8-471.940 539.949   3
  -1  -4   7-156.160 193.151  10
  -1  -4   7 193.254 289.177   8
  -1  -4   7-157.573 283.207   3
  -1  -4   7 401.936 344.831   1
  -1  -4   7 461.137 211.573  17
  -1  -4   6 58270.9 3476.92   3
  -1  -4   6 61257.2 3491.39   1
  -1  -4   5 6154.02 940.863   3
  -1  -4   5 6252.79 977.555   1
  -1  -4   4 65850.3 3270.33   3
  -1  -4   4 64091.0 3474.83   1
  -1  -4   3 22411.4 1600.07   3
  -1  -4   3 23585.5 1915.97   1
  -1  -4   2 112218. 4278.30   3
  -1  -4   2 120820. 5166.85   1
  -1  -4   1 103608. 4849.61   1
  -1  -4   0 41654.5 2853.81   1
  -1  -4   0 41622.6 1711.43   6
  -1  -4  -1 31305.2 2532.45   1
  -1  -4  -1 32489.7 1547.33   6
  -1  -4  -2 28873.2 1531.62   6
  -1  -4  -3 911.501 312.204   6
  -1  -4  -4 11322.3 998.879   7
  -1  -4  -4 12139.6 1057.55   6
   1   4   5 47.2764 135.825  14
  -1  -4  -5 289.903 153.734   7
   1   4   6 6564.23 778.199  14
  -1  -4  -6 6783.43 818.131   7
  -1  -4  -7 2086.03 460.199   7
   1   4   7 2671.57 494.273  14
  -1  -4  -8-326.120 242.831   7
  -1  -4  -9 5840.01 602.972   7
   1   4  10 1238.23 232.554  20
  -1  -4 -10 890.243 181.251   7
  -1  -5  13 439.187 147.650   8
  -1  -5  12 5929.32 615.791   8
  -1  -5  11 5542.68 690.873   8
  -1  -5  10 2969.89 568.868   8
  -1  -5   9 22777.9 1476.54   9
  -1  -5   9 27368.6 1730.33   8
  -1  -5   8 12485.4 1131.48   8
  -1  -5   7 836.393 402.983   1
  -1  -5   7 2159.60 465.541  10
  -1  -5   7 2303.91 479.491  17
  -1  -5   7 1179.18 416.673   3
  -1  -5   6 43338.0 2178.87  17
  -1  -5   6 38965.9 2974.96   1
  -1  -5   6 44650.1 2163.15  10
  -1  -5   5 21149.0 1372.38  10
  -1  -5   5 18846.9 1291.52  19
  -1  -5   5 20131.3 2063.24   1
  -1  -5   5 22433.8 1425.43  17
  -1  -5   4 3517.45 762.716   1
  -1  -5   4 3510.54 522.973  17
  -1  -5   3 78254.2 4426.70   1
  -1  -5   2 13280.1 1672.05   1
  -1  -5   1 7268.70 1254.93   1
  -1  -5   0 522.124 400.492   1
  -1  -5  -1 7172.86 733.028   7
  -1  -5  -1 9199.14 778.731   6
   1   5   1 8866.04 849.402  20
  -1  -5  -2 2644.01 445.351   6
  -1  -5  -2 1881.22 381.181   7
  -1  -5  -3 9468.25 905.098   6
  -1  -5  -3 7918.60 827.856   7
  -1  -5  -4 2066.62 444.441   7
  -1  -5  -5 18174.5 1323.91   7
  -1  -5  -6 2778.25 471.821   7
  -1  -5  -7 5139.74 614.335   7
  -1  -5  -8 409.101 162.212   7
   1   5   8 524.809 179.538  20
   1   5   9 1173.47 208.961  20
  -1  -6  12-100.066 113.435   8
  -1  -6  11 8394.68 756.498   8
  -1  -6  10 759.142 262.484   8
  -1  -6   9 4277.17 553.912   9
  -1  -6   9 4952.10 649.538   8
  -1  -6   8 19.7298 274.885   8
  -1  -6   7 9435.74 952.948  10
  -1  -6   7 8542.12 939.117  17
  -1  -6   6 5578.83 750.824  17
  -1  -6   6 7070.86 841.380  10
  -1  -6   5 15646.2 1263.71  17
  -1  -6   5 15013.3 1235.51  10
  -1  -6   4 786.048 291.159  17
  -1  -6   4 1324.62 659.425   1
  -1  -6   3 6229.81 762.594  17
  -1  -6   3 5695.63 1226.17   1
   1   6  -2 60379.4 2665.45  20
  -1  -6   2 69832.5 4508.07   1
  -1  -6   1 15701.1 2082.85   1
   1   6  -1 14040.4 1114.73  20
   1   6   0 15946.0 1238.20  20
   1   6   1 5202.06 715.761  20
  -1  -6  -2 20981.3 1409.47   7
   1   6   2 24181.7 1593.48  20
  -1  -6  -3 2350.01 441.511   7
   1   6   3 2745.01 544.435  20
   1   6   4 11821.1 1061.31  20
  -1  -6  -4 10173.7 902.926   7
   1   6   5 1634.53 359.437  20
  -1  -6  -5 1071.70 284.286   7
   1   6   6 8688.58 781.442  20
   1   6   7-1.83499 108.255  20
  -1  -7  11 926.983 198.289   8
  -1  -7  10 3712.65 447.720   8
  -1  -7   9-60.3818 210.609   8
  -1  -7   9-187.582 168.065   9
  -1  -7   8-185.536 206.239   8
  -1  -7   7-218.528 263.995   8
  -1  -7   7 153.334 176.292  10
  -1  -7   6 3333.90 585.952  17
  -1  -7   6 3407.17 566.319  10
  -1  -7   5 17044.3 1326.98  10
  -1  -7   5 17769.2 1368.04  17
  -1  -7   4 9169.16 955.738  17
  -1  -7   3 31016.2 1871.58  17
   1   7  -2 9896.62 880.719  20
  -1  -7   2 9689.88 955.305  17
  -1  -7   1 17440.4 1270.56  17
   1   7  -1 17455.0 1231.68  20
  -1  -7   0 3173.27 492.832  17
   1   7   0 3606.18 545.696  20
   1   7   1 6404.71 745.025  20
   1   7   2 479.479 260.451  20
   1   7   3 5881.76 662.164  20
   1   7   4 7484.24 693.332  20
   1   7   5 6584.24 564.160  20
  -1  -8   9 7499.11 556.564   8
  -1  -8   8 843.243 191.811   9
  -1  -8   8 772.741 210.126   8
  -1  -8   7 10146.9 797.929   8
  -1  -8   6 623.140 252.792  10
  -1  -8   6 222.842 165.452   8
  -1  -8   5 3201.10 484.476  10
  -1  -8   4-13.2746 145.005  17
  -1  -8   4 287.135 267.922  10
  -1  -8   3 12639.4 1005.06  10
  -1  -8   3 10840.1 915.150  17
  -1  -8   2 19139.4 1182.22  17
  -1  -8   1 782.531 231.375  17
   1   8   0 10139.6 754.343  20
   1   8   1 9962.30 715.195  20
   1   8   2 1064.95 211.633  20
  -1  -9   5 563.374 152.327  10
  -1  -9   5 810.464 174.291   8
  -1  -9   4 6588.49 486.725   8
  -1  -9   4 7300.23 544.642  10
  -1  -9   3 1052.05 214.420  10
  -1  -9   2 8536.45 590.309  10
  -1  -9   1 83.6636 109.015  10
  -2   9   2 10405.3 647.671  20
  -2   9   1 2567.22 351.011  20
  -2   9   0 15803.1 975.644  20
  -2   9  -1 2688.06 409.302  20
   2  -9   2 2561.60 326.481  10
  -2   9  -2 3125.54 437.099  20
  -2   9  -3 39.4543 129.278  20
  -2   9  -4 35440.2 1604.16  20
  -2   9  -5 3652.88 402.185  20
   2  -9   5 5612.29 504.271   8
   2  -9   6 4794.68 418.724   8
  -2   8   5 312.245 130.384  20
  -2   8   4 5150.01 545.596  20
  -2   8   3 745.441 253.987  20
  -2   8   2 10395.0 917.758  20
  -2   8   1 10401.1 952.783  20
  -2   8   0 383.441 220.788  20
  -2   8  -1 40424.0 2152.61  20
  -2   8  -2 34362.3 1961.44  20
  -2   8  -3-39.2643 209.066  20
  -2   8  -4 6650.61 782.310  20
  -2   8  -5 13134.4 1081.02  20
   2  -8   6 206.751 169.623   8
  -2   8  -6 247.251 206.494  20
  -2   8  -7 6939.88 664.572  20
   2  -8   7 8151.70 714.939   8
   2  -8   8 588.078 189.196   8
  -2   8  -8 325.950 158.902  20
  -2   7   7 996.198 197.693  20
  -2   7   7 903.132 197.631  15
  -2   7   6 45.5812 142.026  20
  -2   7   6-124.611 140.818  15
  -2   7   5 21791.9 1351.69  20
  -2   7   5 20655.9 1243.60  15
  -2   7   4 177.734 249.724  20
  -2   7   3 15821.4 1262.99  20
  -2   7   2 1961.27 461.956  20
   2  -7  -2 1711.08 375.009   6
  -2   7   1 48221.7 2473.52  20
  -2   7   0 6172.04 804.737  20
  -2   7  -1 3373.46 609.979  20
  -2   7  -2 5941.46 775.859  20
  -2   7  -3 1989.42 497.507  20
  -2   7  -4 32447.9 1986.25  20
  -2   7  -5 2629.43 531.816  20
  -2   7  -6 15157.1 1261.01  20
   2  -7   6 15299.6 1207.12   8
   2  -7   7 193.456 218.723   8
  -2   7  -7-153.182 220.883  20
  -2   7  -8 46587.4 2195.77  20
   2  -7   8 45998.7 2158.84   8
  -2   7  -9-93.2722 212.269  20
   2  -7   9-83.2869 192.657   8
   2  -7  10 361.224 107.085   8
  -2   6   9 447.358 137.527  15
  -2   6   8 4068.35 443.128  20
  -2   6   8 3605.59 464.568  15
  -2   6   7 1615.36 344.756  20
  -2   6   6 417.301 220.515  20
  -2   6   5 293.411 274.464  20
   2  -6  -5 415.244 296.241   6
  -2   6   4 11453.4 1078.38  20
   2  -6  -4 12129.5 1108.05   6
   2  -6  -3 1297.61 332.394   6
  -2   6   3 947.527 330.062  20
  -2   6   2 13450.9 1163.08  20
   2  -6  -2 13014.1 1097.67   6
   2  -6  -1 41400.1 2083.37   6
  -2   6   1 39860.2 2154.61  20
  -2   6   0 41842.2 2178.84  20
   2  -6   0 42481.3 2030.72   6
  -2   6  -1 9400.93 930.957  20
   2  -6   1 7958.03 1287.35   1
   2  -6   1 9204.49 804.323   6
   2  -6   2 36886.1 2955.58   1
  -2   6  -2 42696.8 2203.01  20
  -2   6  -3 2617.39 490.396  20
   2  -6   3 2468.77 750.736   1
   2  -6   4 16065.2 1978.80   1
  -2   6  -4 19357.1 1428.47  20
  -2   6  -5 36006.2 2085.16  20
  -2   6  -6 11485.2 1126.41  20
   2  -6   7 10652.2 1004.93   8
  -2   6  -7 10378.6 1067.25  20
  -2   6  -8 370.778 262.796  20
   2  -6   8 677.634 314.884   8
   2  -6   9 7358.41 773.946   8
  -2   6  -9 7087.55 773.451  20
   2  -6  10 277.260 166.633   8
  -2   6 -10 216.170 200.604  20
   2  -6  11 5640.74 487.395   8
  -2   5  10 754.525 186.845  15
  -2   5   9 1147.31 242.068  20
  -2   5   9 1061.63 298.831  15
  -2   5   8 3695.42 522.302  20
   2  -5  -7 2309.97 468.877   6
  -2   5   7 2394.38 476.634  20
  -2   5   6-346.379 307.715  20
   2  -5  -6 72.1519 189.972   6
  -2   5   5 20777.8 1466.74  20
  -2   5   4 2240.31 456.556  20
   2  -5  -4 1930.75 411.650   6
  -2   5   3 64405.3 2921.90  20
   2  -5  -3 71832.7 2993.02   6
   2  -5  -2 147.861 197.139   6
  -2   5   2-20.3611 214.591  20
   2  -5  -1 123895. 4250.35   6
   2  -5  -1 105875. 5177.72   1
   2  -5   0 476.034 252.193   1
   2  -5   0 475.486 204.511   6
   2  -5   1 33501.7 2510.49   1
   2  -5   1 36880.2 1720.79   6
   2  -5   2-373.973 399.603   1
   2  -5   2 88.6948 112.371   6
   2  -5   3 112819. 5435.42   1
  -2   5  -4 2524.54 473.650  20
   2  -5   4 2019.72 709.064   1
   2  -5   5 8248.12 1341.55   1
   2  -5   5 7078.34 1125.93   3
  -2   5  -5 8795.43 891.418  20
  -2   5  -6 714.076 348.895  20
   2  -5   6 438.633 242.878   8
   2  -5   6 568.450 305.846   1
   2  -5   6-282.240 436.537   3
   2  -5   7 6396.05 787.619   8
  -2   5  -7 6901.14 863.152  20
   2  -5   8 37042.8 2052.12   8
  -2   5  -8 38347.4 2200.46  20
  -2   5  -9 3874.87 628.404  20
   2  -5   9 4132.47 626.971   8
  -2   5 -10 1177.09 348.452  20
   2  -5  10 1075.39 296.256   8
  -2   5 -11 3520.89 452.104  20
   2  -5  11 4632.45 511.612   8
  -2   4  11 817.495 203.213  15
  -2   4  10 5304.07 624.652  15
  -2   4   9 539.617 227.956  20
   2  -4  -8 13177.8 1163.64   6
  -2   4   7 3959.08 694.084  14
   2  -4  -7 4199.35 647.853   6
  -2   4   6 12496.2 1150.82  14
   2  -4  -6 12574.7 1128.54   6
  -2   4   5 6886.28 793.458  14
   2  -4  -5 7556.51 807.025   6
   2  -4  -4 34434.1 1820.04   6
   2  -4  -3 37884.5 1850.21   6
   2  -4  -2 45123.7 2590.58   1
   2  -4  -2 48770.4 2101.02   6
   2  -4  -1-47.4276 255.909   1
   2  -4  -1 2.06465 149.128   6
   2  -4   0 73673.3 2678.08   6
   2  -4   0 65089.2 3320.80   1
   2  -4   1 820.169 364.710   1
   2  -4   2 8748.20 1127.82   1
  -2   4  -3 2931.28 529.296   2
   2  -4   3 2691.19 560.011   3
   2  -4   4 96351.2 4454.54   3
   2  -4   5 16063.2 1688.80   3
   2  -4   6 60153.4 3690.41   3
  -2   4  -6 61256.1 3581.00   5
  -2   4  -6 58062.1 2612.91  20
   2  -4   7 5925.63 719.221   8
  -2   4  -7 6305.35 1052.60   5
   2  -4   7 6336.49 1190.25   3
  -2   4  -7 6666.80 818.977  20
  -2   4  -8 8593.07 951.810  20
   2  -4   8 7991.60 838.704   8
  -2   4  -9-281.054 219.698  20
   2  -4   9 48.4361 171.053   8
   2  -4  10 130.059 170.519   8
  -2   4 -10 206.733 209.650  20
  -2   4 -11 1608.53 377.724  20
   2  -4  11 2536.17 413.988   8
   2  -4  12 30.3575 118.035   8
  -2   3  11 551.385 153.019  16
  -2   3  11 829.961 208.949  15
  -2   3  10 13481.9 1080.53  15
  -2   3  10 14627.0 1246.47  14
   2  -3  -9 175.874 232.744   6
  -2   3   9-111.111 212.089  14
   2  -3  -8 1213.08 381.786   6
  -2   3   8 1047.76 407.063  14
  -2   3   7 2263.64 495.959  14
   2  -3  -7 2470.20 499.042   6
  -2   3   6 9702.27 925.389  14
   2  -3  -6 11295.4 976.534   6
   2  -3  -5 3587.39 504.326   6
   2  -3  -4 2214.69 381.716   6
   2  -3  -3 44508.5 1848.46   6
   2  -3  -3 37687.7 2014.71   1
   2  -3  -2 4832.62 605.838   1
   2  -3  -2 5281.48 520.036   6
   2  -3  -1 125087. 3873.78   6
   2  -3  -1 107017. 4203.54   1
   2  -3   0 7252.89 800.116   1
  -2   3   0 7294.64 858.247   2
  -2   3  -1 61327.0 2823.19   2
  -2   3  -2 28870.0 1755.99   2
  -2   3  -3 91878.0 3726.61   2
  -2   3  -4 1525.98 377.936   2
  -2   3  -5 17023.9 1599.13   5
   2  -3   6 126.965 282.548   3
  -2   3  -6 200.737 315.222   5
   2  -3   7 25018.7 1502.04   8
   2  -3   7 29798.4 2566.64   3
  -2   3  -7 29465.5 1756.91  20
   2  -3   8 78452.3 4722.87   3
   2  -3   8 76713.2 3282.25   8
  -2   3  -8 84263.9 3546.11  20
   2  -3   9 6321.29 753.000   8
  -2   3  -9 5616.09 783.211  20
   2  -3  10-85.8074 222.789   8
  -2   3 -10 59.4331 203.258  20
  -2   3 -11 14768.9 1146.14  20
   2  -3  11 14627.9 1070.23   8
  -2   3 -12-47.2692 155.945  20
  -2   2  12 1221.29 277.325  14
  -2   2  12 1014.49 256.192  16
  -2   2  11 4159.44 625.317  14
  -2   2  11 2402.43 383.003  15
  -2   2  10 2544.28 486.974  15
  -2   2  10 2218.82 470.317  14
   2  -2  -9 6782.34 752.890   6
  -2   2   9 8436.46 957.559  14
  -2   2   8 748.392 292.296  14
   2  -2  -8 986.214 295.579   6
   2  -2  -7 6049.94 676.504   6
  -2   2   7 6579.14 762.013  14
   2  -2  -6 10361.7 857.418   6
   2  -2  -5 18603.5 1105.83   6
   2  -2  -4 29946.1 1374.10   6
  -2   2   4 25986.5 1365.68   3
  -2   2   3 96804.7 3369.30   3
   2  -2  -3 101633. 3286.35   6
   2  -2  -2 16924.0 877.982   6
   2  -2  -2 15467.9 861.049   1
   2  -2  -1 28708.1 1375.91   1
  -2   2   1 31214.2 1722.21   2
  -2   2   0 47318.5 2258.78   2
  -2   2  -1 3745.36 546.159   2
  -2   2  -2 5763.63 691.657   2
  -2   2  -3 18749.6 1342.12   2
  -2   2  -3 17714.6 1382.33   5
  -2   2  -4 113085. 4592.67   5
  -2   2  -4 111542. 4409.01   2
  -2   2  -5 22584.5 1759.75   5
  -2   2  -5 21844.7 1635.47   2
  -2   2  -6 179418. 6787.04   2
  -2   2  -6 192368. 7053.54   5
   2  -2   7 225.862 211.154   3
  -2   2  -7 839.648 340.803  20
   2  -2   8 18350.9 1299.08   8
  -2   2  -8 21082.4 1525.71  20
   2  -2   8 20632.1 2201.12   3
  -2   2  -9 745.122 375.139  20
   2  -2   9 148.213 174.155   8
  -2   2 -10 14017.5 1254.55  20
   2  -2  10 12916.6 1079.89   8
  -2   2 -11 602.254 313.092  20
   2  -2  11 539.200 253.055   8
  -2   2 -12 4244.38 501.789  20
  -2   1  13 252.589 136.761  16
  -2   1  13 380.331 149.013  14
  -2   1  12 7964.52 792.737  14
  -2   1  11 2278.65 474.086  14
  -2   1  10 11912.1 1162.42  14
  -2   1   9 2394.30 494.899  14
  -2   1   9 1771.42 402.214   8
  -2   1   8 32475.1 1832.65  14
  -2   1   8 29051.8 1690.56   8
   2  -1  -8 28418.2 1555.30   6
   2  -1  -7 3333.14 468.000   6
  -2   1   7 2583.17 542.444   3
  -2   1   6 50084.2 2623.77   3
   2  -1  -6 55310.2 2148.14   6
   2  -1  -5 1046.41 224.647   6
  -2   1   5 1069.60 316.670   3
   2  -1  -4 34908.8 1384.99   6
  -2   1   4 31114.0 1686.15   3
   2  -1  -3 24690.7 1055.60   6
  -2   1   3 23233.7 1316.87   3
  -2   1   2 41463.4 1997.98   2
  -2   1   2 43875.8 1679.34   5
  -2   1   2 43226.1 1894.74   3
  -2   1   1 73452.3 2640.85   5
  -2   1   1 73228.6 2859.21   2
  -2   1   0 101584. 3533.23   5
  -2   1   0 100427. 3619.94   2
  -2   1  -1 22615.0 1347.52   2
  -2   1  -2 52450.7 2413.19   5
  -2   1  -2 53649.1 2435.12   2
  -2   1  -3 174611. 6032.22   2
  -2   1  -3 173272. 6013.62   5
  -2   1  -4 89843.4 3836.43   5
  -2   1  -4 91817.4 3893.26   2
  -2   1  -5 3457.13 665.114   2
  -2   1  -6 9460.71 1176.57   2
  -2   1  -7 71727.1 3091.84  20
  -2   1  -7 64549.9 3725.00   2
   2  -1   7 73268.9 4144.97   3
   2  -1   8 9260.93 890.008   8
   2  -1   8 9300.78 1422.45   3
  -2   1  -8 11277.8 1110.93  20
   2  -1   9 3568.05 576.060   8
  -2   1  -9 3811.10 667.006  20
  -2   1 -10 6742.67 837.097  20
  -2   1 -11-47.1054 167.397  20
  -2   1 -12 2699.31 396.959  20
   2  -1  12 2054.14 358.483  14
  -2   0  13 1018.07 262.342  16
  -2   0  13 767.007 211.072  14
  -2   0  12 4182.08 583.169  14
  -2   0  11 2409.86 474.579  14
  -2   0  11 1790.46 451.636   8
  -2   0  10 355.108 259.622  14
  -2   0  10 848.983 284.050   8
  -2   0   9 2872.61 519.450   9
  -2   0   9 2979.94 541.310   8
  -2   0   8 9522.83 1258.45   3
  -2   0   7 28740.1 2108.47   3
  -2   0   6 37233.7 2271.68   3
  -2   0   5 157449. 5436.93   3
   2   0  -5 142403. 4325.36   6
  -2   0   4 16659.8 1212.17   3
   2   0  -4 14749.4 687.078   6
  -2   0   3 396599. 11335.7   3
  -2   0   3 387739. 10599.4   4
   2   0  -3 370502. 10473.9   6
  -2   0   3 386599. 11073.1   2
  -2   0   2 40815.3 1793.28   2
  -2   0   2 41683.3 1922.63   3
  -2   0   1 256988. 7789.59   2
  -2   0   1 264925. 7974.72   3
  -2   0   0 1120.70 307.893   2
  -2   0  -1 65576.2 2688.69   2
  -2   0  -2 111762. 4200.24   2
  -2   0  -3 10271.1 1043.50   2
  -2   0  -4 35776.6 2255.46   2
  -2   0  -5 285.801 299.659   2
  -2   0  -6 55509.9 3371.43   2
   2   0   7 989.491 275.485   8
  -2   0  -7 1459.52 396.370  20
  -2   0  -7 831.951 369.242   2
   2   0   7 495.283 396.659   3
   2   0   8 6221.99 722.308   8
  -2   0  -8 8543.80 971.907  20
  -2   0  -9 6537.43 867.239  20
  -2   0 -10 42126.6 2322.93  20
  -2   0 -11 2856.45 508.486  20
   2   0  11 2882.12 494.307  14
   2   0  12 382.559 152.662  14
  -2  -1  14 738.759 157.062  16
  -2  -1  13 1587.37 293.653  14
  -2  -1  13 1653.06 309.281  16
  -2  -1  12 7546.00 814.781   8
  -2  -1  12 6684.26 724.611  14
  -2  -1  11-469.361 336.658   8
  -2  -1  11 119.495 188.680  14
  -2  -1  10 11892.3 1049.16   9
  -2  -1  10 13089.3 1153.70   8
  -2  -1   9 6756.49 1166.99   3
  -2  -1   9 8052.44 871.773   8
  -2  -1   9 6683.71 751.037   9
  -2  -1   8 16752.1 1775.20   3
  -2  -1   7 189.961 230.126   3
  -2  -1   6 43767.4 2626.56   3
  -2  -1   5 3058.39 587.750   3
  -2  -1   4 50301.9 2448.50   3
  -2  -1   4 45653.8 1818.20   1
  -2  -1   3 1336.32 235.876   2
  -2  -1   3 1274.77 236.181   1
  -2  -1   3 1080.81 353.539   3
  -2  -1   2 103869. 3411.28   2
  -2  -1   2 102281. 3604.60   4
  -2  -1   2 103243. 3816.34   3
  -2  -1   2 99624.6 3534.60   1
  -2  -1   1 5598.81 620.929   4
  -2  -1   1 4821.61 587.001   1
  -2  -1   1 5601.65 656.653   3
  -2  -1   1 5502.96 551.334   2
  -2  -1   0 53630.5 2281.41   2
  -2  -1   0 52100.2 2366.17   4
  -2  -1  -1 138.796 219.646   4
  -2  -1  -1-111.347 247.101   2
  -2  -1  -2 57129.7 2757.57   2
  -2  -1  -2 55532.4 2685.38   4
  -2  -1  -3 31359.5 2061.21   2
  -2  -1  -3 31218.0 1956.50   4
  -2  -1  -4 33860.1 2345.04   2
  -2  -1  -4 34309.6 2172.92   4
  -2  -1  -5 3422.73 661.280   4
  -2  -1  -5 3871.58 800.385   2
  -2  -1  -6 11287.5 1033.35  20
  -2  -1  -6 12103.0 1569.40   2
  -2  -1  -7 108048. 4275.10  20
  -2  -1  -7 94530.7 5212.71   2
  -2  -1  -8 9555.38 1057.24  20
   2   1   9 85.0002 212.078  14
  -2  -1  -9 313.698 304.327  20
  -2  -1 -10 485.614 278.238  20
   2   1  10 860.227 319.322  14
   2   1  11 2176.40 371.509  14
  -2  -1 -12 41.7079 65.8337   7
  -2  -2  13 1563.29 310.651  16
  -2  -2  13 1162.49 289.506   8
  -2  -2  12 14631.7 1143.94   8
  -2  -2  11 437.061 185.715   9
  -2  -2  11 580.236 254.530   8
  -2  -2  10 482.890 242.567   9
  -2  -2  10 618.411 282.522   8
  -2  -2   9 7525.57 826.885   8
  -2  -2   9 7637.82 813.471   9
  -2  -2   9 7529.79 1296.57   3
  -2  -2   8 11583.5 1498.00   3
  -2  -2   8 10339.3 919.484   8
  -2  -2   8 10678.5 928.586   9
  -2  -2   7 9480.03 1281.96   3
  -2  -2   6 1646.85 516.658   3
  -2  -2   5 5687.70 867.204   3
  -2  -2   5 5373.11 635.864   1
  -2  -2   4 9300.06 860.544   1
  -2  -2   4 9531.94 1040.98   3
  -2  -2   3 40264.9 2181.26   3
  -2  -2   3 40384.6 2064.82   1
  -2  -2   2 9077.13 671.117   2
  -2  -2   2 8812.10 910.784   1
  -2  -2   2 9660.42 939.646   3
  -2  -2   1 78701.3 3262.83   3
  -2  -2   1 79115.1 3457.15   1
  -2  -2   1 78016.5 2983.93   2
  -2  -2   0 34794.4 1867.11   2
  -2  -2   0 34834.2 2041.19   4
  -2  -2  -1 185866. 6388.77   2
  -2  -2  -1 176579. 6439.03   4
  -2  -2  -2 4077.75 674.327   4
  -2  -2  -2 4228.39 715.507   2
  -2  -2  -3 103280. 4607.69   4
  -2  -2  -3 114802. 4908.25   2
  -2  -2  -4 6164.41 1017.53   2
  -2  -2  -5 73100.8 4175.30   2
  -2  -2  -5 71801.8 3121.78  20
  -2  -2  -6-230.483 238.375  20
   2   2   6-108.593 241.764  14
  -2  -2  -6 413.136 292.790   2
  -2  -2  -7 676.058 252.250  20
   2   2   7 381.121 153.218  14
   2   2   8 10988.9 1036.91  14
  -2  -2  -8 11067.3 1161.83  20
   2   2   9 2309.30 455.373  14
  -2  -2  -9 2180.98 516.788  20
  -2  -2 -10 8432.93 780.154   7
   2   2  10 7236.10 675.951  14
  -2  -2 -11 2519.18 336.354   7
  -2  -3  13 704.358 208.421   8
  -2  -3  12 7742.53 687.830  16
  -2  -3  12 8673.72 840.253   8
  -2  -3  11 1574.75 358.008   9
  -2  -3  11 1601.95 453.586   8
  -2  -3  11 1244.75 311.522  16
  -2  -3  10 1520.84 373.184  16
  -2  -3  10 1451.73 396.957   8
  -2  -3  10 1285.46 398.268   9
  -2  -3   9 4504.77 1010.57   3
  -2  -3   9 5842.27 755.724   8
  -2  -3   9 5505.09 710.938   9
  -2  -3   8 11215.4 987.870   9
  -2  -3   8 12415.9 1037.86   8
  -2  -3   8 10554.1 1484.16   3
  -2  -3   7 249.938 306.654   3
  -2  -3   6 92791.3 4493.29   3
  -2  -3   6 86539.1 3910.84   1
  -2  -3   5 38658.6 2528.81   3
  -2  -3   5 37998.9 2304.91   1
  -2  -3   4 21515.2 1659.18   1
  -2  -3   4 20511.0 1672.86   3
  -2  -3   3 14072.7 1342.00   1
  -2  -3   3 14153.4 1297.98   3
  -2  -3   2 33592.5 2220.92   1
  -2  -3   2 32628.4 1987.75   3
  -2  -3   1 42293.5 2231.21   3
  -2  -3   1 40404.6 2043.58   2
  -2  -3   1 40479.3 2584.79   1
  -2  -3   0 4991.35 891.028   1
  -2  -3   0 5540.81 754.586   2
  -2  -3  -1-91.1686 255.445   2
  -2  -3  -2 31394.1 2260.92   2
  -2  -3  -3 7893.04 1155.76   2
  -2  -3  -4 34430.8 2724.31   2
  -2  -3  -4 34011.8 1965.01  20
  -2  -3  -5 9620.79 1018.24  20
  -2  -3  -5 10128.6 1489.65   2
  -2  -3  -6 78430.1 3573.45  20
   2   3   7 6159.55 740.292  14
  -2  -3  -7 7079.54 852.646   7
  -2  -3  -8 14410.1 1169.51   7
   2   3   8 13833.8 1055.17  14
  -2  -3  -9 1836.59 396.797   7
   2   3   9 1344.36 305.016  14
  -2  -3 -10 512.947 164.847   7
  -2  -4  13-55.0959 143.955   8
  -2  -4  12 4722.33 571.319   8
  -2  -4  11 3624.56 560.631   8
  -2  -4  11 3067.31 483.037   9
  -2  -4  10 1819.39 409.903   9
  -2  -4  10 2081.18 444.292   8
  -2  -4   9 19190.5 1403.03   8
  -2  -4   9 18356.8 1375.36   9
  -2  -4   8 66125.6 2879.33   8
  -2  -4   8 53771.5 3788.90   3
  -2  -4   7 298.892 271.601   3
  -2  -4   7 132.964 171.317  17
  -2  -4   7 647.973 277.236  10
  -2  -4   7 280.789 229.799  19
  -2  -4   7 126.167 185.916   8
  -2  -4   6 6178.04 997.426   1
  -2  -4   6 6804.93 746.605  19
  -2  -4   6 6598.29 698.922  17
  -2  -4   6 6988.98 1132.53   3
  -2  -4   6 6528.58 715.042  10
  -2  -4   5 19984.0 1864.11   1
  -2  -4   5 21041.9 1907.02   3
  -2  -4   4 25323.3 1987.54   3
  -2  -4   4 23972.8 2089.51   1
  -2  -4   3 13080.3 1535.54   1
  -2  -4   3 11396.8 1233.07   3
  -2  -4   2 8189.72 1237.25   1
  -2  -4   1 4062.90 890.058   1
  -2  -4   0 10546.8 1149.73   2
  -2  -4  -1 29749.5 2228.34   2
  -2  -4  -2 9275.49 1289.16   2
  -2  -4  -2 9612.29 886.729   7
  -2  -4  -3 18531.5 1977.97   2
  -2  -4  -3 18325.5 1334.71   7
  -2  -4  -4 227.534 246.373   7
  -2  -4  -4-253.408 537.752   2
  -2  -4  -5 14863.8 1254.99   7
  -2  -4  -6 1407.01 385.671   7
  -2  -4  -7 6137.97 735.519   7
  -2  -4  -8 3237.53 472.463   7
  -2  -4  -9 7432.22 600.194   7
  -2  -5  12 3951.26 468.163   8
  -2  -5  11 10774.7 905.521   8
  -2  -5  11 9028.96 760.191   9
  -2  -5  10 4654.19 662.876   8
  -2  -5  10 3654.17 547.358   9
  -2  -5   9 915.390 412.554   9
  -2  -5   9 1249.44 372.637   8
  -2  -5   8 9835.76 949.742  17
  -2  -5   8 10132.1 992.078   8
  -2  -5   7 31708.4 1845.36   8
  -2  -5   7 31201.3 1849.62  17
  -2  -5   7 32984.3 1959.85  19
  -2  -5   7 30997.8 1901.57  10
  -2  -5   6 13292.6 1136.56  10
  -2  -5   6 10530.9 1510.29   1
  -2  -5   6 12725.8 1128.96  19
  -2  -5   6 12780.4 1089.36  17
  -2  -5   5 22322.7 1487.05  10
  -2  -5   5 21720.2 1450.15  19
  -2  -5   5 24503.7 1545.22  17
  -2  -5   4 2585.96 449.587  19
  -2  -5   4 2552.81 477.826   7
  -2  -5   3 10526.0 1577.62   1
  -2  -5   3 9209.25 906.060   7
  -2  -5   2 7206.03 1302.33   1
  -2  -5   2 6423.15 759.142   7
  -2  -5   1 36413.4 1977.66   7
  -2  -5   1 42477.0 3335.54   1
  -2  -5   0 63.5701 160.172   7
   2   5   1 5452.78 660.649  20
  -2  -5  -1 6947.74 788.388   7
  -2  -5  -2 4159.90 627.648   7
  -2  -5  -3 927.588 359.212   7
  -2  -5  -4 10058.1 994.364   7
  -2  -5  -5-7.63888 218.239   7
  -2  -5  -6 11996.3 980.276   7
   2   5   7 1985.31 374.123  20
  -2  -5  -7 1984.13 347.962   7
   2   5   8 3753.24 391.601  20
  -2  -5  -8 3101.75 329.729   7
  -2  -6  11 4893.62 450.318   9
  -2  -6  11 7439.18 624.253   8
  -2  -6  10 14666.5 1002.16   9
  -2  -6  10 13485.3 991.199   8
  -2  -6   9 373.962 177.000   9
  -2  -6   9 318.356 256.388   8
  -2  -6   8 21481.7 1436.71   8
  -2  -6   7 205.931 280.798  10
  -2  -6   7-212.483 209.854  17
  -2  -6   7 259.270 264.162   8
  -2  -6   6 7438.17 875.488  17
  -2  -6   6 7174.70 885.054  10
  -2  -6   5 4475.94 621.542  19
  -2  -6   5 4600.82 697.183  17
  -2  -6   5 4967.52 703.028  10
  -2  -6   4 23180.7 1571.51  10
  -2  -6   4 20209.9 1377.43  19
  -2  -6   4 23412.3 1591.37  17
  -2  -6   3 510.928 291.850   7
  -2  -6   2 316.816 290.921   7
  -2  -6   1 969.482 325.642   7
  -2  -6   0 10255.7 993.503   7
   2   6   1 13435.4 1091.02  20
  -2  -6  -1 14590.1 1198.96   7
   2   6   2 8777.76 872.156  20
  -2  -6  -2 8409.61 892.733   7
  -2  -6  -3 12666.6 1053.61   7
   2   6   3 13469.1 1106.04  20
   2   6   4 4578.51 605.775  20
  -2  -6  -4 4737.75 595.257   7
   2   6   5 15593.9 1040.77  20
  -2  -6  -5 14276.5 957.506   7
   2   6   6 2648.30 343.676  20
  -2  -6  -6 1968.26 271.074   7
  -2  -7  10 14.9639 78.6482   9
  -2  -7  10 392.592 152.727   8
  -2  -7   9 168.277 133.902   8
  -2  -7   9 475.811 213.972   9
  -2  -7   8 1354.76 320.929   8
  -2  -7   7 23617.8 1421.42   8
  -2  -7   7 24317.5 1515.94  10
  -2  -7   6 553.742 313.007  17
  -2  -7   6 601.560 289.566  10
  -2  -7   5 4928.62 671.696  17
  -2  -7   5 5432.04 723.870  10
  -2  -7   4 5809.09 747.194  10
  -2  -7   4 5686.97 728.462  17
  -2  -7   3 10557.9 995.248  10
  -2  -7   3 9507.98 952.979  17
  -2  -7   2 1522.62 385.632  17
  -2  -7   2 392.924 160.876   7
  -2  -7   1 15171.5 1155.57  17
  -2  -7   1 14084.9 1082.46   7
  -2  -7   0 497.622 171.633  17
  -2  -7   0 225.555 201.348   7
  -2  -7  -1 11729.1 901.634   7
   2   7   1 10676.3 814.404  20
   2   7   2 1910.58 340.234  20
  -2  -7  -2 1520.75 308.455   7
   2   7   3 13994.1 860.060  20
   2   7   4 1087.49 192.981  20
  -2  -8   8 2007.60 279.743   9
  -2  -8   8 1860.13 240.258   8
  -2  -8   7-119.193 93.9531   8
  -2  -8   6 9319.82 749.645  10
  -2  -8   6 8466.85 647.960   8
  -2  -8   5-106.217 182.368  10
  -2  -8   4 10419.3 855.308  17
  -2  -8   4 12549.0 933.052  10
  -2  -8   3-15.0903 137.038  17
  -2  -8   3 157.340 192.676  10
  -2  -8   2 524.278 168.679  17
  -2  -8   2 446.736 189.039  10
  -2  -8   1 3288.99 426.515  10
  -2  -8   1 2570.54 346.595  17
  -2  -8   0 6619.28 545.610  10
  -2  -8  -1-13.1338 71.4976  10
  -3   9   2 4481.29 399.362  20
  -3   9   1 8773.58 643.240  20
  -3   9   0 9165.26 705.040  20
  -3   9  -1 2961.36 402.016  20
  -3   9  -2 16229.5 1023.74  20
   3  -9   3 1470.82 231.742   8
  -3   9  -3 1937.60 334.917  20
  -3   9  -4 6306.18 579.819  20
  -3   9  -5 327.379 123.351  20
  -3   8   5 3138.71 330.694  20
  -3   8   4-255.715 193.794  20
  -3   8   3 13226.7 962.707  20
  -3   8   2 780.486 261.759  20
  -3   8   1 2670.52 456.244  20
  -3   8   0 491.394 207.272  20
  -3   8  -1 2028.54 461.286  20
  -3   8  -2 12449.5 1097.02  20
  -3   8  -3 6838.99 794.230  20
  -3   8  -4 8575.00 877.320  20
  -3   8  -5 2704.38 479.433  20
   3  -8   5 2746.40 409.496   8
   3  -8   6 8808.47 687.100   8
  -3   8  -6 10956.6 898.996  20
   3  -8   7 5158.44 454.624   8
  -3   8  -7 6918.68 650.076  20
  -3   8  -8 1032.88 211.465  20
  -3   7   7 6678.65 510.580  15
  -3   7   6 18578.0 1065.00  15
  -3   7   6 18814.1 1072.31  20
  -3   7   5 4499.77 545.225  15
  -3   7   5 4258.29 545.200  20
  -3   7   4 1186.95 360.581  20
  -3   7   3 2624.49 534.265  20
  -3   7   2 66.4024 247.415  20
   3  -7  -2 528.732 269.236   6
  -3   7   1 27103.9 1692.24  20
   3  -7  -1 18732.1 1340.38   6
  -3   7   0 20226.1 1495.23  20
  -3   7  -1 3785.14 647.689  20
  -3   7  -2 18902.1 1441.74  20
  -3   7  -3 24347.5 1672.54  20
  -3   7  -4 35162.4 2092.23  20
   3  -7   5 3402.77 514.170   8
  -3   7  -5 3347.87 598.839  20
  -3   7  -6 19781.6 1437.41  20
   3  -7   6 16771.8 1157.87   8
  -3   7  -7 465.005 252.979  20
   3  -7   7 347.588 220.687   8
   3  -7   8 5538.90 543.627   8
  -3   7  -8 5721.69 656.601  20
  -3   7  -9 299.093 166.180  20
  -3   6   9 903.706 197.195  15
  -3   6   8 2659.48 389.445  15
  -3   6   7 1751.82 343.763  20
  -3   6   7 2713.24 479.425  15
  -3   6   6 1286.70 335.180  20
  -3   6   6 991.975 289.231  15
   3  -6  -5 14256.8 1204.46   6
  -3   6   5 14574.3 1152.52  20
   3  -6  -4 733.702 322.675   6
  -3   6   4 234.473 189.647  20
  -3   6   3 105896. 4167.35  15
  -3   6   3 119873. 4467.99  20
   3  -6  -3 119828. 4500.97   6
   3  -6  -2 15253.5 1223.68   6
  -3   6   2 15504.8 1253.41  20
  -3   6   1 962.123 393.386  20
   3  -6  -1 831.721 273.478   6
   3  -6   0 5130.72 663.880   6
  -3   6   0 5481.24 727.297  20
  -3   6  -1 28420.2 1715.42  20
   3  -6   1 25824.4 1541.79   6
   3  -6   2 47.7202 99.4470   6
  -3   6  -2-24.2472 208.309  20
  -3   6  -3 15647.8 1291.28  20
   3  -6   3 13624.3 1790.35   1
  -3   6  -4 5657.71 798.514  20
  -3   6  -5 4145.36 652.167  20
   3  -6   6 12033.6 1005.88   8
  -3   6  -6 13218.2 1203.00  20
  -3   6  -7 17835.9 1403.55  20
   3  -6   7 14415.1 1091.16   8
   3  -6   8 376.625 209.615   8
  -3   6  -8 1245.49 392.920  20
   3  -6   9 14523.6 947.268   8
  -3   6  -9 17952.6 1251.09  20
  -3   6 -10 1085.86 279.989  20
  -3   5  10 3463.07 394.314  15
  -3   5   9 1294.99 312.664  15
  -3   5   8-334.236 292.663  15
  -3   5   7 29725.6 1632.31  20
   3  -5  -7 27792.8 1756.94   6
  -3   5   6 39014.8 2027.85  20
   3  -5  -6 38915.5 2182.47   6
  -3   5   5 37298.0 2003.58  20
  -3   5   4 1374.90 346.038  20
  -3   5   3-132.639 210.490  20
   3  -5  -3 114.424 166.130   6
   3  -5  -2 50594.5 2329.41   6
  -3   5   2 41649.5 2137.10  20
   3  -5  -1 1332.56 338.366   6
  -3   5   1 987.524 293.045  20
   3  -5   0 46520.5 2139.85   6
   3  -5   0 36834.9 2596.83   1
   3  -5   1 14223.7 1581.68   1
   3  -5   1 16963.2 1172.98   6
   3  -5   2 35965.4 2731.67   1
  -3   5  -2 36708.3 1930.53  20
  -3   5  -3 1365.72 305.665  20
   3  -5   3 545.824 345.238   1
   3  -5   4 52790.3 3657.30   1
  -3   5  -4 53785.6 2581.27  20
  -3   5  -5 5692.62 1098.29   5
   3  -5   5 5245.73 988.372   3
  -3   5  -5 8024.10 888.068  20
  -3   5  -6 5183.01 1020.18   5
   3  -5   6 4626.39 594.542   8
  -3   5  -6 6879.75 860.302  20
   3  -5   7-350.833 231.243   8
  -3   5  -7-189.477 200.149  20
   3  -5   8 1567.85 368.726   8
  -3   5  -8 1941.38 469.207  20
   3  -5   9-207.954 182.040   8
  -3   5  -9 297.653 249.616  20
  -3   5 -10 7331.92 754.868  20
  -3   5 -11 1246.80 253.455  20
  -3   4  11 288.364 137.694  15
  -3   4  10 3902.07 512.500  15
  -3   4   9 98.4209 245.154  15
   3  -4  -8 14156.1 1202.01   6
   3  -4  -7 4150.31 636.097   6
   3  -4  -6 1011.73 352.508   6
   3  -4  -5 32688.3 1858.87   6
   3  -4  -4 42865.2 2144.93   6
   3  -4  -3 76277.8 3071.20   6
   3  -4  -2 7204.25 726.310   6
   3  -4  -1 1761.72 418.919   1
   3  -4  -1 2524.42 422.354   6
   3  -4   0 9477.74 1079.28   1
   3  -4   1 122045. 5193.91   1
  -3   4  -1 123851. 5256.03   2
  -3   4  -2 87922.5 4137.60   2
  -3   4  -3 34657.0 2332.85   2
  -3   4  -4 1054.76 446.286   5
  -3   4  -5 7955.74 1273.96   5
  -3   4  -5 6214.51 749.965  20
  -3   4  -6 1290.29 463.984   5
  -3   4  -6 1223.65 384.256  20
   3  -4   6 1432.99 564.432   3
  -3   4  -7 333.519 283.648  20
  -3   4  -8 358.247 205.273  20
  -3   4  -9 2640.74 507.809  20
  -3   4 -10 6004.09 751.730  20
  -3   4 -11 6874.56 665.889  20
  -3   3  11 3296.44 398.397  16
  -3   3  11 3720.34 468.140  15
  -3   3  10 183.562 138.986  16
  -3   3  10 63.8566 213.064  15
   3  -3  -9-225.116 247.833   6
  -3   3   9 420.500 181.307  16
  -3   3   9 191.921 229.381  15
  -3   3   9 155.310 236.924  14
  -3   3   8 2535.21 530.467  14
   3  -3  -8 1368.35 386.597   6
  -3   3   7 83547.4 3558.64  14
   3  -3  -7 80285.1 3388.32   6
  -3   3   6 5009.40 670.820  14
   3  -3  -6 4398.18 611.964   6
   3  -3  -5 35525.3 1833.45   6
   3  -3  -4 129.569 143.141   6
   3  -3  -3 13213.8 932.993   6
   3  -3  -2 59891.7 2410.51   6
   3  -3  -1 43944.5 2180.57   1
  -3   3   1 47439.6 2681.40   2
  -3   3   0 220.777 235.783   2
  -3   3  -1 1880.35 521.580   2
  -3   3  -2 93058.9 4188.73   2
  -3   3  -3 1162.46 424.198   2
  -3   3  -3 1286.81 466.139   5
  -3   3  -4 98914.5 4685.96   5
  -3   3  -4 94179.5 4367.84   2
  -3   3  -5 4369.91 819.675   2
  -3   3  -5 5530.87 1008.59   5
  -3   3  -6 60133.4 3685.95   5
  -3   3  -6 62188.9 2853.46  20
   3  -3   7 1800.43 648.962   3
  -3   3  -7 1269.02 418.109  20
  -3   3  -8 11905.0 1182.57  20
  -3   3  -9 28974.6 1896.36  20
  -3   3 -10 13820.0 1202.79  20
  -3   3 -11 2155.87 415.691  20
  -3   3 -12 392.914 147.491  20
  -3   2  12 4371.64 501.310  16
  -3   2  11 2355.04 409.092  16
  -3   2  11 3250.89 504.056  14
  -3   2  11 3059.54 440.470  15
  -3   2  10 8662.90 863.870  15
  -3   2  10 8725.87 922.223  14
  -3   2   9 11688.9 1052.04  15
  -3   2   9 11960.4 1133.45  14
  -3   2   8 7929.29 866.131  15
  -3   2   8 6485.89 789.942  14
   3  -2  -8 6762.29 747.885   6
  -3   2   7 15492.4 1193.81  14
   3  -2  -7 17866.9 1200.76   6
   3  -2  -6 2757.59 425.478   6
   3  -2  -5 1296.55 313.063   6
  -3   2   4 56129.4 2672.08   3
   3  -2  -4 59844.7 2308.96   6
   3  -2  -3 67879.8 2462.29   6
  -3   2   3 59573.3 2497.86   5
  -3   2   2 10619.3 911.293   5
  -3   2   2 10757.8 1140.91   2
  -3   2   1 82708.6 3389.04   5
  -3   2   1 84924.6 3723.09   2
  -3   2   0 94462.1 3826.25   5
  -3   2   0 93457.8 3972.06   2
  -3   2  -1 151258. 5612.21   5
  -3   2  -1 151936. 5672.27   2
  -3   2  -2 283972. 9526.03   5
  -3   2  -2 293294. 9576.71   2
  -3   2  -3 96406.0 4377.13   5
  -3   2  -3 102516. 4429.80   2
  -3   2  -4 51333.0 2995.39   2
  -3   2  -4 53066.6 3083.02   5
  -3   2  -5 5825.55 972.451   2
  -3   2  -6 10370.2 979.133  20
  -3   2  -6 9194.66 1265.37   2
  -3   2  -7-48.1549 271.350  20
  -3   2  -8 9799.16 1043.82  20
  -3   2  -9 4242.68 697.511  20
  -3   2 -10 197.189 292.884  20
  -3   2 -11 8158.44 786.014  20
  -3   2 -12 446.186 156.285  20
   3  -2  12 163.258 100.107  14
  -3   1  13 1602.98 279.752  16
  -3   1  12 1081.81 316.552  16
  -3   1  12 862.676 268.029  14
  -3   1  11 8764.61 875.278  14
  -3   1  10-276.567 242.292  15
  -3   1  10 424.749 227.139  14
  -3   1   9 113.395 171.995  15
  -3   1   9-197.427 219.780  14
  -3   1   8 13357.7 1100.69   9
  -3   1   8 10754.6 927.069   8
  -3   1   8 13309.9 1052.38  15
  -3   1   8 12758.6 1044.65  14
  -3   1   7 44578.8 2736.13   3
   3  -1  -6 231.212 132.988   6
  -3   1   6-6.40734 175.109   3
  -3   1   5 52525.0 2800.84   3
   3  -1  -5 55263.1 2099.64   6
  -3   1   4 2289.42 492.033   3
   3  -1  -4 2863.26 336.810   6
  -3   1   3 189372. 6404.21   3
  -3   1   3 177204. 6378.49   2
  -3   1   2 3559.15 594.438   3
  -3   1   2 4325.21 668.572   2
  -3   1   1 184462. 6225.17   5
  -3   1   1 193887. 6488.41   2
  -3   1   0 31726.7 1837.61   5
  -3   1   0 29949.0 1862.74   2
  -3   1  -1 109771. 4407.97   2
  -3   1  -1 109990. 4356.19   5
  -3   1  -2 528.916 320.102   5
  -3   1  -2 443.685 252.660   2
  -3   1  -3 2247.19 566.394   2
  -3   1  -4 24562.2 1997.28   2
  -3   1  -5 18931.3 1842.01   2
  -3   1  -6 15514.7 1714.29   2
  -3   1  -6 14904.5 1198.75  20
  -3   1  -7 1061.49 490.440   2
  -3   1  -7 1776.09 442.745  20
  -3   1  -8 1619.49 489.047  20
  -3   1  -9 20610.2 1571.01  20
  -3   1 -10 17958.3 1359.54  20
   3  -1  11 1508.46 308.455  14
  -3   1 -11 1548.98 341.144  20
  -3   0  13 353.623 201.339  16
  -3   0  12 2130.59 422.862  16
  -3   0  12 2145.95 356.414  14
  -3   0  11 8.05513 175.799  14
  -3   0  10 14048.0 1141.14   8
  -3   0  10 13381.0 1084.42  14
  -3   0   9 6166.15 733.428   8
  -3   0   9 7709.68 860.204   9
  -3   0   8 34790.0 1874.24   9
  -3   0   8 32393.1 2547.63   3
  -3   0   7 54237.2 3243.56   3
  -3   0   6 35990.0 2407.09   3
  -3   0   5 91417.4 4096.74   3
  -3   0   4 79653.3 3496.61   3
   3   0  -4 70104.8 2373.61   6
  -3   0   4 75381.3 3116.02   2
  -3   0   3 2881.66 515.657   2
  -3   0   3 3346.89 473.509   4
  -3   0   3 3026.53 591.618   3
  -3   0   2 1106.98 373.804   3
  -3   0   2 868.305 306.970   2
  -3   0   1 3768.34 601.825   2
  -3   0   0 5952.21 775.081   2
  -3   0  -1 15110.9 1304.41   2
  -3   0  -2 259234. 8800.56   2
  -3   0  -3 12899.3 1358.22   2
  -3   0  -4 8661.54 1204.18   2
  -3   0  -5 18394.9 1758.48   4
  -3   0  -5 18192.0 1853.82   2
  -3   0  -6 7835.00 1154.45   4
  -3   0  -6 9717.66 981.107  20
  -3   0  -6 9161.21 1387.57   2
  -3   0  -7 91.6113 180.099  20
  -3   0  -7 147.783 244.777   2
  -3   0  -8 16676.4 1405.02  20
  -3   0  -9 716.632 310.873  20
  -3   0 -10 322.206 245.504  20
   3   0  10 565.993 242.946  14
  -3   0 -11 3140.59 466.114  20
  -3   0 -11 3204.92 381.874   7
  -3  -1  13 1144.21 268.508  16
  -3  -1  12 13873.9 1106.80  16
  -3  -1  11-260.908 211.562   9
  -3  -1  11-117.802 216.192  16
  -3  -1  11-364.812 277.958   8
  -3  -1  10 5472.80 724.111   9
  -3  -1  10 5020.95 676.763   8
  -3  -1   9 9270.31 1438.57   3
  -3  -1   9 10528.9 957.764   8
  -3  -1   9 11747.8 1060.60   9
  -3  -1   8 6181.29 716.723   9
  -3  -1   8 5425.69 1066.87   3
  -3  -1   7 7009.10 1103.12   3
  -3  -1   6 230.982 239.012   3
  -3  -1   5 61856.3 3296.98   3
  -3  -1   4 677.982 230.179   2
  -3  -1   4 1390.50 448.505   3
  -3  -1   3 136780. 4962.97   4
  -3  -1   3 141968. 4836.86   2
  -3  -1   3 146162. 5486.83   3
  -3  -1   2 310.822 215.434   2
  -3  -1   2 184.256 209.819   4
  -3  -1   2 270.111 252.219   3
  -3  -1   1 241227. 7986.04   4
  -3  -1   1 238457. 7794.51   2
  -3  -1   1 238395. 8090.07   3
  -3  -1   0 148062. 5472.33   2
  -3  -1   0 149826. 5608.05   4
  -3  -1  -1 46666.4 2593.36   2
  -3  -1  -1 44344.6 2566.88   4
  -3  -1  -2 249.555 256.891   4
  -3  -1  -2 427.690 405.519   2
  -3  -1  -3 39311.6 2645.89   2
  -3  -1  -3 38308.6 2568.29   4
  -3  -1  -4 59.6183 230.917   4
  -3  -1  -4 366.359 316.911   2
  -3  -1  -5 25359.6 2347.95   2
  -3  -1  -5 22588.1 2007.97   4
  -3  -1  -5 24739.1 1600.42  20
  -3  -1  -6 3983.89 969.519   2
  -3  -1  -6 3945.24 642.949  20
  -3  -1  -7 10867.6 1106.35  20
   3   1   8 2067.24 437.507  14
  -3  -1  -8 1688.68 459.363  20
   3   1   9 22782.8 1412.23  14
  -3  -1  -9 29401.4 1781.19  20
  -3  -1 -10 4557.18 528.456   7
   3   1  10 3517.60 431.033  14
  -3  -1 -10 5019.29 621.085  20
  -3  -1 -11 3584.87 358.020   7
  -3  -2  13 1315.46 258.210  16
  -3  -2  12 181.116 191.587   8
  -3  -2  12-1.39445 201.195  16
  -3  -2  11 1064.05 340.656   9
  -3  -2  11 1366.34 363.883   8
  -3  -2  11 1563.71 369.612  16
  -3  -2  10 355.565 189.735   9
  -3  -2  10 278.515 223.057   8
  -3  -2  10 702.103 303.685  16
  -3  -2   9 6233.32 726.174   8
  -3  -2   9 6123.75 768.410   9
  -3  -2   9 5095.55 683.543  16
  -3  -2   9 5359.35 1126.94   3
  -3  -2   8 1608.18 420.819   9
  -3  -2   8 1229.73 296.572   8
  -3  -2   8 1491.46 369.836  16
  -3  -2   8 902.420 232.714  19
  -3  -2   8 1583.62 631.650   3
  -3  -2   7 17653.1 1870.86   3
  -3  -2   6 4880.21 945.255   3
  -3  -2   5 12307.3 1391.52   3
  -3  -2   4 111278. 4862.41   3
  -3  -2   4 108799. 4289.35   1
  -3  -2   3 18690.7 1470.85   1
  -3  -2   3 20252.9 1680.18   3
  -3  -2   2 25899.7 1559.19   2
  -3  -2   2 25878.3 1914.29   3
  -3  -2   1 118.543 225.875   4
  -3  -2   1 209.039 234.390   2
  -3  -2   0 90591.7 3961.26   2
  -3  -2   0 90460.1 4191.78   4
  -3  -2  -1 62751.2 3409.02   4
  -3  -2  -1 62840.7 3309.25   2
  -3  -2  -2 137639. 5775.89   2
  -3  -2  -2 129506. 5681.20   4
  -3  -2  -3 4529.48 894.004   4
  -3  -2  -3 4727.07 952.365   2
  -3  -2  -4 5744.73 719.548  20
  -3  -2  -4 5443.28 1049.77   2
  -3  -2  -5 13391.2 1733.97   2
  -3  -2  -5 12781.8 1180.72  20
  -3  -2  -6 31965.6 2031.51  20
  -3  -2  -7 8344.88 896.359   7
  -3  -2  -7 8495.36 975.047  20
  -3  -2  -8 6255.28 792.150  20
  -3  -2  -8 5399.68 694.332   7
  -3  -2  -9 443.277 243.452   7
  -3  -2 -10 2946.21 375.689   7
  -3  -3  13 111.221 84.7834   8
  -3  -3  12 5855.71 628.187   9
  -3  -3  12 5592.69 607.151   8
  -3  -3  12 5760.93 566.190  16
  -3  -3  11 227.865 207.064   9
  -3  -3  11 173.742 180.242   8
  -3  -3  11-14.1712 142.838  16
  -3  -3  10 7792.71 880.191   9
  -3  -3  10 8679.09 876.715   8
  -3  -3  10 8479.70 832.069  16
  -3  -3   9 2627.31 525.393   9
  -3  -3   9 2823.30 490.204   8
  -3  -3   9 2159.28 421.526  16
  -3  -3   8 14103.2 1110.74   8
  -3  -3   8 17750.3 1347.71   9
  -3  -3   8 18070.3 1361.89  19
  -3  -3   8 14629.7 1827.68   3
  -3  -3   7 293.216 205.927  19
  -3  -3   7 53.1014 300.188   3
  -3  -3   6 27103.5 1576.41  10
  -3  -3   6 25419.0 2280.53   3
  -3  -3   6 27469.3 1595.99  19
  -3  -3   5-286.260 348.898   3
  -3  -3   4 2866.35 635.187   1
  -3  -3   4 3338.48 744.180   3
  -3  -3   3 37966.0 2555.25   3
  -3  -3   3 36852.1 2530.02   1
  -3  -3   2 4100.34 736.201   3
  -3  -3   1 52083.2 2699.25   2
  -3  -3   0 37538.4 2397.85   2
  -3  -3  -1 73652.8 3864.51   2
  -3  -3  -2 3887.25 552.198   7
  -3  -3  -2 3118.64 762.239   2
  -3  -3  -3 94234.2 4945.06   2
  -3  -3  -3 90651.0 3600.29   7
  -3  -3  -3 85186.8 3598.38  20
  -3  -3  -4 77163.8 4560.42   2
  -3  -3  -4 75941.9 3314.99   7
  -3  -3  -4 78138.3 3443.26  20
  -3  -3  -5 2691.76 504.198   7
  -3  -3  -6 1407.73 410.469   7
  -3  -3  -7 3358.61 536.548   7
  -3  -3  -8 2710.57 459.745   7
  -3  -3  -9 3572.70 417.800   7
  -3  -4  12 457.233 206.648   9
  -3  -4  12 535.060 183.232   8
  -3  -4  11 1755.56 374.375   9
  -3  -4  11 2381.04 386.755   8
  -3  -4  10 851.183 369.181   9
  -3  -4  10 1451.22 372.112   8
  -3  -4   9 3787.23 590.095   8
  -3  -4   9 4038.31 648.046   9
  -3  -4   8 501.966 329.572  19
  -3  -4   8-236.748 217.676   8
  -3  -4   7 15667.3 1268.73  19
  -3  -4   7 12935.2 1031.78   8
  -3  -4   7 12692.5 1034.40  17
  -3  -4   7 12395.4 1673.48   3
  -3  -4   7 14382.3 1206.68  10
  -3  -4   6 1954.57 418.882  19
  -3  -4   6 1848.62 405.525  17
  -3  -4   6 1376.76 397.741  10
  -3  -4   6 2120.56 703.817   3
  -3  -4   5 46707.6 2286.09  19
  -3  -4   5 44503.2 2309.90   7
  -3  -4   5 44947.8 3152.64   3
  -3  -4   5 41612.9 2957.92   1
  -3  -4   5 46788.4 2277.59  10
  -3  -4   4 7444.82 785.796  19
  -3  -4   4 8079.58 1254.50   1
  -3  -4   4 8012.78 1187.10   3
  -3  -4   4 7029.31 805.259   7
  -3  -4   4 7377.50 776.815  10
  -3  -4   3 57493.9 2549.26  10
  -3  -4   3 63009.2 3855.25   1
  -3  -4   3 59407.8 2682.41   7
  -3  -4   3 60528.2 3438.47   3
  -3  -4   2-105.457 202.968   7
  -3  -4   1 14494.1 1133.41   7
  -3  -4   0-107.818 199.303   7
  -3  -4  -1 40264.4 2864.89   2
  -3  -4  -1 49560.7 2383.43   7
  -3  -4  -2 4.61603 159.164   7
  -3  -4  -2 118.451 329.587   2
  -3  -4  -3 9658.06 980.123   7
  -3  -4  -4 21678.0 1547.90   7
  -3  -4  -5 2613.25 542.801   7
  -3  -4  -6 15603.2 1208.17   7
  -3  -4  -7 2665.15 430.031   7
  -3  -4  -8 5127.81 499.544   7
  -3  -5  12 689.200 179.389   9
  -3  -5  11 118.795 174.222   9
  -3  -5  11 95.8680 146.133   8
  -3  -5  10 10544.0 944.651   9
  -3  -5  10 9927.78 833.748   8
  -3  -5   9 4687.45 609.688   8
  -3  -5   9 4652.27 685.385   9
  -3  -5   8 7904.02 811.832  17
  -3  -5   8 8873.23 841.635   8
  -3  -5   7 2142.16 485.574  10
  -3  -5   7 1538.89 401.070  17
  -3  -5   7 1967.64 478.416  19
  -3  -5   7 2448.72 448.800   8
  -3  -5   6 20648.6 1523.38  19
  -3  -5   6 21082.1 1465.38  17
  -3  -5   6 20223.4 1480.72  10
  -3  -5   5 5605.98 748.052  10
  -3  -5   5 4910.67 696.711  19
  -3  -5   4 7487.02 859.055  10
  -3  -5   4 7859.35 856.481  19
  -3  -5   4 7518.18 899.512   7
  -3  -5   4 6103.56 1185.48   1
  -3  -5   3 634.568 295.416  19
  -3  -5   3 423.853 277.874   7
  -3  -5   3 811.784 326.760  10
  -3  -5   2 10221.0 921.468  19
  -3  -5   2 10846.3 1073.37   7
  -3  -5   1 306.644 299.049   7
  -3  -5   0 6090.60 778.254   7
  -3  -5  -1 22885.7 1596.64   7
  -3  -5  -2 13420.7 1182.89   7
   3   5   2 12009.9 996.410  20
  -3  -5  -3 6578.33 800.706   7
  -3  -5  -4 12561.3 1082.23   7
   3   5   5 7262.24 723.984  20
  -3  -5  -5 7416.56 761.489   7
   3   5   6 2359.38 362.615  20
  -3  -5  -6 2502.58 383.440   7
   3   5   7 1185.20 206.920  20
  -3  -5  -7 1639.58 248.985   7
  -3  -6  11-91.9548 97.9463   9
  -3  -6  10 577.065 213.843   9
  -3  -6  10 670.827 190.372   8
  -3  -6   9 1149.89 335.694   9
  -3  -6   9 1738.32 335.901   8
  -3  -6   8 843.712 295.280  17
  -3  -6   8 766.235 266.033   8
  -3  -6   7 1241.71 335.098  17
  -3  -6   7 795.749 240.434   8
  -3  -6   7 1820.73 484.044  10
  -3  -6   6 99.8253 251.301  10
  -3  -6   6 188.166 252.579  19
  -3  -6   6 44.5334 197.463  17
  -3  -6   6 168.871 143.356   8
  -3  -6   5 14305.0 1162.44  19
  -3  -6   5 15195.1 1266.45  17
  -3  -6   5 14804.4 1233.42  10
  -3  -6   4 1650.58 421.799  10
  -3  -6   4 2084.93 438.166  19
  -3  -6   4 1730.30 452.817   7
  -3  -6   3 33078.8 1882.08  10
  -3  -6   3 29568.0 1899.44   7
  -3  -6   2 779.651 321.418  10
  -3  -6   2 813.191 354.253   7
  -3  -6   1 37253.2 2128.21   7
  -3  -6   0 1867.72 413.440   7
  -3  -6  -1 32834.4 1898.17   7
  -3  -6  -2 175.254 205.244   7
  -3  -6  -3 4290.16 556.191   7
   3   6   4 899.509 219.285  20
  -3  -6  -4 1579.51 306.549   7
  -3  -6  -5 1348.72 231.582   7
  -3  -7   9 262.089 153.014   9
  -3  -7   8 7225.89 667.334   9
  -3  -7   7 834.897 286.003  17
  -3  -7   6 19082.8 1285.51  10
  -3  -7   6 17403.1 1208.75  17
  -3  -7   5 8387.18 827.175  17
  -3  -7   5 8182.92 809.958  10
  -3  -7   4 10400.7 940.150  17
  -3  -7   4 11313.8 980.042  10
  -3  -7   3 6098.52 724.472  17
  -3  -7   3 5085.39 619.226  10
  -3  -7   2 9225.58 866.045  17
  -3  -7   2 8184.17 820.569   7
  -3  -7   2 9010.92 814.457  10
  -3  -7   1 2665.07 452.413  17
  -3  -7   1 2843.50 442.074  10
  -3  -7   1 3041.84 477.178   7
  -3  -7   0 9190.33 759.938  17
  -3  -7   0 9782.66 819.361   7
  -3  -7   0 9202.10 705.910  10
  -3  -7  -1-169.629 119.878  17
  -3  -7  -1-171.602 118.614   7
  -3  -7  -2 3737.62 398.428   7
  -3  -8   7 59.4887 101.897   9
  -3  -8   4 1402.09 269.145  10
  -3  -8   4 1287.12 249.282  17
  -3  -8   3 3733.53 407.375  17
  -3  -8   3 4239.33 423.095  10
  -3  -8   2 2025.60 271.520  10
  -3  -8   2 1592.83 236.212  17
  -4   9   1 5074.38 428.555  20
  -4   9   0 1534.56 258.726  20
  -4   9  -1 10167.6 723.357  20
  -4   9  -2 837.176 232.785  20
  -4   9  -3 2875.66 359.812  20
  -4   9  -4 461.075 152.481  20
  -4   8   5 73.5495 65.4867  11
  -4   8   4 3495.87 373.006  11
  -4   8   4 3316.15 369.261  20
  -4   8   3 319.497 171.056  20
  -4   8   3 138.045 106.235  11
  -4   8   2 7596.42 649.962  11
  -4   8   2 8507.84 748.587  20
  -4   8   1 577.852 204.045  20
  -4   8   1 886.444 244.289  11
  -4   8   0 4014.60 566.608  20
  -4   8  -1 893.561 339.442  20
  -4   8  -2 25656.6 1553.52  20
  -4   8  -3 382.284 229.030  20
  -4   8  -4 6733.19 734.661  20
  -4   8  -5 3224.25 474.973  20
  -4   8  -6 8973.19 761.784  20
  -4   8  -7 1222.57 253.971  20
  -4   7   6 549.680 191.465  15
  -4   7   5 1775.64 309.450  20
  -4   7   5 1369.38 262.651  15
  -4   7   4 2900.56 436.221  20
  -4   7   3 1856.78 374.047  20
  -4   7   2-187.798 288.954  20
   4  -7  -1 6182.87 725.441   6
  -4   7   1 7024.75 766.915  11
  -4   7   1 7108.59 816.085  20
   4  -7   0 2091.86 428.312   6
  -4   7   0 2437.84 509.259  20
  -4   7   0 2625.59 443.276  11
  -4   7  -1 14305.0 1204.00  20
  -4   7  -1 13265.3 1026.22  11
  -4   7  -2-182.399 263.685  20
  -4   7  -3 24278.1 1653.00  20
  -4   7  -4-427.533 303.579  20
  -4   7  -5 36364.9 2045.25  20
  -4   7  -6 8.94529 187.543  20
  -4   7  -7 8446.71 822.813  20
  -4   7  -8 2822.64 435.782  20
  -4   7  -9 16570.5 894.235  20
  -4   6   9 814.035 164.246  15
  -4   6   8 8065.40 673.827  15
  -4   6   7 11224.5 918.085  15
  -4   6   6 5707.64 669.705  15
  -4   6   5 13133.7 1065.32  15
   4  -6  -5 10258.6 983.779   6
  -4   6   5 11583.8 943.099  20
  -4   6   4 2382.10 452.468  20
   4  -6  -4 2092.82 483.732   6
  -4   6   4 1425.26 319.854  15
  -4   6   3 5771.08 695.335  20
   4  -6  -3 5994.25 773.608   6
  -4   6   2 2345.97 462.046  20
   4  -6  -2 2509.84 510.416   6
   4  -6  -1 11767.2 1078.61   6
  -4   6   1 10974.5 1021.06  20
   4  -6   0 3301.32 556.725   6
  -4   6   0 3399.15 594.480  20
  -4   6   0 3580.39 560.971  11
  -4   6  -1 2266.97 505.685  20
  -4   6  -1 2398.05 461.538  11
   4  -6   1 2303.11 454.112   6
   4  -6   2 25561.0 1616.04   6
  -4   6  -2 24477.5 1508.58  11
  -4   6  -2 29723.1 1811.53  20
  -4   6  -3 5871.15 772.455  20
   4  -6   3 5197.70 660.802   6
  -4   6  -4 20246.9 1535.09  20
  -4   6  -5 103.780 221.717  20
  -4   6  -6 41477.7 2307.77  20
  -4   6  -7 6182.89 792.624  20
  -4   6  -8 5218.40 669.642  20
  -4   6  -9 168.792 174.843  20
  -4   6 -10 8408.69 607.895  20
  -4   5  10 7004.88 560.748  15
  -4   5   9 1124.71 314.759  15
  -4   5   8 17188.1 1257.17  15
  -4   5   7 6721.33 784.130  15
   4  -5  -6 1576.91 420.665   6
  -4   5   6 801.821 323.990  15
  -4   5   5 15666.0 1263.97  15
   4  -5  -5 14517.5 1241.07   6
  -4   5   4 51705.6 2457.57  15
  -4   5   4 47076.6 2256.47  20
  -4   5   3 715.170 268.540  20
  -4   5   3 475.506 288.585  15
   4  -5  -2 29904.8 1756.86   6
  -4   5   2 24000.9 1500.42  20
  -4   5   1 2497.52 450.132  20
  -4   5   1 2260.54 691.191   5
   4  -5  -1 2846.51 530.679   6
  -4   5   0 60765.3 3725.00   5
  -4   5   0 57425.2 2683.08  20
  -4   5  -1 1027.44 330.373  20
  -4   5  -1 1306.17 532.441   5
   4  -5   1 283.513 239.740   1
  -4   5  -1 789.636 276.438  11
   4  -5   2 5263.79 982.215   1
  -4   5  -2 6219.15 760.679  20
  -4   5  -2 6307.80 1216.12   5
  -4   5  -2 5067.85 609.163  11
  -4   5  -3 1783.98 434.662  20
  -4   5  -3 1347.83 635.378   5
   4  -5   3 1315.84 552.488   1
  -4   5  -3 1244.87 312.796  11
  -4   5  -4 1037.89 496.017   5
  -4   5  -4 2279.94 502.290  20
  -4   5  -4 1787.91 367.221  11
  -4   5  -5 9683.21 1033.69  20
  -4   5  -6 1259.19 409.098  20
  -4   5  -7 31506.5 1991.16  20
  -4   5  -8 4.45031 256.451  20
  -4   5  -9 14369.7 1115.37  20
  -4   5 -10 1862.09 335.664  20
  -4   4  11 1730.27 258.098  15
  -4   4  10 310.402 215.136  15
  -4   4   9 11184.5 1004.90  15
   4  -4  -8 2768.15 487.531   6
  -4   4   8 3567.16 582.201  15
  -4   4   7 62735.2 2909.45  15
   4  -4  -7 55613.4 2725.43   6
  -4   4   6 9606.18 987.749  15
   4  -4  -6 9101.60 945.967   6
   4  -4  -5 5146.50 696.995   6
  -4   4   5 4691.88 679.127  15
   4  -4  -4 3498.69 563.473   6
  -4   4   4 3442.80 532.090  15
   4  -4  -3 16263.2 1222.79   6
  -4   4   2 3913.26 715.508   5
   4  -4  -2 3773.06 566.718   6
  -4   4   1 23806.3 1974.64   5
  -4   4   0 6376.25 1049.68   5
  -4   4   0 5585.53 995.802   2
  -4   4  -1 13900.1 1605.36   5
  -4   4  -1 11980.2 1475.05   2
  -4   4  -2 15377.6 1729.26   5
  -4   4  -2 15772.5 1733.14   2
  -4   4  -3 28777.7 2363.58   2
  -4   4  -3 28667.8 1688.67  20
  -4   4  -3 29505.5 2536.73   5
  -4   4  -4 8724.71 1353.00   5
  -4   4  -4 10159.1 989.239  20
  -4   4  -4 8400.96 803.026  11
  -4   4  -5 9606.66 1501.95   5
  -4   4  -5 7446.02 778.905  11
  -4   4  -5 9570.78 994.061  20
  -4   4  -6 10008.1 1068.94  20
  -4   4  -7 3493.15 621.533  20
  -4   4  -8 14210.6 1234.47  20
  -4   4  -9 36.7604 218.594  20
  -4   4 -10 19235.4 1244.64  20
  -4   4 -11 30.1525 133.073  20
  -4   3  11 835.135 237.489  16
  -4   3  11 484.794 213.904  15
  -4   3  10 6851.61 683.916  16
  -4   3  10 8646.43 824.495  15
  -4   3   9 31463.7 1759.25  16
  -4   3   9 36252.3 2004.29  15
   4  -3  -8 4720.56 645.944   6
  -4   3   8 5644.21 686.170  16
  -4   3   8 6747.36 805.649  15
  -4   3   7 20997.9 1472.73  15
  -4   3   7 16148.1 1196.94  16
   4  -3  -7 19372.2 1351.22   6
  -4   3   6 16557.7 1272.24  15
   4  -3  -6 17446.8 1270.14   6
   4  -3  -5 1686.69 403.486   6
  -4   3   5 1470.30 354.525  15
   4  -3  -4 27889.6 1588.58   6
   4  -3  -3-164.594 198.002   6
  -4   3   2 9025.52 1025.14   5
  -4   3   2 8531.64 1186.56   2
  -4   3   1 12210.5 1302.00   5
  -4   3   1 12638.4 1474.00   2
  -4   3   0 96205.4 4431.56   5
  -4   3   0 95167.9 4684.49   2
  -4   3  -1 4003.14 778.246   5
  -4   3  -1 3862.70 834.456   2
  -4   3  -2 23301.0 2078.94   2
  -4   3  -2 25397.5 2149.09   5
  -4   3  -3 18946.1 1903.14   5
  -4   3  -3 19137.5 1866.25   2
  -4   3  -4 60730.0 3763.08   5
  -4   3  -4 60066.1 3616.25   2
  -4   3  -4 54581.5 2600.11  20
  -4   3  -5 9421.76 1318.96   2
  -4   3  -5 10244.1 921.957  11
  -4   3  -5 12425.0 1108.55  20
  -4   3  -6 44255.0 2407.62  20
  -4   3  -7 4728.01 723.752  20
  -4   3  -8 13490.5 1238.61  20
  -4   3  -9 929.942 358.532  20
  -4   3 -10 2488.21 460.690  20
  -4   3 -11 4365.04 471.770  20
  -4   2  12 6880.51 606.583  16
  -4   2  11 459.863 202.936  16
  -4   2  11 44.1877 160.720  15
  -4   2  10 283.736 231.793  16
  -4   2  10 365.232 245.693  15
  -4   2   9 31757.1 1884.19  16
  -4   2   9 33961.8 1941.41  15
  -4   2   8 8305.77 888.226  16
  -4   2   8 8638.67 921.879  15
  -4   2   8 7501.19 813.671  14
  -4   2   7 23496.2 1484.90  16
  -4   2   7 26739.3 1608.69  15
  -4   2   7 21496.2 1400.82  14
   4  -2  -7 24027.8 1422.22   6
  -4   2   6 3571.09 531.114  15
   4  -2  -6 3862.70 515.063   6
   4  -2  -5 19750.9 1216.75   6
   4  -2  -4 10975.1 856.414   6
  -4   2   3 48564.8 2955.60   2
  -4   2   2 61773.4 2925.33   5
  -4   2   2 56846.8 3252.70   2
  -4   2   1 48065.7 2666.68   5
  -4   2   1 48522.2 2940.74   2
  -4   2   0 7288.68 992.923   5
  -4   2   0 5994.52 986.382   2
  -4   2  -1 64261.0 3421.05   5
  -4   2  -1 62510.2 3470.56   2
  -4   2  -2 301.781 259.488   2
  -4   2  -2 888.189 470.689   5
  -4   2  -3 47557.6 3107.95   2
  -4   2  -4 721.760 283.832   2
  -4   2  -5 23859.6 2256.51   2
  -4   2  -5 24456.6 1610.22  20
  -4   2  -6 6482.20 819.609  20
  -4   2  -6 4913.07 953.744   2
  -4   2  -7 45296.6 2486.94  20
  -4   2  -8 4390.75 697.015  20
  -4   2  -9 17729.8 1356.03  20
  -4   2 -10 795.522 267.469  20
  -4   2 -11 547.816 183.706  20
   4  -2  11 279.498 105.626  14
  -4   1  13-62.3556 123.796  16
  -4   1  12 5801.34 626.791  16
  -4   1  11 13700.7 1121.07  16
  -4   1  10 412.818 256.329  16
  -4   1  10-14.3313 158.494  15
  -4   1   9 47138.8 2446.59  16
  -4   1   9 47251.1 2343.13  15
  -4   1   8 31348.1 1876.17   9
  -4   1   8 31845.1 1868.24  16
  -4   1   8 33524.2 1866.10  15
  -4   1   7-48.9415 152.678   9
  -4   1   7 324.366 206.329  16
  -4   1   7-143.010 217.733  15
  -4   1   7-307.852 470.143   3
  -4   1   6 20535.9 1908.27   3
  -4   1   5 71643.2 3773.74   3
   4  -1  -5 71761.9 2655.63   6
  -4   1   4 609.450 361.488   3
  -4   1   4 769.714 405.976   2
   4  -1  -4 1146.47 231.855   6
  -4   1   3 150.139 243.473   3
  -4   1   3 199.395 202.012   2
  -4   1   2 15080.5 1465.88   2
  -4   1   1 9216.36 1114.78   2
  -4   1   0 60891.8 3275.21   2
  -4   1  -1-33.2529 245.945   2
  -4   1  -2 22881.5 1976.57   2
  -4   1  -3 17.2803 252.177   2
  -4   1  -4 57028.6 3627.10   2
  -4   1  -5 973.300 388.683   2
  -4   1  -5 592.492 223.622  20
  -4   1  -6 16510.5 1857.88   4
  -4   1  -6 17415.4 2010.91   2
  -4   1  -7 100.255 336.522  20
  -4   1  -8 9513.38 1026.36  20
  -4   1  -9 5673.06 759.515  20
   4  -1  10 3427.35 442.188  14
  -4   1 -10 9045.87 795.942  20
  -4   1 -11 1970.08 301.134  20
  -4   0  13 1321.88 286.600  16
  -4   0  12 4405.78 574.510  16
  -4   0  11 1390.29 382.381  16
  -4   0  10 17599.8 1368.94   9
  -4   0  10 18017.2 1384.60  16
  -4   0   9 11600.6 1095.74   9
  -4   0   9 10580.8 1042.62  16
  -4   0   8 62737.4 2790.65   9
  -4   0   8 62565.2 2788.36  16
  -4   0   8 57299.1 2562.80  15
  -4   0   7 339.289 171.495   9
  -4   0   7 856.458 303.063  16
  -4   0   7 569.759 196.908  15
  -4   0   7 750.603 493.290   3
  -4   0   6 14957.1 1665.76   3
  -4   0   5 20142.1 1873.85   3
  -4   0   4 2450.73 551.263   2
  -4   0   4 2537.15 612.143   3
  -4   0   3 365.875 237.999   3
  -4   0   3 952.315 375.799   2
  -4   0   3 347.425 194.006   4
  -4   0   2 77985.9 3539.46   4
  -4   0   2 78486.6 3653.32   2
  -4   0   1 23272.9 1804.16   2
  -4   0   0 840.351 423.941   2
  -4   0  -1 25416.8 2042.75   2
  -4   0  -2-19.2528 269.944   2
  -4   0  -3 15052.7 1692.13   2
  -4   0  -4 395.877 389.216   4
  -4   0  -4 80.8334 369.790   2
  -4   0  -5 17729.4 2037.71   2
  -4   0  -5 15497.4 1807.20   4
  -4   0  -5 17491.8 1349.23  20
  -4   0  -6 247.428 177.889  20
  -4   0  -7 48240.6 2599.00  20
  -4   0  -8 321.194 196.799  20
  -4   0  -8 17.8545 145.945   7
  -4   0  -9 8131.09 714.482   7
  -4   0  -9 9901.61 937.968  20
  -4   0 -10 1767.98 337.639  20
  -4   0 -10 1158.24 205.104   7
  -4  -1  13 434.321 170.451  16
  -4  -1  12-155.384 188.948  16
  -4  -1  11 1354.60 386.445   9
  -4  -1  11 1175.40 374.062  16
  -4  -1  10 4375.72 667.762   9
  -4  -1  10 3628.38 602.877  16
  -4  -1   9 41230.5 2247.42   9
  -4  -1   9 39675.5 2194.15  16
  -4  -1   8 43115.4 2198.02   9
  -4  -1   8 33875.0 1838.47  19
  -4  -1   8 43171.6 2176.78  16
  -4  -1   8 36623.6 3036.47   3
  -4  -1   7 19290.3 1309.49   9
  -4  -1   7 18080.2 1276.77  16
  -4  -1   7 16928.2 1951.47   3
  -4  -1   6 3408.48 868.926   3
  -4  -1   5 66188.9 3797.99   3
  -4  -1   4-15.8706 372.103   3
  -4  -1   3 13032.0 1250.19   4
  -4  -1   3 12218.0 1175.67   2
  -4  -1   3 13796.9 1520.88   3
  -4  -1   2 586.926 403.316   3
  -4  -1   2 413.919 244.729   2
  -4  -1   2 689.284 339.162   4
  -4  -1   1 9153.56 1130.97   4
  -4  -1   1 7993.98 1045.49   2
  -4  -1   0 51853.9 3088.03   4
  -4  -1   0 50474.6 2995.42   2
  -4  -1  -1 2459.13 639.250   4
  -4  -1  -1 2459.43 656.377   2
  -4  -1  -2 20303.5 1969.36   2
  -4  -1  -2 19271.1 1913.58   4
  -4  -1  -3 1613.91 645.044   4
  -4  -1  -3 2301.17 718.528   2
  -4  -1  -4 46211.0 3345.74   2
  -4  -1  -4 40639.3 3041.84   4
  -4  -1  -4 41602.6 2111.05   7
  -4  -1  -4 41453.6 2169.75  20
  -4  -1  -5 7799.81 1269.17   4
  -4  -1  -5 9367.67 916.738   7
  -4  -1  -5 9981.19 1000.00  20
  -4  -1  -5 8733.69 1450.56   2
  -4  -1  -6 13468.2 1144.68   7
  -4  -1  -6 15963.0 1335.68  20
  -4  -1  -7 5592.06 766.113  20
  -4  -1  -7 5127.33 662.092   7
  -4  -1  -8 17132.1 1116.80  18
  -4  -1  -8 18127.9 1220.88   7
  -4  -1  -8 20829.3 1427.82  20
  -4  -1  -9 249.792 199.060  20
  -4  -1  -9 0.52838 127.351   7
  -4  -2  13 1227.76 222.658  16
  -4  -2  12 3794.50 506.978   9
  -4  -2  12 4341.39 514.129  16
  -4  -2  11 2462.68 509.541   9
  -4  -2  11 2306.61 453.424  16
  -4  -2  10 11509.9 1082.09   9
  -4  -2  10 11833.5 1053.50  16
  -4  -2   9 1472.88 400.387   9
  -4  -2   9 751.111 237.696  16
  -4  -2   8 14178.8 1205.94   9
  -4  -2   8 13136.3 1123.31  19
  -4  -2   8 14194.9 1144.82  16
  -4  -2   8 12058.1 1705.28   3
  -4  -2   7 1743.85 391.964  16
  -4  -2   7 2079.68 413.524   9
  -4  -2   7 2198.30 421.883  19
  -4  -2   7 2209.83 682.482   3
  -4  -2   6 11062.1 955.375  19
  -4  -2   6 10200.5 878.242  16
  -4  -2   6 11656.5 1572.72   3
  -4  -2   5 40589.2 2973.59   3
  -4  -2   4 2783.08 790.302   3
  -4  -2   3 14259.8 1610.33   3
  -4  -2   2 162938. 6069.17   2
  -4  -2   1 6338.26 900.985   2
  -4  -2   1 6091.77 985.259   4
  -4  -2   0 38360.9 2766.93   4
  -4  -2   0 36590.2 2563.39   2
  -4  -2  -1 25873.2 2274.51   4
  -4  -2  -1 26777.7 2271.02   2
  -4  -2  -2 21682.0 1409.21  18
  -4  -2  -2 26288.9 2333.59   2
  -4  -2  -2 21506.6 2135.76   4
  -4  -2  -2 21211.0 1392.73   7
  -4  -2  -3 1183.94 535.038   4
  -4  -2  -3 1135.70 327.593  18
  -4  -2  -3 1452.32 371.124   7
  -4  -2  -3 1199.58 332.269  20
  -4  -2  -3 624.808 529.055   2
  -4  -2  -4 13720.3 1116.38  18
  -4  -2  -4 14366.3 1855.26   2
  -4  -2  -4 15476.9 1226.09   7
  -4  -2  -4 14800.0 1222.17  20
  -4  -2  -5 690.996 313.168  20
  -4  -2  -5 1039.89 275.444  18
  -4  -2  -5 865.175 313.600   7
  -4  -2  -6 7859.96 776.010  18
  -4  -2  -6 9839.62 970.237   7
  -4  -2  -6 9210.36 978.837  20
  -4  -2  -7 11044.3 975.263   7
  -4  -2  -7 11040.9 1032.56  20
  -4  -2  -8 801.219 237.483   7
  -4  -2  -9 1831.71 278.735   7
  -4  -3  12 131.074 226.196   9
  -4  -3  12 500.842 171.236  16
  -4  -3  11 1431.55 401.782   9
  -4  -3  11 1212.37 289.254  16
  -4  -3  10 13377.6 1155.32   9
  -4  -3  10 12871.0 1000.43  16
  -4  -3   9 49316.3 2496.82   9
  -4  -3   9 45607.8 2216.93  16
  -4  -3   8 81.7913 246.269   9
  -4  -3   8 124.200 251.739  19
  -4  -3   8-24.9328 149.792  16
  -4  -3   7 10639.0 1019.26  19
  -4  -3   7 9021.37 1492.26   3
  -4  -3   6-190.463 285.786  19
  -4  -3   6-158.657 417.082   3
  -4  -3   5 37287.3 1957.70  19
  -4  -3   5 33522.3 1937.84   7
  -4  -3   5 34083.8 2812.54   3
  -4  -3   5 31710.6 1822.33  10
  -4  -3   4 4061.97 899.509   3
  -4  -3   4 3526.21 530.558  19
  -4  -3   4 2964.37 470.431  10
  -4  -3   4 3324.41 532.540   7
  -4  -3   4 4176.09 572.762  13
  -4  -3   3 845.010 453.680   3
  -4  -3   3 1143.35 288.452   7
  -4  -3   3 926.100 261.419  13
  -4  -3   2 7985.53 786.764  18
  -4  -3   2 8751.08 860.519   7
  -4  -3   2 8666.04 822.129  13
  -4  -3   1 49101.3 2311.63  18
  -4  -3   1 51860.9 2394.61   7
  -4  -3   1 45931.7 2232.42  13
  -4  -3   0 11757.9 1011.16  18
  -4  -3   0 10520.7 1347.87   2
  -4  -3   0 12844.1 1060.16   7
  -4  -3   0 10036.3 873.676  13
  -4  -3  -1 23164.4 1506.59  18
  -4  -3  -1 23729.7 2187.34   2
  -4  -3  -1 26869.2 1645.71   7
  -4  -3  -2 253.300 264.338  18
  -4  -3  -2-33.8516 153.287   7
  -4  -3  -2 150.802 335.617   2
  -4  -3  -3 7000.84 788.911  18
  -4  -3  -3 7587.11 873.014   7
  -4  -3  -4 6294.65 706.021  18
  -4  -3  -4 7384.35 863.333   7
  -4  -3  -5 13172.8 1137.96   7
  -4  -3  -6 387.872 240.029   7
  -4  -3  -7 5532.79 613.003   7
  -4  -3  -8 8733.62 649.135   7
  -4  -4  12 2442.01 365.019   9
  -4  -4  11 6569.14 700.055   9
  -4  -4  10 5782.13 734.998   9
  -4  -4   9 7617.74 876.865   9
  -4  -4   8 22970.6 1617.33   9
  -4  -4   8 24919.9 1692.75  19
  -4  -4   7 14502.7 1096.01  17
  -4  -4   7 15669.8 1307.31  19
  -4  -4   6 6976.47 839.721  19
  -4  -4   6 5452.99 759.993  10
  -4  -4   5 762.437 508.472   3
  -4  -4   5 1246.10 374.641  10
  -4  -4   5 1257.65 398.423  19
  -4  -4   5 945.543 336.373   7
  -4  -4   4 3236.68 574.000  10
  -4  -4   4 3521.50 903.926   3
  -4  -4   4 2657.42 494.196  19
  -4  -4   4 2855.81 556.791   7
  -4  -4   3 11608.5 1050.42  19
  -4  -4   3 10729.4 1061.46   7
  -4  -4   3 10046.3 924.419  10
  -4  -4   2 6962.54 796.610  19
  -4  -4   2 6468.88 800.179   7
  -4  -4   2 5722.10 661.867  10
  -4  -4   1-195.557 236.537   7
  -4  -4   0 1559.96 419.118   7
  -4  -4  -1 52803.0 2641.53   7
  -4  -4  -2 23757.3 1639.35   7
  -4  -4  -3 654.840 294.198   7
  -4  -4  -4 9465.81 951.227   7
  -4  -4  -5 971.376 304.414   7
  -4  -4  -6 21794.4 1265.93   7
  -4  -4  -7 1353.50 244.399   7
  -4  -5  11 19.9903 166.689   9
  -4  -5  10 22087.7 1338.76   9
  -4  -5   9 5974.96 743.101   9
  -4  -5   8 379.195 304.998  19
  -4  -5   8 102.761 249.499   9
  -4  -5   8 514.564 237.572  17
  -4  -5   7 7189.12 865.106  19
  -4  -5   7 6800.09 735.124  17
  -4  -5   6 4843.97 708.373  10
  -4  -5   6 4443.34 661.875  19
  -4  -5   6 4340.73 625.389  17
  -4  -5   5 5384.10 705.304  10
  -4  -5   5 6383.62 810.479  19
  -4  -5   4 931.735 349.705  10
  -4  -5   4 942.840 310.158  19
  -4  -5   4 728.628 328.183   7
  -4  -5   3 2042.10 431.808  10
  -4  -5   3 2650.80 517.009  19
  -4  -5   3 2733.71 575.851   7
  -4  -5   2 123.495 198.067  10
  -4  -5   2 404.178 238.946  19
  -4  -5   2 350.290 223.919   7
  -4  -5   1 47816.8 2302.65  19
  -4  -5   1 51171.0 2592.96   7
  -4  -5   1 44235.2 2134.53  10
  -4  -5   0 4488.23 725.577   7
  -4  -5  -1 231.365 238.901   7
  -4  -5  -2 2305.50 477.673   7
  -4  -5  -3 7771.52 805.484   7
  -4  -5  -4 3061.92 490.688   7
  -4  -5  -5 5013.09 517.098   7
  -4  -6  10 732.698 201.740   9
  -4  -6   9 6596.45 651.533   9
  -4  -6   8 3530.20 520.657   9
  -4  -6   7 5089.31 591.468  17
  -4  -6   6 8660.96 858.281  19
  -4  -6   6 8522.12 833.391  17
  -4  -6   5 155.142 193.588  10
  -4  -6   5-51.7733 208.752  19
  -4  -6   5 318.349 249.656  17
  -4  -6   4 10115.6 912.963  19
  -4  -6   4 8643.44 836.536  10
  -4  -6   3 16705.0 1163.32  19
  -4  -6   3 18045.0 1367.32   7
  -4  -6   3 17474.2 1218.43  10
  -4  -6   2 414.991 182.704  10
  -4  -6   2 353.987 289.563   7
  -4  -6   1 902.571 247.820  10
  -4  -6   1 165.139 238.518   7
  -4  -6   0 28100.3 1671.64   7
  -4  -6  -1 57.0608 150.392   7
  -4  -6  -2 6861.42 674.944   7
  -4  -6  -3 3860.55 447.485   7
  -4  -7   8 3838.62 406.514   9
  -4  -7   7 1342.90 277.014   9
  -4  -7   6 5762.22 569.262  17
  -4  -7   5 532.486 213.516  17
  -4  -7   4 297.898 168.482  17
  -4  -7   4 55.7338 125.515  10
  -4  -7   3 8043.85 716.187  17
  -4  -7   3 7817.50 624.551  10
  -4  -7   2 11189.0 813.784  17
  -4  -7   2 8122.67 597.841  10
  -4  -7   1 5618.22 535.822  17
  -4  -7   0 2251.44 297.110  17
  -4  -7   0 2039.98 297.816   7
  -5   8   4 1930.54 256.756  11
  -5   8   3 1205.06 243.452  11
  -5   8   2 1432.79 278.439  20
  -5   8   2 1406.40 263.433  11
  -5   8   1 1624.65 316.447  20
  -5   8   1 1915.48 325.868  11
  -5   8   0 7718.76 627.683  11
  -5   8   0 9275.83 770.195  20
  -5   8  -1 34552.2 1714.73  20
  -5   8  -2 1585.42 343.715  20
  -5   8  -3 17093.9 1110.92  20
  -5   8  -4 9509.44 781.896  20
  -5   8  -5 2499.15 363.342  20
  -5   8  -6 431.509 165.476  20
  -5   7   7-47.5070 81.5425  11
  -5   7   6 1315.36 253.931  11
  -5   7   5 257.725 175.702  11
  -5   7   4 2491.23 412.868  11
  -5   7   3 6930.12 729.191  11
  -5   7   3 7690.88 696.709  20
  -5   7   2 11169.5 963.975  11
  -5   7   2 12505.2 973.039  20
  -5   7   1 19943.5 1313.64  11
  -5   7   1 19544.1 1305.27  20
  -5   7   0 36003.4 1888.23  11
  -5   7   0 36245.0 1949.76  20
  -5   7  -1 38783.5 1946.83  11
  -5   7  -1 39093.5 2074.18  20
  -5   7  -2 2879.38 517.167  20
  -5   7  -2 3221.04 479.775  11
  -5   7  -3 6880.87 788.008  20
  -5   7  -4 13796.7 1107.45  20
  -5   7  -5 2001.33 437.825  20
  -5   7  -6 1190.77 326.957  20
  -5   7  -7 10092.5 778.709  20
  -5   7  -8 643.870 172.664  20
  -5   6   8 8030.23 619.630  15
  -5   6   8 7368.50 561.071  11
  -5   6   7 246.543 184.521  15
  -5   6   6 12612.0 983.563  15
  -5   6   5 2903.71 494.144  15
  -5   6   4 11068.3 933.286  15
   5  -6  -3 165.550 201.035   6
  -5   6   3 18.9930 163.285  20
   5  -6  -2 16194.6 1310.46   6
  -5   6   2 15523.9 1235.11  11
  -5   6   2 15531.6 1158.84  20
   5  -6  -1 7654.19 873.732   6
  -5   6   1 7858.17 861.931  11
  -5   6   1 7254.64 801.599  20
   5  -6   0 20720.5 1501.67   6
  -5   6   0 21664.0 1471.74  11
  -5   6   0 21982.2 1482.28  20
   5  -6   1 38993.8 2170.96   6
  -5   6  -1 39505.9 2096.37  11
  -5   6  -1 39990.7 2159.21  20
  -5   6  -2 5232.53 720.139  20
  -5   6  -2 4243.74 625.607  11
   5  -6   2 4325.42 653.541   6
  -5   6  -3 7252.90 759.813  11
  -5   6  -3 7029.84 839.081  20
  -5   6  -4 12060.2 970.345  11
  -5   6  -4 13554.5 1196.80  20
  -5   6  -5 1272.44 382.298  20
  -5   6  -6 258.178 261.375  20
  -5   6  -7 24838.7 1492.35  20
  -5   6  -8 17167.0 1093.68  20
  -5   6  -9 1647.42 260.455  20
  -5   5  10 1427.77 214.169  15
  -5   5   9 3119.60 430.206  15
  -5   5   8 2694.92 448.588  15
  -5   5   7 4475.82 651.840  15
   5  -5  -6-27.3658 208.292   6
  -5   5   6 324.915 327.254  15
  -5   5   5 9263.01 933.933  15
   5  -5  -5 7709.10 875.562   6
  -5   5   4 7530.66 837.076  15
   5  -5  -4 7289.41 856.284   6
  -5   5   3 10578.3 966.576  15
  -5   5   1 34699.0 1917.19  11
  -5   5   1 31564.7 1755.56  20
  -5   5   0 587.682 246.720  20
  -5   5   0 795.732 499.914   5
   5  -5   0 840.529 358.969   6
  -5   5   0 683.483 311.684  11
  -5   5  -1 22874.6 2312.39   5
  -5   5  -1 25576.2 1603.16  11
  -5   5  -1 25297.7 1609.52  20
  -5   5  -2 360.228 274.778  20
  -5   5  -2 45.5486 187.222  11
  -5   5  -3 3976.86 645.896  20
  -5   5  -3 4142.01 632.078  11
  -5   5  -4 30681.1 1765.42  11
  -5   5  -4 31659.1 1947.79  20
  -5   5  -5 16230.7 1190.02  11
  -5   5  -5 17771.0 1401.87  20
  -5   5  -6 3056.26 579.613  20
  -5   5  -7 1092.79 369.559  20
  -5   5  -8 12119.1 1001.96  20
  -5   5  -9 731.161 227.743  20
  -5   4  10 191.643 153.145  15
  -5   4   9 411.357 237.135  15
  -5   4   8 876.433 309.091  15
   5  -4  -7 383.914 254.738   6
  -5   4   7 186.510 252.233  15
  -5   4   6 7296.46 856.134  15
   5  -4  -6 6739.64 810.905   6
   5  -4  -5 700.278 254.211   6
  -5   4   5 639.291 257.219  15
  -5   4   4 32858.8 1893.95  15
   5  -4  -4 34224.9 1972.36   6
  -5   4   3 662.568 271.704  15
   5  -4  -3 780.336 341.294   6
  -5   4   2 40286.3 2080.00  15
   5  -4  -2 57726.3 2624.13   6
  -5   4   1 38987.0 2834.42   5
  -5   4   1 42960.7 3252.74   2
  -5   4   1 45494.4 2160.79  11
  -5   4   0 57327.6 3649.36   5
  -5   4   0 56025.7 3792.18   2
  -5   4   0 58220.2 2580.74  11
  -5   4  -1 1358.67 298.847  20
  -5   4  -1 664.331 315.096   2
  -5   4  -1 1530.87 389.759  11
  -5   4  -2 24803.8 2411.22   5
  -5   4  -2 20183.7 2190.23   2
  -5   4  -2 22772.9 1482.90  11
  -5   4  -2 21857.0 1446.25  20
  -5   4  -3 6976.74 1267.41   5
  -5   4  -3 4711.62 945.961   2
  -5   4  -3 7186.39 833.909  20
  -5   4  -3 7358.07 803.043  11
  -5   4  -4 2475.05 490.682  11
  -5   4  -4 2395.29 535.134  20
  -5   4  -5 19046.9 1366.25  11
  -5   4  -5 20333.5 1521.35  20
  -5   4  -6 6930.32 857.634  20
  -5   4  -7 19688.9 1444.07  20
  -5   4  -8 21085.4 1427.65  20
  -5   4  -9 8242.36 750.047  20
  -5   4 -10 1299.03 246.989  20
  -5   3  11 398.024 157.797  15
  -5   3  10 322.061 118.957  16
  -5   3  10 856.142 247.155  15
  -5   3   9 7990.60 776.616  16
  -5   3   9 9309.12 916.923  15
  -5   3   8 8331.44 819.309  16
  -5   3   8 8583.01 930.648  15
   5  -3  -7 1697.19 387.360   6
  -5   3   7 1936.31 406.023  16
  -5   3   7 1969.28 461.104  15
   5  -3  -6 3077.75 531.577   6
  -5   3   6 2319.03 438.642  16
  -5   3   6 3584.27 605.906  15
  -5   3   5 5664.02 643.918  16
  -5   3   5 8461.79 880.765  15
   5  -3  -5 8390.43 858.836   6
  -5   3   4 22273.6 1448.82  15
   5  -3  -4 23812.5 1533.55   6
  -5   3   3 5862.34 691.925  15
   5  -3  -3 6873.87 791.471   6
  -5   3   2 348.302 315.042   2
  -5   3   1 65916.5 3670.49   5
  -5   3   1 66439.6 4039.16   2
  -5   3   0 1336.30 580.406   5
  -5   3   0 1422.18 529.038   2
  -5   3  -1 55516.9 3535.68   5
  -5   3  -1 56972.6 3742.30   2
  -5   3  -1 49653.5 2310.46  11
  -5   3  -2 988.606 525.960   2
  -5   3  -2 1145.74 361.575  11
  -5   3  -3 104182. 5497.44   2
  -5   3  -3 107919. 3978.77  11
  -5   3  -3 96418.2 3890.74  20
  -5   3  -4 1918.30 443.488  20
  -5   3  -4 727.289 243.488   2
  -5   3  -4 1651.99 422.706  11
  -5   3  -5 26955.1 1763.91  20
  -5   3  -6 14157.6 1264.79  20
  -5   3  -7 2926.60 580.215  20
  -5   3  -8 1115.64 353.692  20
  -5   3  -9 6843.83 709.996  20
  -5   3 -10 1462.72 279.806  20
  -5   2  12 687.514 179.975  16
  -5   2  11 10980.5 865.488  16
  -5   2  11 10587.7 789.355  15
  -5   2  10 2357.89 459.647  16
  -5   2  10 2113.67 412.646  15
  -5   2   9 121.995 175.157  16
  -5   2   9 566.687 262.536  15
  -5   2   8 3997.65 605.031  16
  -5   2   8 4028.18 672.770  15
  -5   2   7 2123.20 469.827  16
  -5   2   7 3055.47 542.065  15
   5  -2  -6 3776.75 531.188   6
  -5   2   6 3547.71 549.848  16
  -5   2   6 4595.25 660.193  15
  -5   2   5 3115.25 496.166  16
  -5   2   5 4567.08 628.559  15
   5  -2  -5 4048.52 541.113   6
  -5   2   4 42417.5 2136.97  15
   5  -2  -4 50069.7 2244.45   6
  -5   2   3 18611.4 1922.31   2
  -5   2   2 44856.4 3122.71   2
  -5   2   1 95547.2 4954.90   2
  -5   2   0 78337.0 4355.85   2
  -5   2  -1 25926.7 2351.28   2
  -5   2  -2 19741.8 2086.71   2
  -5   2  -2 18980.6 1243.36  11
  -5   2  -3 9307.78 1453.84   2
  -5   2  -3 9452.42 891.719  11
  -5   2  -3 8010.11 816.466  20
  -5   2  -4 3968.87 605.839  20
  -5   2  -4 3765.66 865.180   2
  -5   2  -4 4252.35 608.253  11
  -5   2  -5-29.1761 205.252  20
  -5   2  -6 17741.6 1409.57  20
  -5   2  -7 1048.88 312.151  20
  -5   2  -8 6283.98 788.241  20
  -5   2  -9 2699.25 449.314  20
  -5   2 -10 584.598 169.970  20
  -5   1  12-428.669 225.620  16
  -5   1  11 3319.03 513.498  16
  -5   1  11 2348.91 366.524  15
  -5   1  10 11747.4 1080.98  16
  -5   1  10 12866.1 1020.48  15
  -5   1   9 2297.29 471.940  16
  -5   1   9 2354.52 471.932  15
  -5   1   8 5957.64 773.068  16
  -5   1   8 6141.64 774.998  15
  -5   1   7 1297.34 424.084   9
  -5   1   7 899.573 298.478  16
  -5   1   7 680.447 266.064  15
  -5   1   6 22138.9 1425.57   9
  -5   1   6 23219.8 1509.57  16
  -5   1   6 24595.6 1533.17  15
  -5   1   6 19906.7 2063.24   3
  -5   1   5 3325.85 509.008  16
  -5   1   5 2970.67 487.884  15
  -5   1   4 75289.7 4053.70   2
  -5   1   3 2551.21 748.257   2
  -5   1   3 1836.52 476.186   4
  -5   1   2 29386.7 2379.52   2
  -5   1   1 6050.87 1053.18   2
  -5   1   0 12143.5 1523.30   2
  -5   1  -1 8633.94 1310.30   2
  -5   1  -2 1672.77 634.471   2
  -5   1  -2 1501.30 371.859  11
  -5   1  -3 30988.3 2772.73   2
  -5   1  -3 31622.7 1777.65  11
  -5   1  -4 604.862 284.595  20
  -5   1  -4 156.947 283.976   2
  -5   1  -5 17259.6 1232.45  13
  -5   1  -5 20006.0 1440.18  20
  -5   1  -6 187.149 225.985  20
  -5   1  -7 26620.8 1707.78  20
  -5   1  -8 759.426 276.332  20
  -5   1  -9 20621.1 1228.12  20
  -5   1 -10-200.818 95.8577  20
  -5   0  13 15385.4 842.500  16
  -5   0  12 2981.67 438.516  16
  -5   0  11 9283.82 886.378  16
  -5   0  10 1127.33 307.068  16
  -5   0   9 3651.16 625.462   9
  -5   0   9 3401.35 579.022  16
  -5   0   9 3738.02 565.742  15
  -5   0   8 62.0187 208.717   9
  -5   0   8 225.650 178.690  16
  -5   0   8 562.610 285.719  15
  -5   0   7 14781.2 1177.02   9
  -5   0   7 13361.4 1136.50  16
  -5   0   7 14418.7 1148.52  15
  -5   0   7 12460.5 1719.74   3
  -5   0   6 10907.2 952.517   9
  -5   0   6 11560.8 1019.82  16
  -5   0   6 10926.8 957.812  15
  -5   0   6 11179.1 1582.44   3
  -5   0   5 215.587 244.236   3
  -5   0   5 508.140 207.240  16
  -5   0   5 485.260 191.658  15
  -5   0   4 2006.93 605.544   3
  -5   0   4 1723.92 517.330   2
  -5   0   3 19853.7 1674.96   4
  -5   0   3 19614.6 1858.55   2
  -5   0   2 4273.61 830.871   2
  -5   0   2 4745.35 856.304   4
  -5   0   1 33505.0 2485.55   4
  -5   0   1 30637.4 2429.79   2
  -5   0   0 25043.1 2220.77   4
  -5   0   0 24382.6 2220.41   2
  -5   0  -1 13822.3 1684.92   4
  -5   0  -1 16098.9 1829.48   2
  -5   0  -2 33558.1 2771.27   4
  -5   0  -2 30744.5 1727.53  13
  -5   0  -2 32813.1 1738.13  12
  -5   0  -3 17317.2 1995.74   4
  -5   0  -3 19150.9 2095.94   2
  -5   0  -3 14384.7 1122.72  13
  -5   0  -4 12632.1 1733.34   2
  -5   0  -4 10149.8 1529.64   4
  -5   0  -4 11228.1 943.991  13
  -5   0  -4 11296.9 1017.17  20
  -5   0  -5 8567.88 910.023  20
  -5   0  -6 8251.72 918.381  20
  -5   0  -7 1671.98 389.606  20
  -5   0  -8 8768.92 769.298  18
  -5   0  -8 9135.81 822.471  20
  -5   0  -9 146.709 118.893  20
  -5   0  -9 151.151 113.876  18
  -5  -1  13 648.200 172.983  16
  -5  -1  12 102.258 147.599  16
  -5  -1  11 194.620 231.642   9
  -5  -1  11-82.9033 221.261  16
  -5  -1  10 18416.2 1384.31   9
  -5  -1  10 19502.5 1392.97  16
  -5  -1   9 504.039 329.968   9
  -5  -1   9 366.631 249.650  16
  -5  -1   8 54.8975 259.479   9
  -5  -1   8 260.888 168.163  19
  -5  -1   8 277.013 285.543  16
  -5  -1   7 569.914 460.237   3
  -5  -1   7 1150.20 340.422   9
  -5  -1   7 1414.82 329.927  19
  -5  -1   7 1139.41 351.908  16
  -5  -1   7 686.831 212.332  15
  -5  -1   6 41165.3 2089.35   9
  -5  -1   6 35523.3 1925.12  19
  -5  -1   6 43446.8 2148.77  16
  -5  -1   6 38614.6 1974.14  15
  -5  -1   6 35307.0 1906.37  13
  -5  -1   6 45930.2 3413.23   3
  -5  -1   5 484.437 403.127   3
  -5  -1   5 563.174 196.565   9
  -5  -1   5 268.120 183.265  19
  -5  -1   5 306.312 179.823  16
  -5  -1   5 598.456 188.123  13
  -5  -1   4 47064.7 2236.80  16
  -5  -1   4 46833.7 2219.76  13
  -5  -1   4 50132.6 3467.43   3
  -5  -1   3 2918.07 638.729   4
  -5  -1   3 2993.88 670.541   2
  -5  -1   2 45374.6 2999.10   4
  -5  -1   2 49249.6 3029.13   2
  -5  -1   1 756.640 482.011   2
  -5  -1   1 652.688 453.638   4
  -5  -1   0 46071.6 2198.58  18
  -5  -1   0 45545.1 3155.71   4
  -5  -1   0 44361.6 3108.60   2
  -5  -1   0 41628.7 2088.31  13
  -5  -1   0 42014.8 2059.24  12
  -5  -1  -1 777.320 453.639   2
  -5  -1  -1 818.409 298.778  18
  -5  -1  -1 809.858 493.709   4
  -5  -1  -1 296.598 131.691   7
  -5  -1  -1 661.619 262.404  13
  -5  -1  -1 768.720 647.919  12
  -5  -1  -2 12671.4 1078.32  18
  -5  -1  -2 12269.3 1637.51   4
  -5  -1  -2 14367.6 1820.82   2
  -5  -1  -2 10725.6 932.946   7
  -5  -1  -2 11439.7 972.290  13
  -5  -1  -3 5260.71 1120.28   2
  -5  -1  -3 6054.37 763.812  18
  -5  -1  -3 4459.35 1014.59   4
  -5  -1  -3 5188.27 644.984   7
  -5  -1  -3 4347.45 570.695  13
  -5  -1  -4 1859.04 408.409  20
  -5  -1  -4 1335.80 392.129  18
  -5  -1  -4 1577.72 396.930   7
  -5  -1  -5 14865.5 1225.83  18
  -5  -1  -5 15595.1 1178.02   7
  -5  -1  -5 16298.7 1261.09  20
  -5  -1  -6 4620.57 634.391  20
  -5  -1  -6 3896.81 565.216  18
  -5  -1  -6 3796.07 538.056   7
  -5  -1  -7 6838.75 673.606  18
  -5  -1  -7 7885.74 698.405   7
  -5  -1  -7 7001.85 732.984  20
  -5  -1  -8 1982.70 273.648  18
  -5  -1  -8 2038.89 281.965   7
  -5  -2  12 2321.14 360.223  16
  -5  -2  11 619.450 242.319   9
  -5  -2  11 588.156 227.199  16
  -5  -2  10 2424.64 518.456   9
  -5  -2  10 2559.85 484.663  16
  -5  -2   9 14979.8 1231.48   9
  -5  -2   9 14491.8 1147.64  19
  -5  -2   9 13768.4 1144.55  16
  -5  -2   8 228.582 241.977   9
  -5  -2   8-39.2351 164.105  19
  -5  -2   8 177.142 231.628  16
  -5  -2   7 21005.1 1519.79   9
  -5  -2   7 22294.8 1520.48  19
  -5  -2   7 22305.6 1490.58  16
  -5  -2   6 3398.15 886.272   3
  -5  -2   6 3983.16 594.825   9
  -5  -2   6 4858.51 666.228  19
  -5  -2   6 4659.83 632.424  16
  -5  -2   6 4014.29 514.550  12
  -5  -2   5 18166.6 1270.58   9
  -5  -2   5 20930.4 1415.68  19
  -5  -2   5 19099.5 1320.72  16
  -5  -2   5 21252.2 1442.11  13
  -5  -2   5 17274.4 1195.14  12
  -5  -2   5 19982.1 2216.38   3
  -5  -2   4 14236.9 1099.41  16
  -5  -2   4 13992.0 1150.86   7
  -5  -2   4 15644.3 1190.71  13
  -5  -2   4 13828.5 1039.85  12
  -5  -2   4 14489.0 1836.11   3
  -5  -2   3 44818.7 2195.78  16
  -5  -2   3 46826.7 2311.11   7
  -5  -2   3 50933.9 2385.52  13
  -5  -2   3 48152.1 2244.79  12
  -5  -2   2 8104.33 832.783  18
  -5  -2   2 7438.60 798.470   7
  -5  -2   2 8542.97 865.292  13
  -5  -2   2 8261.88 797.653  12
  -5  -2   1 16713.9 1249.34  18
  -5  -2   1 13739.7 1599.27   2
  -5  -2   1 14479.2 1146.79   7
  -5  -2   1 16392.7 1230.76  13
  -5  -2   1 17359.2 1336.19  12
  -5  -2   0 84.2257 198.392   2
  -5  -2   0 1.74379 179.272   7
  -5  -2   0 60.1055 144.032  13
  -5  -2  -1 17235.8 1308.04  18
  -5  -2  -1 15235.3 1825.47   2
  -5  -2  -1 16628.9 1248.69   7
  -5  -2  -1 15356.7 1172.67  13
  -5  -2  -2 3759.61 606.054  18
  -5  -2  -2 4911.17 668.148   7
  -5  -2  -2 3091.75 498.702  13
  -5  -2  -3 24318.2 1624.13  18
  -5  -2  -3 25302.6 1602.46   7
  -5  -2  -4 163.530 186.743  18
  -5  -2  -4 367.832 240.339   7
  -5  -2  -5 8241.78 826.706  18
  -5  -2  -5 9059.41 872.115   7
  -5  -2  -6 3304.14 463.040  18
  -5  -2  -6 3629.58 510.099   7
  -5  -2  -7 6237.41 573.749   7
  -5  -3  12 712.808 187.335   9
  -5  -3  11 11579.0 919.174   9
  -5  -3  11 10596.9 751.723  16
  -5  -3  10 6077.37 735.100   9
  -5  -3  10 5123.34 565.401  16
  -5  -3   9-29.7489 209.912  19
  -5  -3   9-168.627 269.746   9
  -5  -3   9-54.3290 128.400  16
  -5  -3   8 885.295 338.747   9
  -5  -3   8 572.407 225.455  19
  -5  -3   8 673.373 212.237  16
  -5  -3   7 1289.32 369.373   9
  -5  -3   7 1094.27 345.285  19
  -5  -3   7 1313.78 320.751  16
  -5  -3   6 7483.64 865.989   9
  -5  -3   6 7561.49 874.054  19
  -5  -3   6 6880.56 733.430  16
  -5  -3   5 77.4929 197.302  19
  -5  -3   5 48.7235 197.233  16
  -5  -3   4 27324.4 1741.72  19
  -5  -3   4 27665.3 1803.92   7
  -5  -3   4 28571.2 1771.45  13
  -5  -3   4 26215.7 1588.70  12
  -5  -3   3 4924.58 720.826   7
  -5  -3   3 5887.82 761.009  13
  -5  -3   3 4389.95 914.990  12
  -5  -3   2 43523.5 2349.14   7
  -5  -3   2 46856.9 2378.18  13
  -5  -3   1 4838.93 664.348  18
  -5  -3   1 5311.31 721.418   7
  -5  -3   1 5270.17 709.580  13
  -5  -3   0 34055.1 1989.87  18
  -5  -3   0 34836.7 2004.52   7
  -5  -3   0 32719.0 1863.04  13
  -5  -3  -1 20137.1 1442.97  18
  -5  -3  -1 20529.1 1468.78   7
  -5  -3  -1 16847.1 1219.36  13
  -5  -3  -2 6964.91 829.110  18
  -5  -3  -2 6347.59 809.497   7
  -5  -3  -3 366.629 154.756  18
  -5  -3  -3-25.4426 200.417   7
  -5  -3  -4 3399.72 475.140  18
  -5  -3  -4 3686.11 573.427   7
  -5  -3  -5 513.653 225.411   7
  -5  -3  -6 525.910 182.159   7
  -5  -3  -7 3799.41 358.506   7
  -5  -4  12 967.983 194.168   9
  -5  -4  11 2126.15 355.574   9
  -5  -4  10 1169.08 320.110   9
  -5  -4   9 5373.44 676.597   9
  -5  -4   8 3935.76 608.001   9
  -5  -4   8 3670.63 617.834  19
  -5  -4   7 5628.01 738.695   9
  -5  -4   7 5628.84 745.769  19
  -5  -4   6 15684.2 1293.05  19
  -5  -4   5 1154.94 344.243  19
  -5  -4   4 11629.6 1100.22  19
  -5  -4   4 10870.9 1127.74   7
  -5  -4   3 7278.40 850.182  19
  -5  -4   3 7006.70 888.593   7
  -5  -4   2 887.793 320.497  19
  -5  -4   2 462.493 232.889   7
  -5  -4   1 2867.60 596.089   7
  -5  -4   0 318.582 240.260   7
  -5  -4  -1 15439.5 1277.99   7
  -5  -4  -2 244.710 238.945   7
  -5  -4  -3 23127.5 1455.62   7
  -5  -4  -4 31.9147 145.313   7
  -5  -4  -5 17043.0 998.511   7
  -5  -5  11 6135.24 465.265   9
  -5  -5  10 5325.19 529.009   9
  -5  -5   9 676.304 247.495   9
  -5  -5   8 2668.09 471.911  19
  -5  -5   8 2294.11 417.292   9
  -5  -5   7 1507.22 346.299   9
  -5  -5   7 1271.82 377.958  19
  -5  -5   7 1042.81 265.520  17
  -5  -5   6 3964.53 612.686  19
  -5  -5   6 3889.83 541.791  17
  -5  -5   5 7322.02 826.357  19
  -5  -5   4 1235.00 350.743  19
  -5  -5   4 1192.14 367.337   7
  -5  -5   3 8703.29 891.967  19
  -5  -5   3 8557.47 957.938   7
  -5  -5   2 3432.43 523.577  19
  -5  -5   2 3980.74 634.883   7
  -5  -5   1-240.287 234.711  19
  -5  -5   1-94.2678 196.561   7
  -5  -5   0 8930.96 755.722  19
  -5  -5   0 10573.6 979.541   7
  -5  -5  -1 4999.18 624.273   7
  -5  -5  -2 9498.06 821.236   7
  -5  -5  -3 469.160 176.554   7
  -5  -5  -4 12147.1 722.271   7
  -5  -6   9 3870.59 378.928   9
  -5  -6   8 5189.10 492.978   9
  -5  -6   7 1039.62 271.194   9
  -5  -6   7 771.698 176.642  17
  -5  -6   6 5326.01 553.310   9
  -5  -6   6 6090.36 620.870  19
  -5  -6   6 5428.40 556.402  17
  -5  -6   5 576.976 256.551  19
  -5  -6   5 559.778 228.806  17
  -5  -6   4 12019.6 886.659  19
  -5  -6   4 13586.6 991.751  17
  -5  -6   3 6578.12 600.468  19
  -5  -6   2 22388.3 1357.17   7
  -5  -6   1 1090.07 262.238   7
  -5  -6   0 2657.15 399.448   7
  -5  -6  -1-232.921 152.325   7
  -5  -7   4 5510.63 429.405  17
  -5  -7   3 514.396 138.267  17
  -6   8   2 2462.06 291.529  11
  -6   8   1 12081.9 710.697  11
  -6   8   0 2988.60 328.298  11
  -6   8  -1 1207.47 222.127  20
  -6   8  -2-34.9943 82.7148  20
  -6   8  -3 6672.87 506.768  20
  -6   7   6 5898.10 452.024  11
  -6   7   5 2834.10 365.081  11
  -6   7   4 18303.1 1081.60  11
  -6   7   3 344.694 207.766  11
  -6   7   2 8160.87 749.551  11
  -6   7   1 1972.47 365.399  11
  -6   7   0 2365.92 392.627  20
  -6   7   0 2242.88 409.392  11
  -6   7  -1 1630.07 304.418  20
  -6   7  -1 1629.02 352.309  11
  -6   7  -2 12860.4 910.644  11
  -6   7  -2 13098.4 971.262  20
  -6   7  -3 695.170 252.890  20
  -6   7  -3 638.124 192.307  11
  -6   7  -4 9254.77 762.209  20
  -6   7  -5 256.559 153.738  20
  -6   7  -6 14834.5 837.139  20
  -6   6   7-102.293 130.649  15
  -6   6   7 169.743 130.930  11
  -6   6   6 7122.01 634.307  15
  -6   6   6 7958.74 679.429  11
  -6   6   5 64.2234 135.283  15
  -6   6   5 212.561 171.971  11
  -6   6   4 174.976 144.487  15
  -6   6   4-77.8330 243.987  11
  -6   6   3 5616.63 684.422  11
  -6   6   2 986.662 289.944  11
  -6   6   1 45710.9 2285.75  11
  -6   6   0 3734.92 520.138  20
  -6   6   0 4555.75 632.084  11
  -6   6  -1 272.948 152.886  20
  -6   6  -1 761.161 317.292  11
  -6   6  -2 1029.69 259.957  20
  -6   6  -2 829.698 296.410  11
  -6   6  -3 33341.4 1790.62  11
  -6   6  -3 34807.2 1858.81  20
  -6   6  -4 875.034 314.899  20
  -6   6  -4 141.733 178.147  11
  -6   6  -5 16350.8 1142.72  20
  -6   6  -6 782.405 226.253  20
  -6   6  -7 3211.20 379.698  20
  -6   5   9 898.128 195.634  15
  -6   5   8 3210.21 441.232  15
  -6   5   8 2898.01 363.951  11
  -6   5   7 5577.67 658.878  15
  -6   5   7 4870.56 561.934  11
  -6   5   6 2135.55 433.892  15
  -6   5   6 1638.13 381.145  11
  -6   5   5 22386.5 1457.47  15
  -6   5   5 21304.8 1425.91  11
  -6   5   4 18013.8 1281.61  15
   6  -5  -4 16388.1 1303.20   6
  -6   5   4 17609.6 1296.16  11
  -6   5   3 19005.0 1317.35  15
   6  -5  -3 20647.8 1506.09   6
  -6   5   3 23073.5 1495.84  11
  -6   5   2 237.838 192.442  11
   6  -5  -2 207.575 193.935   6
  -6   5   1 2706.30 541.496  11
   6  -5  -1 3110.73 586.131   6
   6  -5   0 5839.95 805.102   6
  -6   5   0 5237.50 722.439  11
  -6   5  -1-133.076 289.394  20
  -6   5  -1 29.8216 265.452  11
  -6   5  -2 8885.34 915.352  11
  -6   5  -2 7928.32 850.197  20
  -6   5  -3 106.604 178.143  20
  -6   5  -3 90.2011 218.318  11
  -6   5  -4 1592.12 408.928  20
  -6   5  -4 2248.96 456.712  11
  -6   5  -5 2226.68 447.637  20
  -6   5  -6 45112.9 2138.61  20
  -6   5  -7 2371.53 398.819  20
  -6   5  -8 3761.37 359.580  13
  -6   5  -8 5048.55 469.347  20
  -6   4  10 6024.85 505.206  15
  -6   4   9-20.2582 151.736  15
  -6   4   8 5604.20 666.379  15
  -6   4   8 4503.80 484.132  11
  -6   4   7 598.194 257.846  15
  -6   4   7 744.138 203.511  11
  -6   4   6 23341.2 1536.92  15
  -6   4   6 19981.7 1311.49  11
   6  -4  -5-17.2536 177.751   6
  -6   4   5-18.2341 235.478  15
  -6   4   5-229.465 221.328  11
   6  -4  -4 1581.78 417.138   6
  -6   4   4 1577.32 381.538  15
  -6   4   4 1829.46 399.332  11
  -6   4   3 12815.7 1108.17  15
   6  -4  -3 13241.2 1196.53   6
  -6   4   3 12329.1 1072.94  11
  -6   4   2 19072.2 1344.48  15
   6  -4  -2 23694.0 1648.95   6
  -6   4   2 22206.0 1488.43  11
  -6   4   1 35159.1 1976.66  11
  -6   4   0 4982.14 700.009  11
  -6   4  -1 459.504 262.787  11
  -6   4  -2 204.168 251.205  11
  -6   4  -3 68297.5 3054.80  11
  -6   4  -3 66808.3 2971.38  20
  -6   4  -4 10514.7 997.301  11
  -6   4  -4 9808.09 953.190  20
  -6   4  -5 13426.0 1121.69  20
  -6   4  -6 510.743 218.894  20
  -6   4  -7 18645.3 1200.64  20
  -6   4  -7 17984.7 1108.83  13
  -6   4  -8 370.947 177.169  20
  -6   4  -8 208.499 84.6402  13
  -6   3  11 3472.40 341.016  15
  -6   3  10-349.800 154.697  16
  -6   3  10-125.331 145.777  15
  -6   3   9 5358.34 577.871  16
  -6   3   9 7604.43 770.902  15
  -6   3   8 700.130 213.590  16
  -6   3   8 801.432 332.618  15
  -6   3   7 163.920 212.273  16
  -6   3   7-45.6998 199.933  15
   6  -3  -6 645.515 245.893   6
  -6   3   6 1314.37 365.065  16
  -6   3   6 1435.64 422.042  15
  -6   3   6 915.127 283.229  11
  -6   3   5 19606.8 1357.19  16
  -6   3   5 23370.2 1569.62  15
   6  -3  -5 21741.6 1460.49   6
  -6   3   5 20994.7 1362.09  11
  -6   3   4 18439.3 1300.40  16
  -6   3   4 21903.3 1506.87  15
   6  -3  -4 20994.8 1466.79   6
  -6   3   4 20171.9 1344.34  11
  -6   3   3 15817.8 1194.68  16
  -6   3   3 19079.7 1362.91  15
   6  -3  -3 20206.3 1467.63   6
  -6   3   3 18210.6 1279.82  11
  -6   3   2 28736.4 1680.33  16
  -6   3   2 35225.8 1865.03  15
  -6   3   2 30653.9 1708.47  13
  -6   3   2 32902.9 2918.14   2
  -6   3   2 37212.2 1914.28  11
  -6   3   1 6728.37 1297.90   2
  -6   3   1 6032.69 691.822  15
  -6   3   1 6423.15 731.365  13
  -6   3   1 7412.48 807.480  11
  -6   3   0 61085.3 4190.84   2
  -6   3   0 62299.2 2800.05  11
  -6   3  -1 98983.4 5702.72   2
  -6   3  -1 106581. 4089.41  11
  -6   3  -2 1107.76 368.567  11
  -6   3  -3 4321.02 611.679  20
  -6   3  -3 4854.41 683.523  11
  -6   3  -4-53.7253 202.642  20
  -6   3  -4 79.1583 211.242  11
  -6   3  -5 12950.9 1097.09  20
  -6   3  -6 7544.22 779.900  13
  -6   3  -6 8297.60 830.794  20
  -6   3  -7 760.934 264.417  20
  -6   3  -7 427.048 195.001  13
  -6   3  -8 494.644 198.143  20
  -6   3  -9 1527.40 229.787  18
  -6   2  11 68.7334 126.732  16
  -6   2  11-37.4160 100.964  15
  -6   2  10 3951.32 519.480  16
  -6   2  10 4257.67 544.643  15
  -6   2   9 420.419 278.823  16
  -6   2   9 417.934 250.694  15
  -6   2   8 16644.6 1280.98  16
  -6   2   8 16717.8 1303.31  15
  -6   2   7 218.078 179.492  16
  -6   2   7 330.918 287.348  15
  -6   2   6 33623.6 1943.99  16
  -6   2   6 33230.7 1974.58  15
  -6   2   5 1217.72 354.445  16
  -6   2   5 1089.20 334.199  15
  -6   2   4 15735.7 1222.14  16
  -6   2   4 17703.0 1301.33  15
   6  -2  -4 17689.3 1282.82   6
  -6   2   4 14899.4 1086.26  11
  -6   2   3 408.483 243.646  16
  -6   2   3 766.094 264.497  15
  -6   2   3 676.939 254.166  13
  -6   2   3 193.865 145.646  11
  -6   2   2 90088.2 3576.38  16
  -6   2   2 89395.7 3564.17  15
  -6   2   2 89054.3 3522.06  13
  -6   2   2 95536.2 5245.78   2
  -6   2   2 87930.0 3473.68  11
  -6   2   1 3222.64 922.269   2
  -6   2   1 3463.38 541.431  13
  -6   2   1 3527.04 520.875  11
  -6   2   0 15180.1 1126.92  18
  -6   2   0 21118.8 2295.07   2
  -6   2   0 18603.9 1311.78  13
  -6   2   0 16464.9 1160.59  12
  -6   2   0 18363.0 1287.54  11
  -6   2  -1 7589.49 1404.28   2
  -6   2  -1 7829.62 826.930  13
  -6   2  -1 6363.07 667.595  12
  -6   2  -1 7212.18 807.223  11
  -6   2  -2 23800.1 1565.40  11
  -6   2  -3 16643.0 1297.80  11
  -6   2  -4 26051.5 1655.63  13
  -6   2  -4 24313.7 1549.74  20
  -6   2  -5 1924.29 411.817  20
  -6   2  -5 1759.37 375.607  13
  -6   2  -6 5241.56 654.609  20
  -6   2  -6 4977.15 585.346  13
  -6   2  -7 7304.58 706.400  20
  -6   2  -8 2193.87 345.890  20
  -6   2  -9-123.265 97.2213  18
  -6   1  12 3202.59 352.987  16
  -6   1  11 4363.61 533.012  16
  -6   1  10 5660.09 683.748  16
  -6   1  10 4792.87 561.300  15
  -6   1   9 8369.54 897.427  16
  -6   1   9 7061.13 779.652  15
  -6   1   8 8527.07 915.050  16
  -6   1   8 8160.73 888.588  15
  -6   1   7 82.5844 183.055  16
  -6   1   7 85.1629 244.015  15
  -6   1   6 4121.57 658.364  16
  -6   1   6 4305.42 665.232  15
  -6   1   5 18942.7 1394.39  16
  -6   1   5 20024.8 1431.55  15
  -6   1   4-200.366 282.105  16
  -6   1   4 319.902 288.508   2
  -6   1   4-46.3746 142.197  15
  -6   1   4-205.145 187.358  13
  -6   1   3 3593.79 894.513   2
  -6   1   3 3186.87 539.329  16
  -6   1   3 4184.51 608.003  15
  -6   1   3 3898.33 572.820  13
  -6   1   2 30519.5 1704.16  18
  -6   1   2 40569.4 2056.37  16
  -6   1   2 32472.5 2524.85   4
  -6   1   2 38960.6 3099.13   2
  -6   1   2 40174.9 2011.53  13
  -6   1   2 31936.1 1710.30  11
  -6   1   1 32466.7 1798.38  18
  -6   1   1 34433.4 2732.74   4
  -6   1   1 36141.7 3002.75   2
  -6   1   1 38087.9 1977.40  13
  -6   1   1 36469.5 1882.59  12
  -6   1   1 33039.7 1786.60  11
  -6   1   0 7146.44 1317.63   2
  -6   1   0 6729.56 756.676  18
  -6   1   0 5882.64 1104.21   4
  -6   1   0 6897.66 786.272  13
  -6   1   0 6175.72 694.703  12
  -6   1   0 6143.63 720.291  11
  -6   1  -1 32047.6 1833.51  18
  -6   1  -1 27998.8 2611.97   4
  -6   1  -1 29191.7 2746.72   2
  -6   1  -1 29540.8 1774.30  13
  -6   1  -1 29010.5 1674.53  12
  -6   1  -1 31620.6 1784.44  11
  -6   1  -2 581.625 252.092   4
  -6   1  -2 1181.93 362.023  13
  -6   1  -2 361.540 582.872  12
  -6   1  -3 2592.28 493.587  13
  -6   1  -4 4055.29 604.436  13
  -6   1  -5 39035.8 1938.47  13
  -6   1  -5 37838.8 1972.26  20
  -6   1  -6 4243.97 550.996  20
  -6   1  -7 1048.05 280.110  20
  -6   1  -7 1454.22 341.642  18
  -6   1  -8 929.048 213.205  20
  -6   1  -8 1577.72 278.652  18
  -6   0  12 888.109 206.118  16
  -6   0  11 5467.68 632.206  16
  -6   0  10-168.495 221.389  16
  -6   0   9 470.093 262.992   9
  -6   0   9 1677.02 450.388  16
  -6   0   9 1441.92 375.612  15
  -6   0   8 2891.73 511.329   9
  -6   0   8 2920.06 565.352  16
  -6   0   8 2193.66 439.018  15
  -6   0   7 3117.34 551.869   9
  -6   0   7 2498.55 506.252  16
  -6   0   7 2471.83 480.807  15
  -6   0   6 10055.5 922.778   9
  -6   0   6 10857.5 1047.60  16
  -6   0   6 10660.1 1020.78  15
  -6   0   6 8326.91 798.791  13
  -6   0   5-9.98060 250.039  16
  -6   0   5 274.505 189.903  15
  -6   0   5-3.33655 134.039  13
  -6   0   4 27756.4 1711.56  16
  -6   0   4 26598.3 1627.53  13
  -6   0   3 7329.32 773.862  18
  -6   0   3 5916.90 1078.97   2
  -6   0   3 8307.74 871.894  16
  -6   0   3 8376.90 872.486  13
  -6   0   3 8421.91 852.699  12
  -6   0   2 60253.2 2727.06  18
  -6   0   2 54293.3 3506.39   4
  -6   0   2 63573.3 2819.12  16
  -6   0   2 52086.2 3669.09   2
  -6   0   2 65186.0 2838.73  13
  -6   0   2 64388.3 2758.52  12
  -6   0   1 9068.07 1412.90   2
  -6   0   1 11459.4 1010.36  18
  -6   0   1 8723.86 1337.14   4
  -6   0   1 10718.3 977.649  13
  -6   0   1 11065.8 966.445  12
  -6   0   1 7992.91 772.019  11
  -6   0   0 81.0354 299.901   2
  -6   0   0-106.258 197.334  18
  -6   0   0 263.498 382.850   4
  -6   0   0 363.356 269.038  13
  -6   0   0 126.113 252.906  12
  -6   0  -1 1048.85 310.053  18
  -6   0  -1 440.437 336.770   4
  -6   0  -1 613.960 288.344  13
  -6   0  -1 1326.90 669.609  12
  -6   0  -2 31785.4 1905.18  18
  -6   0  -2 30040.9 1794.87  13
  -6   0  -3 138.794 198.792  18
  -6   0  -3-80.5896 152.549  13
  -6   0  -4 7430.12 860.140  18
  -6   0  -4 6588.53 707.386  13
  -6   0  -5 4985.92 676.628  18
  -6   0  -6 9791.10 872.212  18
  -6   0  -6 7440.52 683.439  20
  -6   0  -7 9780.26 751.162  18
  -6   0  -7 6915.71 584.524  20
  -6   0  -8 2908.17 303.392  18
  -6  -1  12 1217.75 227.787  16
  -6  -1  11 3718.21 506.698  16
  -6  -1  10 7711.01 794.291   9
  -6  -1  10 8386.76 831.988  16
  -6  -1   9 4257.31 639.454   9
  -6  -1   9 5600.94 721.226  16
  -6  -1   8 13556.3 1143.98   9
  -6  -1   8 13379.8 1143.57  16
  -6  -1   8 11943.7 978.134  12
  -6  -1   7 126.663 211.528  19
  -6  -1   7-438.339 299.025  16
  -6  -1   7-121.562 229.316  12
  -6  -1   6 14783.3 1134.64   9
  -6  -1   6 16574.3 1222.22  19
  -6  -1   6 16191.9 1303.55  16
  -6  -1   6 15520.3 1208.10  13
  -6  -1   6 14976.4 1181.45  12
  -6  -1   5 8379.32 861.567  19
  -6  -1   5 7616.82 862.876  16
  -6  -1   5 7700.02 853.621  13
  -6  -1   5 7335.75 797.470  12
  -6  -1   4 3014.55 535.854  16
  -6  -1   4 2557.38 491.048  13
  -6  -1   4 3425.78 578.447  12
  -6  -1   3 17355.2 1319.44  18
  -6  -1   3 17577.4 1320.50  16
  -6  -1   3 16628.6 1294.78  13
  -6  -1   3 17334.1 1266.67  12
  -6  -1   2 930.266 330.741  18
  -6  -1   2 454.926 203.652   4
  -6  -1   2 1621.49 393.549  13
  -6  -1   2 1531.56 385.206  12
  -6  -1   1 27195.3 1720.80  18
  -6  -1   1 23672.6 2341.42   4
  -6  -1   1 26422.5 1684.57  13
  -6  -1   1 28777.4 1684.11  12
  -6  -1   0-202.672 179.520  18
  -6  -1   0 208.022 226.340  13
  -6  -1   0-133.756 762.252  12
  -6  -1  -1 19507.8 1453.76  18
  -6  -1  -1 18759.7 1368.89  13
  -6  -1  -2 1354.48 425.066  18
  -6  -1  -2 853.450 282.835  13
  -6  -1  -3 16344.4 1288.33  18
  -6  -1  -3 13282.0 1039.00   7
  -6  -1  -3 14929.4 1103.93  13
  -6  -1  -4 2542.73 482.900  18
  -6  -1  -4 2059.70 380.719   7
  -6  -1  -5 28802.5 1634.44  18
  -6  -1  -6-131.419 124.351  18
  -6  -1  -7 1939.86 257.471  18
  -6  -2  11 3354.77 447.049   9
  -6  -2  11 3392.94 415.264  16
  -6  -2  10 141.948 171.823   9
  -6  -2  10-224.414 185.927  16
  -6  -2   9 1806.89 433.885   9
  -6  -2   9 1341.70 337.242  16
  -6  -2   8 3099.29 523.998   9
  -6  -2   8 2778.78 484.298  19
  -6  -2   8 3495.16 554.917  16
  -6  -2   7 10422.3 962.723   9
  -6  -2   7 10044.3 976.604  19
  -6  -2   7 10639.1 982.988  16
  -6  -2   7 8864.37 804.759  12
  -6  -2   6 8580.63 859.261   9
  -6  -2   6 8762.21 925.437  19
  -6  -2   6 8671.32 890.922  16
  -6  -2   6 9372.13 877.825  12
  -6  -2   5 9996.49 1005.91  19
  -6  -2   5 9438.10 949.766  16
  -6  -2   5 9509.91 973.391  13
  -6  -2   5 10306.1 968.570  12
  -6  -2   4 9960.09 992.016  19
  -6  -2   4 8801.05 894.998  16
  -6  -2   4 9900.54 1007.96  13
  -6  -2   4 10686.9 987.465  12
  -6  -2   3 22229.9 1525.56   7
  -6  -2   3 24680.6 1639.96  13
  -6  -2   3 23490.5 1567.36  12
  -6  -2   2 48782.1 2462.64  18
  -6  -2   2 43802.9 2312.55   7
  -6  -2   2 47136.6 2445.24  13
  -6  -2   2 50977.2 2454.48  12
  -6  -2   1 965.122 325.401  18
  -6  -2   1 1512.25 408.781   7
  -6  -2   1 1183.04 368.907  13
  -6  -2   0 5631.26 751.226  18
  -6  -2   0 4330.94 616.893   7
  -6  -2   0 4554.83 654.083  13
  -6  -2  -1 12563.3 1136.72  18
  -6  -2  -1 11254.3 1017.48   7
  -6  -2  -1 11715.2 1033.04  13
  -6  -2  -2 3179.45 562.559  18
  -6  -2  -2 3001.06 487.977   7
  -6  -2  -2 3402.34 499.944  13
  -6  -2  -3 4468.55 626.802  18
  -6  -2  -3 4722.73 590.271   7
  -6  -2  -4 788.035 240.298  18
  -6  -2  -4 294.959 158.104   7
  -6  -2  -5 200.177 176.176  18
  -6  -2  -5 107.731 125.846   7
  -6  -3  11 269.786 146.932   9
  -6  -3  10 2840.78 413.440   9
  -6  -3   9 318.678 193.200   9
  -6  -3   9 70.8904 109.898  16
  -6  -3   8 3227.54 522.518   9
  -6  -3   8 3917.59 563.803  19
  -6  -3   8 2869.78 412.183  16
  -6  -3   7 855.270 301.696   9
  -6  -3   7 932.709 335.543  19
  -6  -3   7 1242.53 317.519  16
  -6  -3   6 11513.5 972.699   9
  -6  -3   6 13913.7 1181.90  19
  -6  -3   6 11017.8 916.949  16
  -6  -3   5 8706.76 926.237  19
  -6  -3   4 28922.9 1810.62  19
  -6  -3   4 25783.6 1741.92   7
  -6  -3   3 4851.62 704.221  19
  -6  -3   3 4380.22 648.458   7
  -6  -3   3 4435.20 658.901  13
  -6  -3   2 9524.61 986.294   7
  -6  -3   2 9416.38 956.881  13
  -6  -3   1 1623.95 431.597   7
  -6  -3   1 1631.76 379.805  13
  -6  -3   0 1478.05 378.034   7
  -6  -3   0 1769.60 410.735  13
  -6  -3  -1 3889.85 605.810  18
  -6  -3  -1 4297.79 534.814  13
  -6  -3  -1 4179.63 603.725   7
  -6  -3  -2 4.38407 184.757  18
  -6  -3  -2-271.821 229.710   7
  -6  -3  -3 1219.48 271.729   7
  -6  -3  -4-112.110 129.285   7
  -6  -3  -5 13024.2 722.722   7
  -6  -4  10 2318.42 319.971   9
  -6  -4   9 2211.61 380.946   9
  -6  -4   8 2544.43 412.707   9
  -6  -4   8 3013.36 467.135  19
  -6  -4   7 1362.26 286.982   9
  -6  -4   7 1925.23 421.668  19
  -6  -4   6 387.816 196.171   9
  -6  -4   6 295.119 185.999  19
  -6  -4   6 287.969 104.561  17
  -6  -4   5-53.2993 207.596  19
  -6  -4   4 6201.32 744.342  19
  -6  -4   3 5610.64 719.651  19
  -6  -4   3 4344.18 641.572   7
  -6  -4   2 42030.1 2156.97  19
  -6  -4   2 40720.7 2177.54   7
  -6  -4   1 7761.50 812.500  19
  -6  -4   1 8420.17 866.065   7
  -6  -4   0 10363.3 868.646  19
  -6  -4   0 9699.30 911.695   7
  -6  -4  -1 10163.5 817.714  19
  -6  -4  -1 11032.3 916.750   7
  -6  -4  -2 5554.65 499.493  19
  -6  -4  -2 6932.64 647.593   7
  -6  -4  -3 17261.0 977.013   7
  -6  -5   9 180.696 101.838   9
  -6  -5   8 1968.73 280.037   9
  -6  -5   7-43.7619 121.712   9
  -6  -5   7 126.892 167.929  19
  -6  -5   6 5855.42 515.723   9
  -6  -5   6 7626.70 597.371  17
  -6  -5   5 265.963 153.958  19
  -6  -5   5 317.932 172.019  17
  -6  -5   4 17188.3 1141.61  19
  -6  -5   3-293.357 198.493  19
  -6  -5   2 4003.54 477.807  19
  -6  -5   2 3707.92 519.907   7
  -6  -5   1 1408.95 248.219  19
  -6  -5   1 2165.24 371.243   7
  -6  -5   0 5790.23 571.141   7
  -6  -5  -1 1105.92 238.477   7
  -6  -6   4 631.278 141.929  17
  -6  -6   3 5627.52 452.430  17
  -6  -6   2-9.52700 80.2064  17
  -7   7   4 3193.42 342.115  11
  -7   7   3 6491.48 534.583  11
  -7   7   2 3575.07 419.271  11
  -7   7   1 4240.98 462.520  11
  -7   7   0 6291.10 565.497  11
  -7   7  -1 8589.58 650.290  11
  -7   7  -2 5488.71 478.128  11
  -7   7  -3 2918.85 299.466  13
  -7   6   6 1645.67 248.590  11
  -7   6   5 3334.12 407.840  11
  -7   6   4 1232.68 292.298  11
  -7   6   3 3025.27 474.251  11
  -7   6   2 2285.71 405.340  11
  -7   6   1 6241.91 687.574  11
  -7   6   0 1258.11 331.336  11
  -7   6  -1 3183.69 427.093  13
  -7   6  -1 3385.31 489.955  11
  -7   6  -2 7326.88 659.965  13
  -7   6  -2 7390.86 706.214  11
  -7   6  -3 816.238 235.561  13
  -7   6  -3 681.183 221.180  11
  -7   6  -4 17238.6 1019.88  13
  -7   6  -5 1092.25 217.498  13
  -7   5   8 7756.95 556.716  15
  -7   5   7-144.847 117.646  15
  -7   5   7 470.994 156.242  11
  -7   5   6 3069.20 444.484  15
  -7   5   6 3077.28 416.875  11
  -7   5   5 700.787 261.689  15
  -7   5   5 1006.15 313.555  11
  -7   5   4 1574.49 365.399  15
  -7   5   4 1961.12 389.408  11
  -7   5   3 962.596 245.073  15
  -7   5   3 997.765 282.280  11
  -7   5   2 1345.55 382.944  11
  -7   5   1 170.237 238.138  11
  -7   5   0 5773.66 641.920  13
  -7   5   0 5567.68 697.400  11
  -7   5  -1 12319.6 995.137  13
  -7   5  -1 13176.9 1085.55  11
  -7   5  -2 9330.91 864.467  13
  -7   5  -2 8575.21 854.033  11
  -7   5  -3 9173.76 849.134  11
  -7   5  -4 745.942 265.746  13
  -7   5  -5 18474.9 1056.44  13
  -7   5  -5 12222.1 789.835  20
  -7   5  -6 2259.14 311.582  13
  -7   4   9 846.352 199.913  15
  -7   4   8 550.373 209.778  15
  -7   4   7 15317.5 1085.21  15
  -7   4   7 13065.6 837.956  11
  -7   4   6 2337.40 474.790  15
  -7   4   6 2018.67 342.452  11
  -7   4   5 26711.5 1604.77  15
  -7   4   5 24666.4 1463.29  11
  -7   4   4 1015.66 355.481  15
  -7   4   4 726.529 294.979  11
  -7   4   3 5522.05 697.668  15
   7  -4  -3 5001.84 685.305   6
  -7   4   3 5508.33 698.228  11
  -7   4   2-381.464 196.898  13
  -7   4   2 99.8031 238.440  11
   7  -4  -2 32.7062 171.419   6
  -7   4   1 5379.55 651.865  13
  -7   4   1 6072.79 748.399  11
  -7   4   0 1691.72 403.609  13
  -7   4   0 1679.50 425.967  11
  -7   4  -1 8632.20 897.775  13
  -7   4  -1 7615.89 844.985  11
  -7   4  -2 10514.7 992.463  13
  -7   4  -2 10639.5 1005.95  11
  -7   4  -3 5188.98 669.170  13
  -7   4  -3 5345.77 689.649  11
  -7   4  -4 17520.2 1213.63  13
  -7   4  -5 4855.18 498.529  18
  -7   4  -5 6127.41 633.208  13
  -7   4  -6 9400.60 654.754  18
  -7   4  -6 11585.2 768.510  13
  -7   3   9 597.410 161.411  16
  -7   3   9 1426.87 295.757  15
  -7   3   8 10536.2 811.341  16
  -7   3   8 12327.0 957.268  15
  -7   3   7 2445.73 447.685  16
  -7   3   7 2541.22 475.297  15
  -7   3   6 5669.34 658.715  16
  -7   3   6 7528.90 830.966  15
  -7   3   5 4505.53 594.449  16
  -7   3   5 5193.48 727.398  15
  -7   3   5 4679.67 583.157  11
  -7   3   4 27982.6 1623.67  16
  -7   3   4 28403.6 1733.26  15
  -7   3   4 27927.6 1590.03  11
  -7   3   3 387.576 276.450  15
  -7   3   3-121.793 120.028  13
  -7   3   3 283.568 229.087  11
   7  -3  -3 197.877 208.604   6
  -7   3   2 12575.1 1045.47  13
  -7   3   2 12714.1 1049.70  12
  -7   3   2 13514.9 1114.53  11
  -7   3   1 7810.02 841.626  13
  -7   3   1 7748.86 783.580  12
  -7   3   1 7303.49 819.893  11
  -7   3   0 19289.0 1382.25  13
  -7   3   0 16424.8 1147.72  12
  -7   3   0 19239.4 1382.52  11
  -7   3  -1 215.763 212.966  13
  -7   3  -1-313.464 302.272  11
  -7   3  -2 17349.4 1195.38  18
  -7   3  -2 18977.4 1370.76  13
  -7   3  -2 18376.6 1366.87  11
  -7   3  -3 281.778 194.936  18
  -7   3  -3-18.4512 188.647  13
  -7   3  -4 2925.34 473.367  18
  -7   3  -4 2950.38 494.036  13
  -7   3  -5 7967.79 736.514  18
  -7   3  -5 6687.79 668.294  13
  -7   3  -6 2460.75 375.087  18
  -7   3  -6 2014.55 306.972  13
  -7   3  -7 3806.50 374.706  18
  -7   2  10 1081.93 235.099  16
  -7   2   9 499.242 205.758  16
  -7   2   9 686.858 266.877  15
  -7   2   8 568.263 232.298  16
  -7   2   8 603.296 290.858  15
  -7   2   7 25726.5 1614.77  16
  -7   2   7 27752.8 1683.39  15
  -7   2   6 7130.66 812.949  16
  -7   2   6 7605.32 852.718  15
  -7   2   5 8777.12 929.652  16
  -7   2   5 8927.78 948.504  15
  -7   2   4 2065.32 462.841  16
  -7   2   4 1711.43 423.569  15
  -7   2   4 2087.66 390.945  13
  -7   2   4 1378.66 287.433  11
  -7   2   3 3769.89 597.034  16
  -7   2   3 3219.34 500.910  13
  -7   2   3 3654.27 533.966  11
  -7   2   2 4880.06 654.725  13
  -7   2   2 4362.94 630.529  12
  -7   2   2 4586.05 620.064  11
  -7   2   1 15249.5 1231.97  13
  -7   2   1 15866.3 1195.10  12
  -7   2   1 14900.9 1185.46  11
  -7   2   0 24113.5 1483.63  18
  -7   2   0 26083.0 1669.90  13
  -7   2   0 26366.2 1552.87  12
  -7   2   0 23482.5 1572.02  11
  -7   2  -1 17867.6 1260.94  18
  -7   2  -1 17094.4 1322.17  13
  -7   2  -1 16361.1 1232.71  12
  -7   2  -1 16484.2 1285.12  11
  -7   2  -2 807.007 261.336  18
  -7   2  -2 1399.05 381.931  13
  -7   2  -3 18252.1 1311.68  18
  -7   2  -3 18411.9 1324.26  13
  -7   2  -4 180.560 169.528  18
  -7   2  -4-43.0265 142.189  13
  -7   2  -5 3582.63 506.676  18
  -7   2  -5 3565.18 468.659  13
  -7   2  -6 1437.63 281.564  18
  -7   2  -6 838.702 179.230  13
  -7   2  -7 658.262 164.304  18
  -7   1  11 12.1147 102.693  16
  -7   1  10 1932.82 339.233  16
  -7   1  10 1001.93 247.530  12
  -7   1   9 9991.40 880.687  16
  -7   1   8 1045.90 314.257  16
  -7   1   7 7791.83 880.323  16
  -7   1   7 7565.18 825.925  15
  -7   1   6 8805.11 936.794  16
  -7   1   5 269.067 192.575  16
  -7   1   5 88.5358 118.435  13
  -7   1   4 22594.3 1562.26  16
  -7   1   4 21485.8 1434.56  13
  -7   1   4 21160.8 1500.98  12
  -7   1   3 12306.7 1140.14  16
  -7   1   3 12549.7 1089.46  13
  -7   1   3 12841.6 1134.46  12
  -7   1   2 3806.65 558.581  18
  -7   1   2 4887.96 666.001  13
  -7   1   2 5102.44 706.016  12
  -7   1   2 3516.40 512.499  11
  -7   1   1 308.461 172.683  18
  -7   1   1 204.331 224.089  13
  -7   1   1 492.126 362.619  12
  -7   1   1 395.841 169.725  11
  -7   1   0 19987.9 1415.84  18
  -7   1   0 20585.1 1473.85  13
  -7   1   0 20847.7 1416.44  12
  -7   1  -1-148.172 244.348  18
  -7   1  -1 84.2941 211.265  13
  -7   1  -2 21970.5 1494.41  18
  -7   1  -2 20699.6 1447.66  13
  -7   1  -3 239.809 254.418  18
  -7   1  -3-215.394 213.812  13
  -7   1  -4 30873.7 1720.02  18
  -7   1  -4 28742.8 1568.16  13
  -7   1  -5 3903.29 520.196  18
  -7   1  -5 3262.36 402.608  13
  -7   1  -6 17243.6 1016.42  18
  -7   1  -7 716.077 152.182  18
  -7   0  11 212.614 133.339  16
  -7   0  10 1414.00 322.309  16
  -7   0   9 127.851 250.799  16
  -7   0   9-270.929 221.300  12
  -7   0   8 4933.29 685.185  16
  -7   0   8 5093.43 597.901  12
  -7   0   7 9119.60 927.971  16
  -7   0   7 9290.50 901.332  12
  -7   0   6 18110.0 1372.50  16
  -7   0   6 15375.3 1138.74  13
  -7   0   6 17266.8 1285.98  12
  -7   0   5 418.454 232.218  19
  -7   0   5-38.2547 219.264  16
  -7   0   5-214.280 281.333  13
  -7   0   5 348.196 231.931  12
  -7   0   4 1639.42 390.933  19
  -7   0   4 1628.24 452.081  16
  -7   0   4 1530.26 406.565  13
  -7   0   4 1083.64 283.583  12
  -7   0   3 37057.3 2069.73  13
  -7   0   3 35310.5 2011.07  12
  -7   0   2 72.0576 160.740  18
  -7   0   2 88.2848 227.840  13
  -7   0   2 130.040 265.047  12
  -7   0   1 592.290 274.277  18
  -7   0   1 939.193 310.354  13
  -7   0   1 1489.07 498.194  12
  -7   0   0 26765.4 1691.30  18
  -7   0   0 25016.6 1655.49  13
  -7   0   0 25744.4 1828.39  12
  -7   0  -1 18025.0 1359.07  18
  -7   0  -1 17975.2 1337.48  13
  -7   0  -2 80.3311 244.268  18
  -7   0  -2-5.58849 192.700  13
  -7   0  -3 29845.6 1704.71  18
  -7   0  -3 25300.5 1491.81  13
  -7   0  -4 1678.10 376.613  18
  -7   0  -4 1374.33 268.946  13
  -7   0  -5 8049.68 699.024  18
  -7   0  -6-111.750 116.026  18
  -7  -1  11 729.171 177.064  16
  -7  -1  10 881.686 257.910  16
  -7  -1   9 10632.6 887.080  16
  -7  -1   8 857.604 235.116   9
  -7  -1   8 1230.30 359.207  16
  -7  -1   8 704.273 209.139  12
  -7  -1   7 5840.00 635.620  19
  -7  -1   7 6422.40 767.404  16
  -7  -1   7 6153.65 675.716  12
  -7  -1   6 19601.1 1309.16  19
  -7  -1   6 21021.4 1451.10  16
  -7  -1   6 20477.0 1372.66  13
  -7  -1   6 19675.0 1349.99  12
  -7  -1   5 18784.1 1317.83  19
  -7  -1   5 19843.4 1424.41  16
  -7  -1   5 18837.1 1374.29  13
  -7  -1   5 18548.3 1341.76  12
  -7  -1   4 752.092 288.812  19
  -7  -1   4 570.357 252.277  13
  -7  -1   4 947.426 357.652  12
  -7  -1   3 4227.05 640.815  13
  -7  -1   3 4482.16 687.334  12
  -7  -1   2 1196.71 367.843  13
  -7  -1   2 1643.23 737.534  12
  -7  -1   1 2842.71 528.479  18
  -7  -1   1 2239.70 451.230  13
  -7  -1   0 12531.9 1112.28  18
  -7  -1   0 12113.0 1081.55  13
  -7  -1  -1 12613.7 1094.54  18
  -7  -1  -1 10232.3 943.499  13
  -7  -1  -2 2078.98 447.416  18
  -7  -1  -2 1737.32 377.938  13
  -7  -1  -3 3078.39 482.675  18
  -7  -1  -3 2282.50 335.292  13
  -7  -1  -4 15907.2 1035.74  18
  -7  -1  -5-91.6657 100.911  18
  -7  -2  10 3491.68 375.349  16
  -7  -2   9-301.677 171.360   9
  -7  -2   9-171.704 143.521  16
  -7  -2   8 21592.9 1215.88   9
  -7  -2   8 24904.5 1337.46  19
  -7  -2   8 26484.0 1422.00  16
  -7  -2   7 1956.51 372.684  19
  -7  -2   7 1872.61 415.502  16
  -7  -2   7 2092.94 510.703  12
  -7  -2   6 7543.12 810.683  19
  -7  -2   6 6749.28 803.890  12
  -7  -2   5 110.025 172.243  19
  -7  -2   5 713.453 556.048  12
  -7  -2   4 5644.03 715.244  19
  -7  -2   4 5187.79 705.214  13
  -7  -2   4 5030.21 978.378  12
  -7  -2   3 10374.1 985.767  19
  -7  -2   3 8830.55 916.080  13
  -7  -2   2 782.110 265.174   7
  -7  -2   2 823.772 290.927  13
  -7  -2   1 8152.55 782.150   7
  -7  -2   1 10023.0 939.069  13
  -7  -2   0 8261.42 839.258  18
  -7  -2   0 6802.95 675.440   7
  -7  -2   0 7355.04 768.367  13
  -7  -2  -1 6735.99 755.388  18
  -7  -2  -1 6694.44 673.528  13
  -7  -2  -2 3094.97 470.775  18
  -7  -2  -3 6195.76 601.999  18
  -7  -3   9 617.430 141.289   9
  -7  -3   8 111.675 110.360   9
  -7  -3   8 197.759 178.249  19
  -7  -3   7 17245.8 1141.08  19
  -7  -3   6 769.409 283.520  19
  -7  -3   5 13083.5 1059.49  19
  -7  -3   4 16.4141 232.389  19
  -7  -3   3-68.2037 215.478  19
  -7  -3   2 26.1764 160.292  19
  -7  -3   2 87.7824 162.928   7
  -7  -3   1 5089.13 625.640  19
  -7  -3   1 4214.56 530.404   7
  -7  -3   0 371.822 223.871  19
  -7  -3   0-104.335 151.047   7
  -7  -3  -1 4638.76 526.583  19
  -7  -3  -1 3940.56 443.334   7
  -7  -3  -2 117.648 107.548  19
  -7  -3  -2 104.617 86.6265   7
  -7  -4   7-22.5307 122.924  19
  -7  -4   6 2533.13 382.135  19
  -7  -4   5 468.666 171.609  19
  -7  -4   4 15876.2 1049.04  19
  -7  -4   3 3994.84 495.636  19
  -7  -4   2 783.816 214.800  19
  -7  -4   1 3166.71 396.254  19
  -7  -4   0 11290.7 692.169  19
  -8   6   4 6488.75 471.353  11
  -8   6   3 3600.70 379.277  11
  -8   6   2 8549.31 636.320  11
  -8   6   1 1749.54 295.864  11
  -8   6   0 10553.3 726.484  11
  -8   6  -1 265.526 140.616  11
  -8   5   5 1004.14 178.359  12
  -8   5   5 2651.44 320.653  11
  -8   5   4-154.810 133.048  12
  -8   5   4-31.2909 150.133  11
  -8   5   3 6431.25 611.019  11
  -8   5   2-28.5687 153.659  11
  -8   5   1 5927.09 624.495  11
  -8   5   0 1931.12 313.406  13
  -8   5   0 1665.18 341.560  11
  -8   5  -1 7360.51 627.285  13
  -8   5  -1 8205.43 718.918  11
  -8   5  -2 9517.05 707.729  13
  -8   5  -3 6764.03 553.031  13
  -8   5  -4 2276.76 282.185  13
  -8   4   7 1142.69 239.242  12
  -8   4   6 733.008 206.889  12
  -8   4   5 2618.40 391.678  12
  -8   4   5 2591.20 337.296  11
  -8   4   4 2452.35 370.110  12
  -8   4   4 3122.14 429.391  11
  -8   4   3 380.191 200.340  12
  -8   4   3 469.507 229.508  11
  -8   4   2 10163.6 761.387  13
  -8   4   2 9961.84 754.550  12
  -8   4   1 2002.25 347.311  13
  -8   4   1 1964.96 375.014  11
  -8   4   0 23168.5 1348.51  13
  -8   4   0 24176.6 1419.28  11
  -8   4  -1 1069.45 268.011  13
  -8   4  -1 1062.95 283.157  11
  -8   4  -2 25753.8 1400.24  13
  -8   4  -3 2062.84 338.391  13
  -8   4  -4 11612.2 751.991  13
  -8   3   8-63.8721 125.971  12
  -8   3   7 5004.48 535.739  12
  -8   3   6 3460.24 502.182  12
  -8   3   5 17573.9 1178.30  12
  -8   3   4 11537.8 929.613  12
  -8   3   4 9525.17 768.888  11
  -8   3   3 13158.4 936.113  13
  -8   3   3 15189.7 1067.96  12
  -8   3   3 13668.1 991.414  11
  -8   3   2 28299.9 1560.16  13
  -8   3   2 29950.1 1569.82  12
  -8   3   2 28186.5 1574.96  11
  -8   3   1 1976.23 392.944  13
  -8   3   1 1831.81 342.772  12
  -8   3   1 1385.52 345.860  11
  -8   3   0 3418.75 519.177  13
  -8   3   0 3400.80 511.608  11
  -8   3  -1 3392.43 503.154  13
  -8   3  -2-74.7895 168.453  13
  -8   3  -3 170.500 114.682  18
  -8   3  -3 150.108 131.390  13
  -8   3  -4 2502.89 295.593  18
  -8   3  -4 3556.93 406.577  13
  -8   2   9 7442.12 544.793  12
  -8   2   8-210.063 149.258  16
  -8   2   8-359.741 180.565  12
  -8   2   7 1572.60 339.037  16
  -8   2   7 2108.21 388.158  12
  -8   2   6 398.506 210.950  16
  -8   2   6 199.364 219.564  12
  -8   2   5 6573.36 727.502  12
  -8   2   4 790.031 225.132  13
  -8   2   4 655.882 295.241  12
  -8   2   3 1467.29 334.283  13
  -8   2   3 1371.96 350.059  12
  -8   2   3 1317.32 290.285  11
  -8   2   2 13144.7 1050.23  13
  -8   2   2 13396.6 1059.99  12
  -8   2   2 12949.3 967.683  11
  -8   2   1 4312.21 606.763  13
  -8   2   1 4828.29 647.586  12
  -8   2   1 4125.29 553.502  11
  -8   2   0 9317.58 879.187  13
  -8   2   0 9559.17 984.135  12
  -8   2  -1 4739.12 536.109  18
  -8   2  -1 4282.23 585.398  13
  -8   2  -2 14554.1 983.357  18
  -8   2  -2 16114.5 1105.47  13
  -8   2  -3 313.301 140.539  18
  -8   2  -3-133.811 165.493  13
  -8   2  -4 2598.34 341.976  18
  -8   2  -4 2892.22 355.843  13
  -8   1   9 1351.41 259.196  16
  -8   1   9 811.267 190.247  12
  -8   1   8 1277.73 309.798  16
  -8   1   8 1066.14 242.025  12
  -8   1   7-45.2475 178.221  16
  -8   1   7-100.456 213.101  12
  -8   1   6 1204.89 351.040  16
  -8   1   6 1523.37 329.142  12
  -8   1   5 3127.47 444.101  13
  -8   1   5 3713.33 562.974  12
  -8   1   4 3328.84 504.212  13
  -8   1   4 3550.44 503.556  12
  -8   1   3 8439.83 836.494  13
  -8   1   3 7861.50 819.635  12
  -8   1   2 18959.4 1320.06  13
  -8   1   2 18938.4 1328.07  12
  -8   1   1 12306.6 956.061  18
  -8   1   1 14512.9 1122.11  13
  -8   1   1 12741.8 1183.93  12
  -8   1   0 8349.30 793.101  18
  -8   1   0 9027.58 866.766  13
  -8   1  -1 15050.6 1052.23  18
  -8   1  -1 15266.1 1112.62  13
  -8   1  -2 8985.91 775.266  18
  -8   1  -2 9898.01 825.036  13
  -8   1  -3 1784.26 323.341  18
  -8   1  -3 2070.23 331.824  13
  -8   1  -4 2492.27 319.679  18
  -8   1  -4 1644.73 217.258  13
  -8   0   9 2626.56 353.272  16
  -8   0   9 1828.38 254.056  12
  -8   0   8 582.975 208.995  16
  -8   0   8 891.650 207.018  12
  -8   0   7 2136.96 388.206  16
  -8   0   7 2128.03 380.635  12
  -8   0   6 2136.82 389.817  12
  -8   0   5 21219.4 1302.83  13
  -8   0   5 20647.1 1346.37  12
  -8   0   4 1107.98 263.935  19
  -8   0   4 714.309 263.066  13
  -8   0   4 1637.73 412.985  12
  -8   0   3 7607.14 724.510  19
  -8   0   3 7818.77 803.168  13
  -8   0   3 7439.80 854.325  12
  -8   0   2 1220.43 317.838  13
  -8   0   2 1954.51 765.826  12
  -8   0   1 14065.4 1088.27  13
  -8   0   0 1452.62 316.955  18
  -8   0   0 1180.26 322.559  13
  -8   0  -1 2812.76 435.165  18
  -8   0  -1 2893.45 445.918  13
  -8   0  -2 11570.9 847.638  18
  -8   0  -2 10310.8 784.668  13
  -8   0  -3 1256.21 245.030  18
  -8   0  -3 880.837 177.978  13
  -8   0  -4 6527.54 486.224  18
  -8  -1   8 4979.85 493.826  12
  -8  -1   7 3783.01 525.455  12
  -8  -1   6 30.4852 119.532  19
  -8  -1   6 628.334 434.197  12
  -8  -1   5 1772.88 342.676  19
  -8  -1   5 1588.30 586.631  12
  -8  -1   4 7061.56 692.493  19
  -8  -1   4 8734.57 810.448  13
  -8  -1   4 9447.92 1091.24  12
  -8  -1   3 88.6433 145.200  19
  -8  -1   3 113.806 157.219  13
  -8  -1   2 17399.7 1178.13  19
  -8  -1   2 18803.9 1244.54  13
  -8  -1   1 1608.25 348.220  13
  -8  -1   0 11300.7 864.177  13
  -8  -1  -1 1503.28 271.409  13
  -8  -1  -2 5496.97 428.178  13
  -8  -2   7 6547.54 503.823  19
  -8  -2   6 1956.72 308.137  19
  -8  -2   5 5505.48 558.022  19
  -8  -2   4 4506.59 538.746  19
  -8  -2   3 3535.38 477.916  19
  -8  -2   2 2451.76 394.928  19
  -8  -2   1 12495.7 877.997  19
  -8  -2   0 346.003 146.592  19
  -8  -2  -1 99.3521 93.9983  19
  -8  -3   6 241.054 131.025  19
  -8  -3   5 372.541 138.576  19
  -8  -3   4 1790.75 292.311  19
  -8  -3   3 5906.10 525.306  19
  -8  -3   2 2421.10 311.480  19
  -8  -3   1 923.203 188.005  19
  -9   4   0 1343.58 206.234  13
  -9   3   6 143.569 93.7756  12
  -9   3   5 4947.40 437.815  12
  -9   3   4 535.899 159.755  12
  -9   3   3 727.483 280.531  12
  -9   3   2-222.945 121.299  13
  -9   3   1 543.099 171.870  13
  -9   3   0 5184.16 476.896  13
  -9   3  -1 607.322 165.011  13
  -9   3  -2 6729.69 468.710  13
  -9   2   7 292.609 127.395  12
  -9   2   6 4232.01 419.547  12
  -9   2   5 5145.88 498.981  12
  -9   2   4 4147.36 486.343  12
  -9   2   3 46.9223 122.175  13
  -9   2   3-316.124 341.944  12
  -9   2   2 8575.36 663.445  13
  -9   2   1 1613.48 284.620  13
  -9   2   0 13968.8 859.398  13
  -9   2  -1 11.4416 89.3127  13
  -9   2  -2 890.970 162.310  13
  -9   1   7 4419.59 417.585  12
  -9   1   6 227.587 215.730  12
  -9   1   5 1310.14 359.109  12
  -9   1   4 476.841 148.008  13
  -9   1   4 126.361 391.941  12
  -9   1   3 7495.67 612.265  13
  -9   1   2-194.380 159.499  13
  -9   1   1 5039.16 505.223  13
  -9   1   0 8449.44 625.834  13
  -9   1  -1 9344.80 603.635  13
  -9   0   3 224.179 150.353  13
  -9   0   2 5237.19 418.359  19
  -9   0   2 8044.19 607.623  13
  -9   0   1-61.3030 60.6852  19
  -9   0   1-248.979 134.790  13
  -9   0   0 12423.6 707.732  13
   0   0   0    0.00    0.00   0
TITL rweC130b_ABS in P-1
REM P-1 (#2 in standard setting)
CELL 1.54184   7.658084   7.668581  11.343455 100.3689 101.3494 101.0965
ZERR    4.00   0.000478   0.000556   0.000794   0.0060   0.0057   0.0057
LATT  1
SFAC C H N F Cu
UNIT 52.00 36.00 12.00 8.00 4.00
TREF
HKLF 4
END
;
_shelx_hkl_checksum              77476
loop_
_space_group_symop_operation_xyz
'x, y, z'
'-x, -y, -z'
loop_
_atom_site_label
_atom_site_type_symbol
_atom_site_fract_x
_atom_site_fract_y
_atom_site_fract_z
_atom_site_U_iso_or_equiv
_atom_site_adp_type
_atom_site_occupancy
_atom_site_site_symmetry_order
_atom_site_calc_flag
_atom_site_refinement_flags_posn
_atom_site_refinement_flags_adp
Cu1 Cu 0.16724(5) 0.21204(5) 0.26222(4) 0.02359(15) Uani 1 1 d . .
F1 F -0.2585(2) -0.7001(2) -0.05308(15) 0.0247(3) Uani 1 1 d . .
F2 F -0.6024(2) -0.8075(2) -0.18129(14) 0.0252(3) Uani 1 1 d . .
N2 N 0.0589(3) -0.6091(3) 0.2045(2) 0.0283(5) Uani 1 1 d . .
N1 N 0.0347(3) -0.0416(3) 0.2164(2) 0.0298(5) Uani 1 1 d . .
N3 N 0.4108(3) 0.2330(3) 0.3735(2) 0.0206(4) Uani 1 1 d . .
C11 C 0.4339(4) 0.2597(4) 0.4966(3) 0.0243(6) Uani 1 1 d . .
C7 C 0.5506(4) 0.2002(3) 0.3221(3) 0.0233(5) Uani 1 1 d . .
C5 C -0.3754(3) -0.5972(4) -0.0244(2) 0.0194(5) Uani 1 1 d . .
C3 C -0.1212(3) -0.3796(4) 0.1426(2) 0.0216(5) Uani 1 1 d . .
C1 C -0.0345(3) -0.1944(4) 0.1834(3) 0.0229(5) Uani 1 1 d . .
C2 C -0.0214(3) -0.5052(3) 0.1754(3) 0.0225(5) Uani 1 1 d . .
C6 C -0.5551(3) -0.6542(3) -0.0902(2) 0.0190(5) Uani 1 1 d . .
C4 C -0.3103(3) -0.4394(3) 0.0695(2) 0.0191(5) Uani 1 1 d . .
C8 C 0.7146(4) 0.1910(4) 0.3940(3) 0.0293(6) Uani 1 1 d . .
H8 H 0.8108 0.1664 0.3568 0.035 Uiso 1 1 calc R U
C9 C 0.7384(4) 0.2179(4) 0.5206(3) 0.0334(7) Uani 1 1 d . .
H9 H 0.8505 0.2111 0.5710 0.040 Uiso 1 1 calc R U
C12 C 0.5140(4) 0.1747(4) 0.1853(3) 0.0297(6) Uani 1 1 d . .
H12A H 0.4173 0.0639 0.1460 0.045 Uiso 1 1 calc R U
H12B H 0.6261 0.1632 0.1584 0.045 Uiso 1 1 calc R U
H12C H 0.4746 0.2803 0.1615 0.045 Uiso 1 1 calc R U
C10 C 0.5975(4) 0.2547(4) 0.5726(3) 0.0307(6) Uani 1 1 d . .
H10 H 0.6124 0.2763 0.6596 0.037 Uiso 1 1 calc R U
C13 C 0.2731(4) 0.2958(4) 0.5462(3) 0.0328(7) Uani 1 1 d . .
H13A H 0.2191 0.3811 0.5046 0.049 Uiso 1 1 calc R U
H13B H 0.3142 0.3489 0.6351 0.049 Uiso 1 1 calc R U
H13C H 0.1812 0.1810 0.5313 0.049 Uiso 1 1 calc R U
loop_
_atom_site_aniso_label
_atom_site_aniso_U_11
_atom_site_aniso_U_22
_atom_site_aniso_U_33
_atom_site_aniso_U_23
_atom_site_aniso_U_13
_atom_site_aniso_U_12
Cu1 0.0202(2) 0.0184(2) 0.0311(3) 0.00612(16) 0.00038(16) 0.00731(15)
F1 0.0192(7) 0.0220(8) 0.0339(9) 0.0025(6) 0.0057(6) 0.0117(6)
F2 0.0244(7) 0.0192(8) 0.0274(8) -0.0036(6) 0.0010(6) 0.0075(6)
N2 0.0214(11) 0.0180(11) 0.0393(14) 0.0059(10) -0.0059(10) 0.0036(9)
N1 0.0223(11) 0.0189(12) 0.0435(15) 0.0060(10) -0.0034(10) 0.0064(9)
N3 0.0164(10) 0.0186(10) 0.0263(11) 0.0071(9) 0.0011(9) 0.0050(8)
C11 0.0218(12) 0.0220(13) 0.0288(14) 0.0056(11) 0.0044(11) 0.0059(10)
C7 0.0233(13) 0.0168(12) 0.0291(14) 0.0059(11) 0.0044(11) 0.0043(10)
C5 0.0186(12) 0.0200(12) 0.0224(12) 0.0060(10) 0.0057(10) 0.0095(10)
C3 0.0181(12) 0.0192(12) 0.0272(13) 0.0069(10) 0.0018(10) 0.0061(10)
C1 0.0178(12) 0.0215(14) 0.0291(14) 0.0071(11) 0.0005(10) 0.0078(10)
C2 0.0165(12) 0.0179(13) 0.0290(14) 0.0046(11) -0.0013(10) 0.0018(10)
C6 0.0195(12) 0.0148(12) 0.0227(13) 0.0029(9) 0.0040(10) 0.0062(9)
C4 0.0185(11) 0.0158(12) 0.0243(13) 0.0086(10) 0.0040(10) 0.0047(9)
C8 0.0233(13) 0.0303(15) 0.0363(16) 0.0092(12) 0.0080(12) 0.0086(11)
C9 0.0206(13) 0.0408(17) 0.0364(16) 0.0092(14) -0.0007(12) 0.0090(12)
C12 0.0333(15) 0.0305(15) 0.0296(15) 0.0103(12) 0.0096(12) 0.0122(12)
C10 0.0281(14) 0.0362(16) 0.0268(14) 0.0080(12) 0.0009(12) 0.0099(12)
C13 0.0315(15) 0.0396(17) 0.0324(16) 0.0100(13) 0.0087(12) 0.0180(13)
loop_
_atom_type_symbol
_atom_type_description
_atom_type_scat_dispersion_real
_atom_type_scat_dispersion_imag
_atom_type_scat_source
C C 0.0181 0.0091 'International Tables Vol C Tables 4.2.6.8 and 6.1.1.4'
H H 0.0000 0.0000 'International Tables Vol C Tables 4.2.6.8 and 6.1.1.4'
N N 0.0311 0.0180 'International Tables Vol C Tables 4.2.6.8 and 6.1.1.4'
Cu Cu -1.9646 0.5888 'International Tables Vol C Tables 4.2.6.8 and 6.1.1.4'
F F 0.0727 0.0534 'International Tables Vol C Tables 4.2.6.8 and 6.1.1.4'
loop_
_geom_angle_atom_site_label_1
_geom_angle_atom_site_label_2
_geom_angle_atom_site_label_3
_geom_angle
_geom_angle_site_symmetry_1
_geom_angle_site_symmetry_3
N2 Cu1 N1 120.38(10) 1_565 .
N2 Cu1 N3 131.02(9) 1_565 .
N1 Cu1 N3 108.58(9) . .
C2 N2 Cu1 172.9(2) . 1_545
C1 N1 Cu1 174.6(2) . .
C11 N3 C7 119.5(2) . .
C11 N3 Cu1 121.48(17) . .
C7 N3 Cu1 118.67(18) . .
N3 C11 C10 121.4(2) . .
N3 C11 C13 116.2(2) . .
C10 C11 C13 122.3(3) . .
N3 C7 C8 121.0(3) . .
N3 C7 C12 115.9(2) . .
C8 C7 C12 123.1(2) . .
F1 C5 C6 117.8(2) . .
F1 C5 C4 119.3(2) . .
C6 C5 C4 122.9(2) . .
C1 C3 C2 117.7(2) . .
C1 C3 C4 121.0(2) . .
C2 C3 C4 121.3(2) . .
N1 C1 C3 179.2(3) . .
N2 C2 C3 178.4(3) . .
F2 C6 C5 117.8(2) . .
F2 C6 C4 118.6(2) . 2_445
C5 C6 C4 123.5(2) . 2_445
C6 C4 C5 113.6(2) 2_445 .
C6 C4 C3 122.7(2) 2_445 .
C5 C4 C3 123.6(2) . .
C7 C8 C9 119.6(3) . .
C10 C9 C8 119.2(3) . .
C9 C10 C11 119.2(3) . .
loop_
_geom_bond_atom_site_label_1
_geom_bond_atom_site_label_2
_geom_bond_distance
_geom_bond_site_symmetry_2
Cu1 N2 1.884(2) 1_565
Cu1 N1 1.937(2) .
Cu1 N3 1.996(2) .
F1 C5 1.351(3) .
F2 C6 1.354(3) .
N2 C2 1.151(4) .
N2 Cu1 1.884(2) 1_545
N1 C1 1.149(4) .
N3 C11 1.346(4) .
N3 C7 1.359(3) .
C11 C10 1.386(4) .
C11 C13 1.502(4) .
C7 C8 1.378(4) .
C7 C12 1.492(4) .
C5 C6 1.374(4) .
C5 C4 1.394(4) .
C3 C1 1.397(4) .
C3 C2 1.396(4) .
C3 C4 1.460(3) .
C6 C4 1.397(3) 2_445
C4 C6 1.397(3) 2_445
C8 C9 1.384(4) .
C9 C10 1.379(4) .
loop_
_geom_torsion_atom_site_label_1
_geom_torsion_atom_site_label_2
_geom_torsion_atom_site_label_3
_geom_torsion_atom_site_label_4
_geom_torsion
_geom_torsion_site_symmetry_4
C2 C3 C4 C5 -35.7(4) .
C1 C3 C4 C6 -37.1(4) 2_445
